# generated using pymatgen
data_CaYb11(CuGe)12
_symmetry_space_group_name_H-M   'P 1'
_cell_length_a   4.33165300
_cell_length_b   7.37858901
_cell_length_c   20.82743904
_cell_angle_alpha   90.00677400
_cell_angle_beta   90.00000000
_cell_angle_gamma   90.00000000
_symmetry_Int_Tables_number   1
_chemical_formula_structural   CaYb11(CuGe)12
_chemical_formula_sum   'Ca1 Yb11 Cu12 Ge12'
_cell_volume   665.67592222
_cell_formula_units_Z   1
loop_
 _symmetry_equiv_pos_site_id
 _symmetry_equiv_pos_as_xyz
  1  'x, y, z'
loop_
 _atom_site_type_symbol
 _atom_site_label
 _atom_site_symmetry_multiplicity
 _atom_site_fract_x
 _atom_site_fract_y
 _atom_site_fract_z
 _atom_site_occupancy
  Ca  Ca0  1  0.250000  0.794273  0.833080  1
  Yb  Yb1  1  0.250000  0.716994  0.002467  1
  Yb  Yb2  1  0.750000  0.282983  0.998397  1
  Yb  Yb3  1  0.750000  0.217414  0.497905  1
  Yb  Yb4  1  0.250000  0.782442  0.502028  1
  Yb  Yb5  1  0.250000  0.790167  0.166445  1
  Yb  Yb6  1  0.750000  0.210060  0.833600  1
  Yb  Yb7  1  0.750000  0.290292  0.333574  1
  Yb  Yb8  1  0.250000  0.709380  0.666034  1
  Yb  Yb9  1  0.250000  0.708720  0.333081  1
  Yb  Yb10  1  0.750000  0.291675  0.666473  1
  Yb  Yb11  1  0.750000  0.208821  0.166937  1
  Cu  Cu12  1  0.250000  0.415882  0.096638  1
  Cu  Cu13  1  0.750000  0.580939  0.905068  1
  Cu  Cu14  1  0.750000  0.915892  0.403474  1
  Cu  Cu15  1  0.250000  0.084143  0.596582  1
  Cu  Cu16  1  0.250000  0.413335  0.235818  1
  Cu  Cu17  1  0.750000  0.583109  0.762606  1
  Cu  Cu18  1  0.750000  0.913335  0.264151  1
  Cu  Cu19  1  0.250000  0.089543  0.734141  1
  Cu  Cu20  1  0.250000  0.418541  0.436158  1
  Cu  Cu21  1  0.750000  0.581349  0.563760  1
  Cu  Cu22  1  0.750000  0.918280  0.063981  1
  Cu  Cu23  1  0.250000  0.083418  0.937549  1
  Ge  Ge24  1  0.250000  0.088577  0.068311  1
  Ge  Ge25  1  0.750000  0.911614  0.932866  1
  Ge  Ge26  1  0.750000  0.588828  0.431660  1
  Ge  Ge27  1  0.250000  0.411103  0.568246  1
  Ge  Ge28  1  0.250000  0.080897  0.269186  1
  Ge  Ge29  1  0.750000  0.920003  0.729914  1
  Ge  Ge30  1  0.750000  0.580994  0.230743  1
  Ge  Ge31  1  0.250000  0.418209  0.768962  1
  Ge  Ge32  1  0.250000  0.084917  0.398584  1
  Ge  Ge33  1  0.750000  0.914952  0.601141  1
  Ge  Ge34  1  0.750000  0.584914  0.101456  1
  Ge  Ge35  1  0.250000  0.414005  0.898981  1
