# generated using pymatgen
data_Nb3Si3MoRu2
_symmetry_space_group_name_H-M   'P 1'
_cell_length_a   7.53799746
_cell_length_b   7.53799663
_cell_length_c   7.53799789
_cell_angle_alpha   126.84588721
_cell_angle_beta   124.16982962
_cell_angle_gamma   80.71691103
_symmetry_Int_Tables_number   1
_chemical_formula_structural   Nb3Si3MoRu2
_chemical_formula_sum   'Nb6 Si6 Mo2 Ru4'
_cell_volume   273.45196022
_cell_formula_units_Z   2
loop_
 _symmetry_equiv_pos_site_id
 _symmetry_equiv_pos_as_xyz
  1  'x, y, z'
loop_
 _atom_site_type_symbol
 _atom_site_label
 _atom_site_symmetry_multiplicity
 _atom_site_fract_x
 _atom_site_fract_y
 _atom_site_fract_z
 _atom_site_occupancy
  Nb  Nb0  1  0.557783  0.094443  0.036661  1
  Nb  Nb1  1  0.442217  0.478878  0.536661  1
  Nb  Nb2  1  0.961655  0.490590  0.028935  1
  Nb  Nb3  1  0.038345  0.067280  0.528935  1
  Nb  Nb4  1  0.752658  0.920301  0.667643  1
  Nb  Nb5  1  0.247342  0.914985  0.167643  1
  Si  Si6  1  0.780093  0.551057  0.270964  1
  Si  Si7  1  0.219907  0.490871  0.770964  1
  Si  Si8  1  0.334293  0.818501  0.493074  1
  Si  Si9  1  0.665707  0.158780  0.484207  1
  Si  Si10  1  0.825427  0.818501  0.984207  1
  Si  Si11  1  0.174573  0.158780  0.993074  1
  Mo  Mo12  1  0.500000  0.248875  0.748875  1
  Mo  Mo13  1  0.000000  0.248875  0.248875  1
  Ru  Ru14  1  0.161730  0.746603  0.655868  1
  Ru  Ru15  1  0.838270  0.494138  0.584873  1
  Ru  Ru16  1  0.590735  0.746603  0.084873  1
  Ru  Ru17  1  0.409265  0.494138  0.155868  1
