# generated using pymatgen
data_Sc2GaNi3
_symmetry_space_group_name_H-M   'P 1'
_cell_length_a   5.02482400
_cell_length_b   5.02482380
_cell_length_c   7.91937800
_cell_angle_alpha   90.00000000
_cell_angle_beta   90.00000000
_cell_angle_gamma   120.00000133
_symmetry_Int_Tables_number   1
_chemical_formula_structural   Sc2GaNi3
_chemical_formula_sum   'Sc4 Ga2 Ni6'
_cell_volume   173.16630519
_cell_formula_units_Z   2
loop_
 _symmetry_equiv_pos_site_id
 _symmetry_equiv_pos_as_xyz
  1  'x, y, z'
loop_
 _atom_site_type_symbol
 _atom_site_label
 _atom_site_symmetry_multiplicity
 _atom_site_fract_x
 _atom_site_fract_y
 _atom_site_fract_z
 _atom_site_occupancy
  Sc  Sc0  1  0.333333  0.666667  0.440821  1
  Sc  Sc1  1  0.666667  0.333333  0.559179  1
  Sc  Sc2  1  0.666667  0.333333  0.940821  1
  Sc  Sc3  1  0.333333  0.666667  0.059179  1
  Ga  Ga4  1  0.000000  0.000000  0.500000  1
  Ga  Ga5  1  0.000000  0.000000  0.000000  1
  Ni  Ni6  1  0.829432  0.170568  0.250000  1
  Ni  Ni7  1  0.829432  0.658865  0.250000  1
  Ni  Ni8  1  0.341135  0.170568  0.250000  1
  Ni  Ni9  1  0.170568  0.829432  0.750000  1
  Ni  Ni10  1  0.170568  0.341135  0.750000  1
  Ni  Ni11  1  0.658865  0.829432  0.750000  1
