# generated using pymatgen
data_Pr9Ho(Sn3Br)2
_symmetry_space_group_name_H-M   'P 1'
_cell_length_a   9.56285800
_cell_length_b   9.56285853
_cell_length_c   6.85692000
_cell_angle_alpha   90.00000000
_cell_angle_beta   90.00000000
_cell_angle_gamma   120.00000507
_symmetry_Int_Tables_number   1
_chemical_formula_structural   Pr9Ho(Sn3Br)2
_chemical_formula_sum   'Pr9 Ho1 Sn6 Br2'
_cell_volume   543.04413826
_cell_formula_units_Z   1
loop_
 _symmetry_equiv_pos_site_id
 _symmetry_equiv_pos_as_xyz
  1  'x, y, z'
loop_
 _atom_site_type_symbol
 _atom_site_label
 _atom_site_symmetry_multiplicity
 _atom_site_fract_x
 _atom_site_fract_y
 _atom_site_fract_z
 _atom_site_occupancy
  Pr  Pr0  1  0.267480  0.267971  0.749269  1
  Pr  Pr1  1  0.000491  0.732520  0.749269  1
  Pr  Pr2  1  0.732029  0.999509  0.749269  1
  Pr  Pr3  1  0.000491  0.267971  0.250731  1
  Pr  Pr4  1  0.732029  0.732520  0.250731  1
  Pr  Pr5  1  0.666667  0.333333  0.500000  1
  Pr  Pr6  1  0.267480  0.999509  0.250731  1
  Pr  Pr7  1  0.333333  0.666667  0.000000  1
  Pr  Pr8  1  0.666667  0.333333  0.000000  1
  Ho  Ho9  1  0.333333  0.666667  0.500000  1
  Sn  Sn10  1  0.611025  0.997182  0.252177  1
  Sn  Sn11  1  0.002818  0.388975  0.747823  1
  Sn  Sn12  1  0.386157  0.997182  0.747823  1
  Sn  Sn13  1  0.611025  0.613843  0.747823  1
  Sn  Sn14  1  0.002818  0.613843  0.252177  1
  Sn  Sn15  1  0.386157  0.388975  0.252177  1
  Br  Br16  1  0.000000  0.000000  0.000000  1
  Br  Br17  1  0.000000  0.000000  0.500000  1
