# generated using pymatgen
data_YTmU2(ReB6)2
_symmetry_space_group_name_H-M   'P 1'
_cell_length_a   3.62990700
_cell_length_b   9.28923417
_cell_length_c   11.40917043
_cell_angle_alpha   89.94257281
_cell_angle_beta   90.00000000
_cell_angle_gamma   90.00000000
_symmetry_Int_Tables_number   1
_chemical_formula_structural   YTmU2(ReB6)2
_chemical_formula_sum   'Y2 Tm2 U4 Re4 B24'
_cell_volume   384.70626493
_cell_formula_units_Z   2
loop_
 _symmetry_equiv_pos_site_id
 _symmetry_equiv_pos_as_xyz
  1  'x, y, z'
loop_
 _atom_site_type_symbol
 _atom_site_label
 _atom_site_symmetry_multiplicity
 _atom_site_fract_x
 _atom_site_fract_y
 _atom_site_fract_z
 _atom_site_occupancy
  Y  Y0  1  0.000000  0.836605  0.092452  1
  Y  Y1  1  0.000000  0.163395  0.907548  1
  Tm  Tm2  1  0.000000  0.336791  0.407818  1
  Tm  Tm3  1  0.000000  0.663209  0.592182  1
  U  U4  1  0.000000  0.956338  0.396345  1
  U  U5  1  0.000000  0.043662  0.603655  1
  U  U6  1  0.000000  0.456375  0.103840  1
  U  U7  1  0.000000  0.543625  0.896160  1
  Re  Re8  1  0.000000  0.644503  0.319391  1
  Re  Re9  1  0.000000  0.355497  0.680609  1
  Re  Re10  1  0.000000  0.146286  0.182265  1
  Re  Re11  1  0.000000  0.853714  0.817735  1
  B  B12  1  0.500000  0.550795  0.431685  1
  B  B13  1  0.500000  0.449205  0.568315  1
  B  B14  1  0.500000  0.051922  0.069273  1
  B  B15  1  0.500000  0.948078  0.930727  1
  B  B16  1  0.500000  0.742238  0.423683  1
  B  B17  1  0.500000  0.257762  0.576317  1
  B  B18  1  0.500000  0.243288  0.077320  1
  B  B19  1  0.500000  0.756712  0.922680  1
  B  B20  1  0.500000  0.801687  0.275590  1
  B  B21  1  0.500000  0.198313  0.724410  1
  B  B22  1  0.500000  0.302397  0.225518  1
  B  B23  1  0.500000  0.697603  0.774482  1
  B  B24  1  0.500000  0.643645  0.188951  1
  B  B25  1  0.500000  0.356355  0.811049  1
  B  B26  1  0.500000  0.144726  0.311875  1
  B  B27  1  0.500000  0.855274  0.688125  1
  B  B28  1  0.500000  0.989109  0.219899  1
  B  B29  1  0.500000  0.010891  0.780101  1
  B  B30  1  0.500000  0.488044  0.281149  1
  B  B31  1  0.500000  0.511956  0.718851  1
  B  B32  1  0.500000  0.639649  0.038795  1
  B  B33  1  0.500000  0.360351  0.961205  1
  B  B34  1  0.500000  0.141391  0.460922  1
  B  B35  1  0.500000  0.858609  0.539078  1
