# generated using pymatgen
data_VCo6MoW5
_symmetry_space_group_name_H-M   'P 1'
_cell_length_a   8.99553515
_cell_length_b   8.99553594
_cell_length_c   8.99553642
_cell_angle_alpha   30.88106564
_cell_angle_beta   30.88107068
_cell_angle_gamma   30.88106751
_symmetry_Int_Tables_number   1
_chemical_formula_structural   VCo6MoW5
_chemical_formula_sum   'V1 Co6 Mo1 W5'
_cell_volume   170.08025938
_cell_formula_units_Z   1
loop_
 _symmetry_equiv_pos_site_id
 _symmetry_equiv_pos_as_xyz
  1  'x, y, z'
loop_
 _atom_site_type_symbol
 _atom_site_label
 _atom_site_symmetry_multiplicity
 _atom_site_fract_x
 _atom_site_fract_y
 _atom_site_fract_z
 _atom_site_occupancy
  V  V0  1  0.000025  0.000025  0.000025  1
  Co  Co1  1  0.092199  0.092199  0.584851  1
  Co  Co2  1  0.415096  0.907918  0.907918  1
  Co  Co3  1  0.584851  0.092199  0.092199  1
  Co  Co4  1  0.907918  0.907918  0.415096  1
  Co  Co5  1  0.907918  0.415096  0.907918  1
  Co  Co6  1  0.092199  0.584851  0.092199  1
  Mo  Mo7  1  0.345952  0.345952  0.345952  1
  W  W8  1  0.834700  0.834700  0.834700  1
  W  W9  1  0.654028  0.654028  0.654028  1
  W  W10  1  0.449854  0.449854  0.449854  1
  W  W11  1  0.549981  0.549981  0.549981  1
  W  W12  1  0.165278  0.165278  0.165278  1
