# generated using pymatgen
data_Tb5Dy5Bi6
_symmetry_space_group_name_H-M   'P 1'
_cell_length_a   9.21483080
_cell_length_b   9.21483098
_cell_length_c   6.37131900
_cell_angle_alpha   90.00000000
_cell_angle_beta   90.00000000
_cell_angle_gamma   119.95239085
_symmetry_Int_Tables_number   1
_chemical_formula_structural   Tb5Dy5Bi6
_chemical_formula_sum   'Tb5 Dy5 Bi6'
_cell_volume   468.75171484
_cell_formula_units_Z   1
loop_
 _symmetry_equiv_pos_site_id
 _symmetry_equiv_pos_as_xyz
  1  'x, y, z'
loop_
 _atom_site_type_symbol
 _atom_site_label
 _atom_site_symmetry_multiplicity
 _atom_site_fract_x
 _atom_site_fract_y
 _atom_site_fract_z
 _atom_site_occupancy
  Tb  Tb0  1  0.244400  0.000011  0.750000  1
  Tb  Tb1  1  0.000011  0.244400  0.750000  1
  Tb  Tb2  1  0.244539  0.244539  0.250000  1
  Tb  Tb3  1  0.755526  0.999901  0.250000  1
  Tb  Tb4  1  0.999901  0.755526  0.250000  1
  Dy  Dy5  1  0.666717  0.333251  0.000073  1
  Dy  Dy6  1  0.333251  0.666717  0.000073  1
  Dy  Dy7  1  0.333251  0.666717  0.499927  1
  Dy  Dy8  1  0.666717  0.333251  0.499927  1
  Dy  Dy9  1  0.755591  0.755591  0.750000  1
  Bi  Bi10  1  0.388970  0.388970  0.750000  1
  Bi  Bi11  1  0.611396  0.999657  0.750000  1
  Bi  Bi12  1  0.999657  0.611396  0.750000  1
  Bi  Bi13  1  0.611405  0.611405  0.250000  1
  Bi  Bi14  1  0.388657  0.000013  0.250000  1
  Bi  Bi15  1  0.000013  0.388657  0.250000  1
