# generated using pymatgen
data_CeDyLu2(Al3Ir)6
_symmetry_space_group_name_H-M   'P 1'
_cell_length_a   7.54759419
_cell_length_b   7.54340879
_cell_length_c   9.42593400
_cell_angle_alpha   90.00000000
_cell_angle_beta   90.00000000
_cell_angle_gamma   119.46245665
_symmetry_Int_Tables_number   1
_chemical_formula_structural   CeDyLu2(Al3Ir)6
_chemical_formula_sum   'Ce1 Dy1 Lu2 Al18 Ir6'
_cell_volume   467.25960389
_cell_formula_units_Z   1
loop_
 _symmetry_equiv_pos_site_id
 _symmetry_equiv_pos_as_xyz
  1  'x, y, z'
loop_
 _atom_site_type_symbol
 _atom_site_label
 _atom_site_symmetry_multiplicity
 _atom_site_fract_x
 _atom_site_fract_y
 _atom_site_fract_z
 _atom_site_occupancy
  Ce  Ce0  1  0.994629  0.671311  0.750000  1
  Dy  Dy1  1  0.327430  0.003374  0.250000  1
  Lu  Lu2  1  0.004375  0.329075  0.250000  1
  Lu  Lu3  1  0.674053  0.995801  0.750000  1
  Al  Al4  1  0.130408  0.131306  0.750000  1
  Al  Al5  1  0.872480  0.874159  0.250000  1
  Al  Al6  1  0.000569  0.333298  0.574040  1
  Al  Al7  1  0.998543  0.663382  0.421588  1
  Al  Al8  1  0.998543  0.663382  0.078412  1
  Al  Al9  1  0.338379  0.002729  0.924901  1
  Al  Al10  1  0.000569  0.333298  0.925960  1
  Al  Al11  1  0.665463  0.000196  0.075768  1
  Al  Al12  1  0.665463  0.000196  0.424232  1
  Al  Al13  1  0.338379  0.002729  0.575099  1
  Al  Al14  1  0.331979  0.332593  0.053709  1
  Al  Al15  1  0.664520  0.666902  0.950130  1
  Al  Al16  1  0.664520  0.666902  0.549870  1
  Al  Al17  1  0.331979  0.332593  0.446291  1
  Al  Al18  1  0.342246  0.549546  0.750000  1
  Al  Al19  1  0.660200  0.449622  0.250000  1
  Al  Al20  1  0.546782  0.339091  0.750000  1
  Al  Al21  1  0.450361  0.659786  0.250000  1
  Ir  Ir22  1  0.672199  0.327962  0.500144  1
  Ir  Ir23  1  0.327237  0.671622  0.500000  1
  Ir  Ir24  1  0.327237  0.671622  0.000000  1
  Ir  Ir25  1  0.672199  0.327962  0.999856  1
  Ir  Ir26  1  0.999631  0.999779  0.500696  1
  Ir  Ir27  1  0.999631  0.999779  0.999304  1
