# generated using pymatgen
data_Dy13Ho6LuSn16
_symmetry_space_group_name_H-M   'P 1'
_cell_length_a   8.02493619
_cell_length_b   8.16317271
_cell_length_c   15.44949902
_cell_angle_alpha   90.00393304
_cell_angle_beta   89.99635433
_cell_angle_gamma   89.96559752
_symmetry_Int_Tables_number   1
_chemical_formula_structural   Dy13Ho6LuSn16
_chemical_formula_sum   'Dy13 Ho6 Lu1 Sn16'
_cell_volume   1012.08011845
_cell_formula_units_Z   1
loop_
 _symmetry_equiv_pos_site_id
 _symmetry_equiv_pos_as_xyz
  1  'x, y, z'
loop_
 _atom_site_type_symbol
 _atom_site_label
 _atom_site_symmetry_multiplicity
 _atom_site_fract_x
 _atom_site_fract_y
 _atom_site_fract_z
 _atom_site_occupancy
  Dy  Dy0  1  0.132133  0.337086  0.121597  1
  Dy  Dy1  1  0.632053  0.163049  0.122172  1
  Dy  Dy2  1  0.132085  0.337047  0.378370  1
  Dy  Dy3  1  0.367657  0.836908  0.622482  1
  Dy  Dy4  1  0.868151  0.662671  0.877637  1
  Dy  Dy5  1  0.520728  0.321030  0.902443  1
  Dy  Dy6  1  0.021178  0.179602  0.597631  1
  Dy  Dy7  1  0.479334  0.679400  0.402914  1
  Dy  Dy8  1  0.979241  0.820631  0.097422  1
  Dy  Dy9  1  0.479324  0.679335  0.097037  1
  Dy  Dy10  1  0.979185  0.820659  0.402639  1
  Dy  Dy11  1  0.520812  0.321074  0.597525  1
  Dy  Dy12  1  0.021202  0.179499  0.902357  1
  Ho  Ho13  1  0.367579  0.836977  0.877506  1
  Ho  Ho14  1  0.868022  0.662626  0.622371  1
  Ho  Ho15  1  0.632109  0.162948  0.377866  1
  Ho  Ho16  1  0.698710  0.997180  0.749973  1
  Ho  Ho17  1  0.800840  0.496743  0.250062  1
  Ho  Ho18  1  0.300991  0.002993  0.250019  1
  Lu  Lu19  1  0.199023  0.503611  0.749998  1
  Sn  Sn20  1  0.292590  0.035937  0.041383  1
  Sn  Sn21  1  0.792295  0.463489  0.458512  1
  Sn  Sn22  1  0.707787  0.963776  0.541876  1
  Sn  Sn23  1  0.207844  0.536158  0.957129  1
  Sn  Sn24  1  0.707406  0.963803  0.957989  1
  Sn  Sn25  1  0.207390  0.535963  0.542856  1
  Sn  Sn26  1  0.292816  0.036179  0.458410  1
  Sn  Sn27  1  0.792416  0.463559  0.041609  1
  Sn  Sn28  1  0.563865  0.617790  0.749992  1
  Sn  Sn29  1  0.065534  0.880494  0.749991  1
  Sn  Sn30  1  0.434179  0.381080  0.250075  1
  Sn  Sn31  1  0.934493  0.118921  0.250087  1
  Sn  Sn32  1  0.329780  0.149833  0.750062  1
  Sn  Sn33  1  0.830993  0.352527  0.749938  1
  Sn  Sn34  1  0.669936  0.851877  0.250061  1
  Sn  Sn35  1  0.170318  0.647549  0.250010  1
