# generated using pymatgen
data_Lu2Ga4CuNi
_symmetry_space_group_name_H-M   'P 1'
_cell_length_a   5.36593161
_cell_length_b   5.36593269
_cell_length_c   6.52293000
_cell_angle_alpha   90.00000000
_cell_angle_beta   90.00000000
_cell_angle_gamma   133.87389128
_symmetry_Int_Tables_number   1
_chemical_formula_structural   Lu2Ga4CuNi
_chemical_formula_sum   'Lu2 Ga4 Cu1 Ni1'
_cell_volume   135.39050905
_cell_formula_units_Z   1
loop_
 _symmetry_equiv_pos_site_id
 _symmetry_equiv_pos_as_xyz
  1  'x, y, z'
loop_
 _atom_site_type_symbol
 _atom_site_label
 _atom_site_symmetry_multiplicity
 _atom_site_fract_x
 _atom_site_fract_y
 _atom_site_fract_z
 _atom_site_occupancy
  Lu  Lu0  1  0.580516  0.419484  0.250000  1
  Lu  Lu1  1  0.421691  0.578309  0.750000  1
  Ga  Ga2  1  0.865382  0.134618  0.047969  1
  Ga  Ga3  1  0.133974  0.866026  0.946559  1
  Ga  Ga4  1  0.133974  0.866026  0.553441  1
  Ga  Ga5  1  0.865382  0.134618  0.452031  1
  Cu  Cu6  1  0.294432  0.705568  0.250000  1
  Ni  Ni7  1  0.704649  0.295351  0.750000  1
