# generated using pymatgen
data_Nd2Th(InIr)3
_symmetry_space_group_name_H-M   'P 1'
_cell_length_a   7.63857431
_cell_length_b   7.63857522
_cell_length_c   4.03282100
_cell_angle_alpha   90.00000000
_cell_angle_beta   90.00000000
_cell_angle_gamma   118.43688924
_symmetry_Int_Tables_number   1
_chemical_formula_structural   Nd2Th(InIr)3
_chemical_formula_sum   'Nd2 Th1 In3 Ir3'
_cell_volume   206.91477932
_cell_formula_units_Z   1
loop_
 _symmetry_equiv_pos_site_id
 _symmetry_equiv_pos_as_xyz
  1  'x, y, z'
loop_
 _atom_site_type_symbol
 _atom_site_label
 _atom_site_symmetry_multiplicity
 _atom_site_fract_x
 _atom_site_fract_y
 _atom_site_fract_z
 _atom_site_occupancy
  Nd  Nd0  1  0.408370  0.000860  0.000000  1
  Nd  Nd1  1  0.000860  0.408370  0.000000  1
  Th  Th2  1  0.584381  0.584381  0.000000  1
  In  In3  1  0.007212  0.747053  0.500000  1
  In  In4  1  0.242432  0.242432  0.500000  1
  In  In5  1  0.747053  0.007212  0.500000  1
  Ir  Ir6  1  0.989708  0.989708  0.000000  1
  Ir  Ir7  1  0.665541  0.354443  0.500000  1
  Ir  Ir8  1  0.354443  0.665541  0.500000  1
