# generated using pymatgen
data_Er2SiSnAs5Rh12
_symmetry_space_group_name_H-M   'P 1'
_cell_length_a   10.05635528
_cell_length_b   10.04055108
_cell_length_c   3.92363986
_cell_angle_alpha   90.03945606
_cell_angle_beta   90.03611994
_cell_angle_gamma   120.39107705
_symmetry_Int_Tables_number   1
_chemical_formula_structural   Er2SiSnAs5Rh12
_chemical_formula_sum   'Er2 Si1 Sn1 As5 Rh12'
_cell_volume   341.73744972
_cell_formula_units_Z   1
loop_
 _symmetry_equiv_pos_site_id
 _symmetry_equiv_pos_as_xyz
  1  'x, y, z'
loop_
 _atom_site_type_symbol
 _atom_site_label
 _atom_site_symmetry_multiplicity
 _atom_site_fract_x
 _atom_site_fract_y
 _atom_site_fract_z
 _atom_site_occupancy
  Er  Er0  1  0.663882  0.330706  0.751759  1
  Er  Er1  1  0.333200  0.673982  0.245519  1
  Si  Si2  1  0.290113  0.886013  0.747198  1
  Sn  Sn3  1  0.000166  0.999872  0.618765  1
  As  As4  1  0.119112  0.409155  0.746612  1
  As  As5  1  0.592963  0.711009  0.746903  1
  As  As6  1  0.708727  0.115526  0.250894  1
  As  As7  1  0.886260  0.595525  0.252233  1
  As  As8  1  0.403946  0.286596  0.251419  1
  Rh  Rh9  1  0.073285  0.624312  0.749421  1
  Rh  Rh10  1  0.381125  0.449195  0.748744  1
  Rh  Rh11  1  0.547108  0.929873  0.748590  1
  Rh  Rh12  1  0.936659  0.386644  0.249863  1
  Rh  Rh13  1  0.614528  0.547943  0.250496  1
  Rh  Rh14  1  0.444274  0.054855  0.249939  1
  Rh  Rh15  1  0.288953  0.123812  0.753560  1
  Rh  Rh16  1  0.872801  0.162504  0.752597  1
  Rh  Rh17  1  0.837218  0.709298  0.755025  1
  Rh  Rh18  1  0.729138  0.880032  0.244441  1
  Rh  Rh19  1  0.127539  0.852568  0.246256  1
  Rh  Rh20  1  0.149003  0.270580  0.243392  1
