# generated using pymatgen
data_LiHo16In(AgRh2)2
_symmetry_space_group_name_H-M   'P 1'
_cell_length_a   9.56665956
_cell_length_b   9.53506313
_cell_length_c   9.55921300
_cell_angle_alpha   59.91618558
_cell_angle_beta   60.02574893
_cell_angle_gamma   59.99316897
_symmetry_Int_Tables_number   1
_chemical_formula_structural   LiHo16In(AgRh2)2
_chemical_formula_sum   'Li1 Ho16 In1 Ag2 Rh4'
_cell_volume   616.27863523
_cell_formula_units_Z   1
loop_
 _symmetry_equiv_pos_site_id
 _symmetry_equiv_pos_as_xyz
  1  'x, y, z'
loop_
 _atom_site_type_symbol
 _atom_site_label
 _atom_site_symmetry_multiplicity
 _atom_site_fract_x
 _atom_site_fract_y
 _atom_site_fract_z
 _atom_site_occupancy
  Li  Li0  1  0.540622  0.824116  0.817631  1
  Ho  Ho1  1  0.183590  0.185819  0.815296  1
  Ho  Ho2  1  0.600654  0.598253  0.202285  1
  Ho  Ho3  1  0.434220  0.064349  0.437213  1
  Ho  Ho4  1  0.439333  0.436762  0.061952  1
  Ho  Ho5  1  0.813910  0.179964  0.816516  1
  Ho  Ho6  1  0.184231  0.811981  0.189231  1
  Ho  Ho7  1  0.434220  0.064349  0.064218  1
  Ho  Ho8  1  0.184231  0.811981  0.814556  1
  Ho  Ho9  1  0.058108  0.439425  0.060512  1
  Ho  Ho10  1  0.813161  0.812210  0.187315  1
  Ho  Ho11  1  0.194552  0.601479  0.601984  1
  Ho  Ho12  1  0.058108  0.439425  0.441955  1
  Ho  Ho13  1  0.058909  0.061768  0.439661  1
  Ho  Ho14  1  0.813910  0.179964  0.189611  1
  Ho  Ho15  1  0.600810  0.203914  0.597638  1
  Ho  Ho16  1  0.600654  0.598253  0.598807  1
  In  In17  1  0.828937  0.508664  0.831200  1
  Ag  Ag18  1  0.832490  0.835685  0.833288  1
  Ag  Ag19  1  0.832490  0.835685  0.498539  1
  Rh  Rh20  1  0.390486  0.822357  0.393578  1
  Rh  Rh21  1  0.389909  0.394338  0.392350  1
  Rh  Rh22  1  0.822554  0.394920  0.391263  1
  Rh  Rh23  1  0.389909  0.394338  0.823402  1
