# generated using pymatgen
data_Nb12Al6Ga2CuRu3C4
_symmetry_space_group_name_H-M   'P 1'
_cell_length_a   8.31601374
_cell_length_b   8.32071788
_cell_length_c   8.32085600
_cell_angle_alpha   60.03505007
_cell_angle_beta   60.01757150
_cell_angle_gamma   60.01934912
_symmetry_Int_Tables_number   1
_chemical_formula_structural   Nb12Al6Ga2CuRu3C4
_chemical_formula_sum   'Nb12 Al6 Ga2 Cu1 Ru3 C4'
_cell_volume   407.34754227
_cell_formula_units_Z   1
loop_
 _symmetry_equiv_pos_site_id
 _symmetry_equiv_pos_as_xyz
  1  'x, y, z'
loop_
 _atom_site_type_symbol
 _atom_site_label
 _atom_site_symmetry_multiplicity
 _atom_site_fract_x
 _atom_site_fract_y
 _atom_site_fract_z
 _atom_site_occupancy
  Nb  Nb0  1  0.567584  0.937059  0.558324  1
  Nb  Nb1  1  0.312329  0.682561  0.692790  1
  Nb  Nb2  1  0.689328  0.311370  0.309186  1
  Nb  Nb3  1  0.311799  0.688831  0.309710  1
  Nb  Nb4  1  0.689752  0.689797  0.309361  1
  Nb  Nb5  1  0.312977  0.312848  0.691714  1
  Nb  Nb6  1  0.560300  0.561157  0.940327  1
  Nb  Nb7  1  0.937734  0.567338  0.557234  1
  Nb  Nb8  1  0.559880  0.938574  0.940817  1
  Nb  Nb9  1  0.938525  0.938462  0.555366  1
  Nb  Nb10  1  0.682412  0.311426  0.694639  1
  Nb  Nb11  1  0.938962  0.560144  0.940689  1
  Al  Al12  1  0.333022  0.998232  0.335798  1
  Al  Al13  1  0.331582  0.332093  0.004589  1
  Al  Al14  1  0.916902  0.251800  0.914441  1
  Al  Al15  1  0.918291  0.917830  0.245399  1
  Al  Al16  1  0.251386  0.916832  0.914939  1
  Al  Al17  1  0.333233  0.333199  0.334960  1
  Ga  Ga18  1  0.917086  0.917121  0.908978  1
  Ga  Ga19  1  0.993184  0.332908  0.340953  1
  Cu  Cu20  1  0.128522  0.125487  0.624668  1
  Ru  Ru21  1  0.125170  0.124863  0.124103  1
  Ru  Ru22  1  0.624081  0.125075  0.125967  1
  Ru  Ru23  1  0.125427  0.625029  0.124962  1
  C  C24  1  0.625092  0.624626  0.624723  1
  C  C25  1  0.124403  0.625351  0.625314  1
  C  C26  1  0.625438  0.125010  0.625020  1
  C  C27  1  0.625602  0.624975  0.125028  1
