# generated using pymatgen
data_Hf5Zr3(ScSn3)2
_symmetry_space_group_name_H-M   'P 1'
_cell_length_a   8.49045989
_cell_length_b   8.49970701
_cell_length_c   5.81152300
_cell_angle_alpha   90.00000000
_cell_angle_beta   90.00000000
_cell_angle_gamma   120.03602367
_symmetry_Int_Tables_number   1
_chemical_formula_structural   Hf5Zr3(ScSn3)2
_chemical_formula_sum   'Hf5 Zr3 Sc2 Sn6'
_cell_volume   363.07638293
_cell_formula_units_Z   1
loop_
 _symmetry_equiv_pos_site_id
 _symmetry_equiv_pos_as_xyz
  1  'x, y, z'
loop_
 _atom_site_type_symbol
 _atom_site_label
 _atom_site_symmetry_multiplicity
 _atom_site_fract_x
 _atom_site_fract_y
 _atom_site_fract_z
 _atom_site_occupancy
  Hf  Hf0  1  0.000000  0.247307  0.750000  1
  Hf  Hf1  1  0.667961  0.332480  0.000241  1
  Hf  Hf2  1  0.332039  0.664520  0.000241  1
  Hf  Hf3  1  0.332039  0.664520  0.499759  1
  Hf  Hf4  1  0.667961  0.332480  0.499759  1
  Zr  Zr5  1  0.241030  0.242453  0.250000  1
  Zr  Zr6  1  0.758970  0.001422  0.250000  1
  Zr  Zr7  1  0.000000  0.756481  0.250000  1
  Sc  Sc8  1  0.756046  0.757109  0.750000  1
  Sc  Sc9  1  0.243954  0.001063  0.750000  1
  Sn  Sn10  1  0.393155  0.391603  0.750000  1
  Sn  Sn11  1  0.606845  0.998448  0.750000  1
  Sn  Sn12  1  0.000000  0.609270  0.750000  1
  Sn  Sn13  1  0.607273  0.607275  0.250000  1
  Sn  Sn14  1  0.392727  0.000003  0.250000  1
  Sn  Sn15  1  0.000000  0.393565  0.250000  1
