# generated using pymatgen
data_Sn8PdRh3
_symmetry_space_group_name_H-M   'P 1'
_cell_length_a   6.99477142
_cell_length_b   6.99477049
_cell_length_c   6.45538918
_cell_angle_alpha   89.98746567
_cell_angle_beta   89.98746811
_cell_angle_gamma   125.59625919
_symmetry_Int_Tables_number   1
_chemical_formula_structural   Sn8PdRh3
_chemical_formula_sum   'Sn8 Pd1 Rh3'
_cell_volume   256.82307554
_cell_formula_units_Z   1
loop_
 _symmetry_equiv_pos_site_id
 _symmetry_equiv_pos_as_xyz
  1  'x, y, z'
loop_
 _atom_site_type_symbol
 _atom_site_label
 _atom_site_symmetry_multiplicity
 _atom_site_fract_x
 _atom_site_fract_y
 _atom_site_fract_z
 _atom_site_occupancy
  Sn  Sn0  1  0.662425  0.664570  0.841974  1
  Sn  Sn1  1  0.335430  0.337575  0.158026  1
  Sn  Sn2  1  0.156873  0.159681  0.663877  1
  Sn  Sn3  1  0.840319  0.843127  0.336123  1
  Sn  Sn4  1  0.006638  0.504194  0.752646  1
  Sn  Sn5  1  0.495806  0.993362  0.247354  1
  Sn  Sn6  1  0.503057  0.000835  0.751548  1
  Sn  Sn7  1  0.999165  0.496943  0.248452  1
  Pd  Pd8  1  0.617720  0.382280  0.500000  1
  Rh  Rh9  1  0.117424  0.882576  0.000000  1
  Rh  Rh10  1  0.383912  0.616088  0.500000  1
  Rh  Rh11  1  0.881231  0.118769  0.000000  1
