# generated using pymatgen
data_EuMn2CdCl12
_symmetry_space_group_name_H-M   'P 1'
_cell_length_a   6.64329500
_cell_length_b   6.64329505
_cell_length_c   14.55959200
_cell_angle_alpha   90.00000000
_cell_angle_beta   90.00000000
_cell_angle_gamma   120.00000475
_symmetry_Int_Tables_number   1
_chemical_formula_structural   EuMn2CdCl12
_chemical_formula_sum   'Eu1 Mn2 Cd1 Cl12'
_cell_volume   556.47658482
_cell_formula_units_Z   1
loop_
 _symmetry_equiv_pos_site_id
 _symmetry_equiv_pos_as_xyz
  1  'x, y, z'
loop_
 _atom_site_type_symbol
 _atom_site_label
 _atom_site_symmetry_multiplicity
 _atom_site_fract_x
 _atom_site_fract_y
 _atom_site_fract_z
 _atom_site_occupancy
  Eu  Eu0  1  0.000000  0.000000  0.250000  1
  Mn  Mn1  1  0.333333  0.666667  0.250000  1
  Mn  Mn2  1  0.666667  0.333333  0.750000  1
  Cd  Cd3  1  0.000000  0.000000  0.750000  1
  Cl  Cl4  1  0.616007  0.948014  0.154020  1
  Cl  Cl5  1  0.051986  0.667994  0.154020  1
  Cl  Cl6  1  0.332006  0.383993  0.154020  1
  Cl  Cl7  1  0.051986  0.383993  0.345980  1
  Cl  Cl8  1  0.377369  0.315791  0.657503  1
  Cl  Cl9  1  0.684209  0.061577  0.657503  1
  Cl  Cl10  1  0.938423  0.622631  0.657503  1
  Cl  Cl11  1  0.684209  0.622631  0.842497  1
  Cl  Cl12  1  0.938423  0.315791  0.842497  1
  Cl  Cl13  1  0.377369  0.061577  0.842497  1
  Cl  Cl14  1  0.616007  0.667994  0.345980  1
  Cl  Cl15  1  0.332006  0.948014  0.345980  1
