# generated using pymatgen
data_Ti6Mn5CuRh12
_symmetry_space_group_name_H-M   'P 1'
_cell_length_a   4.36420400
_cell_length_b   6.11940800
_cell_length_c   13.07043900
_cell_angle_alpha   90.00000000
_cell_angle_beta   90.00039419
_cell_angle_gamma   90.00000000
_symmetry_Int_Tables_number   1
_chemical_formula_structural   Ti6Mn5CuRh12
_chemical_formula_sum   'Ti6 Mn5 Cu1 Rh12'
_cell_volume   349.06365155
_cell_formula_units_Z   1
loop_
 _symmetry_equiv_pos_site_id
 _symmetry_equiv_pos_as_xyz
  1  'x, y, z'
loop_
 _atom_site_type_symbol
 _atom_site_label
 _atom_site_symmetry_multiplicity
 _atom_site_fract_x
 _atom_site_fract_y
 _atom_site_fract_z
 _atom_site_occupancy
  Ti  Ti0  1  0.000000  0.000000  0.000000  1
  Ti  Ti1  1  0.499976  0.500000  0.161335  1
  Ti  Ti2  1  0.999982  0.000000  0.331961  1
  Ti  Ti3  1  0.499999  0.500000  0.500000  1
  Ti  Ti4  1  0.000017  0.000000  0.668039  1
  Ti  Ti5  1  0.500023  0.500000  0.838665  1
  Mn  Mn6  1  0.499981  0.000000  0.166025  1
  Mn  Mn7  1  0.999978  0.500000  0.332778  1
  Mn  Mn8  1  0.499999  0.000000  0.499999  1
  Mn  Mn9  1  0.000021  0.500000  0.667222  1
  Mn  Mn10  1  0.500018  0.000000  0.833975  1
  Cu  Cu11  1  0.000001  0.500000  0.000000  1
  Rh  Rh12  1  0.500002  0.247991  0.000000  1
  Rh  Rh13  1  0.500002  0.752008  0.000000  1
  Rh  Rh14  1  0.999978  0.249747  0.167516  1
  Rh  Rh15  1  0.999978  0.750252  0.167516  1
  Rh  Rh16  1  0.499981  0.250549  0.333084  1
  Rh  Rh17  1  0.499981  0.749450  0.333084  1
  Rh  Rh18  1  0.000000  0.250156  0.499999  1
  Rh  Rh19  1  0.000000  0.749843  0.499999  1
  Rh  Rh20  1  0.500018  0.250548  0.666915  1
  Rh  Rh21  1  0.500018  0.749451  0.666915  1
  Rh  Rh22  1  0.000020  0.249748  0.832485  1
  Rh  Rh23  1  0.000020  0.750251  0.832485  1
