# generated using pymatgen
data_Pr3NdMn5Ag3O20
_symmetry_space_group_name_H-M   'P 1'
_cell_length_a   5.85771200
_cell_length_b   7.85015291
_cell_length_c   8.87664811
_cell_angle_alpha   89.24968925
_cell_angle_beta   90.00000000
_cell_angle_gamma   90.00000000
_symmetry_Int_Tables_number   1
_chemical_formula_structural   Pr3NdMn5Ag3O20
_chemical_formula_sum   'Pr3 Nd1 Mn5 Ag3 O20'
_cell_volume   408.14821008
_cell_formula_units_Z   1
loop_
 _symmetry_equiv_pos_site_id
 _symmetry_equiv_pos_as_xyz
  1  'x, y, z'
loop_
 _atom_site_type_symbol
 _atom_site_label
 _atom_site_symmetry_multiplicity
 _atom_site_fract_x
 _atom_site_fract_y
 _atom_site_fract_z
 _atom_site_occupancy
  Pr  Pr0  1  0.000000  0.645125  0.325518  1
  Pr  Pr1  1  0.000000  0.849476  0.825862  1
  Pr  Pr2  1  0.000000  0.154080  0.173388  1
  Nd  Nd3  1  0.000000  0.355560  0.676201  1
  Mn  Mn4  1  0.500000  0.406378  0.349561  1
  Mn  Mn5  1  0.259643  0.498577  0.003133  1
  Mn  Mn6  1  0.743902  0.004891  0.498492  1
  Mn  Mn7  1  0.740357  0.498577  0.003133  1
  Mn  Mn8  1  0.256098  0.004891  0.498492  1
  Ag  Ag9  1  0.500000  0.068451  0.841642  1
  Ag  Ag10  1  0.500000  0.933617  0.156553  1
  Ag  Ag11  1  0.500000  0.564747  0.653839  1
  O  O12  1  0.233826  0.908636  0.299100  1
  O  O13  1  0.234084  0.098520  0.699379  1
  O  O14  1  0.751585  0.403626  0.208954  1
  O  O15  1  0.765630  0.592399  0.797942  1
  O  O16  1  0.765916  0.098520  0.699379  1
  O  O17  1  0.766174  0.908636  0.299100  1
  O  O18  1  0.234370  0.592399  0.797942  1
  O  O19  1  0.248415  0.403626  0.208954  1
  O  O20  1  0.500000  0.356953  0.943927  1
  O  O21  1  0.500000  0.642634  0.059502  1
  O  O22  1  0.500000  0.864637  0.558119  1
  O  O23  1  0.500000  0.154100  0.433697  1
  O  O24  1  0.256511  0.999811  0.998834  1
  O  O25  1  0.732761  0.492531  0.494129  1
  O  O26  1  0.743489  0.999811  0.998834  1
  O  O27  1  0.267239  0.492531  0.494129  1
  O  O28  1  0.000000  0.160668  0.449700  1
  O  O29  1  0.000000  0.847806  0.549219  1
  O  O30  1  0.000000  0.653464  0.052977  1
  O  O31  1  0.000000  0.344322  0.950366  1
