# generated using pymatgen
data_TbPr7(ScSn3)2
_symmetry_space_group_name_H-M   'P 1'
_cell_length_a   9.25343008
_cell_length_b   9.25344294
_cell_length_c   9.28970000
_cell_angle_alpha   96.53470363
_cell_angle_beta   96.20128622
_cell_angle_gamma   141.01380511
_symmetry_Int_Tables_number   1
_chemical_formula_structural   TbPr7(ScSn3)2
_chemical_formula_sum   'Tb1 Pr7 Sc2 Sn6'
_cell_volume   471.98325539
_cell_formula_units_Z   1
loop_
 _symmetry_equiv_pos_site_id
 _symmetry_equiv_pos_as_xyz
  1  'x, y, z'
loop_
 _atom_site_type_symbol
 _atom_site_label
 _atom_site_symmetry_multiplicity
 _atom_site_fract_x
 _atom_site_fract_y
 _atom_site_fract_z
 _atom_site_occupancy
  Tb  Tb0  1  0.282792  0.416137  0.698930  1
  Pr  Pr1  1  0.088362  0.221374  0.309735  1
  Pr  Pr2  1  0.910696  0.778436  0.689127  1
  Pr  Pr3  1  0.777335  0.086280  0.863628  1
  Pr  Pr4  1  0.412686  0.722634  0.135317  1
  Pr  Pr5  1  0.221127  0.912438  0.133555  1
  Pr  Pr6  1  0.588398  0.278006  0.866405  1
  Pr  Pr7  1  0.720104  0.585281  0.305405  1
  Sc  Sc8  1  0.250056  0.750175  0.500249  1
  Sc  Sc9  1  0.750082  0.250196  0.500250  1
  Sn  Sn10  1  0.150866  0.648678  0.799565  1
  Sn  Sn11  1  0.850828  0.348984  0.199776  1
  Sn  Sn12  1  0.349066  0.153086  0.502161  1
  Sn  Sn13  1  0.650759  0.849581  0.500338  1
  Sn  Sn14  1  0.248540  0.249477  0.997779  1
  Sn  Sn15  1  0.748301  0.749237  0.997779  1
