# generated using pymatgen
data_Pr12Ge3BBr12
_symmetry_space_group_name_H-M   'P 1'
_cell_length_a   10.59985664
_cell_length_b   10.45492563
_cell_length_c   10.45492564
_cell_angle_alpha   109.18870905
_cell_angle_beta   109.75227845
_cell_angle_gamma   109.75228103
_symmetry_Int_Tables_number   1
_chemical_formula_structural   Pr12Ge3BBr12
_chemical_formula_sum   'Pr12 Ge3 B1 Br12'
_cell_volume   888.79538560
_cell_formula_units_Z   1
loop_
 _symmetry_equiv_pos_site_id
 _symmetry_equiv_pos_as_xyz
  1  'x, y, z'
loop_
 _atom_site_type_symbol
 _atom_site_label
 _atom_site_symmetry_multiplicity
 _atom_site_fract_x
 _atom_site_fract_y
 _atom_site_fract_z
 _atom_site_occupancy
  Pr  Pr0  1  0.467997  0.495266  0.225112  1
  Pr  Pr1  1  0.750000  0.239930  0.260070  1
  Pr  Pr2  1  0.750000  0.008366  0.491634  1
  Pr  Pr3  1  0.241634  0.483270  0.491634  1
  Pr  Pr4  1  0.257116  0.729846  0.225112  1
  Pr  Pr5  1  0.032003  0.274888  0.004734  1
  Pr  Pr6  1  0.010070  0.020139  0.260070  1
  Pr  Pr7  1  0.472731  0.729846  0.004734  1
  Pr  Pr8  1  0.489930  0.239930  0.479861  1
  Pr  Pr9  1  0.027269  0.495266  0.770154  1
  Pr  Pr10  1  0.258366  0.008366  0.016730  1
  Pr  Pr11  1  0.242884  0.274888  0.770154  1
  Ge  Ge12  1  0.250000  0.250212  0.249788  1
  Ge  Ge13  1  0.499788  0.999575  0.249788  1
  Ge  Ge14  1  0.000212  0.250212  0.500425  1
  B  B15  1  0.250000  0.500000  0.000000  1
  Br  Br16  1  0.250000  0.754510  0.745490  1
  Br  Br17  1  0.509024  0.504447  0.755640  1
  Br  Br18  1  0.990976  0.744360  0.995553  1
  Br  Br19  1  0.746616  0.251193  0.755640  1
  Br  Br20  1  0.995490  0.990982  0.745490  1
  Br  Br21  1  0.250000  0.997417  0.502583  1
  Br  Br22  1  0.752583  0.505166  0.502583  1
  Br  Br23  1  0.504577  0.251193  0.995553  1
  Br  Br24  1  0.753384  0.744360  0.248807  1
  Br  Br25  1  0.747417  0.997417  0.994834  1
  Br  Br26  1  0.995423  0.504447  0.248807  1
  Br  Br27  1  0.504510  0.754510  0.509018  1
