# generated using pymatgen
data_Tb5Y(Lu2Sn3)2
_symmetry_space_group_name_H-M   'P 1'
_cell_length_a   8.93378500
_cell_length_b   8.93378571
_cell_length_c   6.46753500
_cell_angle_alpha   90.00000000
_cell_angle_beta   90.00000000
_cell_angle_gamma   119.92579571
_symmetry_Int_Tables_number   1
_chemical_formula_structural   Tb5Y(Lu2Sn3)2
_chemical_formula_sum   'Tb5 Y1 Lu4 Sn6'
_cell_volume   447.36777466
_cell_formula_units_Z   1
loop_
 _symmetry_equiv_pos_site_id
 _symmetry_equiv_pos_as_xyz
  1  'x, y, z'
loop_
 _atom_site_type_symbol
 _atom_site_label
 _atom_site_symmetry_multiplicity
 _atom_site_fract_x
 _atom_site_fract_y
 _atom_site_fract_z
 _atom_site_occupancy
  Tb  Tb0  1  0.239173  0.999921  0.750000  1
  Tb  Tb1  1  0.999921  0.239173  0.750000  1
  Tb  Tb2  1  0.241026  0.241026  0.250000  1
  Tb  Tb3  1  0.761076  0.999858  0.250000  1
  Tb  Tb4  1  0.999858  0.761076  0.250000  1
  Y  Y5  1  0.760037  0.760037  0.750000  1
  Lu  Lu6  1  0.666658  0.332970  0.999806  1
  Lu  Lu7  1  0.332970  0.666658  0.999806  1
  Lu  Lu8  1  0.332970  0.666658  0.500194  1
  Lu  Lu9  1  0.666658  0.332970  0.500194  1
  Sn  Sn10  1  0.397242  0.397242  0.750000  1
  Sn  Sn11  1  0.602933  0.999681  0.750000  1
  Sn  Sn12  1  0.999681  0.602933  0.750000  1
  Sn  Sn13  1  0.603117  0.603117  0.250000  1
  Sn  Sn14  1  0.396893  0.999789  0.250000  1
  Sn  Sn15  1  0.999789  0.396893  0.250000  1
