# generated using pymatgen
data_Ho15ErIn4Ru3Rh
_symmetry_space_group_name_H-M   'P 1'
_cell_length_a   9.62912282
_cell_length_b   9.62912268
_cell_length_c   9.61729201
_cell_angle_alpha   59.77301145
_cell_angle_beta   59.77301527
_cell_angle_gamma   59.89553614
_symmetry_Int_Tables_number   1
_chemical_formula_structural   Ho15ErIn4Ru3Rh
_chemical_formula_sum   'Ho15 Er1 In4 Ru3 Rh1'
_cell_volume   627.87183861
_cell_formula_units_Z   1
loop_
 _symmetry_equiv_pos_site_id
 _symmetry_equiv_pos_as_xyz
  1  'x, y, z'
loop_
 _atom_site_type_symbol
 _atom_site_label
 _atom_site_symmetry_multiplicity
 _atom_site_fract_x
 _atom_site_fract_y
 _atom_site_fract_z
 _atom_site_occupancy
  Ho  Ho0  1  0.597777  0.597777  0.206823  1
  Ho  Ho1  1  0.441386  0.058333  0.441378  1
  Ho  Ho2  1  0.441208  0.441208  0.059511  1
  Ho  Ho3  1  0.813160  0.188405  0.808282  1
  Ho  Ho4  1  0.192717  0.807644  0.191447  1
  Ho  Ho5  1  0.440187  0.055641  0.059451  1
  Ho  Ho6  1  0.188405  0.813160  0.808282  1
  Ho  Ho7  1  0.055641  0.440187  0.059451  1
  Ho  Ho8  1  0.808975  0.808975  0.189737  1
  Ho  Ho9  1  0.205893  0.599262  0.597762  1
  Ho  Ho10  1  0.058333  0.441386  0.441378  1
  Ho  Ho11  1  0.057999  0.057999  0.438865  1
  Ho  Ho12  1  0.807644  0.192717  0.191447  1
  Ho  Ho13  1  0.599262  0.205893  0.597762  1
  Ho  Ho14  1  0.599223  0.599223  0.598373  1
  Er  Er15  1  0.190729  0.190729  0.806889  1
  In  In16  1  0.832481  0.832481  0.831943  1
  In  In17  1  0.832735  0.832735  0.501716  1
  In  In18  1  0.501899  0.832756  0.832176  1
  In  In19  1  0.832756  0.501899  0.832176  1
  Ru  Ru20  1  0.391945  0.829628  0.392308  1
  Ru  Ru21  1  0.388748  0.388748  0.391243  1
  Ru  Ru22  1  0.829628  0.391945  0.392308  1
  Rh  Rh23  1  0.391268  0.391268  0.829290  1
