# generated using pymatgen
data_Ba20InSi10Bi
_symmetry_space_group_name_H-M   'P 1'
_cell_length_a   8.49675800
_cell_length_b   8.49675800
_cell_length_c   17.31053800
_cell_angle_alpha   90.00000000
_cell_angle_beta   90.00000000
_cell_angle_gamma   90.00000000
_symmetry_Int_Tables_number   1
_chemical_formula_structural   Ba20InSi10Bi
_chemical_formula_sum   'Ba20 In1 Si10 Bi1'
_cell_volume   1249.73249945
_cell_formula_units_Z   1
loop_
 _symmetry_equiv_pos_site_id
 _symmetry_equiv_pos_as_xyz
  1  'x, y, z'
loop_
 _atom_site_type_symbol
 _atom_site_label
 _atom_site_symmetry_multiplicity
 _atom_site_fract_x
 _atom_site_fract_y
 _atom_site_fract_z
 _atom_site_occupancy
  Ba  Ba0  1  0.310678  0.668496  0.114197  1
  Ba  Ba1  1  0.168496  0.189322  0.114197  1
  Ba  Ba2  1  0.500000  0.000000  0.721128  1
  Ba  Ba3  1  0.329174  0.690174  0.396141  1
  Ba  Ba4  1  0.669444  0.687211  0.885874  1
  Ba  Ba5  1  0.190174  0.170826  0.396141  1
  Ba  Ba6  1  0.670826  0.309826  0.396141  1
  Ba  Ba7  1  0.171146  0.809865  0.604174  1
  Ba  Ba8  1  0.330556  0.312789  0.885874  1
  Ba  Ba9  1  0.187211  0.830556  0.885874  1
  Ba  Ba10  1  0.500000  0.000000  0.240177  1
  Ba  Ba11  1  0.828854  0.190135  0.604174  1
  Ba  Ba12  1  0.309865  0.328854  0.604174  1
  Ba  Ba13  1  0.809826  0.829174  0.396141  1
  Ba  Ba14  1  0.812789  0.169444  0.885874  1
  Ba  Ba15  1  0.831504  0.810678  0.114197  1
  Ba  Ba16  1  0.000000  0.500000  0.277741  1
  Ba  Ba17  1  0.000000  0.500000  0.760063  1
  Ba  Ba18  1  0.689322  0.331504  0.114197  1
  Ba  Ba19  1  0.690135  0.671146  0.604174  1
  In  In20  1  0.000000  0.500000  0.987119  1
  Si  Si21  1  0.100799  0.101309  0.745195  1
  Si  Si22  1  0.398691  0.600799  0.745195  1
  Si  Si23  1  0.600247  0.601809  0.254487  1
  Si  Si24  1  0.101809  0.899753  0.254487  1
  Si  Si25  1  0.601309  0.399201  0.745195  1
  Si  Si26  1  0.899201  0.898691  0.745195  1
  Si  Si27  1  0.399753  0.398191  0.254487  1
  Si  Si28  1  0.898191  0.100247  0.254487  1
  Si  Si29  1  0.500000  0.000000  0.511540  1
  Si  Si30  1  0.000000  0.500000  0.488055  1
  Bi  Bi31  1  0.500000  0.000000  0.013906  1
