# generated using pymatgen
data_Dy3Lu2In3Br
_symmetry_space_group_name_H-M   'P 1'
_cell_length_a   9.13433800
_cell_length_b   9.13433821
_cell_length_c   6.67926500
_cell_angle_alpha   90.00000000
_cell_angle_beta   90.00000000
_cell_angle_gamma   119.99999923
_symmetry_Int_Tables_number   1
_chemical_formula_structural   Dy3Lu2In3Br
_chemical_formula_sum   'Dy6 Lu4 In6 Br2'
_cell_volume   482.62906811
_cell_formula_units_Z   2
loop_
 _symmetry_equiv_pos_site_id
 _symmetry_equiv_pos_as_xyz
  1  'x, y, z'
loop_
 _atom_site_type_symbol
 _atom_site_label
 _atom_site_symmetry_multiplicity
 _atom_site_fract_x
 _atom_site_fract_y
 _atom_site_fract_z
 _atom_site_occupancy
  Dy  Dy0  1  0.732813  0.732813  0.250000  1
  Dy  Dy1  1  0.000000  0.732813  0.750000  1
  Dy  Dy2  1  0.732813  0.000000  0.750000  1
  Dy  Dy3  1  0.267187  0.267187  0.750000  1
  Dy  Dy4  1  0.000000  0.267187  0.250000  1
  Dy  Dy5  1  0.267187  0.000000  0.250000  1
  Lu  Lu6  1  0.333333  0.666667  0.500000  1
  Lu  Lu7  1  0.666667  0.333333  0.500000  1
  Lu  Lu8  1  0.333333  0.666667  0.000000  1
  Lu  Lu9  1  0.666667  0.333333  0.000000  1
  In  In10  1  0.393282  0.000000  0.750000  1
  In  In11  1  0.000000  0.606718  0.250000  1
  In  In12  1  0.606718  0.000000  0.250000  1
  In  In13  1  0.000000  0.393282  0.750000  1
  In  In14  1  0.393282  0.393282  0.250000  1
  In  In15  1  0.606718  0.606718  0.750000  1
  Br  Br16  1  0.000000  0.000000  0.500000  1
  Br  Br17  1  0.000000  0.000000  0.000000  1
