# generated using pymatgen
data_Nd5Bi3Cl
_symmetry_space_group_name_H-M   'P 1'
_cell_length_a   9.57661600
_cell_length_b   9.57661492
_cell_length_c   6.68223600
_cell_angle_alpha   90.00000000
_cell_angle_beta   90.00000000
_cell_angle_gamma   119.99700618
_symmetry_Int_Tables_number   1
_chemical_formula_structural   Nd5Bi3Cl
_chemical_formula_sum   'Nd10 Bi6 Cl2'
_cell_volume   530.74955747
_cell_formula_units_Z   2
loop_
 _symmetry_equiv_pos_site_id
 _symmetry_equiv_pos_as_xyz
  1  'x, y, z'
loop_
 _atom_site_type_symbol
 _atom_site_label
 _atom_site_symmetry_multiplicity
 _atom_site_fract_x
 _atom_site_fract_y
 _atom_site_fract_z
 _atom_site_occupancy
  Nd  Nd0  1  0.666669  0.333344  0.000001  1
  Nd  Nd1  1  0.333345  0.666670  0.000001  1
  Nd  Nd2  1  0.266884  0.000000  0.250000  1
  Nd  Nd3  1  0.000000  0.266884  0.250000  1
  Nd  Nd4  1  0.733113  0.733113  0.250000  1
  Nd  Nd5  1  0.666656  0.333331  0.500000  1
  Nd  Nd6  1  0.333331  0.666656  0.500000  1
  Nd  Nd7  1  0.733116  0.000000  0.750001  1
  Nd  Nd8  1  0.266887  0.266887  0.750001  1
  Nd  Nd9  1  0.000000  0.733117  0.750001  1
  Bi  Bi10  1  0.614661  0.000000  0.249999  1
  Bi  Bi11  1  0.000000  0.614661  0.249999  1
  Bi  Bi12  1  0.385336  0.385336  0.250003  1
  Bi  Bi13  1  0.385339  0.000000  0.749998  1
  Bi  Bi14  1  0.000001  0.385339  0.749998  1
  Bi  Bi15  1  0.614664  0.614664  0.750003  1
  Cl  Cl16  1  0.000002  0.000002  0.999999  1
  Cl  Cl17  1  0.999998  0.999998  0.499998  1
