# generated using pymatgen
data_Rb6TaIO5
_symmetry_space_group_name_H-M   'P 1'
_cell_length_a   7.96623622
_cell_length_b   7.96623555
_cell_length_c   7.96623600
_cell_angle_alpha   59.99999815
_cell_angle_beta   60.00000090
_cell_angle_gamma   60.00000025
_symmetry_Int_Tables_number   1
_chemical_formula_structural   Rb6TaIO5
_chemical_formula_sum   'Rb6 Ta1 I1 O5'
_cell_volume   357.47402660
_cell_formula_units_Z   1
loop_
 _symmetry_equiv_pos_site_id
 _symmetry_equiv_pos_as_xyz
  1  'x, y, z'
loop_
 _atom_site_type_symbol
 _atom_site_label
 _atom_site_symmetry_multiplicity
 _atom_site_fract_x
 _atom_site_fract_y
 _atom_site_fract_z
 _atom_site_occupancy
  Rb  Rb0  1  0.488736  0.011265  0.011265  1
  Rb  Rb1  1  0.011265  0.488736  0.011265  1
  Rb  Rb2  1  0.488736  0.488736  0.011265  1
  Rb  Rb3  1  0.011265  0.011265  0.488736  1
  Rb  Rb4  1  0.488736  0.011265  0.488736  1
  Rb  Rb5  1  0.011265  0.488736  0.488736  1
  Ta  Ta6  1  0.500000  0.500000  0.500000  1
  I  I7  1  0.000000  0.000000  0.000000  1
  O  O8  1  0.250000  0.250000  0.250000  1
  O  O9  1  0.595851  0.595851  0.212446  1
  O  O10  1  0.595851  0.212446  0.595851  1
  O  O11  1  0.212446  0.595851  0.595851  1
  O  O12  1  0.595851  0.595851  0.595851  1
