# generated using pymatgen
data_TlHgPd3S2
_symmetry_space_group_name_H-M   'P 1'
_cell_length_a   5.75121705
_cell_length_b   5.75121873
_cell_length_c   5.75121800
_cell_angle_alpha   63.54158391
_cell_angle_beta   63.54158672
_cell_angle_gamma   63.54158811
_symmetry_Int_Tables_number   1
_chemical_formula_structural   TlHgPd3S2
_chemical_formula_sum   'Tl1 Hg1 Pd3 S2'
_cell_volume   145.04412386
_cell_formula_units_Z   1
loop_
 _symmetry_equiv_pos_site_id
 _symmetry_equiv_pos_as_xyz
  1  'x, y, z'
loop_
 _atom_site_type_symbol
 _atom_site_label
 _atom_site_symmetry_multiplicity
 _atom_site_fract_x
 _atom_site_fract_y
 _atom_site_fract_z
 _atom_site_occupancy
  Tl  Tl0  1  0.500000  0.500000  0.500000  1
  Hg  Hg1  1  0.000000  0.000000  0.000000  1
  Pd  Pd2  1  0.000000  0.000000  0.500000  1
  Pd  Pd3  1  0.000000  0.500000  0.000000  1
  Pd  Pd4  1  0.500000  0.000000  0.000000  1
  S  S5  1  0.720712  0.720712  0.720712  1
  S  S6  1  0.279288  0.279288  0.279288  1
