# generated using pymatgen
data_SrEuTm2(Ge4N7)2
_symmetry_space_group_name_H-M   'P 1'
_cell_length_a   6.28199800
_cell_length_b   6.28199763
_cell_length_c   10.27064500
_cell_angle_alpha   90.00000000
_cell_angle_beta   90.00000000
_cell_angle_gamma   119.99999144
_symmetry_Int_Tables_number   1
_chemical_formula_structural   SrEuTm2(Ge4N7)2
_chemical_formula_sum   'Sr1 Eu1 Tm2 Ge8 N14'
_cell_volume   351.01360460
_cell_formula_units_Z   1
loop_
 _symmetry_equiv_pos_site_id
 _symmetry_equiv_pos_as_xyz
  1  'x, y, z'
loop_
 _atom_site_type_symbol
 _atom_site_label
 _atom_site_symmetry_multiplicity
 _atom_site_fract_x
 _atom_site_fract_y
 _atom_site_fract_z
 _atom_site_occupancy
  Sr  Sr0  1  0.333333  0.666667  0.085990  1
  Eu  Eu1  1  0.666667  0.333333  0.587338  1
  Tm  Tm2  1  0.666667  0.333333  0.951143  1
  Tm  Tm3  1  0.333333  0.666667  0.450954  1
  Ge  Ge4  1  0.173264  0.346527  0.760314  1
  Ge  Ge5  1  0.826488  0.173512  0.260961  1
  Ge  Ge6  1  0.347021  0.173512  0.260961  1
  Ge  Ge7  1  0.653473  0.826736  0.760314  1
  Ge  Ge8  1  0.173264  0.826736  0.760314  1
  Ge  Ge9  1  0.826488  0.652979  0.260961  1
  Ge  Ge10  1  0.000000  0.000000  0.025130  1
  Ge  Ge11  1  0.000000  0.000000  0.524402  1
  N  N12  1  0.000000  0.000000  0.832933  1
  N  N13  1  0.000000  0.000000  0.332802  1
  N  N14  1  0.839956  0.679912  0.081307  1
  N  N15  1  0.159861  0.840139  0.580963  1
  N  N16  1  0.680278  0.840139  0.580963  1
  N  N17  1  0.320088  0.160044  0.081307  1
  N  N18  1  0.839956  0.160044  0.081307  1
  N  N19  1  0.159861  0.319722  0.580963  1
  N  N20  1  0.496680  0.503320  0.816542  1
  N  N21  1  0.992014  0.496007  0.318230  1
  N  N22  1  0.503993  0.007986  0.318230  1
  N  N23  1  0.496680  0.993361  0.816542  1
  N  N24  1  0.503993  0.496007  0.318230  1
  N  N25  1  0.006639  0.503320  0.816542  1
