# generated using pymatgen
data_CeTh2Sb4Pd3
_symmetry_space_group_name_H-M   'P 1'
_cell_length_a   8.56554579
_cell_length_b   8.56542604
_cell_length_c   8.56560381
_cell_angle_alpha   109.49737837
_cell_angle_beta   109.49538108
_cell_angle_gamma   109.42634562
_symmetry_Int_Tables_number   1
_chemical_formula_structural   CeTh2Sb4Pd3
_chemical_formula_sum   'Ce2 Th4 Sb8 Pd6'
_cell_volume   483.73862154
_cell_formula_units_Z   2
loop_
 _symmetry_equiv_pos_site_id
 _symmetry_equiv_pos_as_xyz
  1  'x, y, z'
loop_
 _atom_site_type_symbol
 _atom_site_label
 _atom_site_symmetry_multiplicity
 _atom_site_fract_x
 _atom_site_fract_y
 _atom_site_fract_z
 _atom_site_occupancy
  Ce  Ce0  1  0.374496  0.249284  0.624350  1
  Ce  Ce1  1  0.749271  0.874495  0.124328  1
  Th  Th2  1  0.249872  0.625437  0.374658  1
  Th  Th3  1  0.625174  0.375709  0.250913  1
  Th  Th4  1  0.875729  0.125152  0.750923  1
  Th  Th5  1  0.125435  0.749898  0.874674  1
  Sb  Sb6  1  0.000318  0.327866  0.499157  1
  Sb  Sb7  1  0.827919  0.500388  0.999124  1
  Sb  Sb8  1  0.501085  0.001040  0.830988  1
  Sb  Sb9  1  0.668499  0.668869  0.671328  1
  Sb  Sb10  1  0.168956  0.168546  0.171390  1
  Sb  Sb11  1  0.332115  0.499970  0.998505  1
  Sb  Sb12  1  0.501050  0.001092  0.331047  1
  Sb  Sb13  1  0.999947  0.832121  0.498532  1
  Pd  Pd14  1  0.125179  0.873063  0.248174  1
  Pd  Pd15  1  0.624232  0.749954  0.376190  1
  Pd  Pd16  1  0.875854  0.252041  0.125842  1
  Pd  Pd17  1  0.250032  0.124342  0.876149  1
  Pd  Pd18  1  0.751889  0.375753  0.625806  1
  Pd  Pd19  1  0.372947  0.624980  0.747920  1
