# generated using pymatgen
data_Hf6Zr6Al10Ir7
_symmetry_space_group_name_H-M   'P 1'
_cell_length_a   9.06135125
_cell_length_b   9.02872415
_cell_length_c   9.02872452
_cell_angle_alpha   59.76499810
_cell_angle_beta   59.88038459
_cell_angle_gamma   59.88038285
_symmetry_Int_Tables_number   1
_chemical_formula_structural   Hf6Zr6Al10Ir7
_chemical_formula_sum   'Hf6 Zr6 Al10 Ir7'
_cell_volume   520.43765373
_cell_formula_units_Z   1
loop_
 _symmetry_equiv_pos_site_id
 _symmetry_equiv_pos_as_xyz
  1  'x, y, z'
loop_
 _atom_site_type_symbol
 _atom_site_label
 _atom_site_symmetry_multiplicity
 _atom_site_fract_x
 _atom_site_fract_y
 _atom_site_fract_z
 _atom_site_occupancy
  Hf  Hf0  1  0.875904  0.885251  0.362943  1
  Hf  Hf1  1  0.875904  0.362943  0.885251  1
  Hf  Hf2  1  0.366941  0.881185  0.881185  1
  Hf  Hf3  1  0.870689  0.881185  0.881185  1
  Hf  Hf4  1  0.123850  0.124103  0.628197  1
  Hf  Hf5  1  0.123850  0.628197  0.124103  1
  Zr  Zr6  1  0.682590  0.688266  0.316171  1
  Zr  Zr7  1  0.312973  0.688266  0.316171  1
  Zr  Zr8  1  0.688937  0.311063  0.311063  1
  Zr  Zr9  1  0.312973  0.316171  0.688266  1
  Zr  Zr10  1  0.682590  0.316171  0.688266  1
  Zr  Zr11  1  0.317664  0.682336  0.682336  1
  Al  Al12  1  0.634806  0.121747  0.121747  1
  Al  Al13  1  0.121698  0.121747  0.121747  1
  Al  Al14  1  0.658412  0.656306  0.026871  1
  Al  Al15  1  0.658412  0.026871  0.656306  1
  Al  Al16  1  0.022082  0.658898  0.658898  1
  Al  Al17  1  0.660119  0.658898  0.658898  1
  Al  Al18  1  0.340780  0.331824  0.986615  1
  Al  Al19  1  0.340780  0.986615  0.331824  1
  Al  Al20  1  0.976740  0.337276  0.337276  1
  Al  Al21  1  0.348709  0.337276  0.337276  1
  Ir  Ir22  1  0.003289  0.996711  0.996711  1
  Ir  Ir23  1  0.000437  0.998499  0.502040  1
  Ir  Ir24  1  0.499023  0.998499  0.502040  1
  Ir  Ir25  1  0.999572  0.500428  0.500428  1
  Ir  Ir26  1  0.499023  0.502040  0.998499  1
  Ir  Ir27  1  0.000437  0.502040  0.998499  1
  Ir  Ir28  1  0.500812  0.999188  0.999188  1
