# generated using pymatgen
data_Tm3Lu5Re3TcB24
_symmetry_space_group_name_H-M   'P 1'
_cell_length_a   3.62700900
_cell_length_b   9.07642689
_cell_length_c   11.43515200
_cell_angle_alpha   90.02412991
_cell_angle_beta   90.00000000
_cell_angle_gamma   90.00000000
_symmetry_Int_Tables_number   1
_chemical_formula_structural   Tm3Lu5Re3TcB24
_chemical_formula_sum   'Tm3 Lu5 Re3 Tc1 B24'
_cell_volume   376.44839534
_cell_formula_units_Z   1
loop_
 _symmetry_equiv_pos_site_id
 _symmetry_equiv_pos_as_xyz
  1  'x, y, z'
loop_
 _atom_site_type_symbol
 _atom_site_label
 _atom_site_symmetry_multiplicity
 _atom_site_fract_x
 _atom_site_fract_y
 _atom_site_fract_z
 _atom_site_occupancy
  Tm  Tm0  1  0.000000  0.323375  0.413802  1
  Tm  Tm1  1  0.000000  0.676984  0.585966  1
  Tm  Tm2  1  0.000000  0.823049  0.086118  1
  Lu  Lu3  1  0.000000  0.176963  0.913945  1
  Lu  Lu4  1  0.000000  0.942472  0.370069  1
  Lu  Lu5  1  0.000000  0.056517  0.629463  1
  Lu  Lu6  1  0.000000  0.443939  0.130112  1
  Lu  Lu7  1  0.000000  0.556484  0.870675  1
  Re  Re8  1  0.000000  0.360644  0.679791  1
  Re  Re9  1  0.000000  0.139272  0.179439  1
  Re  Re10  1  0.000000  0.861098  0.820536  1
  Tc  Tc11  1  0.000000  0.639358  0.320184  1
  B  B12  1  0.500000  0.553368  0.433143  1
  B  B13  1  0.500000  0.446794  0.566581  1
  B  B14  1  0.500000  0.053421  0.066345  1
  B  B15  1  0.500000  0.947191  0.933393  1
  B  B16  1  0.500000  0.750302  0.419121  1
  B  B17  1  0.500000  0.249212  0.580717  1
  B  B18  1  0.500000  0.250823  0.080369  1
  B  B19  1  0.500000  0.749450  0.919324  1
  B  B20  1  0.500000  0.792997  0.264903  1
  B  B21  1  0.500000  0.206511  0.735213  1
  B  B22  1  0.500000  0.293359  0.235054  1
  B  B23  1  0.500000  0.706704  0.765048  1
  B  B24  1  0.500000  0.630537  0.184580  1
  B  B25  1  0.500000  0.369387  0.815812  1
  B  B26  1  0.500000  0.130225  0.315538  1
  B  B27  1  0.500000  0.869670  0.684473  1
  B  B28  1  0.500000  0.981063  0.212066  1
  B  B29  1  0.500000  0.019204  0.787894  1
  B  B30  1  0.500000  0.481442  0.287863  1
  B  B31  1  0.500000  0.518807  0.712373  1
  B  B32  1  0.500000  0.599119  0.027698  1
  B  B33  1  0.500000  0.400790  0.972582  1
  B  B34  1  0.500000  0.098621  0.472327  1
  B  B35  1  0.500000  0.900846  0.527484  1
