# generated using pymatgen
data_Y2Tm3ReRuC7
_symmetry_space_group_name_H-M   'P 1'
_cell_length_a   8.20633217
_cell_length_b   8.19471151
_cell_length_c   3.44373500
_cell_angle_alpha   90.00000000
_cell_angle_beta   90.00000000
_cell_angle_gamma   121.92207227
_symmetry_Int_Tables_number   1
_chemical_formula_structural   Y2Tm3ReRuC7
_chemical_formula_sum   'Y2 Tm3 Re1 Ru1 C7'
_cell_volume   196.56288138
_cell_formula_units_Z   1
loop_
 _symmetry_equiv_pos_site_id
 _symmetry_equiv_pos_as_xyz
  1  'x, y, z'
loop_
 _atom_site_type_symbol
 _atom_site_label
 _atom_site_symmetry_multiplicity
 _atom_site_fract_x
 _atom_site_fract_y
 _atom_site_fract_z
 _atom_site_occupancy
  Y  Y0  1  0.501265  0.499766  0.000000  1
  Y  Y1  1  0.073992  0.334020  0.500000  1
  Tm  Tm2  1  0.920334  0.659875  0.500000  1
  Tm  Tm3  1  0.661489  0.923303  0.500000  1
  Tm  Tm4  1  0.341455  0.078921  0.500000  1
  Re  Re5  1  0.284473  0.716256  0.000000  1
  Ru  Ru6  1  0.712843  0.286665  0.000000  1
  C  C7  1  0.629639  0.370511  0.500000  1
  C  C8  1  0.374335  0.628232  0.500000  1
  C  C9  1  0.000034  0.999996  0.000000  1
  C  C10  1  0.172410  0.167625  0.000000  1
  C  C11  1  0.829032  0.830129  0.000000  1
  C  C12  1  0.000947  0.505637  0.000000  1
  C  C13  1  0.497753  0.999064  0.000000  1
