# generated using pymatgen
data_Ac3AgGeS7
_symmetry_space_group_name_H-M   'P 1'
_cell_length_a   10.78909300
_cell_length_b   10.78905063
_cell_length_c   6.03020300
_cell_angle_alpha   90.00000000
_cell_angle_beta   90.00000000
_cell_angle_gamma   120.00004706
_symmetry_Int_Tables_number   1
_chemical_formula_structural   Ac3AgGeS7
_chemical_formula_sum   'Ac6 Ag2 Ge2 S14'
_cell_volume   607.89773618
_cell_formula_units_Z   2
loop_
 _symmetry_equiv_pos_site_id
 _symmetry_equiv_pos_as_xyz
  1  'x, y, z'
loop_
 _atom_site_type_symbol
 _atom_site_label
 _atom_site_symmetry_multiplicity
 _atom_site_fract_x
 _atom_site_fract_y
 _atom_site_fract_z
 _atom_site_occupancy
  Ac  Ac0  1  0.124558  0.359096  0.256027  1
  Ac  Ac1  1  0.640908  0.765461  0.256028  1
  Ac  Ac2  1  0.234539  0.875444  0.256029  1
  Ac  Ac3  1  0.875443  0.640904  0.756027  1
  Ac  Ac4  1  0.765461  0.124556  0.756029  1
  Ac  Ac5  1  0.359091  0.234538  0.756028  1
  Ag  Ag6  1  0.000000  0.000000  0.302796  1
  Ag  Ag7  1  0.000000  0.000000  0.802796  1
  Ge  Ge8  1  0.666662  0.333332  0.171449  1
  Ge  Ge9  1  0.333339  0.666669  0.671449  1
  S  S10  1  0.524261  0.114540  0.025419  1
  S  S11  1  0.590276  0.475738  0.025420  1
  S  S12  1  0.885455  0.409722  0.025426  1
  S  S13  1  0.333341  0.666671  0.039203  1
  S  S14  1  0.262376  0.171766  0.271066  1
  S  S15  1  0.828237  0.090613  0.271067  1
  S  S16  1  0.909390  0.737623  0.271066  1
  S  S17  1  0.409724  0.524263  0.525419  1
  S  S18  1  0.475739  0.885460  0.525418  1
  S  S19  1  0.114545  0.590279  0.525426  1
  S  S20  1  0.666659  0.333328  0.539203  1
  S  S21  1  0.737624  0.828234  0.771066  1
  S  S22  1  0.090610  0.262377  0.771066  1
  S  S23  1  0.171763  0.909387  0.771067  1
