# generated using pymatgen
data_Cs8Tl10Si
_symmetry_space_group_name_H-M   'P 1'
_cell_length_a   11.10586900
_cell_length_b   11.10586900
_cell_length_c   14.97321600
_cell_angle_alpha   90.00000000
_cell_angle_beta   90.00000000
_cell_angle_gamma   90.00000000
_symmetry_Int_Tables_number   1
_chemical_formula_structural   Cs8Tl10Si
_chemical_formula_sum   'Cs16 Tl20 Si2'
_cell_volume   1846.80134638
_cell_formula_units_Z   2
loop_
 _symmetry_equiv_pos_site_id
 _symmetry_equiv_pos_as_xyz
  1  'x, y, z'
loop_
 _atom_site_type_symbol
 _atom_site_label
 _atom_site_symmetry_multiplicity
 _atom_site_fract_x
 _atom_site_fract_y
 _atom_site_fract_z
 _atom_site_occupancy
  Cs  Cs0  1  0.706214  0.069872  0.140543  1
  Cs  Cs1  1  0.293786  0.930128  0.140543  1
  Cs  Cs2  1  0.293786  0.069872  0.859457  1
  Cs  Cs3  1  0.706214  0.930128  0.859457  1
  Cs  Cs4  1  0.793786  0.430128  0.359457  1
  Cs  Cs5  1  0.206214  0.569872  0.359457  1
  Cs  Cs6  1  0.206214  0.430128  0.640543  1
  Cs  Cs7  1  0.793786  0.569872  0.640543  1
  Cs  Cs8  1  0.069872  0.706214  0.859457  1
  Cs  Cs9  1  0.930128  0.293786  0.859457  1
  Cs  Cs10  1  0.069872  0.293786  0.140543  1
  Cs  Cs11  1  0.930128  0.706214  0.140543  1
  Cs  Cs12  1  0.430128  0.793786  0.640543  1
  Cs  Cs13  1  0.569872  0.206214  0.640543  1
  Cs  Cs14  1  0.430128  0.206214  0.359457  1
  Cs  Cs15  1  0.569872  0.793786  0.359457  1
  Tl  Tl16  1  0.780479  0.087109  0.410067  1
  Tl  Tl17  1  0.219521  0.912891  0.410067  1
  Tl  Tl18  1  0.219521  0.087109  0.589933  1
  Tl  Tl19  1  0.780479  0.912891  0.589933  1
  Tl  Tl20  1  0.719521  0.412891  0.089933  1
  Tl  Tl21  1  0.280479  0.587109  0.089933  1
  Tl  Tl22  1  0.280479  0.412891  0.910067  1
  Tl  Tl23  1  0.719521  0.587109  0.910067  1
  Tl  Tl24  1  0.087109  0.780479  0.589933  1
  Tl  Tl25  1  0.912891  0.219521  0.589933  1
  Tl  Tl26  1  0.087109  0.219521  0.410067  1
  Tl  Tl27  1  0.912891  0.780479  0.410067  1
  Tl  Tl28  1  0.412891  0.719521  0.910067  1
  Tl  Tl29  1  0.587109  0.280479  0.910067  1
  Tl  Tl30  1  0.412891  0.280479  0.089933  1
  Tl  Tl31  1  0.587109  0.719521  0.089933  1
  Tl  Tl32  1  0.500000  0.500000  0.219414  1
  Tl  Tl33  1  0.500000  0.500000  0.780586  1
  Tl  Tl34  1  0.000000  0.000000  0.280586  1
  Tl  Tl35  1  0.000000  0.000000  0.719414  1
  Si  Si36  1  0.500000  0.500000  0.000000  1
  Si  Si37  1  0.000000  0.000000  0.500000  1
