# generated using pymatgen
data_Ho3Al8CuNi6
_symmetry_space_group_name_H-M   'P 1'
_cell_length_a   8.91675600
_cell_length_b   8.93119238
_cell_length_c   4.08118700
_cell_angle_alpha   90.00000000
_cell_angle_beta   90.00000000
_cell_angle_gamma   119.94653690
_symmetry_Int_Tables_number   1
_chemical_formula_structural   Ho3Al8CuNi6
_chemical_formula_sum   'Ho3 Al8 Cu1 Ni6'
_cell_volume   281.62238274
_cell_formula_units_Z   1
loop_
 _symmetry_equiv_pos_site_id
 _symmetry_equiv_pos_as_xyz
  1  'x, y, z'
loop_
 _atom_site_type_symbol
 _atom_site_label
 _atom_site_symmetry_multiplicity
 _atom_site_fract_x
 _atom_site_fract_y
 _atom_site_fract_z
 _atom_site_occupancy
  Ho  Ho0  1  0.332807  0.670606  0.500000  1
  Ho  Ho1  1  0.662201  0.329394  0.500000  1
  Ho  Ho2  1  0.007547  0.000000  0.000000  1
  Al  Al3  1  0.493388  0.000000  0.000000  1
  Al  Al4  1  0.997184  0.497827  0.000000  1
  Al  Al5  1  0.499357  0.502173  0.000000  1
  Al  Al6  1  0.702531  0.000000  0.500000  1
  Al  Al7  1  0.999707  0.297161  0.500000  1
  Al  Al8  1  0.006508  0.710752  0.500000  1
  Al  Al9  1  0.702547  0.702839  0.500000  1
  Al  Al10  1  0.295755  0.289248  0.500000  1
  Cu  Cu11  1  0.297020  0.000000  0.500000  1
  Ni  Ni12  1  0.181931  0.363444  0.000000  1
  Ni  Ni13  1  0.818487  0.636556  0.000000  1
  Ni  Ni14  1  0.636324  0.819680  0.000000  1
  Ni  Ni15  1  0.369737  0.189412  0.000000  1
  Ni  Ni16  1  0.180324  0.810588  0.000000  1
  Ni  Ni17  1  0.816644  0.180320  0.000000  1
