# generated using pymatgen
data_Ho6Er10Cd4Ir3Ru
_symmetry_space_group_name_H-M   'P 1'
_cell_length_a   9.60273032
_cell_length_b   9.60273052
_cell_length_c   9.60272926
_cell_angle_alpha   59.60092808
_cell_angle_beta   59.60092713
_cell_angle_gamma   59.60092742
_symmetry_Int_Tables_number   1
_chemical_formula_structural   Ho6Er10Cd4Ir3Ru
_chemical_formula_sum   'Ho6 Er10 Cd4 Ir3 Ru1'
_cell_volume   620.45738963
_cell_formula_units_Z   1
loop_
 _symmetry_equiv_pos_site_id
 _symmetry_equiv_pos_as_xyz
  1  'x, y, z'
loop_
 _atom_site_type_symbol
 _atom_site_label
 _atom_site_symmetry_multiplicity
 _atom_site_fract_x
 _atom_site_fract_y
 _atom_site_fract_z
 _atom_site_occupancy
  Ho  Ho0  1  0.189443  0.810790  0.810790  1
  Ho  Ho1  1  0.809088  0.188268  0.188268  1
  Ho  Ho2  1  0.810790  0.189443  0.810790  1
  Ho  Ho3  1  0.188268  0.809088  0.188268  1
  Ho  Ho4  1  0.810790  0.810790  0.189443  1
  Ho  Ho5  1  0.188268  0.188268  0.809088  1
  Er  Er6  1  0.599645  0.599645  0.599645  1
  Er  Er7  1  0.598254  0.598254  0.207485  1
  Er  Er8  1  0.598254  0.207485  0.598254  1
  Er  Er9  1  0.207485  0.598254  0.598254  1
  Er  Er10  1  0.061959  0.438800  0.438800  1
  Er  Er11  1  0.437140  0.059953  0.059953  1
  Er  Er12  1  0.438800  0.061959  0.438800  1
  Er  Er13  1  0.059953  0.437140  0.059953  1
  Er  Er14  1  0.438800  0.438800  0.061959  1
  Er  Er15  1  0.059953  0.059953  0.437140  1
  Cd  Cd16  1  0.829412  0.829412  0.829412  1
  Cd  Cd17  1  0.831035  0.831035  0.505885  1
  Cd  Cd18  1  0.831035  0.505885  0.831035  1
  Cd  Cd19  1  0.505885  0.831035  0.831035  1
  Ir  Ir20  1  0.394002  0.394002  0.826646  1
  Ir  Ir21  1  0.394002  0.826646  0.394002  1
  Ir  Ir22  1  0.826646  0.394002  0.394002  1
  Ru  Ru23  1  0.391096  0.391096  0.391096  1
