# generated using pymatgen
data_Ce2TcC2
_symmetry_space_group_name_H-M   'P 1'
_cell_length_a   5.24090200
_cell_length_b   6.56424900
_cell_length_c   9.97645500
_cell_angle_alpha   90.00000000
_cell_angle_beta   90.00000000
_cell_angle_gamma   90.00000000
_symmetry_Int_Tables_number   1
_chemical_formula_structural   Ce2TcC2
_chemical_formula_sum   'Ce8 Tc4 C8'
_cell_volume   343.21584825
_cell_formula_units_Z   4
loop_
 _symmetry_equiv_pos_site_id
 _symmetry_equiv_pos_as_xyz
  1  'x, y, z'
loop_
 _atom_site_type_symbol
 _atom_site_label
 _atom_site_symmetry_multiplicity
 _atom_site_fract_x
 _atom_site_fract_y
 _atom_site_fract_z
 _atom_site_occupancy
  Ce  Ce0  1  0.250000  0.976665  0.776519  1
  Ce  Ce1  1  0.750000  0.523335  0.276519  1
  Ce  Ce2  1  0.250000  0.476665  0.723481  1
  Ce  Ce3  1  0.750000  0.023335  0.223481  1
  Ce  Ce4  1  0.250000  0.307438  0.046489  1
  Ce  Ce5  1  0.750000  0.192562  0.546489  1
  Ce  Ce6  1  0.250000  0.807438  0.453511  1
  Ce  Ce7  1  0.750000  0.692562  0.953511  1
  Tc  Tc8  1  0.250000  0.773301  0.137165  1
  Tc  Tc9  1  0.750000  0.726699  0.637165  1
  Tc  Tc10  1  0.250000  0.273301  0.362835  1
  Tc  Tc11  1  0.750000  0.226699  0.862835  1
  C  C12  1  0.250000  0.171020  0.551978  1
  C  C13  1  0.750000  0.328980  0.051978  1
  C  C14  1  0.250000  0.671020  0.948022  1
  C  C15  1  0.750000  0.828980  0.448022  1
  C  C16  1  0.250000  0.533432  0.254899  1
  C  C17  1  0.750000  0.966568  0.754899  1
  C  C18  1  0.250000  0.033432  0.245101  1
  C  C19  1  0.750000  0.466568  0.745101  1
