# generated using pymatgen
data_Yb7Sc(Tc3Ge4)4
_symmetry_space_group_name_H-M   'P 1'
_cell_length_a   6.90199269
_cell_length_b   6.92934442
_cell_length_c   12.76173062
_cell_angle_alpha   90.19178911
_cell_angle_beta   89.98074234
_cell_angle_gamma   90.05623056
_symmetry_Int_Tables_number   1
_chemical_formula_structural   Yb7Sc(Tc3Ge4)4
_chemical_formula_sum   'Yb7 Sc1 Tc12 Ge16'
_cell_volume   610.34241315
_cell_formula_units_Z   1
loop_
 _symmetry_equiv_pos_site_id
 _symmetry_equiv_pos_as_xyz
  1  'x, y, z'
loop_
 _atom_site_type_symbol
 _atom_site_label
 _atom_site_symmetry_multiplicity
 _atom_site_fract_x
 _atom_site_fract_y
 _atom_site_fract_z
 _atom_site_occupancy
  Yb  Yb0  1  0.485714  0.664508  0.588179  1
  Yb  Yb1  1  0.985582  0.836797  0.911287  1
  Yb  Yb2  1  0.514470  0.337054  0.089115  1
  Yb  Yb3  1  0.013606  0.164100  0.411289  1
  Yb  Yb4  1  0.512670  0.334847  0.412077  1
  Yb  Yb5  1  0.014408  0.164880  0.088730  1
  Yb  Yb6  1  0.485420  0.662854  0.911073  1
  Sc  Sc7  1  0.980675  0.830274  0.594314  1
  Tc  Tc8  1  0.681849  0.139086  0.626695  1
  Tc  Tc9  1  0.175753  0.353859  0.869854  1
  Tc  Tc10  1  0.327283  0.853706  0.129307  1
  Tc  Tc11  1  0.826730  0.648848  0.372905  1
  Tc  Tc12  1  0.323012  0.854825  0.371892  1
  Tc  Tc13  1  0.824148  0.647069  0.129440  1
  Tc  Tc14  1  0.674443  0.146411  0.869869  1
  Tc  Tc15  1  0.175917  0.354900  0.628146  1
  Tc  Tc16  1  0.830145  0.502258  0.747900  1
  Tc  Tc17  1  0.326262  0.999296  0.748105  1
  Tc  Tc18  1  0.171351  0.503428  0.250322  1
  Tc  Tc19  1  0.671612  0.998947  0.250737  1
  Ge  Ge20  1  0.665810  0.948562  0.450436  1
  Ge  Ge21  1  0.162460  0.551418  0.050631  1
  Ge  Ge22  1  0.337248  0.051716  0.948606  1
  Ge  Ge23  1  0.836549  0.449296  0.549672  1
  Ge  Ge24  1  0.330872  0.048778  0.550050  1
  Ge  Ge25  1  0.837378  0.448308  0.948391  1
  Ge  Ge26  1  0.662633  0.949789  0.050341  1
  Ge  Ge27  1  0.161697  0.553359  0.450910  1
  Ge  Ge28  1  0.477906  0.359704  0.747768  1
  Ge  Ge29  1  0.976499  0.138014  0.749412  1
  Ge  Ge30  1  0.524905  0.638687  0.251944  1
  Ge  Ge31  1  0.024729  0.862987  0.249254  1
  Ge  Ge32  1  0.681232  0.847337  0.750623  1
  Ge  Ge33  1  0.183128  0.652170  0.749900  1
  Ge  Ge34  1  0.317813  0.151969  0.250237  1
  Ge  Ge35  1  0.818087  0.349958  0.250588  1
