# generated using pymatgen
data_Sc10Cd3Ni
_symmetry_space_group_name_H-M   'P 1'
_cell_length_a   9.01710200
_cell_length_b   9.01710202
_cell_length_c   9.01432700
_cell_angle_alpha   90.00000000
_cell_angle_beta   90.00000000
_cell_angle_gamma   119.99999259
_symmetry_Int_Tables_number   1
_chemical_formula_structural   Sc10Cd3Ni
_chemical_formula_sum   'Sc20 Cd6 Ni2'
_cell_volume   634.74302624
_cell_formula_units_Z   2
loop_
 _symmetry_equiv_pos_site_id
 _symmetry_equiv_pos_as_xyz
  1  'x, y, z'
loop_
 _atom_site_type_symbol
 _atom_site_label
 _atom_site_symmetry_multiplicity
 _atom_site_fract_x
 _atom_site_fract_y
 _atom_site_fract_z
 _atom_site_occupancy
  Sc  Sc0  1  0.000000  0.000000  0.500000  1
  Sc  Sc1  1  0.000000  0.000000  0.000000  1
  Sc  Sc2  1  0.542636  0.457364  0.250000  1
  Sc  Sc3  1  0.542636  0.085271  0.250000  1
  Sc  Sc4  1  0.914729  0.457364  0.250000  1
  Sc  Sc5  1  0.457364  0.542636  0.750000  1
  Sc  Sc6  1  0.457364  0.914729  0.750000  1
  Sc  Sc7  1  0.085271  0.542636  0.750000  1
  Sc  Sc8  1  0.211440  0.788560  0.437983  1
  Sc  Sc9  1  0.211440  0.422881  0.437983  1
  Sc  Sc10  1  0.577119  0.788560  0.437983  1
  Sc  Sc11  1  0.788560  0.211440  0.562017  1
  Sc  Sc12  1  0.788560  0.577119  0.562017  1
  Sc  Sc13  1  0.422881  0.211440  0.562017  1
  Sc  Sc14  1  0.788560  0.211440  0.937983  1
  Sc  Sc15  1  0.788560  0.577119  0.937983  1
  Sc  Sc16  1  0.422881  0.211440  0.937983  1
  Sc  Sc17  1  0.211440  0.788560  0.062017  1
  Sc  Sc18  1  0.211440  0.422881  0.062017  1
  Sc  Sc19  1  0.577119  0.788560  0.062017  1
  Cd  Cd20  1  0.883566  0.116434  0.250000  1
  Cd  Cd21  1  0.883566  0.767133  0.250000  1
  Cd  Cd22  1  0.232867  0.116434  0.250000  1
  Cd  Cd23  1  0.116434  0.883566  0.750000  1
  Cd  Cd24  1  0.116434  0.232867  0.750000  1
  Cd  Cd25  1  0.767133  0.883566  0.750000  1
  Ni  Ni26  1  0.333333  0.666667  0.250000  1
  Ni  Ni27  1  0.666667  0.333333  0.750000  1
