# generated using pymatgen
data_Nb12AlGa7(NiC)4
_symmetry_space_group_name_H-M   'P 1'
_cell_length_a   8.25444360
_cell_length_b   8.26301097
_cell_length_c   8.26340823
_cell_angle_alpha   59.99932667
_cell_angle_beta   59.98699504
_cell_angle_gamma   59.96106644
_symmetry_Int_Tables_number   1
_chemical_formula_structural   Nb12AlGa7(NiC)4
_chemical_formula_sum   'Nb12 Al1 Ga7 Ni4 C4'
_cell_volume   398.37998292
_cell_formula_units_Z   1
loop_
 _symmetry_equiv_pos_site_id
 _symmetry_equiv_pos_as_xyz
  1  'x, y, z'
loop_
 _atom_site_type_symbol
 _atom_site_label
 _atom_site_symmetry_multiplicity
 _atom_site_fract_x
 _atom_site_fract_y
 _atom_site_fract_z
 _atom_site_occupancy
  Nb  Nb0  1  0.812920  0.812533  0.187304  1
  Nb  Nb1  1  0.187165  0.187630  0.812588  1
  Nb  Nb2  1  0.812955  0.187313  0.812379  1
  Nb  Nb3  1  0.186990  0.812662  0.187711  1
  Nb  Nb4  1  0.187120  0.812644  0.812594  1
  Nb  Nb5  1  0.812923  0.187247  0.187338  1
  Nb  Nb6  1  0.437309  0.437648  0.062495  1
  Nb  Nb7  1  0.062871  0.062209  0.437476  1
  Nb  Nb8  1  0.437286  0.062482  0.437791  1
  Nb  Nb9  1  0.063030  0.437406  0.062128  1
  Nb  Nb10  1  0.062914  0.437418  0.437476  1
  Nb  Nb11  1  0.437307  0.062547  0.062460  1
  Al  Al12  1  0.747346  0.417544  0.417566  1
  Ga  Ga13  1  0.416807  0.750634  0.416269  1
  Ga  Ga14  1  0.416792  0.416310  0.750595  1
  Ga  Ga15  1  0.416805  0.416299  0.416274  1
  Ga  Ga16  1  0.498628  0.833797  0.833778  1
  Ga  Ga17  1  0.833721  0.498957  0.833672  1
  Ga  Ga18  1  0.833740  0.833627  0.498996  1
  Ga  Ga19  1  0.833722  0.833642  0.833667  1
  Ni  Ni20  1  0.124589  0.625138  0.625134  1
  Ni  Ni21  1  0.625513  0.125845  0.624320  1
  Ni  Ni22  1  0.625521  0.624316  0.125848  1
  Ni  Ni23  1  0.625518  0.624317  0.624316  1
  C  C24  1  0.624397  0.125203  0.125197  1
  C  C25  1  0.125371  0.625058  0.124786  1
  C  C26  1  0.125369  0.124787  0.625056  1
  C  C27  1  0.125370  0.124785  0.124787  1
