# generated using pymatgen
data_Ho8Tm4Tc3Ni
_symmetry_space_group_name_H-M   'P 1'
_cell_length_a   6.23278435
_cell_length_b   7.29467013
_cell_length_c   9.10868589
_cell_angle_alpha   89.94160493
_cell_angle_beta   89.91221580
_cell_angle_gamma   90.32744975
_symmetry_Int_Tables_number   1
_chemical_formula_structural   Ho8Tm4Tc3Ni
_chemical_formula_sum   'Ho8 Tm4 Tc3 Ni1'
_cell_volume   414.12900821
_cell_formula_units_Z   1
loop_
 _symmetry_equiv_pos_site_id
 _symmetry_equiv_pos_as_xyz
  1  'x, y, z'
loop_
 _atom_site_type_symbol
 _atom_site_label
 _atom_site_symmetry_multiplicity
 _atom_site_fract_x
 _atom_site_fract_y
 _atom_site_fract_z
 _atom_site_occupancy
  Ho  Ho0  1  0.834926  0.823127  0.939036  1
  Ho  Ho1  1  0.666772  0.323795  0.937905  1
  Ho  Ho2  1  0.835141  0.822459  0.560917  1
  Ho  Ho3  1  0.328167  0.677378  0.433091  1
  Ho  Ho4  1  0.163544  0.177666  0.062932  1
  Ho  Ho5  1  0.622856  0.039625  0.250683  1
  Ho  Ho6  1  0.140020  0.457665  0.749292  1
  Ho  Ho7  1  0.373908  0.958234  0.749565  1
  Tm  Tm8  1  0.328610  0.676773  0.067070  1
  Tm  Tm9  1  0.161499  0.177152  0.437344  1
  Tm  Tm10  1  0.665853  0.323587  0.561888  1
  Tm  Tm11  1  0.871931  0.540679  0.250386  1
  Tc  Tc12  1  0.038674  0.885460  0.249157  1
  Tc  Tc13  1  0.461912  0.388202  0.251761  1
  Tc  Tc14  1  0.960423  0.113908  0.747990  1
  Ni  Ni15  1  0.545762  0.614290  0.750984  1
