# generated using pymatgen
data_Pr5Ho11Cd3HgIr3Pt
_symmetry_space_group_name_H-M   'P 1'
_cell_length_a   9.72029153
_cell_length_b   9.73292479
_cell_length_c   9.73292400
_cell_angle_alpha   59.99519674
_cell_angle_beta   60.06405930
_cell_angle_gamma   60.06405679
_symmetry_Int_Tables_number   1
_chemical_formula_structural   Pr5Ho11Cd3HgIr3Pt
_chemical_formula_sum   'Pr5 Ho11 Cd3 Hg1 Ir3 Pt1'
_cell_volume   651.71094729
_cell_formula_units_Z   1
loop_
 _symmetry_equiv_pos_site_id
 _symmetry_equiv_pos_as_xyz
  1  'x, y, z'
loop_
 _atom_site_type_symbol
 _atom_site_label
 _atom_site_symmetry_multiplicity
 _atom_site_fract_x
 _atom_site_fract_y
 _atom_site_fract_z
 _atom_site_occupancy
  Pr  Pr0  1  0.557475  0.942691  0.942691  1
  Pr  Pr1  1  0.563580  0.937630  0.559441  1
  Pr  Pr2  1  0.941094  0.560663  0.936450  1
  Pr  Pr3  1  0.563580  0.559441  0.937630  1
  Pr  Pr4  1  0.941094  0.936450  0.560663  1
  Ho  Ho5  1  0.348021  0.346565  0.346565  1
  Ho  Ho6  1  0.349742  0.354059  0.953570  1
  Ho  Ho7  1  0.349742  0.953570  0.354059  1
  Ho  Ho8  1  0.949891  0.351685  0.351685  1
  Ho  Ho9  1  0.808777  0.187389  0.187389  1
  Ho  Ho10  1  0.184568  0.813601  0.813601  1
  Ho  Ho11  1  0.186931  0.807694  0.190019  1
  Ho  Ho12  1  0.812719  0.186203  0.811371  1
  Ho  Ho13  1  0.186931  0.190019  0.807694  1
  Ho  Ho14  1  0.812719  0.811371  0.186203  1
  Ho  Ho15  1  0.945061  0.554248  0.554248  1
  Cd  Cd16  1  0.578341  0.579361  0.262086  1
  Cd  Cd17  1  0.578341  0.262086  0.579361  1
  Cd  Cd18  1  0.259970  0.578500  0.578500  1
  Hg  Hg19  1  0.585309  0.580557  0.580557  1
  Ir  Ir20  1  0.138906  0.146791  0.575410  1
  Ir  Ir21  1  0.138906  0.575410  0.146791  1
  Ir  Ir22  1  0.575529  0.141531  0.141531  1
  Pt  Pt23  1  0.142769  0.142483  0.142483  1
