# generated using pymatgen
data_Dy11YZnCo4Bi
_symmetry_space_group_name_H-M   'P 1'
_cell_length_a   8.36564453
_cell_length_b   8.35966110
_cell_length_c   8.36564402
_cell_angle_alpha   109.51218603
_cell_angle_beta   111.55637386
_cell_angle_gamma   107.39928381
_symmetry_Int_Tables_number   1
_chemical_formula_structural   Dy11YZnCo4Bi
_chemical_formula_sum   'Dy11 Y1 Zn1 Co4 Bi1'
_cell_volume   449.62049769
_cell_formula_units_Z   1
loop_
 _symmetry_equiv_pos_site_id
 _symmetry_equiv_pos_as_xyz
  1  'x, y, z'
loop_
 _atom_site_type_symbol
 _atom_site_label
 _atom_site_symmetry_multiplicity
 _atom_site_fract_x
 _atom_site_fract_y
 _atom_site_fract_z
 _atom_site_occupancy
  Dy  Dy0  1  0.287076  0.182491  0.468921  1
  Dy  Dy1  1  0.713439  0.817569  0.531883  1
  Dy  Dy2  1  0.285686  0.817569  0.104131  1
  Dy  Dy3  1  0.713570  0.182491  0.895413  1
  Dy  Dy4  1  0.621700  0.313996  0.307822  1
  Dy  Dy5  1  0.378119  0.685662  0.691659  1
  Dy  Dy6  1  0.006174  0.313996  0.692296  1
  Dy  Dy7  1  0.994003  0.685662  0.307543  1
  Dy  Dy8  1  0.217999  0.424657  0.206658  1
  Dy  Dy9  1  0.781765  0.575027  0.793262  1
  Dy  Dy10  1  0.218201  0.011409  0.793208  1
  Y  Y11  1  0.780523  0.986190  0.205667  1
  Zn  Zn12  1  0.000273  0.000102  0.999829  1
  Co  Co13  1  0.000954  0.378845  0.377891  1
  Co  Co14  1  0.000036  0.623819  0.623782  1
  Co  Co15  1  0.388106  0.888156  0.500050  1
  Co  Co16  1  0.612157  0.112156  0.499998  1
  Bi  Bi17  1  0.500218  0.500203  0.999985  1
