# generated using pymatgen
data_Er3MnAl3Ga2
_symmetry_space_group_name_H-M   'P 1'
_cell_length_a   6.95743200
_cell_length_b   6.95743262
_cell_length_c   4.24569100
_cell_angle_alpha   90.00000000
_cell_angle_beta   90.00000000
_cell_angle_gamma   120.00000654
_symmetry_Int_Tables_number   1
_chemical_formula_structural   Er3MnAl3Ga2
_chemical_formula_sum   'Er3 Mn1 Al3 Ga2'
_cell_volume   177.98236195
_cell_formula_units_Z   1
loop_
 _symmetry_equiv_pos_site_id
 _symmetry_equiv_pos_as_xyz
  1  'x, y, z'
loop_
 _atom_site_type_symbol
 _atom_site_label
 _atom_site_symmetry_multiplicity
 _atom_site_fract_x
 _atom_site_fract_y
 _atom_site_fract_z
 _atom_site_occupancy
  Er  Er0  1  0.415685  0.000000  0.500000  1
  Er  Er1  1  0.000000  0.415685  0.500000  1
  Er  Er2  1  0.584315  0.584315  0.500000  1
  Mn  Mn3  1  0.000000  0.000000  0.500000  1
  Al  Al4  1  0.763377  0.000000  0.000000  1
  Al  Al5  1  0.000000  0.763377  0.000000  1
  Al  Al6  1  0.236623  0.236623  0.000000  1
  Ga  Ga7  1  0.333333  0.666667  0.000000  1
  Ga  Ga8  1  0.666667  0.333333  0.000000  1
