# generated using pymatgen
data_Tm4Co9B4Os
_symmetry_space_group_name_H-M   'P 1'
_cell_length_a   5.09067900
_cell_length_b   5.09067846
_cell_length_c   20.14159000
_cell_angle_alpha   90.00000000
_cell_angle_beta   90.00000000
_cell_angle_gamma   119.99999702
_symmetry_Int_Tables_number   1
_chemical_formula_structural   Tm4Co9B4Os
_chemical_formula_sum   'Tm8 Co18 B8 Os2'
_cell_volume   452.03886469
_cell_formula_units_Z   2
loop_
 _symmetry_equiv_pos_site_id
 _symmetry_equiv_pos_as_xyz
  1  'x, y, z'
loop_
 _atom_site_type_symbol
 _atom_site_label
 _atom_site_symmetry_multiplicity
 _atom_site_fract_x
 _atom_site_fract_y
 _atom_site_fract_z
 _atom_site_occupancy
  Tm  Tm0  1  0.666667  0.333333  0.824413  1
  Tm  Tm1  1  0.666667  0.333333  0.977054  1
  Tm  Tm2  1  0.333333  0.666667  0.477054  1
  Tm  Tm3  1  0.333333  0.666667  0.022946  1
  Tm  Tm4  1  0.333333  0.666667  0.175587  1
  Tm  Tm5  1  0.666667  0.333333  0.522946  1
  Tm  Tm6  1  0.666667  0.333333  0.675587  1
  Tm  Tm7  1  0.333333  0.666667  0.324413  1
  Co  Co8  1  0.164522  0.329043  0.893354  1
  Co  Co9  1  0.164522  0.835478  0.606646  1
  Co  Co10  1  0.835478  0.164522  0.393354  1
  Co  Co11  1  0.333890  0.166945  0.250000  1
  Co  Co12  1  0.329043  0.164522  0.393354  1
  Co  Co13  1  0.835478  0.670957  0.106646  1
  Co  Co14  1  0.835478  0.670957  0.393354  1
  Co  Co15  1  0.833055  0.666110  0.250000  1
  Co  Co16  1  0.670957  0.835478  0.606646  1
  Co  Co17  1  0.666110  0.833055  0.750000  1
  Co  Co18  1  0.835478  0.164522  0.106646  1
  Co  Co19  1  0.670957  0.835478  0.893354  1
  Co  Co20  1  0.166945  0.333890  0.750000  1
  Co  Co21  1  0.166945  0.833055  0.750000  1
  Co  Co22  1  0.833055  0.166945  0.250000  1
  Co  Co23  1  0.329043  0.164522  0.106646  1
  Co  Co24  1  0.164522  0.835478  0.893354  1
  Co  Co25  1  0.164522  0.329043  0.606646  1
  B  B26  1  0.333333  0.666667  0.823386  1
  B  B27  1  0.333333  0.666667  0.676614  1
  B  B28  1  0.666667  0.333333  0.323386  1
  B  B29  1  0.000000  0.000000  0.822370  1
  B  B30  1  0.666667  0.333333  0.176614  1
  B  B31  1  0.000000  0.000000  0.677630  1
  B  B32  1  0.000000  0.000000  0.322370  1
  B  B33  1  0.000000  0.000000  0.177630  1
  Os  Os34  1  0.000000  0.000000  0.000000  1
  Os  Os35  1  0.000000  0.000000  0.500000  1
