# generated using pymatgen
data_Sm5TmSc2(Co4P3)4
_symmetry_space_group_name_H-M   'P 1'
_cell_length_a   3.76067100
_cell_length_b   10.75148702
_cell_length_c   12.48195902
_cell_angle_alpha   89.99379691
_cell_angle_beta   90.00000000
_cell_angle_gamma   90.00000000
_symmetry_Int_Tables_number   1
_chemical_formula_structural   Sm5TmSc2(Co4P3)4
_chemical_formula_sum   'Sm5 Tm1 Sc2 Co16 P12'
_cell_volume   504.68061738
_cell_formula_units_Z   1
loop_
 _symmetry_equiv_pos_site_id
 _symmetry_equiv_pos_as_xyz
  1  'x, y, z'
loop_
 _atom_site_type_symbol
 _atom_site_label
 _atom_site_symmetry_multiplicity
 _atom_site_fract_x
 _atom_site_fract_y
 _atom_site_fract_z
 _atom_site_occupancy
  Sm  Sm0  1  0.000000  0.499495  0.528059  1
  Sm  Sm1  1  0.500000  0.000282  0.472951  1
  Sm  Sm2  1  0.500000  0.822172  0.204959  1
  Sm  Sm3  1  0.500000  0.178572  0.206861  1
  Sm  Sm4  1  0.000000  0.677169  0.793655  1
  Tm  Tm5  1  0.000000  0.321592  0.795064  1
  Sc  Sc6  1  0.500000  0.499709  0.155818  1
  Sc  Sc7  1  0.000000  0.000909  0.843871  1
  Co  Co8  1  0.500000  0.495928  0.707728  1
  Co  Co9  1  0.000000  0.000747  0.293362  1
  Co  Co10  1  0.000000  0.498303  0.986773  1
  Co  Co11  1  0.500000  0.001349  0.010412  1
  Co  Co12  1  0.500000  0.330760  0.993384  1
  Co  Co13  1  0.500000  0.667487  0.993775  1
  Co  Co14  1  0.000000  0.169934  0.003074  1
  Co  Co15  1  0.000000  0.831452  0.004070  1
  Co  Co16  1  0.500000  0.296059  0.435256  1
  Co  Co17  1  0.500000  0.704091  0.432623  1
  Co  Co18  1  0.000000  0.204822  0.570257  1
  Co  Co19  1  0.000000  0.795554  0.567168  1
  Co  Co20  1  0.500000  0.879781  0.702372  1
  Co  Co21  1  0.500000  0.122877  0.705434  1
  Co  Co22  1  0.000000  0.620743  0.296818  1
  Co  Co23  1  0.000000  0.379542  0.298412  1
  P  P24  1  0.500000  0.497210  0.886295  1
  P  P25  1  0.000000  0.001056  0.110929  1
  P  P26  1  0.500000  0.500097  0.357783  1
  P  P27  1  0.000000  0.999602  0.642707  1
  P  P28  1  0.500000  0.307227  0.618478  1
  P  P29  1  0.500000  0.693343  0.614152  1
  P  P30  1  0.000000  0.194601  0.387727  1
  P  P31  1  0.000000  0.806389  0.385261  1
  P  P32  1  0.500000  0.840465  0.894299  1
  P  P33  1  0.500000  0.161485  0.891823  1
  P  P34  1  0.000000  0.658960  0.103665  1
  P  P35  1  0.000000  0.340234  0.104724  1
