# generated using pymatgen
data_Th2Os3W
_symmetry_space_group_name_H-M   'P 1'
_cell_length_a   5.27744854
_cell_length_b   5.80248992
_cell_length_c   5.80249000
_cell_angle_alpha   59.99999954
_cell_angle_beta   56.65055667
_cell_angle_gamma   56.65055387
_symmetry_Int_Tables_number   1
_chemical_formula_structural   Th2Os3W
_chemical_formula_sum   'Th2 Os3 W1'
_cell_volume   118.90112089
_cell_formula_units_Z   1
loop_
 _symmetry_equiv_pos_site_id
 _symmetry_equiv_pos_as_xyz
  1  'x, y, z'
loop_
 _atom_site_type_symbol
 _atom_site_label
 _atom_site_symmetry_multiplicity
 _atom_site_fract_x
 _atom_site_fract_y
 _atom_site_fract_z
 _atom_site_occupancy
  Th  Th0  1  0.745572  0.751476  0.751476  1
  Th  Th1  1  0.504428  0.498524  0.498524  1
  Os  Os2  1  0.125000  0.125000  0.125000  1
  Os  Os3  1  0.125000  0.625000  0.125000  1
  Os  Os4  1  0.125000  0.125000  0.625000  1
  W  W5  1  0.625000  0.125000  0.125000  1
