# generated using pymatgen
data_DyU(P2O7)2
_symmetry_space_group_name_H-M   'P 1'
_cell_length_a   8.91607765
_cell_length_b   5.30009289
_cell_length_c   7.38089907
_cell_angle_alpha   73.03399653
_cell_angle_beta   89.40674004
_cell_angle_gamma   89.61089551
_symmetry_Int_Tables_number   1
_chemical_formula_structural   DyU(P2O7)2
_chemical_formula_sum   'Dy1 U1 P4 O14'
_cell_volume   333.59148052
_cell_formula_units_Z   1
loop_
 _symmetry_equiv_pos_site_id
 _symmetry_equiv_pos_as_xyz
  1  'x, y, z'
loop_
 _atom_site_type_symbol
 _atom_site_label
 _atom_site_symmetry_multiplicity
 _atom_site_fract_x
 _atom_site_fract_y
 _atom_site_fract_z
 _atom_site_occupancy
  Dy  Dy0  1  0.548523  0.206373  0.270567  1
  U  U1  1  0.049874  0.795457  0.724590  1
  P  P2  1  0.369223  0.605743  0.512569  1
  P  P3  1  0.286251  0.247825  0.887826  1
  P  P4  1  0.859506  0.393458  0.483919  1
  P  P5  1  0.785519  0.750996  0.113783  1
  O  O6  1  0.155494  0.438915  0.901841  1
  O  O7  1  0.218775  0.020840  0.821427  1
  O  O8  1  0.738348  0.991778  0.169559  1
  O  O9  1  0.376232  0.152070  0.064914  1
  O  O10  1  0.976598  0.164987  0.527637  1
  O  O11  1  0.701198  0.295910  0.491434  1
  O  O12  1  0.372769  0.438325  0.379174  1
  O  O13  1  0.661141  0.574016  0.087141  1
  O  O14  1  0.482562  0.823754  0.479722  1
  O  O15  1  0.398194  0.411757  0.726106  1
  O  O16  1  0.901341  0.575837  0.274872  1
  O  O17  1  0.889968  0.564014  0.618956  1
  O  O18  1  0.206265  0.719491  0.527071  1
  O  O19  1  0.894308  0.828456  0.936893  1
