# generated using pymatgen
data_Ba4Li3InSn5Pb
_symmetry_space_group_name_H-M   'P 1'
_cell_length_a   11.17592378
_cell_length_b   11.17592209
_cell_length_c   7.86263652
_cell_angle_alpha   89.41941572
_cell_angle_beta   89.41941918
_cell_angle_gamma   27.21343105
_symmetry_Int_Tables_number   1
_chemical_formula_structural   Ba4Li3InSn5Pb
_chemical_formula_sum   'Ba4 Li3 In1 Sn5 Pb1'
_cell_volume   449.07479437
_cell_formula_units_Z   1
loop_
 _symmetry_equiv_pos_site_id
 _symmetry_equiv_pos_as_xyz
  1  'x, y, z'
loop_
 _atom_site_type_symbol
 _atom_site_label
 _atom_site_symmetry_multiplicity
 _atom_site_fract_x
 _atom_site_fract_y
 _atom_site_fract_z
 _atom_site_occupancy
  Ba  Ba0  1  0.658773  0.658773  0.247733  1
  Ba  Ba1  1  0.339461  0.339461  0.760322  1
  Ba  Ba2  1  0.447663  0.447663  0.253100  1
  Ba  Ba3  1  0.551844  0.551844  0.745014  1
  Li  Li4  1  0.190290  0.190290  0.560529  1
  Li  Li5  1  0.812335  0.812335  0.064576  1
  Li  Li6  1  0.188967  0.188967  0.931067  1
  In  In7  1  0.807249  0.807249  0.443859  1
  Sn  Sn8  1  0.721578  0.721578  0.759255  1
  Sn  Sn9  1  0.938377  0.938377  0.939740  1
  Sn  Sn10  1  0.063197  0.063197  0.059985  1
  Sn  Sn11  1  0.939719  0.939719  0.573438  1
  Sn  Sn12  1  0.062580  0.062580  0.425822  1
  Pb  Pb13  1  0.277966  0.277966  0.235561  1
