# generated using pymatgen
data_Sr4Ga2Ir3Pd
_symmetry_space_group_name_H-M   'P 1'
_cell_length_a   5.97007920
_cell_length_b   5.92491850
_cell_length_c   7.87190815
_cell_angle_alpha   79.90881889
_cell_angle_beta   79.93187782
_cell_angle_gamma   61.30771294
_symmetry_Int_Tables_number   1
_chemical_formula_structural   Sr4Ga2Ir3Pd
_chemical_formula_sum   'Sr4 Ga2 Ir3 Pd1'
_cell_volume   239.14832678
_cell_formula_units_Z   1
loop_
 _symmetry_equiv_pos_site_id
 _symmetry_equiv_pos_as_xyz
  1  'x, y, z'
loop_
 _atom_site_type_symbol
 _atom_site_label
 _atom_site_symmetry_multiplicity
 _atom_site_fract_x
 _atom_site_fract_y
 _atom_site_fract_z
 _atom_site_occupancy
  Sr  Sr0  1  0.784823  0.512495  0.356187  1
  Sr  Sr1  1  0.490668  0.213559  0.143384  1
  Sr  Sr2  1  0.217169  0.488699  0.643618  1
  Sr  Sr3  1  0.506987  0.783266  0.856514  1
  Ga  Ga4  1  0.096819  0.912719  0.239336  1
  Ga  Ga5  1  0.926113  0.083703  0.758754  1
  Ir  Ir6  1  0.005158  0.714948  0.009346  1
  Ir  Ir7  1  0.260260  0.994398  0.489735  1
  Ir  Ir8  1  0.992380  0.289580  0.993278  1
  Pd  Pd9  1  0.719624  0.006633  0.509848  1
