# generated using pymatgen
data_Ho4TmCo2Ag
_symmetry_space_group_name_H-M   'P 1'
_cell_length_a   8.48820541
_cell_length_b   8.48820615
_cell_length_c   8.48820596
_cell_angle_alpha   127.55287407
_cell_angle_beta   127.55288468
_cell_angle_gamma   77.35047825
_symmetry_Int_Tables_number   1
_chemical_formula_structural   Ho4TmCo2Ag
_chemical_formula_sum   'Ho8 Tm2 Co4 Ag2'
_cell_volume   372.89846327
_cell_formula_units_Z   2
loop_
 _symmetry_equiv_pos_site_id
 _symmetry_equiv_pos_as_xyz
  1  'x, y, z'
loop_
 _atom_site_type_symbol
 _atom_site_label
 _atom_site_symmetry_multiplicity
 _atom_site_fract_x
 _atom_site_fract_y
 _atom_site_fract_z
 _atom_site_occupancy
  Ho  Ho0  1  0.706079  0.528594  0.500000  1
  Ho  Ho1  1  0.471406  0.971406  0.177484  1
  Ho  Ho2  1  0.793921  0.293921  0.822516  1
  Ho  Ho3  1  0.528594  0.028594  0.822516  1
  Ho  Ho4  1  0.028594  0.206079  0.500000  1
  Ho  Ho5  1  0.293921  0.471406  0.500000  1
  Ho  Ho6  1  0.206079  0.706079  0.177484  1
  Ho  Ho7  1  0.971406  0.793921  0.500000  1
  Tm  Tm8  1  0.000000  0.000000  0.000000  1
  Tm  Tm9  1  0.500000  0.500000  0.000000  1
  Co  Co10  1  0.135762  0.635762  0.771523  1
  Co  Co11  1  0.864238  0.364238  0.228477  1
  Co  Co12  1  0.635762  0.864238  0.500000  1
  Co  Co13  1  0.364238  0.135762  0.500000  1
  Ag  Ag14  1  0.250000  0.250000  0.000000  1
  Ag  Ag15  1  0.750000  0.750000  0.000000  1
