# generated using pymatgen
data_Er16CdAg3Pt4
_symmetry_space_group_name_H-M   'P 1'
_cell_length_a   9.51618066
_cell_length_b   9.51815241
_cell_length_c   9.51815200
_cell_angle_alpha   60.00000143
_cell_angle_beta   59.99314707
_cell_angle_gamma   59.99314643
_symmetry_Int_Tables_number   1
_chemical_formula_structural   Er16CdAg3Pt4
_chemical_formula_sum   'Er16 Cd1 Ag3 Pt4'
_cell_volume   609.54809837
_cell_formula_units_Z   1
loop_
 _symmetry_equiv_pos_site_id
 _symmetry_equiv_pos_as_xyz
  1  'x, y, z'
loop_
 _atom_site_type_symbol
 _atom_site_label
 _atom_site_symmetry_multiplicity
 _atom_site_fract_x
 _atom_site_fract_y
 _atom_site_fract_z
 _atom_site_occupancy
  Er  Er0  1  0.354691  0.353904  0.353904  1
  Er  Er1  1  0.354691  0.353904  0.937501  1
  Er  Er2  1  0.354691  0.937501  0.353904  1
  Er  Er3  1  0.935349  0.354884  0.354884  1
  Er  Er4  1  0.810816  0.189162  0.189162  1
  Er  Er5  1  0.188858  0.811116  0.811116  1
  Er  Er6  1  0.188858  0.811116  0.188910  1
  Er  Er7  1  0.810816  0.189162  0.810860  1
  Er  Er8  1  0.188858  0.188910  0.811116  1
  Er  Er9  1  0.810816  0.810860  0.189162  1
  Er  Er10  1  0.932118  0.566109  0.566109  1
  Er  Er11  1  0.566547  0.933895  0.933895  1
  Er  Er12  1  0.566547  0.933895  0.565664  1
  Er  Er13  1  0.932118  0.566109  0.935664  1
  Er  Er14  1  0.566547  0.565664  0.933895  1
  Er  Er15  1  0.932118  0.935664  0.566109  1
  Cd  Cd16  1  0.256814  0.581062  0.581062  1
  Ag  Ag17  1  0.583138  0.582469  0.582469  1
  Ag  Ag18  1  0.583138  0.582469  0.251925  1
  Ag  Ag19  1  0.583138  0.251925  0.582469  1
  Pt  Pt20  1  0.143401  0.143757  0.143757  1
  Pt  Pt21  1  0.143401  0.143757  0.569084  1
  Pt  Pt22  1  0.143401  0.569084  0.143757  1
  Pt  Pt23  1  0.569127  0.143624  0.143624  1
