# generated using pymatgen
data_Rb3Ba3AlP4
_symmetry_space_group_name_H-M   'P 1'
_cell_length_a   10.48227300
_cell_length_b   10.48227250
_cell_length_c   7.82960700
_cell_angle_alpha   90.00000000
_cell_angle_beta   90.00000000
_cell_angle_gamma   119.99999210
_symmetry_Int_Tables_number   1
_chemical_formula_structural   Rb3Ba3AlP4
_chemical_formula_sum   'Rb6 Ba6 Al2 P8'
_cell_volume   745.04334847
_cell_formula_units_Z   2
loop_
 _symmetry_equiv_pos_site_id
 _symmetry_equiv_pos_as_xyz
  1  'x, y, z'
loop_
 _atom_site_type_symbol
 _atom_site_label
 _atom_site_symmetry_multiplicity
 _atom_site_fract_x
 _atom_site_fract_y
 _atom_site_fract_z
 _atom_site_occupancy
  Rb  Rb0  1  0.730773  0.865386  0.174337  1
  Rb  Rb1  1  0.865386  0.134614  0.674337  1
  Rb  Rb2  1  0.865386  0.730773  0.674337  1
  Rb  Rb3  1  0.134614  0.269227  0.174337  1
  Rb  Rb4  1  0.134614  0.865386  0.174337  1
  Rb  Rb5  1  0.269227  0.134614  0.674337  1
  Ba  Ba6  1  0.053379  0.526690  0.498829  1
  Ba  Ba7  1  0.473310  0.946621  0.498829  1
  Ba  Ba8  1  0.473310  0.526690  0.498829  1
  Ba  Ba9  1  0.526690  0.473310  0.998829  1
  Ba  Ba10  1  0.526690  0.053379  0.998829  1
  Ba  Ba11  1  0.946621  0.473310  0.998829  1
  Al  Al12  1  0.333333  0.666667  0.878432  1
  Al  Al13  1  0.666667  0.333333  0.378432  1
  P  P14  1  0.666667  0.333333  0.702494  1
  P  P15  1  0.589086  0.794544  0.776259  1
  P  P16  1  0.794544  0.205456  0.276259  1
  P  P17  1  0.794544  0.589086  0.276259  1
  P  P18  1  0.333333  0.666667  0.202494  1
  P  P19  1  0.205456  0.410914  0.776259  1
  P  P20  1  0.205456  0.794544  0.776259  1
  P  P21  1  0.410914  0.205456  0.276259  1
