# generated using pymatgen
data_Rb4Li2DyHoAs4
_symmetry_space_group_name_H-M   'P 1'
_cell_length_a   10.58394364
_cell_length_b   10.58394486
_cell_length_c   6.84525200
_cell_angle_alpha   90.00000000
_cell_angle_beta   90.00000000
_cell_angle_gamma   99.33186902
_symmetry_Int_Tables_number   1
_chemical_formula_structural   Rb4Li2DyHoAs4
_chemical_formula_sum   'Rb8 Li4 Dy2 Ho2 As8'
_cell_volume   756.65614371
_cell_formula_units_Z   2
loop_
 _symmetry_equiv_pos_site_id
 _symmetry_equiv_pos_as_xyz
  1  'x, y, z'
loop_
 _atom_site_type_symbol
 _atom_site_label
 _atom_site_symmetry_multiplicity
 _atom_site_fract_x
 _atom_site_fract_y
 _atom_site_fract_z
 _atom_site_occupancy
  Rb  Rb0  1  0.567483  0.932517  0.750000  1
  Rb  Rb1  1  0.932517  0.567483  0.250000  1
  Rb  Rb2  1  0.432685  0.067315  0.250000  1
  Rb  Rb3  1  0.067315  0.432685  0.750000  1
  Rb  Rb4  1  0.678551  0.321583  0.790451  1
  Rb  Rb5  1  0.821449  0.178417  0.290451  1
  Rb  Rb6  1  0.321583  0.678551  0.209549  1
  Rb  Rb7  1  0.178417  0.821449  0.709549  1
  Li  Li8  1  0.617908  0.617908  0.000000  1
  Li  Li9  1  0.882092  0.882092  0.500000  1
  Li  Li10  1  0.382302  0.382302  0.000000  1
  Li  Li11  1  0.117698  0.117698  0.500000  1
  Dy  Dy12  1  0.131898  0.131898  0.000000  1
  Dy  Dy13  1  0.368102  0.368102  0.500000  1
  Ho  Ho14  1  0.867931  0.867931  0.000000  1
  Ho  Ho15  1  0.632069  0.632069  0.500000  1
  As  As16  1  0.344233  0.155767  0.750000  1
  As  As17  1  0.155767  0.344233  0.250000  1
  As  As18  1  0.656502  0.843498  0.250000  1
  As  As19  1  0.843498  0.656502  0.750000  1
  As  As20  1  0.909738  0.089425  0.764029  1
  As  As21  1  0.590262  0.410575  0.264029  1
  As  As22  1  0.089425  0.909738  0.235971  1
  As  As23  1  0.410575  0.590262  0.735971  1
