# generated using pymatgen
data_LiTb8HgPt2
_symmetry_space_group_name_H-M   'P 1'
_cell_length_a   9.69745319
_cell_length_b   9.69745399
_cell_length_c   9.69800300
_cell_angle_alpha   59.99812378
_cell_angle_beta   59.99812107
_cell_angle_gamma   60.43182743
_symmetry_Int_Tables_number   1
_chemical_formula_structural   LiTb8HgPt2
_chemical_formula_sum   'Li2 Tb16 Hg2 Pt4'
_cell_volume   646.94542581
_cell_formula_units_Z   2
loop_
 _symmetry_equiv_pos_site_id
 _symmetry_equiv_pos_as_xyz
  1  'x, y, z'
loop_
 _atom_site_type_symbol
 _atom_site_label
 _atom_site_symmetry_multiplicity
 _atom_site_fract_x
 _atom_site_fract_y
 _atom_site_fract_z
 _atom_site_occupancy
  Li  Li0  1  0.576499  0.283706  0.569896  1
  Li  Li1  1  0.283706  0.576499  0.569896  1
  Tb  Tb2  1  0.351032  0.351032  0.348294  1
  Tb  Tb3  1  0.351032  0.351032  0.949642  1
  Tb  Tb4  1  0.355372  0.939130  0.352749  1
  Tb  Tb5  1  0.939130  0.355372  0.352749  1
  Tb  Tb6  1  0.810165  0.188639  0.189819  1
  Tb  Tb7  1  0.188639  0.810165  0.811377  1
  Tb  Tb8  1  0.188639  0.810165  0.189819  1
  Tb  Tb9  1  0.810165  0.188639  0.811377  1
  Tb  Tb10  1  0.185240  0.185240  0.814760  1
  Tb  Tb11  1  0.806989  0.806989  0.193011  1
  Tb  Tb12  1  0.934346  0.563063  0.565522  1
  Tb  Tb13  1  0.563063  0.934346  0.937070  1
  Tb  Tb14  1  0.563063  0.934346  0.565522  1
  Tb  Tb15  1  0.934346  0.563063  0.937070  1
  Tb  Tb16  1  0.564913  0.564913  0.935087  1
  Tb  Tb17  1  0.934057  0.934057  0.565943  1
  Hg  Hg18  1  0.581636  0.581636  0.591025  1
  Hg  Hg19  1  0.581636  0.581636  0.245701  1
  Pt  Pt20  1  0.142922  0.142922  0.145549  1
  Pt  Pt21  1  0.142922  0.142922  0.568608  1
  Pt  Pt22  1  0.141059  0.569426  0.144758  1
  Pt  Pt23  1  0.569426  0.141059  0.144758  1
