# generated using pymatgen
data_Tb4Y9Lu7Bi12
_symmetry_space_group_name_H-M   'P 1'
_cell_length_a   8.22189117
_cell_length_b   9.47475941
_cell_length_c   12.03684115
_cell_angle_alpha   89.98849087
_cell_angle_beta   90.08505326
_cell_angle_gamma   89.96450393
_symmetry_Int_Tables_number   1
_chemical_formula_structural   Tb4Y9Lu7Bi12
_chemical_formula_sum   'Tb4 Y9 Lu7 Bi12'
_cell_volume   937.67399878
_cell_formula_units_Z   1
loop_
 _symmetry_equiv_pos_site_id
 _symmetry_equiv_pos_as_xyz
  1  'x, y, z'
loop_
 _atom_site_type_symbol
 _atom_site_label
 _atom_site_symmetry_multiplicity
 _atom_site_fract_x
 _atom_site_fract_y
 _atom_site_fract_z
 _atom_site_occupancy
  Tb  Tb0  1  0.185827  0.750396  0.719408  1
  Tb  Tb1  1  0.686501  0.750674  0.781708  1
  Tb  Tb2  1  0.814036  0.249683  0.281248  1
  Tb  Tb3  1  0.314029  0.250352  0.218704  1
  Y  Y4  1  0.191935  0.563757  0.440484  1
  Y  Y5  1  0.692923  0.561924  0.059166  1
  Y  Y6  1  0.193309  0.937751  0.439911  1
  Y  Y7  1  0.306683  0.062228  0.940697  1
  Y  Y8  1  0.807032  0.437438  0.559555  1
  Y  Y9  1  0.356518  0.752120  0.215334  1
  Y  Y10  1  0.853346  0.750793  0.283543  1
  Y  Y11  1  0.645201  0.250821  0.784179  1
  Y  Y12  1  0.145961  0.250598  0.716414  1
  Lu  Lu13  1  0.024090  0.750303  0.988934  1
  Lu  Lu14  1  0.525745  0.750513  0.511118  1
  Lu  Lu15  1  0.975814  0.250808  0.010803  1
  Lu  Lu16  1  0.476287  0.249912  0.488897  1
  Lu  Lu17  1  0.307575  0.431309  0.940741  1
  Lu  Lu18  1  0.806592  0.067965  0.559924  1
  Lu  Lu19  1  0.692403  0.931791  0.058815  1
  Bi  Bi20  1  0.434583  0.004174  0.671943  1
  Bi  Bi21  1  0.934416  0.496343  0.828490  1
  Bi  Bi22  1  0.565944  0.504032  0.327785  1
  Bi  Bi23  1  0.065399  0.996495  0.171592  1
  Bi  Bi24  1  0.566647  0.996678  0.328404  1
  Bi  Bi25  1  0.066560  0.504639  0.171109  1
  Bi  Bi26  1  0.433058  0.496244  0.671787  1
  Bi  Bi27  1  0.933407  0.004774  0.828689  1
  Bi  Bi28  1  0.404901  0.745276  0.957336  1
  Bi  Bi29  1  0.905790  0.754665  0.542341  1
  Bi  Bi30  1  0.594545  0.245876  0.042214  1
  Bi  Bi31  1  0.092943  0.249668  0.458729  1
