# generated using pymatgen
data_Tb2Dy3Y3(ReB6)4
_symmetry_space_group_name_H-M   'P 1'
_cell_length_a   3.68953300
_cell_length_b   9.19021301
_cell_length_c   11.57998101
_cell_angle_alpha   90.00027870
_cell_angle_beta   90.00000000
_cell_angle_gamma   90.00000000
_symmetry_Int_Tables_number   1
_chemical_formula_structural   Tb2Dy3Y3(ReB6)4
_chemical_formula_sum   'Tb2 Dy3 Y3 Re4 B24'
_cell_volume   392.64929651
_cell_formula_units_Z   1
loop_
 _symmetry_equiv_pos_site_id
 _symmetry_equiv_pos_as_xyz
  1  'x, y, z'
loop_
 _atom_site_type_symbol
 _atom_site_label
 _atom_site_symmetry_multiplicity
 _atom_site_fract_x
 _atom_site_fract_y
 _atom_site_fract_z
 _atom_site_occupancy
  Tb  Tb0  1  0.000000  0.323660  0.413844  1
  Tb  Tb1  1  0.000000  0.676364  0.586170  1
  Dy  Dy2  1  0.000000  0.057054  0.630240  1
  Dy  Dy3  1  0.000000  0.442951  0.129903  1
  Dy  Dy4  1  0.000000  0.557028  0.870073  1
  Y  Y5  1  0.000000  0.823583  0.085965  1
  Y  Y6  1  0.000000  0.176421  0.914012  1
  Y  Y7  1  0.000000  0.943042  0.369949  1
  Re  Re8  1  0.000000  0.638428  0.320640  1
  Re  Re9  1  0.000000  0.361376  0.679338  1
  Re  Re10  1  0.000000  0.138589  0.178958  1
  Re  Re11  1  0.000000  0.861508  0.820889  1
  B  B12  1  0.500000  0.553443  0.432544  1
  B  B13  1  0.500000  0.446554  0.567462  1
  B  B14  1  0.500000  0.053296  0.067156  1
  B  B15  1  0.500000  0.946706  0.932837  1
  B  B16  1  0.500000  0.748834  0.418138  1
  B  B17  1  0.500000  0.251103  0.581964  1
  B  B18  1  0.500000  0.248803  0.081561  1
  B  B19  1  0.500000  0.751207  0.918444  1
  B  B20  1  0.500000  0.791787  0.265285  1
  B  B21  1  0.500000  0.208175  0.734604  1
  B  B22  1  0.500000  0.291645  0.234157  1
  B  B23  1  0.500000  0.708362  0.765845  1
  B  B24  1  0.500000  0.630871  0.185662  1
  B  B25  1  0.500000  0.369115  0.814335  1
  B  B26  1  0.500000  0.130843  0.313946  1
  B  B27  1  0.500000  0.869286  0.686098  1
  B  B28  1  0.500000  0.982496  0.211646  1
  B  B29  1  0.500000  0.017458  0.788239  1
  B  B30  1  0.500000  0.482695  0.287845  1
  B  B31  1  0.500000  0.517281  0.712154  1
  B  B32  1  0.500000  0.600184  0.028024  1
  B  B33  1  0.500000  0.399811  0.971973  1
  B  B34  1  0.500000  0.099749  0.472130  1
  B  B35  1  0.500000  0.900293  0.527970  1
