# generated using pymatgen
data_Zr3Sc(Si3Ni5)4
_symmetry_space_group_name_H-M   'P 1'
_cell_length_a   3.72993800
_cell_length_b   6.63977924
_cell_length_c   18.41144368
_cell_angle_alpha   90.09583535
_cell_angle_beta   90.00000000
_cell_angle_gamma   90.00000000
_symmetry_Int_Tables_number   1
_chemical_formula_structural   Zr3Sc(Si3Ni5)4
_chemical_formula_sum   'Zr3 Sc1 Si12 Ni20'
_cell_volume   455.97652984
_cell_formula_units_Z   1
loop_
 _symmetry_equiv_pos_site_id
 _symmetry_equiv_pos_as_xyz
  1  'x, y, z'
loop_
 _atom_site_type_symbol
 _atom_site_label
 _atom_site_symmetry_multiplicity
 _atom_site_fract_x
 _atom_site_fract_y
 _atom_site_fract_z
 _atom_site_occupancy
  Zr  Zr0  1  0.250000  0.621097  0.642911  1
  Zr  Zr1  1  0.750000  0.379219  0.357350  1
  Zr  Zr2  1  0.750000  0.121004  0.856757  1
  Sc  Sc3  1  0.250000  0.879159  0.143739  1
  Si  Si4  1  0.250000  0.852688  0.922895  1
  Si  Si5  1  0.750000  0.150213  0.076745  1
  Si  Si6  1  0.750000  0.351554  0.577088  1
  Si  Si7  1  0.250000  0.648406  0.423495  1
  Si  Si8  1  0.750000  0.622265  0.760261  1
  Si  Si9  1  0.250000  0.376437  0.240114  1
  Si  Si10  1  0.250000  0.406171  0.913349  1
  Si  Si11  1  0.750000  0.594253  0.085597  1
  Si  Si12  1  0.750000  0.906279  0.585879  1
  Si  Si13  1  0.250000  0.093580  0.414598  1
  Si  Si14  1  0.250000  0.121497  0.739233  1
  Si  Si15  1  0.750000  0.876120  0.260075  1
  Ni  Ni16  1  0.250000  0.131625  0.994546  1
  Ni  Ni17  1  0.750000  0.381316  0.986170  1
  Ni  Ni18  1  0.750000  0.120058  0.487090  1
  Ni  Ni19  1  0.250000  0.620551  0.012888  1
  Ni  Ni20  1  0.250000  0.358033  0.115294  1
  Ni  Ni21  1  0.750000  0.644032  0.885022  1
  Ni  Ni22  1  0.750000  0.857476  0.385295  1
  Ni  Ni23  1  0.250000  0.142295  0.614724  1
  Ni  Ni24  1  0.250000  0.069312  0.293663  1
  Ni  Ni25  1  0.750000  0.929166  0.706693  1
  Ni  Ni26  1  0.750000  0.568818  0.206135  1
  Ni  Ni27  1  0.250000  0.429514  0.792366  1
  Ni  Ni28  1  0.750000  0.629783  0.505694  1
  Ni  Ni29  1  0.250000  0.370556  0.495398  1
  Ni  Ni30  1  0.250000  0.817331  0.798921  1
  Ni  Ni31  1  0.750000  0.181446  0.200763  1
  Ni  Ni32  1  0.750000  0.317327  0.700615  1
  Ni  Ni33  1  0.250000  0.681176  0.299812  1
  Ni  Ni34  1  0.250000  0.879815  0.513474  1
  Ni  Ni35  1  0.750000  0.870432  0.005346  1
