# generated using pymatgen
data_NdCuPd3Au
_symmetry_space_group_name_H-M   'P 1'
_cell_length_a   5.22986358
_cell_length_b   5.22986465
_cell_length_c   5.22986400
_cell_angle_alpha   62.58364614
_cell_angle_beta   62.58363832
_cell_angle_gamma   62.58364954
_symmetry_Int_Tables_number   1
_chemical_formula_structural   NdCuPd3Au
_chemical_formula_sum   'Nd1 Cu1 Pd3 Au1'
_cell_volume   106.96789040
_cell_formula_units_Z   1
loop_
 _symmetry_equiv_pos_site_id
 _symmetry_equiv_pos_as_xyz
  1  'x, y, z'
loop_
 _atom_site_type_symbol
 _atom_site_label
 _atom_site_symmetry_multiplicity
 _atom_site_fract_x
 _atom_site_fract_y
 _atom_site_fract_z
 _atom_site_occupancy
  Nd  Nd0  1  0.000948  0.000948  0.000948  1
  Cu  Cu1  1  0.623987  0.623987  0.623987  1
  Pd  Pd2  1  0.623476  0.623476  0.125709  1
  Pd  Pd3  1  0.623476  0.125709  0.623476  1
  Pd  Pd4  1  0.125709  0.623476  0.623476  1
  Au  Au5  1  0.252403  0.252403  0.252403  1
