# generated using pymatgen
data_Nd2Fe2P7(Ir2Ru3)2
_symmetry_space_group_name_H-M   'P 1'
_cell_length_a   9.43670537
_cell_length_b   9.43990794
_cell_length_c   3.91432800
_cell_angle_alpha   90.00000000
_cell_angle_beta   90.00000000
_cell_angle_gamma   120.06287613
_symmetry_Int_Tables_number   1
_chemical_formula_structural   Nd2Fe2P7(Ir2Ru3)2
_chemical_formula_sum   'Nd2 Fe2 P7 Ir4 Ru6'
_cell_volume   301.78697432
_cell_formula_units_Z   1
loop_
 _symmetry_equiv_pos_site_id
 _symmetry_equiv_pos_as_xyz
  1  'x, y, z'
loop_
 _atom_site_type_symbol
 _atom_site_label
 _atom_site_symmetry_multiplicity
 _atom_site_fract_x
 _atom_site_fract_y
 _atom_site_fract_z
 _atom_site_occupancy
  Nd  Nd0  1  0.665580  0.332504  0.000000  1
  Nd  Nd1  1  0.334376  0.665514  0.500000  1
  Fe  Fe2  1  0.841648  0.729644  0.000000  1
  Fe  Fe3  1  0.890646  0.161098  0.000000  1
  P  P4  1  0.303544  0.887188  0.000000  1
  P  P5  1  0.594360  0.704111  0.000000  1
  P  P6  1  0.111657  0.404399  0.000000  1
  P  P7  1  0.395269  0.286930  0.500000  1
  P  P8  1  0.880875  0.601060  0.500000  1
  P  P9  1  0.717379  0.112061  0.500000  1
  P  P10  1  0.987790  0.995338  0.000000  1
  Ir  Ir11  1  0.062364  0.632091  0.000000  1
  Ir  Ir12  1  0.439044  0.052193  0.500000  1
  Ir  Ir13  1  0.617046  0.564300  0.500000  1
  Ir  Ir14  1  0.942351  0.384181  0.500000  1
  Ru  Ru15  1  0.578364  0.941788  0.000000  1
  Ru  Ru16  1  0.369322  0.432360  0.000000  1
  Ru  Ru17  1  0.262612  0.107616  0.000000  1
  Ru  Ru18  1  0.085936  0.864931  0.500000  1
  Ru  Ru19  1  0.794700  0.915834  0.500000  1
  Ru  Ru20  1  0.125136  0.224859  0.500000  1
