# generated using pymatgen
data_Nd2Tm4Ir5Rh13
_symmetry_space_group_name_H-M   'P 1'
_cell_length_a   5.30283783
_cell_length_b   5.29865814
_cell_length_c   17.45651639
_cell_angle_alpha   89.97189930
_cell_angle_beta   89.98260808
_cell_angle_gamma   120.12977982
_symmetry_Int_Tables_number   1
_chemical_formula_structural   Nd2Tm4Ir5Rh13
_chemical_formula_sum   'Nd2 Tm4 Ir5 Rh13'
_cell_volume   424.22170393
_cell_formula_units_Z   1
loop_
 _symmetry_equiv_pos_site_id
 _symmetry_equiv_pos_as_xyz
  1  'x, y, z'
loop_
 _atom_site_type_symbol
 _atom_site_label
 _atom_site_symmetry_multiplicity
 _atom_site_fract_x
 _atom_site_fract_y
 _atom_site_fract_z
 _atom_site_occupancy
  Nd  Nd0  1  0.333394  0.666877  0.749840  1
  Nd  Nd1  1  0.666827  0.333101  0.249509  1
  Tm  Tm2  1  0.332771  0.665207  0.540591  1
  Tm  Tm3  1  0.666171  0.334047  0.040650  1
  Tm  Tm4  1  0.666581  0.333632  0.459755  1
  Tm  Tm5  1  0.333278  0.666279  0.960077  1
  Ir  Ir6  1  0.169375  0.334848  0.124388  1
  Ir  Ir7  1  0.833209  0.666566  0.624176  1
  Ir  Ir8  1  0.665134  0.830811  0.124253  1
  Ir  Ir9  1  0.998642  0.001449  0.999740  1
  Ir  Ir10  1  0.998456  0.996934  0.499681  1
  Rh  Rh11  1  0.168049  0.831746  0.124267  1
  Rh  Rh12  1  0.833308  0.169347  0.623958  1
  Rh  Rh13  1  0.335924  0.169655  0.623842  1
  Rh  Rh14  1  0.832204  0.664663  0.876301  1
  Rh  Rh15  1  0.832771  0.168065  0.875773  1
  Rh  Rh16  1  0.335321  0.167909  0.875839  1
  Rh  Rh17  1  0.664479  0.831856  0.376150  1
  Rh  Rh18  1  0.167791  0.832408  0.375714  1
  Rh  Rh19  1  0.167986  0.335374  0.376104  1
  Rh  Rh20  1  0.998675  0.001175  0.249887  1
  Rh  Rh21  1  0.999059  0.996758  0.749890  1
  Rh  Rh22  1  0.333596  0.666941  0.250019  1
  Rh  Rh23  1  0.666999  0.334355  0.749596  1
