# generated using pymatgen
data_TbSm7(SiI6)2
_symmetry_space_group_name_H-M   'P 1'
_cell_length_a   4.28901600
_cell_length_b   14.27482624
_cell_length_c   15.04036104
_cell_angle_alpha   89.83411038
_cell_angle_beta   90.00000000
_cell_angle_gamma   90.00000000
_symmetry_Int_Tables_number   1
_chemical_formula_structural   TbSm7(SiI6)2
_chemical_formula_sum   'Tb1 Sm7 Si2 I12'
_cell_volume   920.84161528
_cell_formula_units_Z   1
loop_
 _symmetry_equiv_pos_site_id
 _symmetry_equiv_pos_as_xyz
  1  'x, y, z'
loop_
 _atom_site_type_symbol
 _atom_site_label
 _atom_site_symmetry_multiplicity
 _atom_site_fract_x
 _atom_site_fract_y
 _atom_site_fract_z
 _atom_site_occupancy
  Tb  Tb0  1  0.000000  0.388692  0.074281  1
  Sm  Sm1  1  0.500000  0.114989  0.346372  1
  Sm  Sm2  1  0.500000  0.885513  0.653079  1
  Sm  Sm3  1  0.500000  0.613623  0.152981  1
  Sm  Sm4  1  0.500000  0.385301  0.847664  1
  Sm  Sm5  1  0.000000  0.112875  0.575123  1
  Sm  Sm6  1  0.000000  0.887292  0.424478  1
  Sm  Sm7  1  0.000000  0.611719  0.925326  1
  Si  Si8  1  0.500000  0.000212  0.499663  1
  Si  Si9  1  0.500000  0.498566  0.000901  1
  I  I10  1  0.500000  0.249090  0.160564  1
  I  I11  1  0.500000  0.754656  0.838343  1
  I  I12  1  0.500000  0.744269  0.337973  1
  I  I13  1  0.500000  0.255137  0.662449  1
  I  I14  1  0.000000  0.259089  0.413426  1
  I  I15  1  0.000000  0.741182  0.586338  1
  I  I16  1  0.000000  0.758181  0.086089  1
  I  I17  1  0.000000  0.242052  0.917095  1
  I  I18  1  0.000000  0.999697  0.239988  1
  I  I19  1  0.000000  0.000972  0.759464  1
  I  I20  1  0.000000  0.495935  0.257350  1
  I  I21  1  0.000000  0.500954  0.741054  1
