# generated using pymatgen
data_AcGa3CoRu
_symmetry_space_group_name_H-M   'P 1'
_cell_length_a   6.41032451
_cell_length_b   6.41032492
_cell_length_c   5.58158500
_cell_angle_alpha   90.00000000
_cell_angle_beta   90.00000000
_cell_angle_gamma   103.74761396
_symmetry_Int_Tables_number   1
_chemical_formula_structural   AcGa3CoRu
_chemical_formula_sum   'Ac2 Ga6 Co2 Ru2'
_cell_volume   222.78924693
_cell_formula_units_Z   2
loop_
 _symmetry_equiv_pos_site_id
 _symmetry_equiv_pos_as_xyz
  1  'x, y, z'
loop_
 _atom_site_type_symbol
 _atom_site_label
 _atom_site_symmetry_multiplicity
 _atom_site_fract_x
 _atom_site_fract_y
 _atom_site_fract_z
 _atom_site_occupancy
  Ac  Ac0  1  0.340215  0.340215  0.250000  1
  Ac  Ac1  1  0.659785  0.659785  0.750000  1
  Ga  Ga2  1  0.909015  0.528423  0.244164  1
  Ga  Ga3  1  0.090985  0.471577  0.744164  1
  Ga  Ga4  1  0.057747  0.057747  0.750000  1
  Ga  Ga5  1  0.942253  0.942253  0.250000  1
  Ga  Ga6  1  0.471577  0.090985  0.755836  1
  Ga  Ga7  1  0.528423  0.909015  0.255836  1
  Co  Co8  1  0.798487  0.201513  0.000000  1
  Co  Co9  1  0.201513  0.798487  0.500000  1
  Ru  Ru10  1  0.204029  0.795971  0.000000  1
  Ru  Ru11  1  0.795971  0.204029  0.500000  1
