# generated using pymatgen
data_YU(PSe3)4
_symmetry_space_group_name_H-M   'P 1'
_cell_length_a   7.33981700
_cell_length_b   7.33981700
_cell_length_c   10.26146100
_cell_angle_alpha   90.00000000
_cell_angle_beta   90.00000000
_cell_angle_gamma   90.00000000
_symmetry_Int_Tables_number   1
_chemical_formula_structural   YU(PSe3)4
_chemical_formula_sum   'Y1 U1 P4 Se12'
_cell_volume   552.81480180
_cell_formula_units_Z   1
loop_
 _symmetry_equiv_pos_site_id
 _symmetry_equiv_pos_as_xyz
  1  'x, y, z'
loop_
 _atom_site_type_symbol
 _atom_site_label
 _atom_site_symmetry_multiplicity
 _atom_site_fract_x
 _atom_site_fract_y
 _atom_site_fract_z
 _atom_site_occupancy
  Y  Y0  1  0.000000  0.000000  0.750000  1
  U  U1  1  0.000000  0.000000  0.250000  1
  P  P2  1  0.055804  0.351088  0.500723  1
  P  P3  1  0.944196  0.648912  0.500723  1
  P  P4  1  0.351088  0.944196  0.999277  1
  P  P5  1  0.648912  0.055804  0.999277  1
  Se  Se6  1  0.216393  0.316298  0.677054  1
  Se  Se7  1  0.685070  0.206717  0.185264  1
  Se  Se8  1  0.167090  0.184219  0.008819  1
  Se  Se9  1  0.815781  0.167090  0.491181  1
  Se  Se10  1  0.184219  0.832910  0.491181  1
  Se  Se11  1  0.832910  0.815781  0.008819  1
  Se  Se12  1  0.206717  0.314930  0.314736  1
  Se  Se13  1  0.683702  0.216393  0.822946  1
  Se  Se14  1  0.316298  0.783607  0.822946  1
  Se  Se15  1  0.793283  0.685070  0.314736  1
  Se  Se16  1  0.783607  0.683702  0.677054  1
  Se  Se17  1  0.314930  0.793283  0.185264  1
