# generated using pymatgen
data_Tb2DyHo(B6Ru)2
_symmetry_space_group_name_H-M   'P 1'
_cell_length_a   3.66761500
_cell_length_b   9.15680411
_cell_length_c   11.53735613
_cell_angle_alpha   90.01748164
_cell_angle_beta   90.00000000
_cell_angle_gamma   90.00000000
_symmetry_Int_Tables_number   1
_chemical_formula_structural   Tb2DyHo(B6Ru)2
_chemical_formula_sum   'Tb4 Dy2 Ho2 B24 Ru4'
_cell_volume   387.46630571
_cell_formula_units_Z   2
loop_
 _symmetry_equiv_pos_site_id
 _symmetry_equiv_pos_as_xyz
  1  'x, y, z'
loop_
 _atom_site_type_symbol
 _atom_site_label
 _atom_site_symmetry_multiplicity
 _atom_site_fract_x
 _atom_site_fract_y
 _atom_site_fract_z
 _atom_site_occupancy
  Tb  Tb0  1  0.000000  0.323085  0.413999  1
  Tb  Tb1  1  0.000000  0.676915  0.586001  1
  Tb  Tb2  1  0.000000  0.822793  0.085861  1
  Tb  Tb3  1  0.000000  0.177207  0.914139  1
  Dy  Dy4  1  0.000000  0.943742  0.372083  1
  Dy  Dy5  1  0.000000  0.056258  0.627917  1
  Ho  Ho6  1  0.000000  0.443791  0.127724  1
  Ho  Ho7  1  0.000000  0.556209  0.872276  1
  B  B8  1  0.500000  0.554327  0.432659  1
  B  B9  1  0.500000  0.445673  0.567341  1
  B  B10  1  0.500000  0.054500  0.067232  1
  B  B11  1  0.500000  0.945500  0.932768  1
  B  B12  1  0.500000  0.747817  0.419422  1
  B  B13  1  0.500000  0.252183  0.580578  1
  B  B14  1  0.500000  0.248358  0.080527  1
  B  B15  1  0.500000  0.751642  0.919473  1
  B  B16  1  0.500000  0.790733  0.266247  1
  B  B17  1  0.500000  0.209267  0.733753  1
  B  B18  1  0.500000  0.291304  0.233530  1
  B  B19  1  0.500000  0.708696  0.766470  1
  B  B20  1  0.500000  0.631661  0.185061  1
  B  B21  1  0.500000  0.368339  0.814939  1
  B  B22  1  0.500000  0.132175  0.314633  1
  B  B23  1  0.500000  0.867825  0.685367  1
  B  B24  1  0.500000  0.984250  0.212819  1
  B  B25  1  0.500000  0.015750  0.787181  1
  B  B26  1  0.500000  0.483904  0.286807  1
  B  B27  1  0.500000  0.516096  0.713193  1
  B  B28  1  0.500000  0.607163  0.029570  1
  B  B29  1  0.500000  0.392837  0.970430  1
  B  B30  1  0.500000  0.108185  0.470163  1
  B  B31  1  0.500000  0.891815  0.529837  1
  Ru  Ru32  1  0.000000  0.637735  0.320804  1
  Ru  Ru33  1  0.000000  0.362265  0.679196  1
  Ru  Ru34  1  0.000000  0.138420  0.178852  1
  Ru  Ru35  1  0.000000  0.861580  0.821148  1
