# generated using pymatgen
data_Th3Hg(Pd5Pt)2
_symmetry_space_group_name_H-M   'P 1'
_cell_length_a   5.90315572
_cell_length_b   5.90315548
_cell_length_c   9.71222400
_cell_angle_alpha   90.00000000
_cell_angle_beta   90.00000000
_cell_angle_gamma   120.15955920
_symmetry_Int_Tables_number   1
_chemical_formula_structural   Th3Hg(Pd5Pt)2
_chemical_formula_sum   'Th3 Hg1 Pd10 Pt2'
_cell_volume   292.62893493
_cell_formula_units_Z   1
loop_
 _symmetry_equiv_pos_site_id
 _symmetry_equiv_pos_as_xyz
  1  'x, y, z'
loop_
 _atom_site_type_symbol
 _atom_site_label
 _atom_site_symmetry_multiplicity
 _atom_site_fract_x
 _atom_site_fract_y
 _atom_site_fract_z
 _atom_site_occupancy
  Th  Th0  1  0.999626  0.000374  0.493934  1
  Th  Th1  1  0.999626  0.000374  0.006066  1
  Th  Th2  1  0.667127  0.332873  0.750000  1
  Hg  Hg3  1  0.333394  0.666606  0.250000  1
  Pd  Pd4  1  0.499705  0.500295  0.498470  1
  Pd  Pd5  1  0.499222  0.999315  0.498208  1
  Pd  Pd6  1  0.000685  0.500778  0.498208  1
  Pd  Pd7  1  0.499705  0.500295  0.001530  1
  Pd  Pd8  1  0.499222  0.999315  0.001792  1
  Pd  Pd9  1  0.000685  0.500778  0.001792  1
  Pd  Pd10  1  0.824952  0.649891  0.250000  1
  Pd  Pd11  1  0.350109  0.175048  0.250000  1
  Pd  Pd12  1  0.825372  0.174628  0.250000  1
  Pd  Pd13  1  0.172494  0.827506  0.750000  1
  Pt  Pt14  1  0.172466  0.344391  0.750000  1
  Pt  Pt15  1  0.655609  0.827534  0.750000  1
