# generated using pymatgen
data_Ce2Er3(In2Tc)2
_symmetry_space_group_name_H-M   'P 1'
_cell_length_a   3.67685400
_cell_length_b   8.06016000
_cell_length_c   18.17193100
_cell_angle_alpha   90.00000000
_cell_angle_beta   90.00000000
_cell_angle_gamma   90.00000000
_symmetry_Int_Tables_number   1
_chemical_formula_structural   Ce2Er3(In2Tc)2
_chemical_formula_sum   'Ce4 Er6 In8 Tc4'
_cell_volume   538.54392020
_cell_formula_units_Z   2
loop_
 _symmetry_equiv_pos_site_id
 _symmetry_equiv_pos_as_xyz
  1  'x, y, z'
loop_
 _atom_site_type_symbol
 _atom_site_label
 _atom_site_symmetry_multiplicity
 _atom_site_fract_x
 _atom_site_fract_y
 _atom_site_fract_z
 _atom_site_occupancy
  Ce  Ce0  1  0.000000  0.759948  0.276906  1
  Ce  Ce1  1  0.000000  0.240052  0.723094  1
  Ce  Ce2  1  0.000000  0.740052  0.776906  1
  Ce  Ce3  1  0.000000  0.259948  0.223094  1
  Er  Er4  1  0.000000  0.500000  0.500000  1
  Er  Er5  1  0.000000  0.000000  0.000000  1
  Er  Er6  1  0.000000  0.610111  0.089701  1
  Er  Er7  1  0.000000  0.389889  0.910299  1
  Er  Er8  1  0.000000  0.889889  0.589701  1
  Er  Er9  1  0.000000  0.110111  0.410299  1
  In  In10  1  0.500000  0.702930  0.938323  1
  In  In11  1  0.500000  0.297070  0.061677  1
  In  In12  1  0.500000  0.797070  0.438323  1
  In  In13  1  0.500000  0.202930  0.561677  1
  In  In14  1  0.500000  0.558971  0.641513  1
  In  In15  1  0.500000  0.441029  0.358487  1
  In  In16  1  0.500000  0.941029  0.141513  1
  In  In17  1  0.500000  0.058971  0.858487  1
  Tc  Tc18  1  0.500000  0.476782  0.201466  1
  Tc  Tc19  1  0.500000  0.523218  0.798534  1
  Tc  Tc20  1  0.500000  0.023218  0.701466  1
  Tc  Tc21  1  0.500000  0.976782  0.298534  1
