# generated using pymatgen
data_Y4HfCu2Pd13
_symmetry_space_group_name_H-M   'P 1'
_cell_length_a   4.13183900
_cell_length_b   4.08122100
_cell_length_c   20.26170600
_cell_angle_alpha   90.00000000
_cell_angle_beta   90.00000000
_cell_angle_gamma   90.00000000
_symmetry_Int_Tables_number   1
_chemical_formula_structural   Y4HfCu2Pd13
_chemical_formula_sum   'Y4 Hf1 Cu2 Pd13'
_cell_volume   341.67209660
_cell_formula_units_Z   1
loop_
 _symmetry_equiv_pos_site_id
 _symmetry_equiv_pos_as_xyz
  1  'x, y, z'
loop_
 _atom_site_type_symbol
 _atom_site_label
 _atom_site_symmetry_multiplicity
 _atom_site_fract_x
 _atom_site_fract_y
 _atom_site_fract_z
 _atom_site_occupancy
  Y  Y0  1  0.000000  0.000000  0.198419  1
  Y  Y1  1  0.000000  0.000000  0.397436  1
  Y  Y2  1  0.000000  0.000000  0.602564  1
  Y  Y3  1  0.000000  0.000000  0.801581  1
  Hf  Hf4  1  0.000000  0.000000  0.000000  1
  Cu  Cu5  1  0.500000  0.500000  0.000000  1
  Cu  Cu6  1  0.500000  0.000000  0.500000  1
  Pd  Pd7  1  0.500000  0.500000  0.193639  1
  Pd  Pd8  1  0.500000  0.500000  0.401226  1
  Pd  Pd9  1  0.500000  0.500000  0.598774  1
  Pd  Pd10  1  0.500000  0.500000  0.806361  1
  Pd  Pd11  1  0.500000  0.000000  0.089536  1
  Pd  Pd12  1  0.500000  0.000000  0.297626  1
  Pd  Pd13  1  0.500000  0.000000  0.702374  1
  Pd  Pd14  1  0.500000  0.000000  0.910464  1
  Pd  Pd15  1  0.000000  0.500000  0.089670  1
  Pd  Pd16  1  0.000000  0.500000  0.297596  1
  Pd  Pd17  1  0.000000  0.500000  0.500000  1
  Pd  Pd18  1  0.000000  0.500000  0.702404  1
  Pd  Pd19  1  0.000000  0.500000  0.910330  1
