# generated using pymatgen
data_Dy2Ho14In4Ir3Ru
_symmetry_space_group_name_H-M   'P 1'
_cell_length_a   9.62810830
_cell_length_b   9.64438261
_cell_length_c   9.64293304
_cell_angle_alpha   59.89665343
_cell_angle_beta   59.87091700
_cell_angle_gamma   59.85894299
_symmetry_Int_Tables_number   1
_chemical_formula_structural   Dy2Ho14In4Ir3Ru
_chemical_formula_sum   'Dy2 Ho14 In4 Ir3 Ru1'
_cell_volume   631.36559092
_cell_formula_units_Z   1
loop_
 _symmetry_equiv_pos_site_id
 _symmetry_equiv_pos_as_xyz
  1  'x, y, z'
loop_
 _atom_site_type_symbol
 _atom_site_label
 _atom_site_symmetry_multiplicity
 _atom_site_fract_x
 _atom_site_fract_y
 _atom_site_fract_z
 _atom_site_occupancy
  Dy  Dy0  1  0.438965  0.440791  0.059878  1
  Dy  Dy1  1  0.649465  0.650950  0.047538  1
  Ho  Ho2  1  0.192161  0.809733  0.189666  1
  Ho  Ho3  1  0.059977  0.439360  0.060355  1
  Ho  Ho4  1  0.193020  0.809427  0.808825  1
  Ho  Ho5  1  0.059724  0.439634  0.440088  1
  Ho  Ho6  1  0.809718  0.191152  0.191281  1
  Ho  Ho7  1  0.650359  0.651679  0.651597  1
  Ho  Ho8  1  0.809492  0.191781  0.808219  1
  Ho  Ho9  1  0.192436  0.189561  0.809337  1
  Ho  Ho10  1  0.048254  0.650237  0.650270  1
  Ho  Ho11  1  0.439249  0.059466  0.059574  1
  Ho  Ho12  1  0.060095  0.060390  0.439519  1
  Ho  Ho13  1  0.649668  0.047211  0.650937  1
  Ho  Ho14  1  0.809287  0.808576  0.191762  1
  Ho  Ho15  1  0.439091  0.059513  0.441264  1
  In  In16  1  0.416922  0.416768  0.416997  1
  In  In17  1  0.416687  0.416799  0.749573  1
  In  In18  1  0.416678  0.749739  0.416847  1
  In  In19  1  0.748952  0.417009  0.417094  1
  Ir  Ir20  1  0.859482  0.859206  0.858711  1
  Ir  Ir21  1  0.859326  0.423043  0.858435  1
  Ir  Ir22  1  0.858892  0.858706  0.423375  1
  Ru  Ru23  1  0.422101  0.859275  0.858862  1
