# generated using pymatgen
data_Ce2Si2Ir2PtRh
_symmetry_space_group_name_H-M   'P 1'
_cell_length_a   9.38155590
_cell_length_b   9.38155666
_cell_length_c   4.06051400
_cell_angle_alpha   90.00000000
_cell_angle_beta   90.00000000
_cell_angle_gamma   155.26191792
_symmetry_Int_Tables_number   1
_chemical_formula_structural   Ce2Si2Ir2PtRh
_chemical_formula_sum   'Ce2 Si2 Ir2 Pt1 Rh1'
_cell_volume   149.55329207
_cell_formula_units_Z   1
loop_
 _symmetry_equiv_pos_site_id
 _symmetry_equiv_pos_as_xyz
  1  'x, y, z'
loop_
 _atom_site_type_symbol
 _atom_site_label
 _atom_site_symmetry_multiplicity
 _atom_site_fract_x
 _atom_site_fract_y
 _atom_site_fract_z
 _atom_site_occupancy
  Ce  Ce0  1  0.103771  0.896229  0.750000  1
  Ce  Ce1  1  0.899072  0.100928  0.250000  1
  Si  Si2  1  0.320228  0.679772  0.750000  1
  Si  Si3  1  0.680244  0.319756  0.250000  1
  Ir  Ir4  1  0.448888  0.551112  0.750000  1
  Ir  Ir5  1  0.249344  0.750656  0.250000  1
  Pt  Pt6  1  0.548948  0.451052  0.250000  1
  Rh  Rh7  1  0.749506  0.250494  0.750000  1
