# generated using pymatgen
data_Er16In4NiIr3
_symmetry_space_group_name_H-M   'P 1'
_cell_length_a   9.59558133
_cell_length_b   9.54708814
_cell_length_c   9.59558100
_cell_angle_alpha   59.83183074
_cell_angle_beta   59.99999768
_cell_angle_gamma   59.83183552
_symmetry_Int_Tables_number   1
_chemical_formula_structural   Er16In4NiIr3
_chemical_formula_sum   'Er16 In4 Ni1 Ir3'
_cell_volume   619.99743952
_cell_formula_units_Z   1
loop_
 _symmetry_equiv_pos_site_id
 _symmetry_equiv_pos_as_xyz
  1  'x, y, z'
loop_
 _atom_site_type_symbol
 _atom_site_label
 _atom_site_symmetry_multiplicity
 _atom_site_fract_x
 _atom_site_fract_y
 _atom_site_fract_z
 _atom_site_occupancy
  Er  Er0  1  0.188165  0.190394  0.810721  1
  Er  Er1  1  0.440914  0.058615  0.059558  1
  Er  Er2  1  0.440914  0.058615  0.440914  1
  Er  Er3  1  0.061671  0.440010  0.061671  1
  Er  Er4  1  0.649959  0.050123  0.649959  1
  Er  Er5  1  0.189790  0.810598  0.809822  1
  Er  Er6  1  0.059558  0.058615  0.440914  1
  Er  Er7  1  0.810721  0.190394  0.188165  1
  Er  Er8  1  0.809822  0.810598  0.189790  1
  Er  Er9  1  0.652111  0.649308  0.046470  1
  Er  Er10  1  0.652111  0.649308  0.652111  1
  Er  Er11  1  0.061671  0.440010  0.436649  1
  Er  Er12  1  0.046470  0.649308  0.652111  1
  Er  Er13  1  0.810721  0.190394  0.810721  1
  Er  Er14  1  0.436649  0.440010  0.061671  1
  Er  Er15  1  0.189790  0.810598  0.189790  1
  In  In16  1  0.417343  0.747970  0.417343  1
  In  In17  1  0.415397  0.417871  0.751335  1
  In  In18  1  0.751335  0.417871  0.415397  1
  In  In19  1  0.415397  0.417871  0.415397  1
  Ni  Ni20  1  0.858287  0.425139  0.858287  1
  Ir  Ir21  1  0.858034  0.858793  0.425139  1
  Ir  Ir22  1  0.425139  0.858793  0.858034  1
  Ir  Ir23  1  0.858034  0.858793  0.858034  1
