# generated using pymatgen
data_Ho11Th5MgHg3Ru4
_symmetry_space_group_name_H-M   'P 1'
_cell_length_a   9.63667706
_cell_length_b   9.71694844
_cell_length_c   9.71694865
_cell_angle_alpha   59.91828553
_cell_angle_beta   60.19209349
_cell_angle_gamma   60.19209453
_symmetry_Int_Tables_number   1
_chemical_formula_structural   Ho11Th5MgHg3Ru4
_chemical_formula_sum   'Ho11 Th5 Mg1 Hg3 Ru4'
_cell_volume   644.84678981
_cell_formula_units_Z   1
loop_
 _symmetry_equiv_pos_site_id
 _symmetry_equiv_pos_as_xyz
  1  'x, y, z'
loop_
 _atom_site_type_symbol
 _atom_site_label
 _atom_site_symmetry_multiplicity
 _atom_site_fract_x
 _atom_site_fract_y
 _atom_site_fract_z
 _atom_site_occupancy
  Ho  Ho0  1  0.184599  0.813814  0.813814  1
  Ho  Ho1  1  0.190642  0.808930  0.186500  1
  Ho  Ho2  1  0.811119  0.186120  0.808296  1
  Ho  Ho3  1  0.190642  0.186500  0.808930  1
  Ho  Ho4  1  0.811119  0.808296  0.186120  1
  Ho  Ho5  1  0.933098  0.566626  0.566626  1
  Ho  Ho6  1  0.564199  0.935136  0.935136  1
  Ho  Ho7  1  0.562118  0.936191  0.564349  1
  Ho  Ho8  1  0.936734  0.564493  0.936145  1
  Ho  Ho9  1  0.562118  0.564349  0.936191  1
  Ho  Ho10  1  0.936734  0.936145  0.564493  1
  Th  Th11  1  0.343306  0.349362  0.349362  1
  Th  Th12  1  0.348876  0.347994  0.956060  1
  Th  Th13  1  0.348876  0.956060  0.347994  1
  Th  Th14  1  0.948612  0.353309  0.353309  1
  Th  Th15  1  0.814512  0.185586  0.185586  1
  Mg  Mg16  1  0.277489  0.573709  0.573709  1
  Hg  Hg17  1  0.581598  0.588592  0.588592  1
  Hg  Hg18  1  0.580385  0.590589  0.241436  1
  Hg  Hg19  1  0.580385  0.241436  0.590589  1
  Ru  Ru20  1  0.128361  0.147455  0.147455  1
  Ru  Ru21  1  0.144101  0.142564  0.569214  1
  Ru  Ru22  1  0.144101  0.569214  0.142564  1
  Ru  Ru23  1  0.576274  0.147531  0.147531  1
