# generated using pymatgen
data_TbY5Ni16P13Pd4
_symmetry_space_group_name_H-M   'P 1'
_cell_length_a   12.81916600
_cell_length_b   12.81900500
_cell_length_c   3.80221000
_cell_angle_alpha   90.00000000
_cell_angle_beta   90.00000000
_cell_angle_gamma   120.00054960
_symmetry_Int_Tables_number   1
_chemical_formula_structural   TbY5Ni16P13Pd4
_chemical_formula_sum   'Tb1 Y5 Ni16 P13 Pd4'
_cell_volume   541.10109726
_cell_formula_units_Z   1
loop_
 _symmetry_equiv_pos_site_id
 _symmetry_equiv_pos_as_xyz
  1  'x, y, z'
loop_
 _atom_site_type_symbol
 _atom_site_label
 _atom_site_symmetry_multiplicity
 _atom_site_fract_x
 _atom_site_fract_y
 _atom_site_fract_z
 _atom_site_occupancy
  Tb  Tb0  1  0.529302  0.812026  0.500000  1
  Y  Y1  1  0.468440  0.185606  0.000000  1
  Y  Y2  1  0.717162  0.531563  0.000000  1
  Y  Y3  1  0.814404  0.282845  0.000000  1
  Y  Y4  1  0.282735  0.470687  0.500000  1
  Y  Y5  1  0.187955  0.717266  0.500000  1
  Ni  Ni6  1  0.333330  0.666666  0.000000  1
  Ni  Ni7  1  0.198434  0.093541  0.000000  1
  Ni  Ni8  1  0.895110  0.801568  0.000000  1
  Ni  Ni9  1  0.906464  0.104898  0.000000  1
  Ni  Ni10  1  0.438772  0.420200  0.000000  1
  Ni  Ni11  1  0.981430  0.561231  0.000000  1
  Ni  Ni12  1  0.579804  0.018585  0.000000  1
  Ni  Ni13  1  0.564259  0.589239  0.500000  1
  Ni  Ni14  1  0.024976  0.435741  0.500000  1
  Ni  Ni15  1  0.410762  0.975020  0.500000  1
  Ni  Ni16  1  0.079410  0.322355  0.000000  1
  Ni  Ni17  1  0.242937  0.920584  0.000000  1
  Ni  Ni18  1  0.677649  0.757051  0.000000  1
  Ni  Ni19  1  0.927189  0.679182  0.500000  1
  Ni  Ni20  1  0.751995  0.072810  0.500000  1
  Ni  Ni21  1  0.320814  0.248003  0.500000  1
  P  P22  1  0.240386  0.287043  0.000000  1
  P  P23  1  0.046661  0.759620  0.000000  1
  P  P24  1  0.712982  0.953367  0.000000  1
  P  P25  1  0.764678  0.712849  0.500000  1
  P  P26  1  0.948157  0.235313  0.500000  1
  P  P27  1  0.287158  0.051840  0.500000  1
  P  P28  1  0.476845  0.616312  0.000000  1
  P  P29  1  0.139493  0.523157  0.000000  1
  P  P30  1  0.383653  0.860523  0.000000  1
  P  P31  1  0.517576  0.391045  0.500000  1
  P  P32  1  0.873470  0.482423  0.500000  1
  P  P33  1  0.608953  0.126517  0.500000  1
  P  P34  1  0.999997  0.999997  0.000000  1
  Pd  Pd35  1  0.666668  0.333331  0.500000  1
  Pd  Pd36  1  0.840870  0.924162  0.500000  1
  Pd  Pd37  1  0.083284  0.159126  0.500000  1
  Pd  Pd38  1  0.075835  0.916707  0.500000  1
