# generated using pymatgen
data_Li6BeAs5Rh12
_symmetry_space_group_name_H-M   'P 1'
_cell_length_a   4.17405400
_cell_length_b   5.89402200
_cell_length_c   12.50667400
_cell_angle_alpha   90.00000000
_cell_angle_beta   90.00224800
_cell_angle_gamma   90.00000000
_symmetry_Int_Tables_number   1
_chemical_formula_structural   Li6BeAs5Rh12
_chemical_formula_sum   'Li6 Be1 As5 Rh12'
_cell_volume   307.68876972
_cell_formula_units_Z   1
loop_
 _symmetry_equiv_pos_site_id
 _symmetry_equiv_pos_as_xyz
  1  'x, y, z'
loop_
 _atom_site_type_symbol
 _atom_site_label
 _atom_site_symmetry_multiplicity
 _atom_site_fract_x
 _atom_site_fract_y
 _atom_site_fract_z
 _atom_site_occupancy
  Li  Li0  1  0.000000  0.000000  0.000000  1
  Li  Li1  1  0.499693  0.500001  0.164285  1
  Li  Li2  1  0.999655  0.000000  0.330182  1
  Li  Li3  1  0.499999  0.500001  0.500000  1
  Li  Li4  1  0.000346  0.000000  0.669817  1
  Li  Li5  1  0.500308  0.500001  0.835714  1
  Be  Be6  1  0.000000  0.500001  0.000000  1
  As  As7  1  0.499705  0.000000  0.159279  1
  As  As8  1  0.999743  0.500001  0.328907  1
  As  As9  1  0.499999  0.000000  0.500000  1
  As  As10  1  0.000256  0.500001  0.671092  1
  As  As11  1  0.500297  0.000000  0.840721  1
  Rh  Rh12  1  0.499999  0.257691  0.000000  1
  Rh  Rh13  1  0.499999  0.742310  0.000000  1
  Rh  Rh14  1  0.999765  0.252452  0.164962  1
  Rh  Rh15  1  0.999765  0.747547  0.164962  1
  Rh  Rh16  1  0.499758  0.249385  0.333252  1
  Rh  Rh17  1  0.499758  0.750615  0.333252  1
  Rh  Rh18  1  0.000000  0.250316  0.500000  1
  Rh  Rh19  1  0.000000  0.749685  0.500000  1
  Rh  Rh20  1  0.500241  0.249385  0.666748  1
  Rh  Rh21  1  0.500241  0.750615  0.666748  1
  Rh  Rh22  1  0.000237  0.252452  0.835038  1
  Rh  Rh23  1  0.000237  0.747547  0.835038  1
