# generated using pymatgen
data_Nd2TmRuI3
_symmetry_space_group_name_H-M   'P 1'
_cell_length_a   4.31744000
_cell_length_b   8.98557850
_cell_length_c   12.44839854
_cell_angle_alpha   85.39150160
_cell_angle_beta   90.00000000
_cell_angle_gamma   90.00000000
_symmetry_Int_Tables_number   1
_chemical_formula_structural   Nd2TmRuI3
_chemical_formula_sum   'Nd4 Tm2 Ru2 I6'
_cell_volume   481.37050536
_cell_formula_units_Z   2
loop_
 _symmetry_equiv_pos_site_id
 _symmetry_equiv_pos_as_xyz
  1  'x, y, z'
loop_
 _atom_site_type_symbol
 _atom_site_label
 _atom_site_symmetry_multiplicity
 _atom_site_fract_x
 _atom_site_fract_y
 _atom_site_fract_z
 _atom_site_occupancy
  Nd  Nd0  1  0.750000  0.095248  0.680547  1
  Nd  Nd1  1  0.250000  0.904752  0.319453  1
  Nd  Nd2  1  0.250000  0.270169  0.900499  1
  Nd  Nd3  1  0.750000  0.729831  0.099501  1
  Tm  Tm4  1  0.750000  0.121538  0.120774  1
  Tm  Tm5  1  0.250000  0.878462  0.879226  1
  Ru  Ru6  1  0.750000  0.052551  0.908183  1
  Ru  Ru7  1  0.250000  0.947449  0.091817  1
  I  I8  1  0.250000  0.356026  0.637078  1
  I  I9  1  0.750000  0.643974  0.362922  1
  I  I10  1  0.750000  0.151414  0.387668  1
  I  I11  1  0.250000  0.848586  0.612332  1
  I  I12  1  0.250000  0.419319  0.136167  1
  I  I13  1  0.750000  0.580681  0.863833  1
