# generated using pymatgen
data_Tb16MgTl2AgRh4
_symmetry_space_group_name_H-M   'P 1'
_cell_length_a   9.69408048
_cell_length_b   9.66490450
_cell_length_c   9.73021900
_cell_angle_alpha   59.77620082
_cell_angle_beta   59.87660881
_cell_angle_gamma   59.78796594
_symmetry_Int_Tables_number   1
_chemical_formula_structural   Tb16MgTl2AgRh4
_chemical_formula_sum   'Tb16 Mg1 Tl2 Ag1 Rh4'
_cell_volume   641.90312220
_cell_formula_units_Z   1
loop_
 _symmetry_equiv_pos_site_id
 _symmetry_equiv_pos_as_xyz
  1  'x, y, z'
loop_
 _atom_site_type_symbol
 _atom_site_label
 _atom_site_symmetry_multiplicity
 _atom_site_fract_x
 _atom_site_fract_y
 _atom_site_fract_z
 _atom_site_occupancy
  Tb  Tb0  1  0.348703  0.349043  0.345250  1
  Tb  Tb1  1  0.348703  0.349043  0.957003  1
  Tb  Tb2  1  0.352249  0.953005  0.347372  1
  Tb  Tb3  1  0.946709  0.353329  0.349980  1
  Tb  Tb4  1  0.808866  0.188725  0.191478  1
  Tb  Tb5  1  0.186116  0.811293  0.812889  1
  Tb  Tb6  1  0.186116  0.811293  0.189701  1
  Tb  Tb7  1  0.808866  0.188725  0.810932  1
  Tb  Tb8  1  0.185185  0.187576  0.813619  1
  Tb  Tb9  1  0.806324  0.808200  0.192738  1
  Tb  Tb10  1  0.938624  0.563628  0.563720  1
  Tb  Tb11  1  0.561799  0.944318  0.930235  1
  Tb  Tb12  1  0.561799  0.944318  0.563649  1
  Tb  Tb13  1  0.938624  0.563628  0.934028  1
  Tb  Tb14  1  0.563729  0.565483  0.935394  1
  Tb  Tb15  1  0.936125  0.940645  0.561615  1
  Mg  Mg16  1  0.279259  0.566682  0.577029  1
  Tl  Tl17  1  0.583050  0.581369  0.588618  1
  Tl  Tl18  1  0.583050  0.581369  0.246965  1
  Ag  Ag19  1  0.581218  0.244433  0.587175  1
  Rh  Rh20  1  0.140222  0.143292  0.143417  1
  Rh  Rh21  1  0.140222  0.143292  0.573068  1
  Rh  Rh22  1  0.140490  0.574188  0.142660  1
  Rh  Rh23  1  0.573949  0.143122  0.141465  1
