# generated using pymatgen
data_Tb3ThScIr3
_symmetry_space_group_name_H-M   'P 1'
_cell_length_a   11.02229600
_cell_length_b   10.84227700
_cell_length_c   6.28841800
_cell_angle_alpha   90.00000000
_cell_angle_beta   90.00000000
_cell_angle_gamma   90.00000000
_symmetry_Int_Tables_number   1
_chemical_formula_structural   Tb3ThScIr3
_chemical_formula_sum   'Tb12 Th4 Sc4 Ir12'
_cell_volume   751.50862677
_cell_formula_units_Z   4
loop_
 _symmetry_equiv_pos_site_id
 _symmetry_equiv_pos_as_xyz
  1  'x, y, z'
loop_
 _atom_site_type_symbol
 _atom_site_label
 _atom_site_symmetry_multiplicity
 _atom_site_fract_x
 _atom_site_fract_y
 _atom_site_fract_z
 _atom_site_occupancy
  Tb  Tb0  1  0.587215  0.780966  0.877420  1
  Tb  Tb1  1  0.587215  0.219034  0.377420  1
  Tb  Tb2  1  0.412785  0.780966  0.377420  1
  Tb  Tb3  1  0.412785  0.219034  0.877420  1
  Tb  Tb4  1  0.210330  0.415191  0.620551  1
  Tb  Tb5  1  0.210330  0.584809  0.120551  1
  Tb  Tb6  1  0.789670  0.415191  0.120551  1
  Tb  Tb7  1  0.789670  0.584809  0.620551  1
  Tb  Tb8  1  0.916814  0.710435  0.116210  1
  Tb  Tb9  1  0.916814  0.289565  0.616210  1
  Tb  Tb10  1  0.083186  0.710435  0.616210  1
  Tb  Tb11  1  0.083186  0.289565  0.116210  1
  Th  Th12  1  0.288548  0.091114  0.377655  1
  Th  Th13  1  0.288548  0.908886  0.877655  1
  Th  Th14  1  0.711452  0.091114  0.877655  1
  Th  Th15  1  0.711452  0.908886  0.377655  1
  Sc  Sc16  1  0.000000  0.000000  0.501235  1
  Sc  Sc17  1  0.000000  0.000000  0.001235  1
  Sc  Sc18  1  0.500000  0.500000  0.014574  1
  Sc  Sc19  1  0.500000  0.500000  0.514574  1
  Ir  Ir20  1  0.849212  0.143968  0.246002  1
  Ir  Ir21  1  0.849212  0.856032  0.746002  1
  Ir  Ir22  1  0.150788  0.143968  0.746002  1
  Ir  Ir23  1  0.150788  0.856032  0.246002  1
  Ir  Ir24  1  0.646852  0.352169  0.758207  1
  Ir  Ir25  1  0.646852  0.647831  0.258207  1
  Ir  Ir26  1  0.353148  0.352169  0.258207  1
  Ir  Ir27  1  0.353148  0.647831  0.758207  1
  Ir  Ir28  1  0.500000  0.000000  0.115094  1
  Ir  Ir29  1  0.500000  0.000000  0.615094  1
  Ir  Ir30  1  0.000000  0.500000  0.877007  1
  Ir  Ir31  1  0.000000  0.500000  0.377007  1
