# generated using pymatgen
data_Ta6Ti4Ga6C
_symmetry_space_group_name_H-M   'P 1'
_cell_length_a   7.69496400
_cell_length_b   7.69496237
_cell_length_c   5.20128800
_cell_angle_alpha   90.00000000
_cell_angle_beta   90.00000000
_cell_angle_gamma   119.99999841
_symmetry_Int_Tables_number   1
_chemical_formula_structural   Ta6Ti4Ga6C
_chemical_formula_sum   'Ta6 Ti4 Ga6 C1'
_cell_volume   266.71941694
_cell_formula_units_Z   1
loop_
 _symmetry_equiv_pos_site_id
 _symmetry_equiv_pos_as_xyz
  1  'x, y, z'
loop_
 _atom_site_type_symbol
 _atom_site_label
 _atom_site_symmetry_multiplicity
 _atom_site_fract_x
 _atom_site_fract_y
 _atom_site_fract_z
 _atom_site_occupancy
  Ta  Ta0  1  0.000000  0.765703  0.248025  1
  Ta  Ta1  1  0.234297  0.234297  0.248025  1
  Ta  Ta2  1  0.765703  0.000000  0.248025  1
  Ta  Ta3  1  0.000000  0.234297  0.751975  1
  Ta  Ta4  1  0.765703  0.765703  0.751975  1
  Ta  Ta5  1  0.234297  0.000000  0.751975  1
  Ti  Ti6  1  0.333333  0.666667  0.500000  1
  Ti  Ti7  1  0.666667  0.333333  0.500000  1
  Ti  Ti8  1  0.666667  0.333333  0.000000  1
  Ti  Ti9  1  0.333333  0.666667  0.000000  1
  Ga  Ga10  1  0.000000  0.402351  0.248439  1
  Ga  Ga11  1  0.597649  0.597649  0.248439  1
  Ga  Ga12  1  0.402351  0.000000  0.248439  1
  Ga  Ga13  1  0.000000  0.597649  0.751561  1
  Ga  Ga14  1  0.402351  0.402351  0.751561  1
  Ga  Ga15  1  0.597649  0.000000  0.751561  1
  C  C16  1  0.000000  0.000000  0.500000  1
