# generated using pymatgen
data_Yb3Dy5(LuRu2)2
_symmetry_space_group_name_H-M   'P 1'
_cell_length_a   6.36409961
_cell_length_b   7.20220711
_cell_length_c   8.46797716
_cell_angle_alpha   97.08570774
_cell_angle_beta   111.71790439
_cell_angle_gamma   89.68566471
_symmetry_Int_Tables_number   1
_chemical_formula_structural   Yb3Dy5(LuRu2)2
_chemical_formula_sum   'Yb3 Dy5 Lu2 Ru4'
_cell_volume   357.49002145
_cell_formula_units_Z   1
loop_
 _symmetry_equiv_pos_site_id
 _symmetry_equiv_pos_as_xyz
  1  'x, y, z'
loop_
 _atom_site_type_symbol
 _atom_site_label
 _atom_site_symmetry_multiplicity
 _atom_site_fract_x
 _atom_site_fract_y
 _atom_site_fract_z
 _atom_site_occupancy
  Yb  Yb0  1  0.521534  0.081789  0.819158  1
  Yb  Yb1  1  0.477020  0.920127  0.184130  1
  Yb  Yb2  1  0.706455  0.418966  0.183016  1
  Dy  Dy3  1  0.293918  0.583199  0.817956  1
  Dy  Dy4  1  0.296893  0.316350  0.431905  1
  Dy  Dy5  1  0.702855  0.685082  0.568708  1
  Dy  Dy6  1  0.869201  0.187217  0.567111  1
  Dy  Dy7  1  0.134140  0.813241  0.431896  1
  Lu  Lu8  1  0.069798  0.249879  0.000730  1
  Lu  Lu9  1  0.927668  0.750245  0.000910  1
  Ru  Ru10  1  0.312459  0.570598  0.215917  1
  Ru  Ru11  1  0.681112  0.429028  0.775354  1
  Ru  Ru12  1  0.093071  0.922516  0.776290  1
  Ru  Ru13  1  0.913876  0.071765  0.226918  1
