# generated using pymatgen
data_Nb4BTe4
_symmetry_space_group_name_H-M   'P 1'
_cell_length_a   4.75971300
_cell_length_b   10.74037400
_cell_length_c   18.65471100
_cell_angle_alpha   90.00000000
_cell_angle_beta   90.00000000
_cell_angle_gamma   90.00000000
_symmetry_Int_Tables_number   1
_chemical_formula_structural   Nb4BTe4
_chemical_formula_sum   'Nb16 B4 Te16'
_cell_volume   953.64930458
_cell_formula_units_Z   4
loop_
 _symmetry_equiv_pos_site_id
 _symmetry_equiv_pos_as_xyz
  1  'x, y, z'
loop_
 _atom_site_type_symbol
 _atom_site_label
 _atom_site_symmetry_multiplicity
 _atom_site_fract_x
 _atom_site_fract_y
 _atom_site_fract_z
 _atom_site_occupancy
  Nb  Nb0  1  0.500000  0.561054  0.388909  1
  Nb  Nb1  1  0.500000  0.438946  0.611091  1
  Nb  Nb2  1  0.500000  0.061054  0.111091  1
  Nb  Nb3  1  0.500000  0.938946  0.888909  1
  Nb  Nb4  1  0.500000  0.694244  0.534437  1
  Nb  Nb5  1  0.500000  0.305756  0.465563  1
  Nb  Nb6  1  0.500000  0.194244  0.965563  1
  Nb  Nb7  1  0.500000  0.805756  0.034437  1
  Nb  Nb8  1  0.000000  0.680503  0.445617  1
  Nb  Nb9  1  0.000000  0.319497  0.554383  1
  Nb  Nb10  1  0.000000  0.180503  0.054383  1
  Nb  Nb11  1  0.000000  0.819497  0.945617  1
  Nb  Nb12  1  0.000000  0.405761  0.397053  1
  Nb  Nb13  1  0.000000  0.594239  0.602947  1
  Nb  Nb14  1  0.000000  0.905761  0.102947  1
  Nb  Nb15  1  0.000000  0.094239  0.897053  1
  B  B16  1  0.249713  0.500000  0.500000  1
  B  B17  1  0.750287  0.000000  0.000000  1
  B  B18  1  0.750287  0.500000  0.500000  1
  B  B19  1  0.249713  0.000000  0.000000  1
  Te  Te20  1  0.000000  0.850527  0.562771  1
  Te  Te21  1  0.000000  0.149473  0.437229  1
  Te  Te22  1  0.000000  0.350527  0.937229  1
  Te  Te23  1  0.000000  0.649473  0.062771  1
  Te  Te24  1  0.500000  0.330550  0.313724  1
  Te  Te25  1  0.500000  0.669450  0.686276  1
  Te  Te26  1  0.500000  0.830550  0.186276  1
  Te  Te27  1  0.500000  0.169450  0.813724  1
  Te  Te28  1  0.500000  0.825449  0.401750  1
  Te  Te29  1  0.500000  0.174551  0.598250  1
  Te  Te30  1  0.500000  0.325449  0.098250  1
  Te  Te31  1  0.500000  0.674551  0.901750  1
  Te  Te32  1  0.000000  0.608491  0.298899  1
  Te  Te33  1  0.000000  0.391509  0.701101  1
  Te  Te34  1  0.000000  0.108491  0.201101  1
  Te  Te35  1  0.000000  0.891509  0.798899  1
