# generated using pymatgen
data_YCl13
_symmetry_space_group_name_H-M   'P 1'
_cell_length_a   12.11266619
_cell_length_b   16.81452506
_cell_length_c   9.75012965
_cell_angle_alpha   96.67911026
_cell_angle_beta   109.29021631
_cell_angle_gamma   132.70658120
_symmetry_Int_Tables_number   1
_chemical_formula_structural   YCl13
_chemical_formula_sum   'Y2 Cl26'
_cell_volume   1200.05836616
_cell_formula_units_Z   2
loop_
 _symmetry_equiv_pos_site_id
 _symmetry_equiv_pos_as_xyz
  1  'x, y, z'
loop_
 _atom_site_type_symbol
 _atom_site_label
 _atom_site_symmetry_multiplicity
 _atom_site_fract_x
 _atom_site_fract_y
 _atom_site_fract_z
 _atom_site_occupancy
  Y  Y0  1  0.867766  0.038104  0.953244  1
  Y  Y1  1  0.382234  0.711896  0.546756  1
  Cl  Cl2  1  0.261089  0.433271  0.630757  1
  Cl  Cl3  1  0.726461  0.362793  0.032807  1
  Cl  Cl4  1  0.930801  0.069887  0.547168  1
  Cl  Cl5  1  0.988911  0.316729  0.869243  1
  Cl  Cl6  1  0.600049  0.175781  0.257690  1
  Cl  Cl7  1  0.649951  0.574219  0.242310  1
  Cl  Cl8  1  0.319199  0.680113  0.952832  1
  Cl  Cl9  1  0.523539  0.387207  0.467193  1
  Cl  Cl10  1  0.025306  0.789116  0.732968  1
  Cl  Cl11  1  0.396533  0.649550  0.312403  1
  Cl  Cl12  1  0.053200  0.106359  0.789408  1
  Cl  Cl13  1  0.712225  0.166830  0.447876  1
  Cl  Cl14  1  0.184426  0.144528  0.107589  1
  Cl  Cl15  1  0.723320  0.523417  0.705230  1
  Cl  Cl16  1  0.216338  0.944458  0.234875  1
  Cl  Cl17  1  0.304717  0.505471  0.473030  1
  Cl  Cl18  1  0.224694  0.960884  0.767032  1
  Cl  Cl19  1  0.853467  0.100450  0.187597  1
  Cl  Cl20  1  0.655382  0.801719  0.837518  1
  Cl  Cl21  1  0.594618  0.948281  0.662482  1
  Cl  Cl22  1  0.033662  0.805542  0.265125  1
  Cl  Cl23  1  0.945283  0.244529  0.026970  1
  Cl  Cl24  1  0.196800  0.643641  0.710592  1
  Cl  Cl25  1  0.526680  0.226583  0.794770  1
  Cl  Cl26  1  0.065574  0.605472  0.392411  1
  Cl  Cl27  1  0.537775  0.583170  0.052124  1
