# generated using pymatgen
data_Sb(OsO3)2
_symmetry_space_group_name_H-M   'P 1'
_cell_length_a   4.91428608
_cell_length_b   5.51205529
_cell_length_c   8.47293773
_cell_angle_alpha   91.11806972
_cell_angle_beta   106.85789152
_cell_angle_gamma   90.00000445
_symmetry_Int_Tables_number   1
_chemical_formula_structural   Sb(OsO3)2
_chemical_formula_sum   'Sb2 Os4 O12'
_cell_volume   219.60483767
_cell_formula_units_Z   2
loop_
 _symmetry_equiv_pos_site_id
 _symmetry_equiv_pos_as_xyz
  1  'x, y, z'
loop_
 _atom_site_type_symbol
 _atom_site_label
 _atom_site_symmetry_multiplicity
 _atom_site_fract_x
 _atom_site_fract_y
 _atom_site_fract_z
 _atom_site_occupancy
  Sb  Sb0  1  0.294413  0.250000  0.000000  1
  Sb  Sb1  1  0.705586  0.750001  0.000001  1
  Os  Os2  1  0.411818  0.886039  0.358609  1
  Os  Os3  1  0.946790  0.386040  0.358610  1
  Os  Os4  1  0.053210  0.613960  0.641390  1
  Os  Os5  1  0.588180  0.113960  0.641391  1
  O  O6  1  0.477489  0.923519  0.136532  1
  O  O7  1  0.659042  0.423519  0.136533  1
  O  O8  1  0.101831  0.111781  0.269632  1
  O  O9  1  0.167802  0.611781  0.269633  1
  O  O10  1  0.688956  0.167468  0.431645  1
  O  O11  1  0.742688  0.667468  0.431646  1
  O  O12  1  0.257311  0.332532  0.568355  1
  O  O13  1  0.311045  0.832531  0.568355  1
  O  O14  1  0.832199  0.388219  0.730368  1
  O  O15  1  0.898170  0.888218  0.730368  1
  O  O16  1  0.522511  0.076481  0.863467  1
  O  O17  1  0.340957  0.576482  0.863467  1
