# generated using pymatgen
data_Tb3Y5(BCl6)2
_symmetry_space_group_name_H-M   'P 1'
_cell_length_a   3.87757200
_cell_length_b   12.68662335
_cell_length_c   13.16358940
_cell_angle_alpha   90.05288491
_cell_angle_beta   90.00000000
_cell_angle_gamma   90.00000000
_symmetry_Int_Tables_number   1
_chemical_formula_structural   Tb3Y5(BCl6)2
_chemical_formula_sum   'Tb3 Y5 B2 Cl12'
_cell_volume   647.56006718
_cell_formula_units_Z   1
loop_
 _symmetry_equiv_pos_site_id
 _symmetry_equiv_pos_as_xyz
  1  'x, y, z'
loop_
 _atom_site_type_symbol
 _atom_site_label
 _atom_site_symmetry_multiplicity
 _atom_site_fract_x
 _atom_site_fract_y
 _atom_site_fract_z
 _atom_site_occupancy
  Tb  Tb0  1  0.500000  0.126751  0.850887  1
  Tb  Tb1  1  0.500000  0.873252  0.149113  1
  Tb  Tb2  1  0.500000  0.626723  0.649077  1
  Y  Y3  1  0.000000  0.106483  0.084346  1
  Y  Y4  1  0.000000  0.893490  0.915647  1
  Y  Y5  1  0.000000  0.606411  0.415496  1
  Y  Y6  1  0.000000  0.393348  0.584217  1
  Y  Y7  1  0.500000  0.373362  0.351025  1
  B  B8  1  0.500000  0.000028  0.000017  1
  B  B9  1  0.500000  0.499957  0.499946  1
  Cl  Cl10  1  0.500000  0.268131  0.682234  1
  Cl  Cl11  1  0.500000  0.731877  0.317776  1
  Cl  Cl12  1  0.500000  0.768092  0.817735  1
  Cl  Cl13  1  0.500000  0.232177  0.182577  1
  Cl  Cl14  1  0.000000  0.256751  0.929609  1
  Cl  Cl15  1  0.000000  0.743243  0.070391  1
  Cl  Cl16  1  0.000000  0.478267  0.243510  1
  Cl  Cl17  1  0.000000  0.521511  0.756597  1
  Cl  Cl18  1  0.000000  0.978508  0.256648  1
  Cl  Cl19  1  0.000000  0.021486  0.743337  1
  Cl  Cl20  1  0.000000  0.243457  0.429408  1
  Cl  Cl21  1  0.000000  0.756695  0.570406  1
