# generated using pymatgen
data_Ti8Al14GaIr5Ru2
_symmetry_space_group_name_H-M   'P 1'
_cell_length_a   8.65266315
_cell_length_b   8.65266488
_cell_length_c   8.65287095
_cell_angle_alpha   120.13676167
_cell_angle_beta   119.84264204
_cell_angle_gamma   90.01672150
_symmetry_Int_Tables_number   1
_chemical_formula_structural   Ti8Al14GaIr5Ru2
_chemical_formula_sum   'Ti8 Al14 Ga1 Ir5 Ru2'
_cell_volume   458.15650145
_cell_formula_units_Z   1
loop_
 _symmetry_equiv_pos_site_id
 _symmetry_equiv_pos_as_xyz
  1  'x, y, z'
loop_
 _atom_site_type_symbol
 _atom_site_label
 _atom_site_symmetry_multiplicity
 _atom_site_fract_x
 _atom_site_fract_y
 _atom_site_fract_z
 _atom_site_occupancy
  Ti  Ti0  1  0.793362  0.289894  0.074613  1
  Ti  Ti1  1  0.215264  0.289909  0.496520  1
  Ti  Ti2  1  0.207651  0.707651  0.500000  1
  Ti  Ti3  1  0.215282  0.718750  0.925388  1
  Ti  Ti4  1  0.793389  0.718741  0.503479  1
  Ti  Ti5  1  0.782023  0.282024  0.500000  1
  Ti  Ti6  1  0.380080  0.121482  0.741340  1
  Ti  Ti7  1  0.380144  0.638742  0.258664  1
  Al  Al8  1  0.155707  0.340108  0.184483  1
  Al  Al9  1  0.155629  0.971225  0.815520  1
  Al  Al10  1  0.151700  0.345539  0.806108  1
  Al  Al11  1  0.539430  0.345588  0.193885  1
  Al  Al12  1  0.845411  0.655147  0.809670  1
  Al  Al13  1  0.845479  0.035740  0.190329  1
  Al  Al14  1  0.842069  0.655706  0.186414  1
  Al  Al15  1  0.469293  0.655655  0.813587  1
  Al  Al16  1  0.379073  0.120061  0.259096  1
  Al  Al17  1  0.860966  0.119978  0.740902  1
  Al  Al18  1  0.620470  0.879218  0.258817  1
  Al  Al19  1  0.620403  0.361655  0.741185  1
  Al  Al20  1  0.622347  0.879446  0.742832  1
  Al  Al21  1  0.136614  0.879516  0.257168  1
  Ga  Ga22  1  0.994856  0.494857  0.500000  1
  Ir  Ir23  1  0.000497  0.999566  0.501047  1
  Ir  Ir24  1  0.498503  0.999576  0.999041  1
  Ir  Ir25  1  0.497815  0.497817  0.000002  1
  Ir  Ir26  1  0.498519  0.499451  0.498953  1
  Ir  Ir27  1  0.000536  0.499460  0.000959  1
  Ru  Ru28  1  0.999582  0.999581  0.000000  1
  Ru  Ru29  1  0.497906  0.997904  0.499998  1
