# generated using pymatgen
data_Ba(HfS2)3
_symmetry_space_group_name_H-M   'P 1'
_cell_length_a   6.26075150
_cell_length_b   6.26075191
_cell_length_c   7.88604836
_cell_angle_alpha   97.62005192
_cell_angle_beta   97.62005451
_cell_angle_gamma   119.98525396
_symmetry_Int_Tables_number   1
_chemical_formula_structural   Ba(HfS2)3
_chemical_formula_sum   'Ba1 Hf3 S6'
_cell_volume   258.15361393
_cell_formula_units_Z   1
loop_
 _symmetry_equiv_pos_site_id
 _symmetry_equiv_pos_as_xyz
  1  'x, y, z'
loop_
 _atom_site_type_symbol
 _atom_site_label
 _atom_site_symmetry_multiplicity
 _atom_site_fract_x
 _atom_site_fract_y
 _atom_site_fract_z
 _atom_site_occupancy
  Ba  Ba0  1  0.000000  0.000000  0.500000  1
  Hf  Hf1  1  0.834179  0.165822  0.000000  1
  Hf  Hf2  1  0.500001  0.500001  0.000000  1
  Hf  Hf3  1  0.165822  0.834179  0.000000  1
  S  S4  1  0.236636  0.236636  0.198448  1
  S  S5  1  0.898626  0.561767  0.197071  1
  S  S6  1  0.561767  0.898626  0.197071  1
  S  S7  1  0.438232  0.101374  0.802928  1
  S  S8  1  0.101374  0.438232  0.802928  1
  S  S9  1  0.763365  0.763365  0.801551  1
