# generated using pymatgen
data_Er2Al8Fe9
_symmetry_space_group_name_H-M   'P 1'
_cell_length_a   6.53937677
_cell_length_b   6.53937749
_cell_length_c   6.53937706
_cell_angle_alpha   83.97994409
_cell_angle_beta   96.02005327
_cell_angle_gamma   96.02006043
_symmetry_Int_Tables_number   1
_chemical_formula_structural   Er2Al8Fe9
_chemical_formula_sum   'Er2 Al8 Fe9'
_cell_volume   275.32170405
_cell_formula_units_Z   1
loop_
 _symmetry_equiv_pos_site_id
 _symmetry_equiv_pos_as_xyz
  1  'x, y, z'
loop_
 _atom_site_type_symbol
 _atom_site_label
 _atom_site_symmetry_multiplicity
 _atom_site_fract_x
 _atom_site_fract_y
 _atom_site_fract_z
 _atom_site_occupancy
  Er  Er0  1  0.634706  0.365295  0.365295  1
  Er  Er1  1  0.365295  0.634707  0.634706  1
  Al  Al2  1  0.317033  0.317033  0.000000  1
  Al  Al3  1  0.682967  0.682967  0.000000  1
  Al  Al4  1  0.876007  0.123994  0.123994  1
  Al  Al5  1  0.000000  0.682968  0.317032  1
  Al  Al6  1  0.317033  0.000000  0.317033  1
  Al  Al7  1  0.682967  0.000000  0.682967  1
  Al  Al8  1  0.000000  0.317032  0.682967  1
  Al  Al9  1  0.123994  0.876008  0.876007  1
  Fe  Fe10  1  0.500000  0.000000  0.000000  1
  Fe  Fe11  1  0.000000  0.500000  0.000000  1
  Fe  Fe12  1  0.336394  0.663607  0.163672  1
  Fe  Fe13  1  0.163672  0.336393  0.336393  1
  Fe  Fe14  1  0.663607  0.836327  0.336394  1
  Fe  Fe15  1  0.000000  0.000000  0.500000  1
  Fe  Fe16  1  0.836327  0.663607  0.663606  1
  Fe  Fe17  1  0.336394  0.163672  0.663607  1
  Fe  Fe18  1  0.663606  0.336393  0.836327  1
