# generated using pymatgen
data_TiV(Cu3Te4)2
_symmetry_space_group_name_H-M   'P 1'
_cell_length_a   8.45973900
_cell_length_b   8.45973900
_cell_length_c   5.90452100
_cell_angle_alpha   90.00000000
_cell_angle_beta   90.00000000
_cell_angle_gamma   90.00000000
_symmetry_Int_Tables_number   1
_chemical_formula_structural   TiV(Cu3Te4)2
_chemical_formula_sum   'Ti1 V1 Cu6 Te8'
_cell_volume   422.56994053
_cell_formula_units_Z   1
loop_
 _symmetry_equiv_pos_site_id
 _symmetry_equiv_pos_as_xyz
  1  'x, y, z'
loop_
 _atom_site_type_symbol
 _atom_site_label
 _atom_site_symmetry_multiplicity
 _atom_site_fract_x
 _atom_site_fract_y
 _atom_site_fract_z
 _atom_site_occupancy
  Ti  Ti0  1  0.000000  0.000000  0.000000  1
  V  V1  1  0.500000  0.500000  0.000000  1
  Cu  Cu2  1  0.249657  0.750343  0.000000  1
  Cu  Cu3  1  0.750343  0.249657  0.000000  1
  Cu  Cu4  1  0.249657  0.249657  0.000000  1
  Cu  Cu5  1  0.750343  0.750343  0.000000  1
  Cu  Cu6  1  0.000000  0.000000  0.500000  1
  Cu  Cu7  1  0.500000  0.500000  0.500000  1
  Te  Te8  1  0.500000  0.249215  0.753013  1
  Te  Te9  1  0.000000  0.741899  0.744234  1
  Te  Te10  1  0.500000  0.750785  0.753013  1
  Te  Te11  1  0.000000  0.258101  0.744234  1
  Te  Te12  1  0.741899  0.000000  0.255766  1
  Te  Te13  1  0.249215  0.500000  0.246987  1
  Te  Te14  1  0.258101  0.000000  0.255766  1
  Te  Te15  1  0.750785  0.500000  0.246987  1
