# generated using pymatgen
data_Cs4Mn3Zn3Se8
_symmetry_space_group_name_H-M   'P 1'
_cell_length_a   9.98447489
_cell_length_b   9.98485379
_cell_length_c   9.98447500
_cell_angle_alpha   143.64052753
_cell_angle_beta   106.34200136
_cell_angle_gamma   85.02558409
_symmetry_Int_Tables_number   1
_chemical_formula_structural   Cs4Mn3Zn3Se8
_chemical_formula_sum   'Cs4 Mn3 Zn3 Se8'
_cell_volume   548.88944330
_cell_formula_units_Z   1
loop_
 _symmetry_equiv_pos_site_id
 _symmetry_equiv_pos_as_xyz
  1  'x, y, z'
loop_
 _atom_site_type_symbol
 _atom_site_label
 _atom_site_symmetry_multiplicity
 _atom_site_fract_x
 _atom_site_fract_y
 _atom_site_fract_z
 _atom_site_occupancy
  Cs  Cs0  1  0.120152  0.235503  0.356130  1
  Cs  Cs1  1  0.379954  0.735930  0.115594  1
  Cs  Cs2  1  0.620627  0.264497  0.884650  1
  Cs  Cs3  1  0.879665  0.764070  0.644024  1
  Mn  Mn4  1  0.022205  0.250000  0.772205  1
  Mn  Mn5  1  0.978393  0.750000  0.228393  1
  Mn  Mn6  1  0.520874  0.750000  0.770874  1
  Zn  Zn7  1  0.250716  0.750000  0.500716  1
  Zn  Zn8  1  0.750222  0.250000  0.500222  1
  Zn  Zn9  1  0.477639  0.250000  0.227639  1
  Se  Se10  1  0.477618  0.621917  0.408333  1
  Se  Se11  1  0.021632  0.435529  0.152101  1
  Se  Se12  1  0.286415  0.878083  0.855700  1
  Se  Se13  1  0.216571  0.064471  0.586102  1
  Se  Se14  1  0.713089  0.130555  0.151457  1
  Se  Se15  1  0.784148  0.934987  0.414169  1
  Se  Se16  1  0.979181  0.565013  0.849159  1
  Se  Se17  1  0.520901  0.369445  0.582534  1
