# generated using pymatgen
data_CaCe2(MgIr)3
_symmetry_space_group_name_H-M   'P 1'
_cell_length_a   7.41498981
_cell_length_b   7.41499082
_cell_length_c   4.13517100
_cell_angle_alpha   90.00000000
_cell_angle_beta   90.00000000
_cell_angle_gamma   122.28896335
_symmetry_Int_Tables_number   1
_chemical_formula_structural   CaCe2(MgIr)3
_chemical_formula_sum   'Ca1 Ce2 Mg3 Ir3'
_cell_volume   192.20238975
_cell_formula_units_Z   1
loop_
 _symmetry_equiv_pos_site_id
 _symmetry_equiv_pos_as_xyz
  1  'x, y, z'
loop_
 _atom_site_type_symbol
 _atom_site_label
 _atom_site_symmetry_multiplicity
 _atom_site_fract_x
 _atom_site_fract_y
 _atom_site_fract_z
 _atom_site_occupancy
  Ca  Ca0  1  0.411574  0.411574  0.000000  1
  Ce  Ce1  1  0.587702  0.998009  0.000000  1
  Ce  Ce2  1  0.998009  0.587702  0.000000  1
  Mg  Mg3  1  0.009135  0.240193  0.500000  1
  Mg  Mg4  1  0.744708  0.744708  0.500000  1
  Mg  Mg5  1  0.240193  0.009135  0.500000  1
  Ir  Ir6  1  0.982841  0.982841  0.000000  1
  Ir  Ir7  1  0.695430  0.330408  0.500000  1
  Ir  Ir8  1  0.330408  0.695430  0.500000  1
