# generated using pymatgen
data_Tb3Eu4Y(BO4)4
_symmetry_space_group_name_H-M   'P 1'
_cell_length_a   3.68818900
_cell_length_b   9.76373501
_cell_length_c   10.93035408
_cell_angle_alpha   89.85276600
_cell_angle_beta   90.00000000
_cell_angle_gamma   90.00000000
_symmetry_Int_Tables_number   1
_chemical_formula_structural   Tb3Eu4Y(BO4)4
_chemical_formula_sum   'Tb3 Eu4 Y1 B4 O16'
_cell_volume   393.60621662
_cell_formula_units_Z   1
loop_
 _symmetry_equiv_pos_site_id
 _symmetry_equiv_pos_as_xyz
  1  'x, y, z'
loop_
 _atom_site_type_symbol
 _atom_site_label
 _atom_site_symmetry_multiplicity
 _atom_site_fract_x
 _atom_site_fract_y
 _atom_site_fract_z
 _atom_site_occupancy
  Tb  Tb0  1  0.250000  0.083392  0.111680  1
  Tb  Tb1  1  0.750000  0.916440  0.888470  1
  Tb  Tb2  1  0.750000  0.583387  0.388622  1
  Eu  Eu3  1  0.250000  0.658506  0.080996  1
  Eu  Eu4  1  0.750000  0.341176  0.918885  1
  Eu  Eu5  1  0.750000  0.159311  0.419121  1
  Eu  Eu6  1  0.250000  0.841219  0.581055  1
  Y  Y7  1  0.250000  0.417139  0.611780  1
  B  B8  1  0.250000  0.364244  0.205487  1
  B  B9  1  0.750000  0.635603  0.794356  1
  B  B10  1  0.750000  0.864193  0.294352  1
  B  B11  1  0.250000  0.135923  0.705308  1
  O  O12  1  0.250000  0.491824  0.261236  1
  O  O13  1  0.750000  0.507906  0.738776  1
  O  O14  1  0.750000  0.992195  0.238904  1
  O  O15  1  0.250000  0.008225  0.761362  1
  O  O16  1  0.250000  0.243176  0.273713  1
  O  O17  1  0.750000  0.756712  0.726158  1
  O  O18  1  0.750000  0.743458  0.226061  1
  O  O19  1  0.250000  0.257128  0.773033  1
  O  O20  1  0.250000  0.353990  0.077245  1
  O  O21  1  0.750000  0.645916  0.922574  1
  O  O22  1  0.750000  0.853415  0.422574  1
  O  O23  1  0.250000  0.145814  0.577126  1
  O  O24  1  0.250000  0.613414  0.502074  1
  O  O25  1  0.750000  0.386440  0.498979  1
  O  O26  1  0.750000  0.113646  0.998172  1
  O  O27  1  0.250000  0.886206  0.001900  1
