# generated using pymatgen
data_LaNd(PaPt2)2
_symmetry_space_group_name_H-M   'P 1'
_cell_length_a   4.49094200
_cell_length_b   5.75617814
_cell_length_c   7.37675294
_cell_angle_alpha   89.34744391
_cell_angle_beta   90.00000000
_cell_angle_gamma   90.00000000
_symmetry_Int_Tables_number   1
_chemical_formula_structural   LaNd(PaPt2)2
_chemical_formula_sum   'La1 Nd1 Pa2 Pt4'
_cell_volume   190.68158036
_cell_formula_units_Z   1
loop_
 _symmetry_equiv_pos_site_id
 _symmetry_equiv_pos_as_xyz
  1  'x, y, z'
loop_
 _atom_site_type_symbol
 _atom_site_label
 _atom_site_symmetry_multiplicity
 _atom_site_fract_x
 _atom_site_fract_y
 _atom_site_fract_z
 _atom_site_occupancy
  La  La0  1  0.250000  0.351466  0.685285  1
  Nd  Nd1  1  0.750000  0.849966  0.818010  1
  Pa  Pa2  1  0.250000  0.146885  0.177807  1
  Pa  Pa3  1  0.750000  0.652829  0.320406  1
  Pt  Pt4  1  0.250000  0.840134  0.523068  1
  Pt  Pt5  1  0.250000  0.659966  0.074810  1
  Pt  Pt6  1  0.750000  0.168245  0.422559  1
  Pt  Pt7  1  0.750000  0.330510  0.978056  1
