# generated using pymatgen
data_YbDyTm2MnRu7
_symmetry_space_group_name_H-M   'P 1'
_cell_length_a   5.31074829
_cell_length_b   5.31277672
_cell_length_c   8.63761091
_cell_angle_alpha   90.00000203
_cell_angle_beta   90.01276395
_cell_angle_gamma   59.98734529
_symmetry_Int_Tables_number   1
_chemical_formula_structural   YbDyTm2MnRu7
_chemical_formula_sum   'Yb1 Dy1 Tm2 Mn1 Ru7'
_cell_volume   211.03094441
_cell_formula_units_Z   1
loop_
 _symmetry_equiv_pos_site_id
 _symmetry_equiv_pos_as_xyz
  1  'x, y, z'
loop_
 _atom_site_type_symbol
 _atom_site_label
 _atom_site_symmetry_multiplicity
 _atom_site_fract_x
 _atom_site_fract_y
 _atom_site_fract_z
 _atom_site_occupancy
  Yb  Yb0  1  0.333422  0.333289  0.563019  1
  Dy  Dy1  1  0.666574  0.666714  0.439341  1
  Tm  Tm2  1  0.666626  0.666687  0.068162  1
  Tm  Tm3  1  0.333378  0.333311  0.926484  1
  Mn  Mn4  1  0.000011  0.999994  0.002654  1
  Ru  Ru5  1  0.999982  0.000009  0.499836  1
  Ru  Ru6  1  0.829383  0.341409  0.755918  1
  Ru  Ru7  1  0.341390  0.829305  0.755920  1
  Ru  Ru8  1  0.829383  0.829207  0.755918  1
  Ru  Ru9  1  0.171636  0.656630  0.244246  1
  Ru  Ru10  1  0.656581  0.171710  0.244257  1
  Ru  Ru11  1  0.171636  0.171736  0.244246  1
