# generated using pymatgen
data_ZnOs5O12
_symmetry_space_group_name_H-M   'P 1'
_cell_length_a   4.56930294
_cell_length_b   4.56930255
_cell_length_c   9.54785600
_cell_angle_alpha   90.00000000
_cell_angle_beta   90.00000000
_cell_angle_gamma   90.02447740
_symmetry_Int_Tables_number   1
_chemical_formula_structural   ZnOs5O12
_chemical_formula_sum   'Zn1 Os5 O12'
_cell_volume   199.34515656
_cell_formula_units_Z   1
loop_
 _symmetry_equiv_pos_site_id
 _symmetry_equiv_pos_as_xyz
  1  'x, y, z'
loop_
 _atom_site_type_symbol
 _atom_site_label
 _atom_site_symmetry_multiplicity
 _atom_site_fract_x
 _atom_site_fract_y
 _atom_site_fract_z
 _atom_site_occupancy
  Zn  Zn0  1  0.000000  0.000000  0.000000  1
  Os  Os1  1  0.000000  0.000000  0.331942  1
  Os  Os2  1  0.000000  0.000000  0.668058  1
  Os  Os3  1  0.500000  0.500000  0.166461  1
  Os  Os4  1  0.500000  0.500000  0.500000  1
  Os  Os5  1  0.500000  0.500000  0.833539  1
  O  O6  1  0.192444  0.192444  0.500000  1
  O  O7  1  0.208996  0.208996  0.184194  1
  O  O8  1  0.208996  0.208996  0.815806  1
  O  O9  1  0.693573  0.306427  0.336433  1
  O  O10  1  0.693573  0.306427  0.663567  1
  O  O11  1  0.689884  0.310116  0.000000  1
  O  O12  1  0.310116  0.689884  0.000000  1
  O  O13  1  0.306427  0.693573  0.336433  1
  O  O14  1  0.306427  0.693573  0.663567  1
  O  O15  1  0.791004  0.791004  0.184194  1
  O  O16  1  0.791004  0.791004  0.815806  1
  O  O17  1  0.807556  0.807556  0.500000  1
