# generated using pymatgen
data_ThInCu4Ru
_symmetry_space_group_name_H-M   'P 1'
_cell_length_a   4.95701700
_cell_length_b   8.47159100
_cell_length_c   10.84795000
_cell_angle_alpha   90.00000000
_cell_angle_beta   90.00000000
_cell_angle_gamma   90.00000000
_symmetry_Int_Tables_number   1
_chemical_formula_structural   ThInCu4Ru
_chemical_formula_sum   'Th4 In4 Cu16 Ru4'
_cell_volume   455.54686622
_cell_formula_units_Z   4
loop_
 _symmetry_equiv_pos_site_id
 _symmetry_equiv_pos_as_xyz
  1  'x, y, z'
loop_
 _atom_site_type_symbol
 _atom_site_label
 _atom_site_symmetry_multiplicity
 _atom_site_fract_x
 _atom_site_fract_y
 _atom_site_fract_z
 _atom_site_occupancy
  Th  Th0  1  0.750000  0.235991  0.938943  1
  Th  Th1  1  0.250000  0.764009  0.061057  1
  Th  Th2  1  0.750000  0.735991  0.561057  1
  Th  Th3  1  0.250000  0.264009  0.438943  1
  In  In4  1  0.750000  0.356392  0.642126  1
  In  In5  1  0.250000  0.643608  0.357874  1
  In  In6  1  0.750000  0.856392  0.857874  1
  In  In7  1  0.250000  0.143608  0.142126  1
  Cu  Cu8  1  0.000392  0.434968  0.187403  1
  Cu  Cu9  1  0.500392  0.565032  0.812597  1
  Cu  Cu10  1  0.499608  0.934968  0.312597  1
  Cu  Cu11  1  0.999608  0.065032  0.687403  1
  Cu  Cu12  1  0.999608  0.565032  0.812597  1
  Cu  Cu13  1  0.499608  0.434968  0.187403  1
  Cu  Cu14  1  0.500392  0.065032  0.687403  1
  Cu  Cu15  1  0.000392  0.934968  0.312597  1
  Cu  Cu16  1  0.750000  0.191404  0.263963  1
  Cu  Cu17  1  0.250000  0.808596  0.736037  1
  Cu  Cu18  1  0.750000  0.691404  0.236037  1
  Cu  Cu19  1  0.250000  0.308596  0.763963  1
  Cu  Cu20  1  0.750000  0.076698  0.485046  1
  Cu  Cu21  1  0.250000  0.923302  0.514954  1
  Cu  Cu22  1  0.750000  0.576698  0.014954  1
  Cu  Cu23  1  0.250000  0.423302  0.985046  1
  Ru  Ru24  1  0.750000  0.460975  0.403344  1
  Ru  Ru25  1  0.250000  0.539025  0.596656  1
  Ru  Ru26  1  0.750000  0.960975  0.096656  1
  Ru  Ru27  1  0.250000  0.039025  0.903344  1
