# generated using pymatgen
data_DyEr7Lu8(Ga3Co)2
_symmetry_space_group_name_H-M   'P 1'
_cell_length_a   9.81632100
_cell_length_b   9.81632131
_cell_length_c   6.89438300
_cell_angle_alpha   90.00000000
_cell_angle_beta   90.00000000
_cell_angle_gamma   119.99999560
_symmetry_Int_Tables_number   1
_chemical_formula_structural   DyEr7Lu8(Ga3Co)2
_chemical_formula_sum   'Dy1 Er7 Lu8 Ga6 Co2'
_cell_volume   575.33868144
_cell_formula_units_Z   1
loop_
 _symmetry_equiv_pos_site_id
 _symmetry_equiv_pos_as_xyz
  1  'x, y, z'
loop_
 _atom_site_type_symbol
 _atom_site_label
 _atom_site_symmetry_multiplicity
 _atom_site_fract_x
 _atom_site_fract_y
 _atom_site_fract_z
 _atom_site_occupancy
  Dy  Dy0  1  0.000000  0.000000  0.731623  1
  Er  Er1  1  0.463949  0.536051  0.208341  1
  Er  Er2  1  0.072100  0.536051  0.208341  1
  Er  Er3  1  0.463949  0.927900  0.208341  1
  Er  Er4  1  0.536036  0.463964  0.708341  1
  Er  Er5  1  0.927929  0.463964  0.708341  1
  Er  Er6  1  0.536036  0.072071  0.708341  1
  Er  Er7  1  0.000000  0.000000  0.232062  1
  Lu  Lu8  1  0.173933  0.826067  0.512309  1
  Lu  Lu9  1  0.652134  0.826067  0.512309  1
  Lu  Lu10  1  0.173933  0.347866  0.512309  1
  Lu  Lu11  1  0.826054  0.173946  0.012761  1
  Lu  Lu12  1  0.347891  0.173946  0.012761  1
  Lu  Lu13  1  0.826054  0.652109  0.012761  1
  Lu  Lu14  1  0.333333  0.666667  0.826214  1
  Lu  Lu15  1  0.666667  0.333333  0.325967  1
  Ga  Ga16  1  0.163758  0.836242  0.956922  1
  Ga  Ga17  1  0.672484  0.836242  0.956922  1
  Ga  Ga18  1  0.163758  0.327516  0.956922  1
  Ga  Ga19  1  0.836274  0.163726  0.456452  1
  Ga  Ga20  1  0.327453  0.163726  0.456452  1
  Ga  Ga21  1  0.836274  0.672547  0.456452  1
  Co  Co22  1  0.333333  0.666667  0.446892  1
  Co  Co23  1  0.666667  0.333333  0.946700  1
