# generated using pymatgen
data_TbSm3(B4Mo)4
_symmetry_space_group_name_H-M   'P 1'
_cell_length_a   3.66872300
_cell_length_b   6.07859161
_cell_length_c   11.75222918
_cell_angle_alpha   89.94859344
_cell_angle_beta   90.00000000
_cell_angle_gamma   90.00000000
_symmetry_Int_Tables_number   1
_chemical_formula_structural   TbSm3(B4Mo)4
_chemical_formula_sum   'Tb1 Sm3 B16 Mo4'
_cell_volume   262.08246580
_cell_formula_units_Z   1
loop_
 _symmetry_equiv_pos_site_id
 _symmetry_equiv_pos_as_xyz
  1  'x, y, z'
loop_
 _atom_site_type_symbol
 _atom_site_label
 _atom_site_symmetry_multiplicity
 _atom_site_fract_x
 _atom_site_fract_y
 _atom_site_fract_z
 _atom_site_occupancy
  Tb  Tb0  1  0.000000  0.873562  0.850234  1
  Sm  Sm1  1  0.000000  0.626288  0.349822  1
  Sm  Sm2  1  0.000000  0.373680  0.650467  1
  Sm  Sm3  1  0.000000  0.126150  0.149973  1
  B  B4  1  0.500000  0.784347  0.185053  1
  B  B5  1  0.500000  0.213824  0.814894  1
  B  B6  1  0.500000  0.284343  0.314653  1
  B  B7  1  0.500000  0.715940  0.686348  1
  B  B8  1  0.500000  0.865141  0.031133  1
  B  B9  1  0.500000  0.134444  0.967262  1
  B  B10  1  0.500000  0.364711  0.468034  1
  B  B11  1  0.500000  0.635372  0.532311  1
  B  B12  1  0.500000  0.887254  0.453406  1
  B  B13  1  0.500000  0.112587  0.547026  1
  B  B14  1  0.500000  0.387537  0.046221  1
  B  B15  1  0.500000  0.614090  0.952422  1
  B  B16  1  0.500000  0.976173  0.307912  1
  B  B17  1  0.500000  0.023011  0.693260  1
  B  B18  1  0.500000  0.476174  0.191876  1
  B  B19  1  0.500000  0.525066  0.807842  1
  Mo  Mo20  1  0.000000  0.629024  0.082497  1
  Mo  Mo21  1  0.000000  0.371352  0.916463  1
  Mo  Mo22  1  0.000000  0.128570  0.417060  1
  Mo  Mo23  1  0.000000  0.871358  0.583830  1
