# generated using pymatgen
data_Er3Ga24Pd8W
_symmetry_space_group_name_H-M   'P 1'
_cell_length_a   8.47155554
_cell_length_b   8.47527910
_cell_length_c   8.45743322
_cell_angle_alpha   89.69850446
_cell_angle_beta   89.74026762
_cell_angle_gamma   89.79229289
_symmetry_Int_Tables_number   1
_chemical_formula_structural   Er3Ga24Pd8W
_chemical_formula_sum   'Er3 Ga24 Pd8 W1'
_cell_volume   607.21495247
_cell_formula_units_Z   1
loop_
 _symmetry_equiv_pos_site_id
 _symmetry_equiv_pos_as_xyz
  1  'x, y, z'
loop_
 _atom_site_type_symbol
 _atom_site_label
 _atom_site_symmetry_multiplicity
 _atom_site_fract_x
 _atom_site_fract_y
 _atom_site_fract_z
 _atom_site_occupancy
  Er  Er0  1  0.000000  0.500000  0.000000  1
  Er  Er1  1  0.500000  0.000000  0.000000  1
  Er  Er2  1  0.000000  0.000000  0.500000  1
  Ga  Ga3  1  0.990995  0.641924  0.641613  1
  Ga  Ga4  1  0.641676  0.641642  0.990964  1
  Ga  Ga5  1  0.641695  0.990963  0.641818  1
  Ga  Ga6  1  0.009005  0.358076  0.358387  1
  Ga  Ga7  1  0.358324  0.358358  0.009036  1
  Ga  Ga8  1  0.358305  0.009037  0.358182  1
  Ga  Ga9  1  0.735828  0.499526  0.264047  1
  Ga  Ga10  1  0.264172  0.500474  0.735953  1
  Ga  Ga11  1  0.500681  0.263728  0.736219  1
  Ga  Ga12  1  0.499319  0.736272  0.263781  1
  Ga  Ga13  1  0.263168  0.736508  0.499659  1
  Ga  Ga14  1  0.736832  0.263492  0.500341  1
  Ga  Ga15  1  0.838822  0.138675  0.838486  1
  Ga  Ga16  1  0.138486  0.839181  0.838791  1
  Ga  Ga17  1  0.839678  0.839803  0.137756  1
  Ga  Ga18  1  0.161178  0.861325  0.161514  1
  Ga  Ga19  1  0.861514  0.160819  0.161209  1
  Ga  Ga20  1  0.160322  0.160197  0.862244  1
  Ga  Ga21  1  0.730138  0.490076  0.729511  1
  Ga  Ga22  1  0.490383  0.730193  0.729298  1
  Ga  Ga23  1  0.729636  0.729810  0.491052  1
  Ga  Ga24  1  0.269862  0.509924  0.270489  1
  Ga  Ga25  1  0.509617  0.269807  0.270702  1
  Ga  Ga26  1  0.270364  0.270190  0.508948  1
  Pd  Pd27  1  0.832798  0.833048  0.831626  1
  Pd  Pd28  1  0.167202  0.166952  0.168374  1
  Pd  Pd29  1  0.666321  0.333670  0.000049  1
  Pd  Pd30  1  0.000616  0.333287  0.666913  1
  Pd  Pd31  1  0.333229  0.000609  0.667053  1
  Pd  Pd32  1  0.333679  0.666330  0.999951  1
  Pd  Pd33  1  0.999384  0.666713  0.333087  1
  Pd  Pd34  1  0.666771  0.999391  0.332947  1
  W  W35  1  0.500000  0.500000  0.500000  1
