# generated using pymatgen
data_Ca4ErSi12Ir19
_symmetry_space_group_name_H-M   'P 1'
_cell_length_a   12.82716617
_cell_length_b   12.83080791
_cell_length_c   4.00344700
_cell_angle_alpha   90.00000000
_cell_angle_beta   90.00000000
_cell_angle_gamma   120.00939896
_symmetry_Int_Tables_number   1
_chemical_formula_structural   Ca4ErSi12Ir19
_chemical_formula_sum   'Ca4 Er1 Si12 Ir19'
_cell_volume   570.56916742
_cell_formula_units_Z   1
loop_
 _symmetry_equiv_pos_site_id
 _symmetry_equiv_pos_as_xyz
  1  'x, y, z'
loop_
 _atom_site_type_symbol
 _atom_site_label
 _atom_site_symmetry_multiplicity
 _atom_site_fract_x
 _atom_site_fract_y
 _atom_site_fract_z
 _atom_site_occupancy
  Ca  Ca0  1  0.666962  0.333481  0.000000  1
  Ca  Ca1  1  0.333038  0.666519  0.000000  1
  Ca  Ca2  1  0.816615  0.816440  0.500000  1
  Ca  Ca3  1  0.183385  0.999825  0.500000  1
  Er  Er4  1  0.000000  0.181432  0.500000  1
  Si  Si5  1  0.687348  0.167819  0.500000  1
  Si  Si6  1  0.832320  0.520104  0.500000  1
  Si  Si7  1  0.479685  0.311965  0.500000  1
  Si  Si8  1  0.167680  0.687785  0.500000  1
  Si  Si9  1  0.520315  0.832280  0.500000  1
  Si  Si10  1  0.312652  0.480472  0.500000  1
  Si  Si11  1  0.630592  0.630577  0.000000  1
  Si  Si12  1  0.369408  0.999985  0.000000  1
  Si  Si13  1  0.000000  0.368869  0.000000  1
  Si  Si14  1  0.182476  0.182212  0.000000  1
  Si  Si15  1  0.817524  0.999736  0.000000  1
  Si  Si16  1  0.000000  0.817952  0.000000  1
  Ir  Ir17  1  0.807632  0.183341  0.000000  1
  Ir  Ir18  1  0.816057  0.621365  0.000000  1
  Ir  Ir19  1  0.378050  0.194723  0.000000  1
  Ir  Ir20  1  0.183943  0.805307  0.000000  1
  Ir  Ir21  1  0.621950  0.816673  0.000000  1
  Ir  Ir22  1  0.192368  0.375709  0.000000  1
  Ir  Ir23  1  0.445753  0.447432  0.000000  1
  Ir  Ir24  1  0.554247  0.001679  0.000000  1
  Ir  Ir25  1  0.000000  0.552470  0.000000  1
  Ir  Ir26  1  0.282499  0.283672  0.500000  1
  Ir  Ir27  1  0.717501  0.001172  0.500000  1
  Ir  Ir28  1  0.000000  0.716829  0.500000  1
  Ir  Ir29  1  0.874051  0.360618  0.500000  1
  Ir  Ir30  1  0.638330  0.512813  0.500000  1
  Ir  Ir31  1  0.486613  0.125751  0.500000  1
  Ir  Ir32  1  0.361670  0.874480  0.500000  1
  Ir  Ir33  1  0.513387  0.639136  0.500000  1
  Ir  Ir34  1  0.125949  0.486565  0.500000  1
  Ir  Ir35  1  0.000000  0.002814  0.000000  1
