# generated using pymatgen
data_Hf16Ni4Mo2RuRh
_symmetry_space_group_name_H-M   'P 1'
_cell_length_a   8.65953912
_cell_length_b   8.65953828
_cell_length_c   8.62662910
_cell_angle_alpha   60.10319216
_cell_angle_beta   60.10319564
_cell_angle_gamma   60.16978369
_symmetry_Int_Tables_number   1
_chemical_formula_structural   Hf16Ni4Mo2RuRh
_chemical_formula_sum   'Hf16 Ni4 Mo2 Ru1 Rh1'
_cell_volume   458.71948470
_cell_formula_units_Z   1
loop_
 _symmetry_equiv_pos_site_id
 _symmetry_equiv_pos_as_xyz
  1  'x, y, z'
loop_
 _atom_site_type_symbol
 _atom_site_label
 _atom_site_symmetry_multiplicity
 _atom_site_fract_x
 _atom_site_fract_y
 _atom_site_fract_z
 _atom_site_occupancy
  Hf  Hf0  1  0.680997  0.107790  0.105530  1
  Hf  Hf1  1  0.107790  0.680997  0.105530  1
  Hf  Hf2  1  0.104071  0.104071  0.687703  1
  Hf  Hf3  1  0.103805  0.103805  0.103980  1
  Hf  Hf4  1  0.316330  0.316330  0.686656  1
  Hf  Hf5  1  0.684946  0.684946  0.315160  1
  Hf  Hf6  1  0.316712  0.688568  0.315659  1
  Hf  Hf7  1  0.686662  0.316359  0.682028  1
  Hf  Hf8  1  0.688568  0.316712  0.315659  1
  Hf  Hf9  1  0.316359  0.686662  0.682028  1
  Hf  Hf10  1  0.951992  0.951992  0.547808  1
  Hf  Hf11  1  0.550384  0.550384  0.948794  1
  Hf  Hf12  1  0.949689  0.549395  0.950396  1
  Hf  Hf13  1  0.551364  0.947161  0.551980  1
  Hf  Hf14  1  0.549395  0.949689  0.950396  1
  Hf  Hf15  1  0.947161  0.551364  0.551980  1
  Ni  Ni16  1  0.321751  0.889651  0.893781  1
  Ni  Ni17  1  0.889651  0.321751  0.893781  1
  Ni  Ni18  1  0.891779  0.891779  0.319685  1
  Ni  Ni19  1  0.892094  0.892094  0.896060  1
  Mo  Mo20  1  0.999101  0.332883  0.333064  1
  Mo  Mo21  1  0.332883  0.999101  0.333064  1
  Ru  Ru22  1  0.333588  0.333588  0.993818  1
  Rh  Rh23  1  0.332923  0.332923  0.335457  1
