# generated using pymatgen
data_Na4InGa11Te20
_symmetry_space_group_name_H-M   'P 1'
_cell_length_a   10.56443859
_cell_length_b   10.57793639
_cell_length_c   10.60486988
_cell_angle_alpha   90.68777492
_cell_angle_beta   90.57960045
_cell_angle_gamma   90.41998658
_symmetry_Int_Tables_number   1
_chemical_formula_structural   Na4InGa11Te20
_chemical_formula_sum   'Na4 In1 Ga11 Te20'
_cell_volume   1184.91486044
_cell_formula_units_Z   1
loop_
 _symmetry_equiv_pos_site_id
 _symmetry_equiv_pos_as_xyz
  1  'x, y, z'
loop_
 _atom_site_type_symbol
 _atom_site_label
 _atom_site_symmetry_multiplicity
 _atom_site_fract_x
 _atom_site_fract_y
 _atom_site_fract_z
 _atom_site_occupancy
  Na  Na0  1  0.256966  0.000214  0.744018  1
  Na  Na1  1  0.743532  0.256540  0.000038  1
  Na  Na2  1  0.000084  0.743216  0.255958  1
  Na  Na3  1  0.499426  0.499609  0.499858  1
  In  In4  1  0.840027  0.876957  0.574224  1
  Ga  Ga5  1  0.571650  0.837926  0.879645  1
  Ga  Ga6  1  0.878618  0.572249  0.840195  1
  Ga  Ga7  1  0.161819  0.426628  0.121694  1
  Ga  Ga8  1  0.123995  0.163422  0.425180  1
  Ga  Ga9  1  0.426941  0.121765  0.161530  1
  Ga  Ga10  1  0.746126  0.166252  0.343217  1
  Ga  Ga11  1  0.342804  0.746955  0.165414  1
  Ga  Ga12  1  0.164929  0.343222  0.747572  1
  Ga  Ga13  1  0.252946  0.656852  0.834921  1
  Ga  Ga14  1  0.834537  0.253782  0.656689  1
  Ga  Ga15  1  0.655937  0.833749  0.251321  1
  Te  Te16  1  0.174431  0.825732  0.000088  1
  Te  Te17  1  0.825580  0.999222  0.176457  1
  Te  Te18  1  0.173962  0.174324  0.173081  1
  Te  Te19  1  0.826443  0.824802  0.840604  1
  Te  Te20  1  0.999640  0.174132  0.824859  1
  Te  Te21  1  0.924023  0.498838  0.076691  1
  Te  Te22  1  0.090930  0.923766  0.494019  1
  Te  Te23  1  0.499965  0.076380  0.923918  1
  Te  Te24  1  0.745263  0.677513  0.420594  1
  Te  Te25  1  0.430485  0.749246  0.688643  1
  Te  Te26  1  0.688757  0.431787  0.749611  1
  Te  Te27  1  0.250487  0.569794  0.311251  1
  Te  Te28  1  0.312207  0.252669  0.570095  1
  Te  Te29  1  0.569204  0.312577  0.248921  1
  Te  Te30  1  0.665343  0.080138  0.569318  1
  Te  Te31  1  0.567560  0.674198  0.069225  1
  Te  Te32  1  0.069435  0.569889  0.675541  1
  Te  Te33  1  0.325034  0.430591  0.929729  1
  Te  Te34  1  0.929930  0.324873  0.430875  1
  Te  Te35  1  0.430983  0.930189  0.325005  1
