# generated using pymatgen
data_PaFeCo20B6Mo
_symmetry_space_group_name_H-M   'P 1'
_cell_length_a   7.46493085
_cell_length_b   7.46493106
_cell_length_c   7.46493100
_cell_angle_alpha   60.00000468
_cell_angle_beta   60.00000377
_cell_angle_gamma   60.00000342
_symmetry_Int_Tables_number   1
_chemical_formula_structural   PaFeCo20B6Mo
_chemical_formula_sum   'Pa1 Fe1 Co20 B6 Mo1'
_cell_volume   294.14564932
_cell_formula_units_Z   1
loop_
 _symmetry_equiv_pos_site_id
 _symmetry_equiv_pos_as_xyz
  1  'x, y, z'
loop_
 _atom_site_type_symbol
 _atom_site_label
 _atom_site_symmetry_multiplicity
 _atom_site_fract_x
 _atom_site_fract_y
 _atom_site_fract_z
 _atom_site_occupancy
  Pa  Pa0  1  0.750000  0.750000  0.750000  1
  Fe  Fe1  1  0.000000  0.000000  0.000000  1
  Co  Co2  1  0.612808  0.612808  0.161574  1
  Co  Co3  1  0.612808  0.161574  0.612808  1
  Co  Co4  1  0.161574  0.612808  0.612808  1
  Co  Co5  1  0.612808  0.612808  0.612808  1
  Co  Co6  1  0.380101  0.380101  0.859698  1
  Co  Co7  1  0.380101  0.859698  0.380101  1
  Co  Co8  1  0.859698  0.380101  0.380101  1
  Co  Co9  1  0.380101  0.380101  0.380101  1
  Co  Co10  1  0.003053  0.003053  0.335345  1
  Co  Co11  1  0.658548  0.003053  0.335345  1
  Co  Co12  1  0.003053  0.658548  0.335345  1
  Co  Co13  1  0.658548  0.335345  0.003053  1
  Co  Co14  1  0.003053  0.335345  0.003053  1
  Co  Co15  1  0.003053  0.335345  0.658548  1
  Co  Co16  1  0.335345  0.658548  0.003053  1
  Co  Co17  1  0.335345  0.003053  0.658548  1
  Co  Co18  1  0.335345  0.003053  0.003053  1
  Co  Co19  1  0.003053  0.003053  0.658548  1
  Co  Co20  1  0.003053  0.658548  0.003053  1
  Co  Co21  1  0.658548  0.003053  0.003053  1
  B  B22  1  0.726511  0.726511  0.273489  1
  B  B23  1  0.273489  0.726511  0.273489  1
  B  B24  1  0.726511  0.273489  0.273489  1
  B  B25  1  0.273489  0.273489  0.726511  1
  B  B26  1  0.726511  0.273489  0.726511  1
  B  B27  1  0.273489  0.726511  0.726511  1
  Mo  Mo28  1  0.250000  0.250000  0.250000  1
