# generated using pymatgen
data_Rb2CrCuS4
_symmetry_space_group_name_H-M   'P 1'
_cell_length_a   13.62971969
_cell_length_b   12.14409339
_cell_length_c   7.29082322
_cell_angle_alpha   85.18438757
_cell_angle_beta   62.60501408
_cell_angle_gamma   32.21059763
_symmetry_Int_Tables_number   1
_chemical_formula_structural   Rb2CrCuS4
_chemical_formula_sum   'Rb4 Cr2 Cu2 S8'
_cell_volume   436.32821226
_cell_formula_units_Z   2
loop_
 _symmetry_equiv_pos_site_id
 _symmetry_equiv_pos_as_xyz
  1  'x, y, z'
loop_
 _atom_site_type_symbol
 _atom_site_label
 _atom_site_symmetry_multiplicity
 _atom_site_fract_x
 _atom_site_fract_y
 _atom_site_fract_z
 _atom_site_occupancy
  Rb  Rb0  1  0.572257  0.572257  0.927743  1
  Rb  Rb1  1  0.927743  0.927743  0.572257  1
  Rb  Rb2  1  0.322257  0.322257  0.677743  1
  Rb  Rb3  1  0.677743  0.677743  0.322257  1
  Cr  Cr4  1  0.750000  0.750000  0.750000  1
  Cr  Cr5  1  0.500000  0.500000  0.500000  1
  Cu  Cu6  1  0.000000  0.000000  0.000000  1
  Cu  Cu7  1  0.250000  0.250000  0.250000  1
  S  S8  1  0.229910  0.874302  0.584973  1
  S  S9  1  0.310815  0.584973  0.874302  1
  S  S10  1  0.584973  0.310815  0.229910  1
  S  S11  1  0.874302  0.229910  0.310815  1
  S  S12  1  0.375698  0.020090  0.939185  1
  S  S13  1  0.939185  0.665027  0.375698  1
  S  S14  1  0.665027  0.939185  0.020090  1
  S  S15  1  0.020090  0.375698  0.665027  1
