# generated using pymatgen
data_Zr3VFe3Co5P6
_symmetry_space_group_name_H-M   'P 1'
_cell_length_a   11.96719055
_cell_length_b   11.98287851
_cell_length_c   3.65045300
_cell_angle_alpha   90.00000000
_cell_angle_beta   90.00000000
_cell_angle_gamma   120.08621994
_symmetry_Int_Tables_number   1
_chemical_formula_structural   Zr3VFe3Co5P6
_chemical_formula_sum   'Zr6 V2 Fe6 Co10 P12'
_cell_volume   452.95262446
_cell_formula_units_Z   2
loop_
 _symmetry_equiv_pos_site_id
 _symmetry_equiv_pos_as_xyz
  1  'x, y, z'
loop_
 _atom_site_type_symbol
 _atom_site_label
 _atom_site_symmetry_multiplicity
 _atom_site_fract_x
 _atom_site_fract_y
 _atom_site_fract_z
 _atom_site_occupancy
  Zr  Zr0  1  0.000527  0.557006  0.000000  1
  Zr  Zr1  1  0.664953  0.332848  0.000000  1
  Zr  Zr2  1  0.334217  0.668605  0.000000  1
  Zr  Zr3  1  0.814102  0.814640  0.500000  1
  Zr  Zr4  1  0.187408  0.001332  0.500000  1
  Zr  Zr5  1  0.999296  0.178673  0.500000  1
  V  V6  1  0.441100  0.442237  0.000000  1
  V  V7  1  0.557396  0.001272  0.000000  1
  Fe  Fe8  1  0.200914  0.374100  0.000000  1
  Fe  Fe9  1  0.183291  0.809675  0.000000  1
  Fe  Fe10  1  0.816547  0.626165  0.000000  1
  Fe  Fe11  1  0.798973  0.171766  0.000000  1
  Fe  Fe12  1  0.377792  0.200549  0.000000  1
  Fe  Fe13  1  0.129241  0.478640  0.500000  1
  Co  Co14  1  0.361392  0.878891  0.500000  1
  Co  Co15  1  0.516383  0.645929  0.500000  1
  Co  Co16  1  0.638207  0.517155  0.500000  1
  Co  Co17  1  0.869672  0.350949  0.500000  1
  Co  Co18  1  0.485222  0.128652  0.500000  1
  Co  Co19  1  0.000174  0.000175  0.000000  1
  Co  Co20  1  0.716832  0.996089  0.500000  1
  Co  Co21  1  0.999441  0.723842  0.500000  1
  Co  Co22  1  0.623629  0.821691  0.000000  1
  Co  Co23  1  0.282052  0.280582  0.500000  1
  P  P24  1  0.639448  0.641530  0.000000  1
  P  P25  1  0.361282  0.004496  0.000000  1
  P  P26  1  0.998047  0.343805  0.000000  1
  P  P27  1  0.480615  0.313974  0.500000  1
  P  P28  1  0.685661  0.165372  0.500000  1
  P  P29  1  0.823374  0.518940  0.500000  1
  P  P30  1  0.517795  0.834317  0.500000  1
  P  P31  1  0.176522  0.696119  0.500000  1
  P  P32  1  0.822467  0.998708  0.000000  1
  P  P33  1  0.000628  0.823735  0.000000  1
  P  P34  1  0.316134  0.481336  0.500000  1
  P  P35  1  0.179268  0.176198  0.000000  1
