# generated using pymatgen
data_Yb(PtO2)3
_symmetry_space_group_name_H-M   'P 1'
_cell_length_a   3.28446000
_cell_length_b   6.26543539
_cell_length_c   6.26543582
_cell_angle_alpha   109.30208182
_cell_angle_beta   90.00000000
_cell_angle_gamma   90.00000000
_symmetry_Int_Tables_number   1
_chemical_formula_structural   Yb(PtO2)3
_chemical_formula_sum   'Yb1 Pt3 O6'
_cell_volume   121.68622085
_cell_formula_units_Z   1
loop_
 _symmetry_equiv_pos_site_id
 _symmetry_equiv_pos_as_xyz
  1  'x, y, z'
loop_
 _atom_site_type_symbol
 _atom_site_label
 _atom_site_symmetry_multiplicity
 _atom_site_fract_x
 _atom_site_fract_y
 _atom_site_fract_z
 _atom_site_occupancy
  Yb  Yb0  1  0.000000  0.500000  0.500000  1
  Pt  Pt1  1  0.000000  0.000000  0.000000  1
  Pt  Pt2  1  0.499999  0.500000  0.000000  1
  Pt  Pt3  1  0.499999  0.000001  0.500000  1
  O  O4  1  0.000000  0.920479  0.662572  1
  O  O5  1  0.000000  0.079522  0.337428  1
  O  O6  1  0.000000  0.662572  0.920479  1
  O  O7  1  0.000000  0.337429  0.079522  1
  O  O8  1  0.499999  0.341160  0.658842  1
  O  O9  1  0.499999  0.658841  0.341159  1
