# generated using pymatgen
data_PrHfP7Ru12
_symmetry_space_group_name_H-M   'P 1'
_cell_length_a   9.43461500
_cell_length_b   9.43461489
_cell_length_c   3.92735900
_cell_angle_alpha   90.00000000
_cell_angle_beta   90.00000000
_cell_angle_gamma   119.99999595
_symmetry_Int_Tables_number   1
_chemical_formula_structural   PrHfP7Ru12
_chemical_formula_sum   'Pr1 Hf1 P7 Ru12'
_cell_volume   302.74683473
_cell_formula_units_Z   1
loop_
 _symmetry_equiv_pos_site_id
 _symmetry_equiv_pos_as_xyz
  1  'x, y, z'
loop_
 _atom_site_type_symbol
 _atom_site_label
 _atom_site_symmetry_multiplicity
 _atom_site_fract_x
 _atom_site_fract_y
 _atom_site_fract_z
 _atom_site_occupancy
  Pr  Pr0  1  0.333333  0.666667  0.000000  1
  Hf  Hf1  1  0.666667  0.333333  0.500000  1
  P  P2  1  0.604680  0.719131  0.500000  1
  P  P3  1  0.000000  0.000000  0.000000  1
  P  P4  1  0.280869  0.885550  0.500000  1
  P  P5  1  0.114450  0.395320  0.500000  1
  P  P6  1  0.885930  0.571061  0.000000  1
  P  P7  1  0.428939  0.314869  0.000000  1
  P  P8  1  0.685131  0.114070  0.000000  1
  Ru  Ru9  1  0.561233  0.960161  0.500000  1
  Ru  Ru10  1  0.398929  0.438767  0.500000  1
  Ru  Ru11  1  0.913590  0.119734  0.500000  1
  Ru  Ru12  1  0.206144  0.086410  0.500000  1
  Ru  Ru13  1  0.880266  0.793856  0.500000  1
  Ru  Ru14  1  0.727148  0.890135  0.000000  1
  Ru  Ru15  1  0.109865  0.837011  0.000000  1
  Ru  Ru16  1  0.162989  0.272852  0.000000  1
  Ru  Ru17  1  0.426995  0.076391  0.000000  1
  Ru  Ru18  1  0.923609  0.350605  0.000000  1
  Ru  Ru19  1  0.649395  0.573005  0.000000  1
  Ru  Ru20  1  0.039839  0.601071  0.500000  1
