# generated using pymatgen
data_Ho16In6PdAu
_symmetry_space_group_name_H-M   'P 1'
_cell_length_a   10.54379700
_cell_length_b   10.54379720
_cell_length_c   6.89294700
_cell_angle_alpha   90.00000000
_cell_angle_beta   90.00000000
_cell_angle_gamma   120.00000250
_symmetry_Int_Tables_number   1
_chemical_formula_structural   Ho16In6PdAu
_chemical_formula_sum   'Ho16 In6 Pd1 Au1'
_cell_volume   663.63554619
_cell_formula_units_Z   1
loop_
 _symmetry_equiv_pos_site_id
 _symmetry_equiv_pos_as_xyz
  1  'x, y, z'
loop_
 _atom_site_type_symbol
 _atom_site_label
 _atom_site_symmetry_multiplicity
 _atom_site_fract_x
 _atom_site_fract_y
 _atom_site_fract_z
 _atom_site_occupancy
  Ho  Ho0  1  0.525673  0.051344  0.510985  1
  Ho  Ho1  1  0.948656  0.474327  0.510985  1
  Ho  Ho2  1  0.525673  0.474327  0.510985  1
  Ho  Ho3  1  0.470694  0.941388  0.010050  1
  Ho  Ho4  1  0.058612  0.529306  0.010050  1
  Ho  Ho5  1  0.470694  0.529306  0.010050  1
  Ho  Ho6  1  0.174284  0.348567  0.720003  1
  Ho  Ho7  1  0.651433  0.825716  0.720003  1
  Ho  Ho8  1  0.174284  0.825716  0.720003  1
  Ho  Ho9  1  0.827143  0.654287  0.218371  1
  Ho  Ho10  1  0.345713  0.172857  0.218371  1
  Ho  Ho11  1  0.827143  0.172857  0.218371  1
  Ho  Ho12  1  0.666667  0.333333  0.868755  1
  Ho  Ho13  1  0.333333  0.666667  0.381957  1
  Ho  Ho14  1  0.000000  0.000000  0.488554  1
  Ho  Ho15  1  0.000000  0.000000  0.989908  1
  In  In16  1  0.836630  0.673260  0.746291  1
  In  In17  1  0.326740  0.163370  0.746291  1
  In  In18  1  0.836630  0.163370  0.746291  1
  In  In19  1  0.163123  0.326245  0.250123  1
  In  In20  1  0.673755  0.836877  0.250123  1
  In  In21  1  0.163123  0.836877  0.250123  1
  Pd  Pd22  1  0.333333  0.666667  0.781945  1
  Au  Au23  1  0.666667  0.333333  0.279454  1
