# generated using pymatgen
data_TbDy5Mn(CrC4)3
_symmetry_space_group_name_H-M   'P 1'
_cell_length_a   8.12243303
_cell_length_b   8.12262092
_cell_length_c   5.00585000
_cell_angle_alpha   90.00000000
_cell_angle_beta   90.00000000
_cell_angle_gamma   120.00945997
_symmetry_Int_Tables_number   1
_chemical_formula_structural   TbDy5Mn(CrC4)3
_chemical_formula_sum   'Tb1 Dy5 Mn1 Cr3 C12'
_cell_volume   285.98903443
_cell_formula_units_Z   1
loop_
 _symmetry_equiv_pos_site_id
 _symmetry_equiv_pos_as_xyz
  1  'x, y, z'
loop_
 _atom_site_type_symbol
 _atom_site_label
 _atom_site_symmetry_multiplicity
 _atom_site_fract_x
 _atom_site_fract_y
 _atom_site_fract_z
 _atom_site_occupancy
  Tb  Tb0  1  0.380995  0.315649  0.250000  1
  Dy  Dy1  1  0.622612  0.686305  0.750000  1
  Dy  Dy2  1  0.935253  0.620133  0.250000  1
  Dy  Dy3  1  0.685112  0.064837  0.250000  1
  Dy  Dy4  1  0.313893  0.936316  0.750000  1
  Dy  Dy5  1  0.063583  0.377498  0.750000  1
  Mn  Mn6  1  0.333279  0.666759  0.250000  1
  Cr  Cr7  1  0.999892  0.999876  0.501274  1
  Cr  Cr8  1  0.999892  0.999876  0.998726  1
  Cr  Cr9  1  0.666797  0.333269  0.750000  1
  C  C10  1  0.963817  0.775692  0.750000  1
  C  C11  1  0.191299  0.962097  0.250000  1
  C  C12  1  0.770806  0.808000  0.250000  1
  C  C13  1  0.224396  0.188151  0.750000  1
  C  C14  1  0.811804  0.036125  0.750000  1
  C  C15  1  0.036911  0.229252  0.250000  1
  C  C16  1  0.865217  0.579624  0.750000  1
  C  C17  1  0.287153  0.863516  0.250000  1
  C  C18  1  0.576270  0.713240  0.250000  1
  C  C19  1  0.420464  0.285269  0.750000  1
  C  C20  1  0.136168  0.423782  0.250000  1
  C  C21  1  0.714384  0.134737  0.750000  1
