# generated using pymatgen
data_Sr(CoO2)6
_symmetry_space_group_name_H-M   'P 1'
_cell_length_a   7.83952994
_cell_length_b   7.83952981
_cell_length_c   9.09517749
_cell_angle_alpha   56.19616356
_cell_angle_beta   56.19616718
_cell_angle_gamma   66.19456563
_symmetry_Int_Tables_number   1
_chemical_formula_structural   Sr(CoO2)6
_chemical_formula_sum   'Sr2 Co12 O24'
_cell_volume   382.35485721
_cell_formula_units_Z   2
loop_
 _symmetry_equiv_pos_site_id
 _symmetry_equiv_pos_as_xyz
  1  'x, y, z'
loop_
 _atom_site_type_symbol
 _atom_site_label
 _atom_site_symmetry_multiplicity
 _atom_site_fract_x
 _atom_site_fract_y
 _atom_site_fract_z
 _atom_site_occupancy
  Sr  Sr0  1  0.719963  0.280037  0.000000  1
  Sr  Sr1  1  0.280037  0.719963  0.000000  1
  Co  Co2  1  0.339586  0.339586  0.818869  1
  Co  Co3  1  0.004480  0.672654  0.817481  1
  Co  Co4  1  0.672654  0.004480  0.817481  1
  Co  Co5  1  0.995520  0.327346  0.182519  1
  Co  Co6  1  0.660414  0.660414  0.181131  1
  Co  Co7  1  0.327346  0.995520  0.182519  1
  Co  Co8  1  0.144311  0.144311  0.526961  1
  Co  Co9  1  0.479384  0.811455  0.524835  1
  Co  Co10  1  0.811455  0.479384  0.524835  1
  Co  Co11  1  0.855689  0.855689  0.473039  1
  Co  Co12  1  0.188545  0.520616  0.475165  1
  Co  Co13  1  0.520616  0.188545  0.475165  1
  O  O14  1  0.362071  0.362071  0.598692  1
  O  O15  1  0.027338  0.692875  0.599443  1
  O  O16  1  0.692875  0.027338  0.599443  1
  O  O17  1  0.972662  0.307125  0.400557  1
  O  O18  1  0.637929  0.637929  0.401308  1
  O  O19  1  0.307125  0.972662  0.400557  1
  O  O20  1  0.338377  0.338377  0.348415  1
  O  O21  1  0.005408  0.671682  0.350333  1
  O  O22  1  0.671682  0.005408  0.350333  1
  O  O23  1  0.994592  0.328318  0.649667  1
  O  O24  1  0.661623  0.661623  0.651585  1
  O  O25  1  0.328318  0.994592  0.649667  1
  O  O26  1  0.625007  0.291101  0.740387  1
  O  O27  1  0.291101  0.625007  0.740387  1
  O  O28  1  0.957274  0.957274  0.730264  1
  O  O29  1  0.708899  0.374993  0.259613  1
  O  O30  1  0.374993  0.708899  0.259613  1
  O  O31  1  0.042726  0.042726  0.269736  1
  O  O32  1  0.956480  0.623068  0.066512  1
  O  O33  1  0.623068  0.956480  0.066512  1
  O  O34  1  0.293706  0.293706  0.065515  1
  O  O35  1  0.376932  0.043520  0.933488  1
  O  O36  1  0.043520  0.376932  0.933488  1
  O  O37  1  0.706294  0.706294  0.934485  1
