# generated using pymatgen
data_Tb2YMgIr8
_symmetry_space_group_name_H-M   'P 1'
_cell_length_a   5.33300100
_cell_length_b   5.33300082
_cell_length_c   8.67171400
_cell_angle_alpha   90.00000000
_cell_angle_beta   90.00000000
_cell_angle_gamma   119.99998252
_symmetry_Int_Tables_number   1
_chemical_formula_structural   Tb2YMgIr8
_chemical_formula_sum   'Tb2 Y1 Mg1 Ir8'
_cell_volume   213.58904289
_cell_formula_units_Z   1
loop_
 _symmetry_equiv_pos_site_id
 _symmetry_equiv_pos_as_xyz
  1  'x, y, z'
loop_
 _atom_site_type_symbol
 _atom_site_label
 _atom_site_symmetry_multiplicity
 _atom_site_fract_x
 _atom_site_fract_y
 _atom_site_fract_z
 _atom_site_occupancy
  Tb  Tb0  1  0.333333  0.666667  0.079085  1
  Tb  Tb1  1  0.666667  0.333333  0.558687  1
  Y  Y2  1  0.666667  0.333333  0.929970  1
  Mg  Mg3  1  0.333333  0.666667  0.440217  1
  Ir  Ir4  1  0.000000  0.000000  0.997182  1
  Ir  Ir5  1  0.000000  0.000000  0.497709  1
  Ir  Ir6  1  0.830471  0.660941  0.251053  1
  Ir  Ir7  1  0.170554  0.829446  0.747997  1
  Ir  Ir8  1  0.658892  0.829446  0.747997  1
  Ir  Ir9  1  0.339059  0.169529  0.251053  1
  Ir  Ir10  1  0.830471  0.169529  0.251053  1
  Ir  Ir11  1  0.170554  0.341108  0.747997  1
