# generated using pymatgen
data_Ta4ZnSn(B2Ru5)2
_symmetry_space_group_name_H-M   'P 1'
_cell_length_a   9.38082800
_cell_length_b   9.38082800
_cell_length_c   3.03099900
_cell_angle_alpha   90.00000000
_cell_angle_beta   90.00000000
_cell_angle_gamma   90.00000000
_symmetry_Int_Tables_number   1
_chemical_formula_structural   Ta4ZnSn(B2Ru5)2
_chemical_formula_sum   'Ta4 Zn1 Sn1 B4 Ru10'
_cell_volume   266.72771185
_cell_formula_units_Z   1
loop_
 _symmetry_equiv_pos_site_id
 _symmetry_equiv_pos_as_xyz
  1  'x, y, z'
loop_
 _atom_site_type_symbol
 _atom_site_label
 _atom_site_symmetry_multiplicity
 _atom_site_fract_x
 _atom_site_fract_y
 _atom_site_fract_z
 _atom_site_occupancy
  Ta  Ta0  1  0.821179  0.673412  0.000000  1
  Ta  Ta1  1  0.178821  0.326588  0.000000  1
  Ta  Ta2  1  0.326588  0.821179  0.000000  1
  Ta  Ta3  1  0.673412  0.178821  0.000000  1
  Zn  Zn4  1  0.500000  0.500000  0.000000  1
  Sn  Sn5  1  0.000000  0.000000  0.000000  1
  B  B6  1  0.618870  0.870391  0.000000  1
  B  B7  1  0.381130  0.129609  0.000000  1
  B  B8  1  0.129609  0.618870  0.000000  1
  B  B9  1  0.870391  0.381130  0.000000  1
  Ru  Ru10  1  0.500000  0.000000  0.500000  1
  Ru  Ru11  1  0.000000  0.500000  0.500000  1
  Ru  Ru12  1  0.566001  0.714945  0.500000  1
  Ru  Ru13  1  0.433999  0.285055  0.500000  1
  Ru  Ru14  1  0.073613  0.778072  0.500000  1
  Ru  Ru15  1  0.926387  0.221928  0.500000  1
  Ru  Ru16  1  0.285055  0.566001  0.500000  1
  Ru  Ru17  1  0.714945  0.433999  0.500000  1
  Ru  Ru18  1  0.221928  0.073613  0.500000  1
  Ru  Ru19  1  0.778072  0.926387  0.500000  1
