# generated using pymatgen
data_LiHo2GaPt2
_symmetry_space_group_name_H-M   'P 1'
_cell_length_a   4.11093300
_cell_length_b   6.95916700
_cell_length_c   8.21657200
_cell_angle_alpha   90.00000000
_cell_angle_beta   90.00000000
_cell_angle_gamma   90.00000000
_symmetry_Int_Tables_number   1
_chemical_formula_structural   LiHo2GaPt2
_chemical_formula_sum   'Li2 Ho4 Ga2 Pt4'
_cell_volume   235.06519090
_cell_formula_units_Z   2
loop_
 _symmetry_equiv_pos_site_id
 _symmetry_equiv_pos_as_xyz
  1  'x, y, z'
loop_
 _atom_site_type_symbol
 _atom_site_label
 _atom_site_symmetry_multiplicity
 _atom_site_fract_x
 _atom_site_fract_y
 _atom_site_fract_z
 _atom_site_occupancy
  Li  Li0  1  0.250000  0.129345  0.437788  1
  Li  Li1  1  0.250000  0.629345  0.062212  1
  Ho  Ho2  1  0.250000  0.044127  0.817190  1
  Ho  Ho3  1  0.250000  0.544127  0.682810  1
  Ho  Ho4  1  0.750000  0.956261  0.184831  1
  Ho  Ho5  1  0.750000  0.456261  0.315169  1
  Ga  Ga6  1  0.750000  0.873607  0.560733  1
  Ga  Ga7  1  0.750000  0.373607  0.939267  1
  Pt  Pt8  1  0.250000  0.749512  0.382384  1
  Pt  Pt9  1  0.250000  0.249512  0.117616  1
  Pt  Pt10  1  0.750000  0.247148  0.627341  1
  Pt  Pt11  1  0.750000  0.747148  0.872659  1
