# generated using pymatgen
data_Tb17Ce(HoRh8)2
_symmetry_space_group_name_H-M   'P 1'
_cell_length_a   7.40145602
_cell_length_b   7.50206860
_cell_length_c   14.51470685
_cell_angle_alpha   90.10057683
_cell_angle_beta   89.84374470
_cell_angle_gamma   89.85555527
_symmetry_Int_Tables_number   1
_chemical_formula_structural   Tb17Ce(HoRh8)2
_chemical_formula_sum   'Tb17 Ce1 Ho2 Rh16'
_cell_volume   805.94015328
_cell_formula_units_Z   1
loop_
 _symmetry_equiv_pos_site_id
 _symmetry_equiv_pos_as_xyz
  1  'x, y, z'
loop_
 _atom_site_type_symbol
 _atom_site_label
 _atom_site_symmetry_multiplicity
 _atom_site_fract_x
 _atom_site_fract_y
 _atom_site_fract_z
 _atom_site_occupancy
  Tb  Tb0  1  0.994978  0.320096  0.594699  1
  Tb  Tb1  1  0.175479  0.006724  0.750151  1
  Tb  Tb2  1  0.506379  0.821325  0.405884  1
  Tb  Tb3  1  0.492072  0.175189  0.595318  1
  Tb  Tb4  1  0.161622  0.165923  0.378448  1
  Tb  Tb5  1  0.337392  0.666396  0.877659  1
  Tb  Tb6  1  0.676993  0.491815  0.749806  1
  Tb  Tb7  1  0.338204  0.665627  0.621601  1
  Tb  Tb8  1  0.010014  0.682890  0.407641  1
  Tb  Tb9  1  0.491208  0.180048  0.906563  1
  Tb  Tb10  1  0.824656  0.990266  0.248817  1
  Tb  Tb11  1  0.507834  0.818171  0.092870  1
  Tb  Tb12  1  0.991204  0.320602  0.907008  1
  Tb  Tb13  1  0.837587  0.832393  0.877706  1
  Tb  Tb14  1  0.663453  0.333854  0.121505  1
  Tb  Tb15  1  0.162909  0.166239  0.122059  1
  Tb  Tb16  1  0.320082  0.507907  0.249254  1
  Ce  Ce17  1  0.663889  0.336940  0.380305  1
  Ho  Ho18  1  0.009481  0.681745  0.092533  1
  Ho  Ho19  1  0.838568  0.832833  0.621750  1
  Rh  Rh20  1  0.040789  0.602941  0.748888  1
  Rh  Rh21  1  0.814278  0.042604  0.459855  1
  Rh  Rh22  1  0.462346  0.110676  0.253407  1
  Rh  Rh23  1  0.177846  0.967765  0.958792  1
  Rh  Rh24  1  0.687584  0.645318  0.250922  1
  Rh  Rh25  1  0.308143  0.352669  0.750401  1
  Rh  Rh26  1  0.954117  0.393429  0.252830  1
  Rh  Rh27  1  0.686116  0.527542  0.534959  1
  Rh  Rh28  1  0.319242  0.470519  0.042041  1
  Rh  Rh29  1  0.327075  0.467242  0.456857  1
  Rh  Rh30  1  0.542323  0.894495  0.747890  1
  Rh  Rh31  1  0.677121  0.530927  0.958090  1
  Rh  Rh32  1  0.822903  0.026770  0.042903  1
  Rh  Rh33  1  0.807814  0.145600  0.749417  1
  Rh  Rh34  1  0.173136  0.968246  0.542207  1
  Rh  Rh35  1  0.195159  0.856273  0.248962  1
