# generated using pymatgen
data_NaPb(AuO2)4
_symmetry_space_group_name_H-M   'P 1'
_cell_length_a   6.79513443
_cell_length_b   6.79513271
_cell_length_c   6.79513380
_cell_angle_alpha   125.73214577
_cell_angle_beta   125.73213819
_cell_angle_gamma   80.32883401
_symmetry_Int_Tables_number   1
_chemical_formula_structural   NaPb(AuO2)4
_chemical_formula_sum   'Na1 Pb1 Au4 O8'
_cell_volume   199.49222506
_cell_formula_units_Z   1
loop_
 _symmetry_equiv_pos_site_id
 _symmetry_equiv_pos_as_xyz
  1  'x, y, z'
loop_
 _atom_site_type_symbol
 _atom_site_label
 _atom_site_symmetry_multiplicity
 _atom_site_fract_x
 _atom_site_fract_y
 _atom_site_fract_z
 _atom_site_occupancy
  Na  Na0  1  0.750000  0.250000  0.500000  1
  Pb  Pb1  1  0.000000  0.000000  0.000000  1
  Au  Au2  1  0.375173  0.630952  0.755137  1
  Au  Au3  1  0.369048  0.124186  0.744222  1
  Au  Au4  1  0.875814  0.620037  0.244863  1
  Au  Au5  1  0.379963  0.624827  0.255778  1
  O  O6  1  0.049127  0.417330  0.056272  1
  O  O7  1  0.737022  0.291923  0.119177  1
  O  O8  1  0.172746  0.617843  0.880823  1
  O  O9  1  0.361058  0.992856  0.943728  1
  O  O10  1  0.708077  0.827254  0.445098  1
  O  O11  1  0.007144  0.950873  0.368204  1
  O  O12  1  0.382157  0.262978  0.554902  1
  O  O13  1  0.582670  0.638942  0.631796  1
