# generated using pymatgen
data_Tb2ThNi3
_symmetry_space_group_name_H-M   'P 1'
_cell_length_a   21.02704260
_cell_length_b   4.31680500
_cell_length_c   5.47360866
_cell_angle_alpha   90.00000000
_cell_angle_beta   97.19279926
_cell_angle_gamma   90.00000000
_symmetry_Int_Tables_number   1
_chemical_formula_structural   Tb2ThNi3
_chemical_formula_sum   'Tb8 Th4 Ni12'
_cell_volume   492.92761189
_cell_formula_units_Z   4
loop_
 _symmetry_equiv_pos_site_id
 _symmetry_equiv_pos_as_xyz
  1  'x, y, z'
loop_
 _atom_site_type_symbol
 _atom_site_label
 _atom_site_symmetry_multiplicity
 _atom_site_fract_x
 _atom_site_fract_y
 _atom_site_fract_z
 _atom_site_occupancy
  Tb  Tb0  1  0.227907  0.750000  0.721604  1
  Tb  Tb1  1  0.439787  0.250000  0.104675  1
  Tb  Tb2  1  0.892100  0.750000  0.070248  1
  Tb  Tb3  1  0.107889  0.250000  0.929647  1
  Tb  Tb4  1  0.772062  0.250000  0.278527  1
  Tb  Tb5  1  0.727980  0.750000  0.755706  1
  Tb  Tb6  1  0.272052  0.250000  0.244346  1
  Tb  Tb7  1  0.560252  0.750000  0.895418  1
  Th  Th8  1  0.061541  0.750000  0.388583  1
  Th  Th9  1  0.938384  0.250000  0.611411  1
  Th  Th10  1  0.393855  0.750000  0.580704  1
  Th  Th11  1  0.606174  0.250000  0.419155  1
  Ni  Ni12  1  0.178593  0.750000  0.202325  1
  Ni  Ni13  1  0.821262  0.250000  0.797930  1
  Ni  Ni14  1  0.346764  0.750000  0.054626  1
  Ni  Ni15  1  0.653263  0.250000  0.945331  1
  Ni  Ni16  1  0.014320  0.750000  0.862526  1
  Ni  Ni17  1  0.985776  0.250000  0.137593  1
  Ni  Ni18  1  0.846849  0.750000  0.547638  1
  Ni  Ni19  1  0.153196  0.250000  0.452188  1
  Ni  Ni20  1  0.512969  0.750000  0.374935  1
  Ni  Ni21  1  0.487054  0.250000  0.624921  1
  Ni  Ni22  1  0.678130  0.750000  0.226974  1
  Ni  Ni23  1  0.321846  0.250000  0.772981  1
