# generated using pymatgen
data_Ho3Er7(InBi2)2
_symmetry_space_group_name_H-M   'P 1'
_cell_length_a   9.02212803
_cell_length_b   9.02212821
_cell_length_c   6.46895400
_cell_angle_alpha   90.00000000
_cell_angle_beta   90.00000000
_cell_angle_gamma   119.63074186
_symmetry_Int_Tables_number   1
_chemical_formula_structural   Ho3Er7(InBi2)2
_chemical_formula_sum   'Ho3 Er7 In2 Bi4'
_cell_volume   457.70603707
_cell_formula_units_Z   1
loop_
 _symmetry_equiv_pos_site_id
 _symmetry_equiv_pos_as_xyz
  1  'x, y, z'
loop_
 _atom_site_type_symbol
 _atom_site_label
 _atom_site_symmetry_multiplicity
 _atom_site_fract_x
 _atom_site_fract_y
 _atom_site_fract_z
 _atom_site_occupancy
  Ho  Ho0  1  0.762525  0.762525  0.750000  1
  Ho  Ho1  1  0.234121  0.997865  0.750000  1
  Ho  Ho2  1  0.997865  0.234121  0.750000  1
  Er  Er3  1  0.668977  0.329122  0.003691  1
  Er  Er4  1  0.329122  0.668977  0.003691  1
  Er  Er5  1  0.329122  0.668977  0.496309  1
  Er  Er6  1  0.668977  0.329122  0.496309  1
  Er  Er7  1  0.233719  0.233719  0.250000  1
  Er  Er8  1  0.766398  0.008727  0.250000  1
  Er  Er9  1  0.008727  0.766398  0.250000  1
  In  In10  1  0.396746  0.002163  0.250000  1
  In  In11  1  0.002163  0.396746  0.250000  1
  Bi  Bi12  1  0.393740  0.393740  0.750000  1
  Bi  Bi13  1  0.602152  0.996644  0.750000  1
  Bi  Bi14  1  0.996644  0.602152  0.750000  1
  Bi  Bi15  1  0.609005  0.609005  0.250000  1
