# generated using pymatgen
data_Tb6Tm10Cd4NiIr3
_symmetry_space_group_name_H-M   'P 1'
_cell_length_a   9.52825717
_cell_length_b   9.52825771
_cell_length_c   9.52825790
_cell_angle_alpha   60.20346472
_cell_angle_beta   60.20346992
_cell_angle_gamma   60.20346592
_symmetry_Int_Tables_number   1
_chemical_formula_structural   Tb6Tm10Cd4NiIr3
_chemical_formula_sum   'Tb6 Tm10 Cd4 Ni1 Ir3'
_cell_volume   614.49978501
_cell_formula_units_Z   1
loop_
 _symmetry_equiv_pos_site_id
 _symmetry_equiv_pos_as_xyz
  1  'x, y, z'
loop_
 _atom_site_type_symbol
 _atom_site_label
 _atom_site_symmetry_multiplicity
 _atom_site_fract_x
 _atom_site_fract_y
 _atom_site_fract_z
 _atom_site_occupancy
  Tb  Tb0  1  0.189702  0.810603  0.810603  1
  Tb  Tb1  1  0.812151  0.188812  0.188812  1
  Tb  Tb2  1  0.810603  0.189702  0.810603  1
  Tb  Tb3  1  0.188812  0.812151  0.188812  1
  Tb  Tb4  1  0.810603  0.810603  0.189702  1
  Tb  Tb5  1  0.188812  0.188812  0.812151  1
  Tm  Tm6  1  0.598419  0.598419  0.598419  1
  Tm  Tm7  1  0.597739  0.597739  0.204461  1
  Tm  Tm8  1  0.597739  0.204461  0.597739  1
  Tm  Tm9  1  0.204461  0.597739  0.597739  1
  Tm  Tm10  1  0.062484  0.438960  0.438960  1
  Tm  Tm11  1  0.436833  0.061229  0.061229  1
  Tm  Tm12  1  0.438960  0.062484  0.438960  1
  Tm  Tm13  1  0.061229  0.436833  0.061229  1
  Tm  Tm14  1  0.438960  0.438960  0.062484  1
  Tm  Tm15  1  0.061229  0.061229  0.436833  1
  Cd  Cd16  1  0.830032  0.830032  0.830032  1
  Cd  Cd17  1  0.831127  0.831127  0.507597  1
  Cd  Cd18  1  0.831127  0.507597  0.831127  1
  Cd  Cd19  1  0.507597  0.831127  0.831127  1
  Ni  Ni20  1  0.391944  0.391944  0.391944  1
  Ir  Ir21  1  0.392033  0.392033  0.825376  1
  Ir  Ir22  1  0.392033  0.825376  0.392033  1
  Ir  Ir23  1  0.825376  0.392033  0.392033  1
