# generated using pymatgen
data_LaNd15Cd4Co3Ni
_symmetry_space_group_name_H-M   'P 1'
_cell_length_a   9.85008026
_cell_length_b   9.86268306
_cell_length_c   9.86268176
_cell_angle_alpha   59.90004042
_cell_angle_beta   59.92963954
_cell_angle_gamma   59.92964860
_symmetry_Int_Tables_number   1
_chemical_formula_structural   LaNd15Cd4Co3Ni
_chemical_formula_sum   'La1 Nd15 Cd4 Co3 Ni1'
_cell_volume   676.27564365
_cell_formula_units_Z   1
loop_
 _symmetry_equiv_pos_site_id
 _symmetry_equiv_pos_as_xyz
  1  'x, y, z'
loop_
 _atom_site_type_symbol
 _atom_site_label
 _atom_site_symmetry_multiplicity
 _atom_site_fract_x
 _atom_site_fract_y
 _atom_site_fract_z
 _atom_site_occupancy
  La  La0  1  0.590984  0.597108  0.597108  1
  Nd  Nd1  1  0.595241  0.598519  0.207554  1
  Nd  Nd2  1  0.595241  0.207554  0.598519  1
  Nd  Nd3  1  0.210302  0.596263  0.596263  1
  Nd  Nd4  1  0.064938  0.439012  0.439012  1
  Nd  Nd5  1  0.437077  0.060712  0.060712  1
  Nd  Nd6  1  0.438290  0.062008  0.438584  1
  Nd  Nd7  1  0.063745  0.438939  0.055849  1
  Nd  Nd8  1  0.438290  0.438584  0.062008  1
  Nd  Nd9  1  0.063745  0.055849  0.438939  1
  Nd  Nd10  1  0.187425  0.812999  0.812999  1
  Nd  Nd11  1  0.808948  0.189095  0.189095  1
  Nd  Nd12  1  0.811274  0.188547  0.813714  1
  Nd  Nd13  1  0.187749  0.810758  0.188726  1
  Nd  Nd14  1  0.811274  0.813714  0.188547  1
  Nd  Nd15  1  0.187749  0.188726  0.810758  1
  Cd  Cd16  1  0.829240  0.829460  0.829460  1
  Cd  Cd17  1  0.830552  0.829889  0.510775  1
  Cd  Cd18  1  0.830552  0.510775  0.829889  1
  Cd  Cd19  1  0.509739  0.830776  0.830776  1
  Co  Co20  1  0.392726  0.390932  0.390932  1
  Co  Co21  1  0.394096  0.392270  0.825932  1
  Co  Co22  1  0.394096  0.825932  0.392270  1
  Ni  Ni23  1  0.826726  0.391582  0.391582  1
