# generated using pymatgen
data_Pr2P7(Pd3Ru)3
_symmetry_space_group_name_H-M   'P 1'
_cell_length_a   9.82096900
_cell_length_b   9.82096869
_cell_length_c   3.97662300
_cell_angle_alpha   90.00000000
_cell_angle_beta   90.00000000
_cell_angle_gamma   120.00000440
_symmetry_Int_Tables_number   1
_chemical_formula_structural   Pr2P7(Pd3Ru)3
_chemical_formula_sum   'Pr2 P7 Pd9 Ru3'
_cell_volume   332.16487001
_cell_formula_units_Z   1
loop_
 _symmetry_equiv_pos_site_id
 _symmetry_equiv_pos_as_xyz
  1  'x, y, z'
loop_
 _atom_site_type_symbol
 _atom_site_label
 _atom_site_symmetry_multiplicity
 _atom_site_fract_x
 _atom_site_fract_y
 _atom_site_fract_z
 _atom_site_occupancy
  Pr  Pr0  1  0.333333  0.666667  0.000000  1
  Pr  Pr1  1  0.666667  0.333333  0.500000  1
  P  P2  1  0.124685  0.394018  0.500000  1
  P  P3  1  0.605982  0.730668  0.500000  1
  P  P4  1  0.269332  0.875315  0.500000  1
  P  P5  1  0.000000  0.000000  0.000000  1
  P  P6  1  0.409605  0.300589  0.000000  1
  P  P7  1  0.699411  0.109015  0.000000  1
  P  P8  1  0.890985  0.590395  0.000000  1
  Pd  Pd9  1  0.436931  0.073407  0.000000  1
  Pd  Pd10  1  0.926593  0.363523  0.000000  1
  Pd  Pd11  1  0.636477  0.563069  0.000000  1
  Pd  Pd12  1  0.394983  0.444331  0.500000  1
  Pd  Pd13  1  0.555669  0.950652  0.500000  1
  Pd  Pd14  1  0.049348  0.605017  0.500000  1
  Pd  Pd15  1  0.208151  0.081325  0.500000  1
  Pd  Pd16  1  0.918675  0.126827  0.500000  1
  Pd  Pd17  1  0.873173  0.791849  0.500000  1
  Ru  Ru18  1  0.164132  0.272839  0.000000  1
  Ru  Ru19  1  0.727161  0.891293  0.000000  1
  Ru  Ru20  1  0.108707  0.835868  0.000000  1
