# generated using pymatgen
data_Yb8SmYIr4
_symmetry_space_group_name_H-M   'P 1'
_cell_length_a   6.55700328
_cell_length_b   7.32614536
_cell_length_c   8.52668100
_cell_angle_alpha   97.17667918
_cell_angle_beta   112.61264862
_cell_angle_gamma   89.99999781
_symmetry_Int_Tables_number   1
_chemical_formula_structural   Yb8SmYIr4
_chemical_formula_sum   'Yb8 Sm1 Y1 Ir4'
_cell_volume   374.63443807
_cell_formula_units_Z   1
loop_
 _symmetry_equiv_pos_site_id
 _symmetry_equiv_pos_as_xyz
  1  'x, y, z'
loop_
 _atom_site_type_symbol
 _atom_site_label
 _atom_site_symmetry_multiplicity
 _atom_site_fract_x
 _atom_site_fract_y
 _atom_site_fract_z
 _atom_site_occupancy
  Yb  Yb0  1  0.975697  0.921372  0.172102  1
  Yb  Yb1  1  0.803594  0.578628  0.827898  1
  Yb  Yb2  1  0.024450  0.079588  0.827919  1
  Yb  Yb3  1  0.196531  0.420412  0.172081  1
  Yb  Yb4  1  0.642546  0.820914  0.437527  1
  Yb  Yb5  1  0.205018  0.679086  0.562473  1
  Yb  Yb6  1  0.357778  0.179390  0.563211  1
  Yb  Yb7  1  0.794569  0.320610  0.436789  1
  Sm  Sm8  1  0.434460  0.750000  0.000000  1
  Y  Y9  1  0.564593  0.250000  0.000000  1
  Ir  Ir10  1  0.817460  0.575265  0.213585  1
  Ir  Ir11  1  0.603874  0.924735  0.786415  1
  Ir  Ir12  1  0.182778  0.422528  0.786128  1
  Ir  Ir13  1  0.396651  0.077472  0.213872  1
