# generated using pymatgen
data_Dy3HoLuSn3
_symmetry_space_group_name_H-M   'P 1'
_cell_length_a   8.93287800
_cell_length_b   8.93287726
_cell_length_c   6.49383600
_cell_angle_alpha   90.00000000
_cell_angle_beta   90.00000000
_cell_angle_gamma   119.99999533
_symmetry_Int_Tables_number   1
_chemical_formula_structural   Dy3HoLuSn3
_chemical_formula_sum   'Dy6 Ho2 Lu2 Sn6'
_cell_volume   448.76061856
_cell_formula_units_Z   2
loop_
 _symmetry_equiv_pos_site_id
 _symmetry_equiv_pos_as_xyz
  1  'x, y, z'
loop_
 _atom_site_type_symbol
 _atom_site_label
 _atom_site_symmetry_multiplicity
 _atom_site_fract_x
 _atom_site_fract_y
 _atom_site_fract_z
 _atom_site_occupancy
  Dy  Dy0  1  0.000000  0.761201  0.750000  1
  Dy  Dy1  1  0.000000  0.238799  0.250000  1
  Dy  Dy2  1  0.761201  0.761201  0.250000  1
  Dy  Dy3  1  0.761201  0.000000  0.750000  1
  Dy  Dy4  1  0.238799  0.238799  0.750000  1
  Dy  Dy5  1  0.238799  0.000000  0.250000  1
  Ho  Ho6  1  0.666667  0.333333  0.500000  1
  Ho  Ho7  1  0.333333  0.666667  0.000000  1
  Lu  Lu8  1  0.333333  0.666667  0.500000  1
  Lu  Lu9  1  0.666667  0.333333  0.000000  1
  Sn  Sn10  1  0.395924  0.000000  0.750000  1
  Sn  Sn11  1  0.395924  0.395924  0.250000  1
  Sn  Sn12  1  0.000000  0.604076  0.250000  1
  Sn  Sn13  1  0.000000  0.395924  0.750000  1
  Sn  Sn14  1  0.604076  0.604076  0.750000  1
  Sn  Sn15  1  0.604076  0.000000  0.250000  1
