# generated using pymatgen
data_RbBaVO4
_symmetry_space_group_name_H-M   'P 1'
_cell_length_a   6.06514200
_cell_length_b   8.01335600
_cell_length_c   10.59186200
_cell_angle_alpha   90.00000000
_cell_angle_beta   90.00000000
_cell_angle_gamma   90.00000000
_symmetry_Int_Tables_number   1
_chemical_formula_structural   RbBaVO4
_chemical_formula_sum   'Rb4 Ba4 V4 O16'
_cell_volume   514.78718136
_cell_formula_units_Z   4
loop_
 _symmetry_equiv_pos_site_id
 _symmetry_equiv_pos_as_xyz
  1  'x, y, z'
loop_
 _atom_site_type_symbol
 _atom_site_label
 _atom_site_symmetry_multiplicity
 _atom_site_fract_x
 _atom_site_fract_y
 _atom_site_fract_z
 _atom_site_occupancy
  Rb  Rb0  1  0.250000  0.657466  0.580767  1
  Rb  Rb1  1  0.749999  0.342534  0.419233  1
  Rb  Rb2  1  0.749999  0.842535  0.080768  1
  Rb  Rb3  1  0.250000  0.157466  0.919233  1
  Ba  Ba4  1  0.749999  0.002457  0.694348  1
  Ba  Ba5  1  0.250000  0.997543  0.305651  1
  Ba  Ba6  1  0.749999  0.502456  0.805652  1
  Ba  Ba7  1  0.250000  0.497543  0.194348  1
  V  V8  1  0.749999  0.772169  0.415396  1
  V  V9  1  0.250000  0.227830  0.584604  1
  V  V10  1  0.749999  0.272170  0.084604  1
  V  V11  1  0.250000  0.727831  0.915397  1
  O  O12  1  0.511656  0.707912  0.335909  1
  O  O13  1  0.011657  0.292087  0.664090  1
  O  O14  1  0.988344  0.207913  0.164090  1
  O  O15  1  0.488344  0.792087  0.835909  1
  O  O16  1  0.488344  0.292087  0.664090  1
  O  O17  1  0.988344  0.707912  0.335909  1
  O  O18  1  0.011657  0.792087  0.835909  1
  O  O19  1  0.511656  0.207913  0.164090  1
  O  O20  1  0.250000  0.512001  0.925555  1
  O  O21  1  0.749999  0.487999  0.074445  1
  O  O22  1  0.250000  0.012001  0.574445  1
  O  O23  1  0.749999  0.988000  0.425556  1
  O  O24  1  0.749999  0.193872  0.930154  1
  O  O25  1  0.250000  0.806128  0.069846  1
  O  O26  1  0.250000  0.306128  0.430155  1
  O  O27  1  0.749999  0.693871  0.569846  1
