# generated using pymatgen
data_Ba2Ca(AlAu)4
_symmetry_space_group_name_H-M   'P 1'
_cell_length_a   6.87988800
_cell_length_b   6.87988705
_cell_length_c   12.34289200
_cell_angle_alpha   90.00000000
_cell_angle_beta   90.00000000
_cell_angle_gamma   110.03605711
_symmetry_Int_Tables_number   1
_chemical_formula_structural   Ba2Ca(AlAu)4
_chemical_formula_sum   'Ba4 Ca2 Al8 Au8'
_cell_volume   548.86539328
_cell_formula_units_Z   2
loop_
 _symmetry_equiv_pos_site_id
 _symmetry_equiv_pos_as_xyz
  1  'x, y, z'
loop_
 _atom_site_type_symbol
 _atom_site_label
 _atom_site_symmetry_multiplicity
 _atom_site_fract_x
 _atom_site_fract_y
 _atom_site_fract_z
 _atom_site_occupancy
  Ba  Ba0  1  0.210196  0.789804  0.500000  1
  Ba  Ba1  1  0.210196  0.789804  0.000000  1
  Ba  Ba2  1  0.789804  0.210196  0.500000  1
  Ba  Ba3  1  0.789804  0.210196  0.000000  1
  Ca  Ca4  1  0.971531  0.971531  0.250000  1
  Ca  Ca5  1  0.028469  0.028469  0.750000  1
  Al  Al6  1  0.471913  0.734509  0.250000  1
  Al  Al7  1  0.265491  0.528087  0.750000  1
  Al  Al8  1  0.528087  0.265491  0.750000  1
  Al  Al9  1  0.734509  0.471913  0.250000  1
  Al  Al10  1  0.348121  0.348121  0.374173  1
  Al  Al11  1  0.651879  0.651879  0.625827  1
  Al  Al12  1  0.348121  0.348121  0.125827  1
  Al  Al13  1  0.651879  0.651879  0.874173  1
  Au  Au14  1  0.467391  0.097231  0.250000  1
  Au  Au15  1  0.902769  0.532609  0.750000  1
  Au  Au16  1  0.532609  0.902769  0.750000  1
  Au  Au17  1  0.097231  0.467391  0.250000  1
  Au  Au18  1  0.319082  0.319082  0.920608  1
  Au  Au19  1  0.680918  0.680918  0.079392  1
  Au  Au20  1  0.319082  0.319082  0.579392  1
  Au  Au21  1  0.680918  0.680918  0.420608  1
