# generated using pymatgen
data_Gd3Ni2PdPb3
_symmetry_space_group_name_H-M   'P 1'
_cell_length_a   7.77935800
_cell_length_b   7.77935693
_cell_length_c   3.87144200
_cell_angle_alpha   90.00000000
_cell_angle_beta   90.00000000
_cell_angle_gamma   119.99999603
_symmetry_Int_Tables_number   1
_chemical_formula_structural   Gd3Ni2PdPb3
_chemical_formula_sum   'Gd3 Ni2 Pd1 Pb3'
_cell_volume   202.90411860
_cell_formula_units_Z   1
loop_
 _symmetry_equiv_pos_site_id
 _symmetry_equiv_pos_as_xyz
  1  'x, y, z'
loop_
 _atom_site_type_symbol
 _atom_site_label
 _atom_site_symmetry_multiplicity
 _atom_site_fract_x
 _atom_site_fract_y
 _atom_site_fract_z
 _atom_site_occupancy
  Gd  Gd0  1  0.007811  0.597626  0.500000  1
  Gd  Gd1  1  0.402374  0.410185  0.500000  1
  Gd  Gd2  1  0.589815  0.992189  0.500000  1
  Ni  Ni3  1  0.333333  0.666667  0.000000  1
  Ni  Ni4  1  0.000000  0.000000  0.500000  1
  Pd  Pd5  1  0.666667  0.333333  0.000000  1
  Pb  Pb6  1  0.742607  0.745224  0.000000  1
  Pb  Pb7  1  0.002617  0.257393  0.000000  1
  Pb  Pb8  1  0.254776  0.997383  0.000000  1
