# generated using pymatgen
data_TlAs3(PbO3)4
_symmetry_space_group_name_H-M   'P 1'
_cell_length_a   10.33036700
_cell_length_b   10.33036740
_cell_length_c   7.52598200
_cell_angle_alpha   90.00000000
_cell_angle_beta   90.00000000
_cell_angle_gamma   119.99999553
_symmetry_Int_Tables_number   1
_chemical_formula_structural   TlAs3(PbO3)4
_chemical_formula_sum   'Tl2 As6 Pb8 O24'
_cell_volume   695.54517879
_cell_formula_units_Z   2
loop_
 _symmetry_equiv_pos_site_id
 _symmetry_equiv_pos_as_xyz
  1  'x, y, z'
loop_
 _atom_site_type_symbol
 _atom_site_label
 _atom_site_symmetry_multiplicity
 _atom_site_fract_x
 _atom_site_fract_y
 _atom_site_fract_z
 _atom_site_occupancy
  Tl  Tl0  1  0.666667  0.333333  0.492157  1
  Tl  Tl1  1  0.333333  0.666667  0.992157  1
  As  As2  1  0.984981  0.371771  0.252470  1
  As  As3  1  0.386790  0.015019  0.252470  1
  As  As4  1  0.628229  0.613210  0.252470  1
  As  As5  1  0.015019  0.628229  0.752470  1
  As  As6  1  0.613210  0.984981  0.752470  1
  As  As7  1  0.371771  0.386790  0.752470  1
  Pb  Pb8  1  0.741362  0.740380  0.752339  1
  Pb  Pb9  1  0.999018  0.258638  0.752339  1
  Pb  Pb10  1  0.259620  0.000982  0.752339  1
  Pb  Pb11  1  0.258638  0.259620  0.252339  1
  Pb  Pb12  1  0.000982  0.741362  0.252339  1
  Pb  Pb13  1  0.740380  0.999018  0.252339  1
  Pb  Pb14  1  0.333333  0.666667  0.489714  1
  Pb  Pb15  1  0.666667  0.333333  0.989714  1
  O  O16  1  0.296633  0.822917  0.266927  1
  O  O17  1  0.526283  0.703367  0.266927  1
  O  O18  1  0.177083  0.473717  0.266927  1
  O  O19  1  0.703367  0.177083  0.766927  1
  O  O20  1  0.473717  0.296633  0.766927  1
  O  O21  1  0.822917  0.526283  0.766927  1
  O  O22  1  0.661551  0.911001  0.928480  1
  O  O23  1  0.249450  0.338449  0.928480  1
  O  O24  1  0.088999  0.750550  0.928480  1
  O  O25  1  0.338449  0.088999  0.428480  1
  O  O26  1  0.750550  0.661551  0.428480  1
  O  O27  1  0.911001  0.249450  0.428480  1
  O  O28  1  0.338807  0.081675  0.068506  1
  O  O29  1  0.742868  0.661193  0.068506  1
  O  O30  1  0.918325  0.257132  0.068506  1
  O  O31  1  0.661193  0.918325  0.568506  1
  O  O32  1  0.257132  0.338807  0.568506  1
  O  O33  1  0.081675  0.742868  0.568506  1
  O  O34  1  0.910970  0.489912  0.237323  1
  O  O35  1  0.578943  0.089030  0.237323  1
  O  O36  1  0.510088  0.421057  0.237323  1
  O  O37  1  0.089030  0.510088  0.737323  1
  O  O38  1  0.421057  0.910970  0.737323  1
  O  O39  1  0.489912  0.578943  0.737323  1
