# generated using pymatgen
data_Zr3Si4MoIr4
_symmetry_space_group_name_H-M   'P 1'
_cell_length_a   3.94080400
_cell_length_b   6.50057544
_cell_length_c   7.39320717
_cell_angle_alpha   89.65592767
_cell_angle_beta   90.00000000
_cell_angle_gamma   90.00000000
_symmetry_Int_Tables_number   1
_chemical_formula_structural   Zr3Si4MoIr4
_chemical_formula_sum   'Zr3 Si4 Mo1 Ir4'
_cell_volume   189.39202311
_cell_formula_units_Z   1
loop_
 _symmetry_equiv_pos_site_id
 _symmetry_equiv_pos_as_xyz
  1  'x, y, z'
loop_
 _atom_site_type_symbol
 _atom_site_label
 _atom_site_symmetry_multiplicity
 _atom_site_fract_x
 _atom_site_fract_y
 _atom_site_fract_z
 _atom_site_occupancy
  Zr  Zr0  1  0.250000  0.519937  0.185359  1
  Zr  Zr1  1  0.750000  0.979712  0.674104  1
  Zr  Zr2  1  0.750000  0.474111  0.818540  1
  Si  Si3  1  0.250000  0.269976  0.607738  1
  Si  Si4  1  0.250000  0.775611  0.879947  1
  Si  Si5  1  0.750000  0.739939  0.375742  1
  Si  Si6  1  0.750000  0.207189  0.134588  1
  Mo  Mo7  1  0.250000  0.022837  0.323485  1
  Ir  Ir8  1  0.250000  0.154185  0.942825  1
  Ir  Ir9  1  0.250000  0.651809  0.564731  1
  Ir  Ir10  1  0.750000  0.846711  0.060375  1
  Ir  Ir11  1  0.750000  0.357983  0.432566  1
