# generated using pymatgen
data_Yb2Al3Cu7
_symmetry_space_group_name_H-M   'P 1'
_cell_length_a   4.17762300
_cell_length_b   5.12325424
_cell_length_c   8.81664183
_cell_angle_alpha   90.44593774
_cell_angle_beta   90.00000000
_cell_angle_gamma   90.00000000
_symmetry_Int_Tables_number   1
_chemical_formula_structural   Yb2Al3Cu7
_chemical_formula_sum   'Yb2 Al3 Cu7'
_cell_volume   188.69708801
_cell_formula_units_Z   1
loop_
 _symmetry_equiv_pos_site_id
 _symmetry_equiv_pos_as_xyz
  1  'x, y, z'
loop_
 _atom_site_type_symbol
 _atom_site_label
 _atom_site_symmetry_multiplicity
 _atom_site_fract_x
 _atom_site_fract_y
 _atom_site_fract_z
 _atom_site_occupancy
  Yb  Yb0  1  0.000000  0.001006  0.994097  1
  Yb  Yb1  1  0.000000  0.498968  0.505889  1
  Al  Al2  1  0.500000  0.509288  0.994611  1
  Al  Al3  1  0.500000  0.990700  0.505396  1
  Al  Al4  1  0.500000  0.249933  0.249988  1
  Cu  Cu5  1  0.000000  0.998232  0.335645  1
  Cu  Cu6  1  0.000000  0.500340  0.831308  1
  Cu  Cu7  1  0.000000  0.501708  0.164349  1
  Cu  Cu8  1  0.000000  0.999667  0.668690  1
  Cu  Cu9  1  0.500000  0.750024  0.750012  1
  Cu  Cu10  1  0.500000  0.749916  0.250033  1
  Cu  Cu11  1  0.500000  0.250018  0.749982  1
