# generated using pymatgen
data_Eu3S8
_symmetry_space_group_name_H-M   'P 1'
_cell_length_a   6.13452637
_cell_length_b   11.74792700
_cell_length_c   20.41652598
_cell_angle_alpha   83.12523684
_cell_angle_beta   86.22577551
_cell_angle_gamma   74.13042412
_symmetry_Int_Tables_number   1
_chemical_formula_structural   Eu3S8
_chemical_formula_sum   'Eu3 S8'
_cell_volume   1404.27869360
_cell_formula_units_Z   1
loop_
 _symmetry_equiv_pos_site_id
 _symmetry_equiv_pos_as_xyz
  1  'x, y, z'
loop_
 _atom_site_type_symbol
 _atom_site_label
 _atom_site_symmetry_multiplicity
 _atom_site_fract_x
 _atom_site_fract_y
 _atom_site_fract_z
 _atom_site_occupancy
  Eu  Eu0  1  0.838217  0.700394  0.820089  1
  Eu  Eu1  1  0.985918  0.243200  0.616959  1
  Eu  Eu2  1  0.335466  0.206910  0.080424  1
  S  S3  1  0.058001  0.874885  0.742043  1
  S  S4  1  0.480840  0.773560  0.814033  1
  S  S5  1  0.452644  0.842570  0.069603  1
  S  S6  1  0.333951  0.010127  0.135526  1
  S  S7  1  0.151011  0.384759  0.387154  1
  S  S8  1  0.024082  0.188722  0.904701  1
  S  S9  1  0.397926  0.183322  0.922028  1
  S  S10  1  0.620716  0.900109  0.616124  1
