# generated using pymatgen
data_YbEuCu3Ir
_symmetry_space_group_name_H-M   'P 1'
_cell_length_a   5.14799263
_cell_length_b   5.34363125
_cell_length_c   5.14799300
_cell_angle_alpha   61.20387848
_cell_angle_beta   59.99999119
_cell_angle_gamma   61.20387421
_symmetry_Int_Tables_number   1
_chemical_formula_structural   YbEuCu3Ir
_chemical_formula_sum   'Yb1 Eu1 Cu3 Ir1'
_cell_volume   101.92127209
_cell_formula_units_Z   1
loop_
 _symmetry_equiv_pos_site_id
 _symmetry_equiv_pos_as_xyz
  1  'x, y, z'
loop_
 _atom_site_type_symbol
 _atom_site_label
 _atom_site_symmetry_multiplicity
 _atom_site_fract_x
 _atom_site_fract_y
 _atom_site_fract_z
 _atom_site_occupancy
  Yb  Yb0  1  0.748856  0.753430  0.748856  1
  Eu  Eu1  1  0.002434  0.992698  0.002434  1
  Cu  Cu2  1  0.375341  0.376307  0.375341  1
  Cu  Cu3  1  0.873013  0.376307  0.375341  1
  Cu  Cu4  1  0.375341  0.376307  0.873013  1
  Ir  Ir5  1  0.375017  0.874951  0.375017  1
