# generated using pymatgen
data_Tm3B6Ir7Ru
_symmetry_space_group_name_H-M   'P 1'
_cell_length_a   9.99372147
_cell_length_b   9.17017813
_cell_length_c   5.59839200
_cell_angle_alpha   81.28377209
_cell_angle_beta   65.09355678
_cell_angle_gamma   33.39333721
_symmetry_Int_Tables_number   1
_chemical_formula_structural   Tm3B6Ir7Ru
_chemical_formula_sum   'Tm3 B6 Ir7 Ru1'
_cell_volume   234.64745262
_cell_formula_units_Z   1
loop_
 _symmetry_equiv_pos_site_id
 _symmetry_equiv_pos_as_xyz
  1  'x, y, z'
loop_
 _atom_site_type_symbol
 _atom_site_label
 _atom_site_symmetry_multiplicity
 _atom_site_fract_x
 _atom_site_fract_y
 _atom_site_fract_z
 _atom_site_occupancy
  Tm  Tm0  1  0.999521  0.999521  0.000479  1
  Tm  Tm1  1  0.821751  0.821751  0.178249  1
  Tm  Tm2  1  0.179112  0.179112  0.820888  1
  B  B3  1  0.666868  0.331499  0.676297  1
  B  B4  1  0.331499  0.666868  0.325336  1
  B  B5  1  0.177900  0.476285  0.514743  1
  B  B6  1  0.476285  0.177900  0.831071  1
  B  B7  1  0.825534  0.521864  0.480135  1
  B  B8  1  0.521864  0.825534  0.172467  1
  Ir  Ir9  1  0.913763  0.913763  0.586237  1
  Ir  Ir10  1  0.415147  0.415147  0.584853  1
  Ir  Ir11  1  0.586189  0.586189  0.413811  1
  Ir  Ir12  1  0.249561  0.249561  0.250439  1
  Ir  Ir13  1  0.750296  0.750296  0.749704  1
  Ir  Ir14  1  0.085645  0.085645  0.414355  1
  Ir  Ir15  1  0.585594  0.585594  0.914406  1
  Ru  Ru16  1  0.413473  0.413473  0.086527  1
