# generated using pymatgen
data_HoErAl6
_symmetry_space_group_name_H-M   'P 1'
_cell_length_a   14.47442751
_cell_length_b   14.47442761
_cell_length_c   14.47442700
_cell_angle_alpha   24.54506058
_cell_angle_beta   24.54506220
_cell_angle_gamma   24.54506056
_symmetry_Int_Tables_number   1
_chemical_formula_structural   HoErAl6
_chemical_formula_sum   'Ho3 Er3 Al18'
_cell_volume   460.12249943
_cell_formula_units_Z   3
loop_
 _symmetry_equiv_pos_site_id
 _symmetry_equiv_pos_as_xyz
  1  'x, y, z'
loop_
 _atom_site_type_symbol
 _atom_site_label
 _atom_site_symmetry_multiplicity
 _atom_site_fract_x
 _atom_site_fract_y
 _atom_site_fract_z
 _atom_site_occupancy
  Ho  Ho0  1  0.110393  0.110393  0.110393  1
  Ho  Ho1  1  0.892476  0.892476  0.892476  1
  Ho  Ho2  1  0.392280  0.392280  0.392280  1
  Er  Er3  1  0.001358  0.001358  0.001358  1
  Er  Er4  1  0.501422  0.501422  0.501422  1
  Er  Er5  1  0.610461  0.610461  0.610461  1
  Al  Al6  1  0.924567  0.372447  0.372447  1
  Al  Al7  1  0.425018  0.871940  0.871940  1
  Al  Al8  1  0.372447  0.372447  0.924567  1
  Al  Al9  1  0.871940  0.871940  0.425018  1
  Al  Al10  1  0.372447  0.924567  0.372447  1
  Al  Al11  1  0.871940  0.425018  0.871940  1
  Al  Al12  1  0.578359  0.130635  0.130635  1
  Al  Al13  1  0.078594  0.630509  0.630509  1
  Al  Al14  1  0.130635  0.130635  0.578359  1
  Al  Al15  1  0.630509  0.630509  0.078594  1
  Al  Al16  1  0.130635  0.578359  0.130635  1
  Al  Al17  1  0.630509  0.078594  0.630509  1
  Al  Al18  1  0.502349  0.502349  0.999160  1
  Al  Al19  1  0.002059  0.002059  0.500263  1
  Al  Al20  1  0.502349  0.999160  0.502349  1
  Al  Al21  1  0.002059  0.500263  0.002059  1
  Al  Al22  1  0.999160  0.502349  0.502349  1
  Al  Al23  1  0.500263  0.002059  0.002059  1
