# generated using pymatgen
data_Tb4ZnI6
_symmetry_space_group_name_H-M   'P 1'
_cell_length_a   4.19349700
_cell_length_b   14.23171900
_cell_length_c   14.95671300
_cell_angle_alpha   90.00000000
_cell_angle_beta   90.00000000
_cell_angle_gamma   90.00000000
_symmetry_Int_Tables_number   1
_chemical_formula_structural   Tb4ZnI6
_chemical_formula_sum   'Tb8 Zn2 I12'
_cell_volume   892.62666677
_cell_formula_units_Z   2
loop_
 _symmetry_equiv_pos_site_id
 _symmetry_equiv_pos_as_xyz
  1  'x, y, z'
loop_
 _atom_site_type_symbol
 _atom_site_label
 _atom_site_symmetry_multiplicity
 _atom_site_fract_x
 _atom_site_fract_y
 _atom_site_fract_z
 _atom_site_occupancy
  Tb  Tb0  1  0.500000  0.114207  0.346928  1
  Tb  Tb1  1  0.500000  0.885793  0.653072  1
  Tb  Tb2  1  0.500000  0.614207  0.153072  1
  Tb  Tb3  1  0.500000  0.385793  0.846928  1
  Tb  Tb4  1  0.000000  0.114644  0.576932  1
  Tb  Tb5  1  0.000000  0.885356  0.423068  1
  Tb  Tb6  1  0.000000  0.614644  0.923068  1
  Tb  Tb7  1  0.000000  0.385356  0.076932  1
  Zn  Zn8  1  0.500000  0.000000  0.500000  1
  Zn  Zn9  1  0.500000  0.500000  0.000000  1
  I  I10  1  0.500000  0.245207  0.162466  1
  I  I11  1  0.500000  0.754793  0.837534  1
  I  I12  1  0.500000  0.745207  0.337534  1
  I  I13  1  0.500000  0.254793  0.662466  1
  I  I14  1  0.000000  0.259902  0.413332  1
  I  I15  1  0.000000  0.740098  0.586668  1
  I  I16  1  0.000000  0.759902  0.086668  1
  I  I17  1  0.000000  0.240098  0.913332  1
  I  I18  1  0.000000  0.998775  0.238851  1
  I  I19  1  0.000000  0.001225  0.761149  1
  I  I20  1  0.000000  0.498775  0.261149  1
  I  I21  1  0.000000  0.501225  0.738851  1
