# generated using pymatgen
data_Dy3Lu2Tc3(P3Ir4)4
_symmetry_space_group_name_H-M   'P 1'
_cell_length_a   12.65086300
_cell_length_b   12.64104835
_cell_length_c   3.97924900
_cell_angle_alpha   90.00000000
_cell_angle_beta   90.00000000
_cell_angle_gamma   120.02568942
_symmetry_Int_Tables_number   1
_chemical_formula_structural   Dy3Lu2Tc3(P3Ir4)4
_chemical_formula_sum   'Dy3 Lu2 Tc3 P12 Ir16'
_cell_volume   550.96309721
_cell_formula_units_Z   1
loop_
 _symmetry_equiv_pos_site_id
 _symmetry_equiv_pos_as_xyz
  1  'x, y, z'
loop_
 _atom_site_type_symbol
 _atom_site_label
 _atom_site_symmetry_multiplicity
 _atom_site_fract_x
 _atom_site_fract_y
 _atom_site_fract_z
 _atom_site_occupancy
  Dy  Dy0  1  0.333419  0.666914  0.500000  1
  Dy  Dy1  1  0.666505  0.333086  0.500000  1
  Dy  Dy2  1  0.817994  0.000000  0.000000  1
  Lu  Lu3  1  0.000340  0.819913  0.000000  1
  Lu  Lu4  1  0.180427  0.180087  0.000000  1
  Tc  Tc5  1  0.000569  0.456157  0.500000  1
  Tc  Tc6  1  0.544412  0.543843  0.500000  1
  Tc  Tc7  1  0.455135  0.000000  0.500000  1
  P  P8  1  0.999978  0.640163  0.500000  1
  P  P9  1  0.359815  0.359837  0.500000  1
  P  P10  1  0.639035  0.000000  0.500000  1
  P  P11  1  0.515592  0.684449  0.000000  1
  P  P12  1  0.315755  0.831152  0.000000  1
  P  P13  1  0.169202  0.484932  0.000000  1
  P  P14  1  0.484603  0.168848  0.000000  1
  P  P15  1  0.684270  0.515068  0.000000  1
  P  P16  1  0.831142  0.315551  0.000000  1
  P  P17  1  0.000706  0.175770  0.500000  1
  P  P18  1  0.824937  0.824230  0.500000  1
  P  P19  1  0.175792  0.000000  0.500000  1
  Ir  Ir20  1  0.510743  0.868269  0.000000  1
  Ir  Ir21  1  0.132073  0.642979  0.000000  1
  Ir  Ir22  1  0.357450  0.489255  0.000000  1
  Ir  Ir23  1  0.489096  0.357021  0.000000  1
  Ir  Ir24  1  0.868196  0.510745  0.000000  1
  Ir  Ir25  1  0.642476  0.131731  0.000000  1
  Ir  Ir26  1  0.000521  0.291711  0.000000  1
  Ir  Ir27  1  0.708810  0.708289  0.000000  1
  Ir  Ir28  1  0.291152  0.000000  0.000000  1
  Ir  Ir29  1  0.627491  0.805852  0.500000  1
  Ir  Ir30  1  0.191830  0.821277  0.500000  1
  Ir  Ir31  1  0.178972  0.370641  0.500000  1
  Ir  Ir32  1  0.370553  0.178723  0.500000  1
  Ir  Ir33  1  0.808331  0.629359  0.500000  1
  Ir  Ir34  1  0.821639  0.194148  0.500000  1
  Ir  Ir35  1  0.001036  0.000000  0.500000  1
