# generated using pymatgen
data_Dy10In3BiSb2
_symmetry_space_group_name_H-M   'P 1'
_cell_length_a   6.55027605
_cell_length_b   9.01322550
_cell_length_c   9.01304503
_cell_angle_alpha   120.00067059
_cell_angle_beta   90.00236449
_cell_angle_gamma   89.99526724
_symmetry_Int_Tables_number   1
_chemical_formula_structural   Dy10In3BiSb2
_chemical_formula_sum   'Dy10 In3 Bi1 Sb2'
_cell_volume   460.82823056
_cell_formula_units_Z   1
loop_
 _symmetry_equiv_pos_site_id
 _symmetry_equiv_pos_as_xyz
  1  'x, y, z'
loop_
 _atom_site_type_symbol
 _atom_site_label
 _atom_site_symmetry_multiplicity
 _atom_site_fract_x
 _atom_site_fract_y
 _atom_site_fract_z
 _atom_site_occupancy
  Dy  Dy0  1  0.502920  0.332919  0.663835  1
  Dy  Dy1  1  0.502920  0.669084  0.336165  1
  Dy  Dy2  1  0.996996  0.669182  0.336446  1
  Dy  Dy3  1  0.996996  0.332737  0.663554  1
  Dy  Dy4  1  0.750031  0.237422  0.000000  1
  Dy  Dy5  1  0.750078  0.760882  0.761076  1
  Dy  Dy6  1  0.750078  0.999805  0.238924  1
  Dy  Dy7  1  0.250055  0.763643  0.000000  1
  Dy  Dy8  1  0.250035  0.237774  0.241456  1
  Dy  Dy9  1  0.250035  0.996318  0.758544  1
  In  In10  1  0.750059  0.606168  0.000000  1
  In  In11  1  0.749945  0.393965  0.393713  1
  In  In12  1  0.749945  0.000253  0.606287  1
  Bi  Bi13  1  0.249796  0.394370  0.000000  1
  Sb  Sb14  1  0.250058  0.605681  0.605884  1
  Sb  Sb15  1  0.250058  0.999797  0.394116  1
