# generated using pymatgen
data_Ho18InIr12Pb
_symmetry_space_group_name_H-M   'P 1'
_cell_length_a   10.83073200
_cell_length_b   10.83073200
_cell_length_c   6.27830300
_cell_angle_alpha   90.00000000
_cell_angle_beta   90.00000000
_cell_angle_gamma   90.00000000
_symmetry_Int_Tables_number   1
_chemical_formula_structural   Ho18InIr12Pb
_chemical_formula_sum   'Ho18 In1 Ir12 Pb1'
_cell_volume   736.47479935
_cell_formula_units_Z   1
loop_
 _symmetry_equiv_pos_site_id
 _symmetry_equiv_pos_as_xyz
  1  'x, y, z'
loop_
 _atom_site_type_symbol
 _atom_site_label
 _atom_site_symmetry_multiplicity
 _atom_site_fract_x
 _atom_site_fract_y
 _atom_site_fract_z
 _atom_site_occupancy
  Ho  Ho0  1  0.284820  0.085345  0.380744  1
  Ho  Ho1  1  0.292413  0.911445  0.878855  1
  Ho  Ho2  1  0.707587  0.088555  0.878855  1
  Ho  Ho3  1  0.715180  0.914655  0.380744  1
  Ho  Ho4  1  0.586347  0.787864  0.880737  1
  Ho  Ho5  1  0.588610  0.206331  0.379110  1
  Ho  Ho6  1  0.411390  0.793669  0.379110  1
  Ho  Ho7  1  0.413653  0.212136  0.880737  1
  Ho  Ho8  1  0.206331  0.411390  0.620890  1
  Ho  Ho9  1  0.212136  0.586347  0.119263  1
  Ho  Ho10  1  0.787864  0.413653  0.119263  1
  Ho  Ho11  1  0.793669  0.588610  0.620890  1
  Ho  Ho12  1  0.911445  0.707587  0.121145  1
  Ho  Ho13  1  0.914655  0.284820  0.619256  1
  Ho  Ho14  1  0.085345  0.715180  0.619256  1
  Ho  Ho15  1  0.088555  0.292413  0.121145  1
  Ho  Ho16  1  0.000000  0.000000  0.000000  1
  Ho  Ho17  1  0.500000  0.500000  0.500000  1
  In  In18  1  0.000000  0.000000  0.500000  1
  Ir  Ir19  1  0.846527  0.157610  0.241321  1
  Ir  Ir20  1  0.842390  0.846527  0.758679  1
  Ir  Ir21  1  0.157610  0.153473  0.758679  1
  Ir  Ir22  1  0.153473  0.842390  0.241321  1
  Ir  Ir23  1  0.659680  0.344045  0.739553  1
  Ir  Ir24  1  0.655955  0.659680  0.260447  1
  Ir  Ir25  1  0.344045  0.340320  0.260447  1
  Ir  Ir26  1  0.340320  0.655955  0.739553  1
  Ir  Ir27  1  0.500000  0.000000  0.123059  1
  Ir  Ir28  1  0.500000  0.000000  0.622301  1
  Ir  Ir29  1  0.000000  0.500000  0.876941  1
  Ir  Ir30  1  0.000000  0.500000  0.377699  1
  Pb  Pb31  1  0.500000  0.500000  0.000000  1
