# generated using pymatgen
data_Rb4Tm3Lu(Bi2Se5)4
_symmetry_space_group_name_H-M   'P 1'
_cell_length_a   4.14837900
_cell_length_b   12.35216103
_cell_length_c   22.34253805
_cell_angle_alpha   89.99247407
_cell_angle_beta   90.00000000
_cell_angle_gamma   90.00000000
_symmetry_Int_Tables_number   1
_chemical_formula_structural   Rb4Tm3Lu(Bi2Se5)4
_chemical_formula_sum   'Rb4 Tm3 Lu1 Bi8 Se20'
_cell_volume   1144.86393379
_cell_formula_units_Z   1
loop_
 _symmetry_equiv_pos_site_id
 _symmetry_equiv_pos_as_xyz
  1  'x, y, z'
loop_
 _atom_site_type_symbol
 _atom_site_label
 _atom_site_symmetry_multiplicity
 _atom_site_fract_x
 _atom_site_fract_y
 _atom_site_fract_z
 _atom_site_occupancy
  Rb  Rb0  1  0.250000  0.489144  0.210183  1
  Rb  Rb1  1  0.750000  0.510828  0.789759  1
  Rb  Rb2  1  0.750000  0.989171  0.289763  1
  Rb  Rb3  1  0.250000  0.010837  0.710236  1
  Tm  Tm4  1  0.750000  0.635221  0.976285  1
  Tm  Tm5  1  0.750000  0.864634  0.476185  1
  Tm  Tm6  1  0.250000  0.135364  0.523815  1
  Lu  Lu7  1  0.250000  0.364805  0.023760  1
  Bi  Bi8  1  0.250000  0.801708  0.126211  1
  Bi  Bi9  1  0.750000  0.198402  0.873894  1
  Bi  Bi10  1  0.750000  0.301689  0.373826  1
  Bi  Bi11  1  0.250000  0.698310  0.626174  1
  Bi  Bi12  1  0.250000  0.596456  0.423749  1
  Bi  Bi13  1  0.750000  0.403547  0.576253  1
  Bi  Bi14  1  0.750000  0.096570  0.076153  1
  Bi  Bi15  1  0.250000  0.903489  0.923711  1
  Se  Se16  1  0.250000  0.814062  0.391438  1
  Se  Se17  1  0.750000  0.185947  0.608569  1
  Se  Se18  1  0.750000  0.314682  0.107594  1
  Se  Se19  1  0.250000  0.685979  0.891410  1
  Se  Se20  1  0.250000  0.246538  0.294869  1
  Se  Se21  1  0.750000  0.753461  0.705123  1
  Se  Se22  1  0.750000  0.746551  0.205129  1
  Se  Se23  1  0.250000  0.253512  0.794874  1
  Se  Se24  1  0.250000  0.353235  0.481169  1
  Se  Se25  1  0.750000  0.646757  0.518827  1
  Se  Se26  1  0.750000  0.853218  0.018818  1
  Se  Se27  1  0.250000  0.148126  0.981471  1
  Se  Se28  1  0.250000  0.026940  0.159483  1
  Se  Se29  1  0.750000  0.972958  0.840561  1
  Se  Se30  1  0.750000  0.526987  0.340557  1
  Se  Se31  1  0.250000  0.473008  0.659449  1
  Se  Se32  1  0.250000  0.581458  0.058461  1
  Se  Se33  1  0.750000  0.416407  0.942243  1
  Se  Se34  1  0.750000  0.082818  0.441334  1
  Se  Se35  1  0.250000  0.917183  0.558663  1
