# generated using pymatgen
data_Er4Ga3MoOs4
_symmetry_space_group_name_H-M   'P 1'
_cell_length_a   5.28426587
_cell_length_b   5.28426554
_cell_length_c   8.94094900
_cell_angle_alpha   90.00000000
_cell_angle_beta   90.00000000
_cell_angle_gamma   118.17567299
_symmetry_Int_Tables_number   1
_chemical_formula_structural   Er4Ga3MoOs4
_chemical_formula_sum   'Er4 Ga3 Mo1 Os4'
_cell_volume   220.07829072
_cell_formula_units_Z   1
loop_
 _symmetry_equiv_pos_site_id
 _symmetry_equiv_pos_as_xyz
  1  'x, y, z'
loop_
 _atom_site_type_symbol
 _atom_site_label
 _atom_site_symmetry_multiplicity
 _atom_site_fract_x
 _atom_site_fract_y
 _atom_site_fract_z
 _atom_site_occupancy
  Er  Er0  1  0.330775  0.669225  0.437604  1
  Er  Er1  1  0.666411  0.333589  0.557126  1
  Er  Er2  1  0.666411  0.333589  0.942874  1
  Er  Er3  1  0.330775  0.669225  0.062396  1
  Ga  Ga4  1  0.167517  0.832483  0.750000  1
  Ga  Ga5  1  0.168597  0.330161  0.750000  1
  Ga  Ga6  1  0.669839  0.831403  0.750000  1
  Mo  Mo7  1  0.835337  0.164663  0.250000  1
  Os  Os8  1  0.996383  0.003617  0.500574  1
  Os  Os9  1  0.996383  0.003617  0.999426  1
  Os  Os10  1  0.826768  0.655191  0.250000  1
  Os  Os11  1  0.344809  0.173232  0.250000  1
