# generated using pymatgen
data_HoLuCo9P6Os
_symmetry_space_group_name_H-M   'P 1'
_cell_length_a   3.66883100
_cell_length_b   10.30868000
_cell_length_c   11.71162100
_cell_angle_alpha   90.00000000
_cell_angle_beta   90.00000000
_cell_angle_gamma   90.00000000
_symmetry_Int_Tables_number   1
_chemical_formula_structural   HoLuCo9P6Os
_chemical_formula_sum   'Ho2 Lu2 Co18 P12 Os2'
_cell_volume   442.94293118
_cell_formula_units_Z   2
loop_
 _symmetry_equiv_pos_site_id
 _symmetry_equiv_pos_as_xyz
  1  'x, y, z'
loop_
 _atom_site_type_symbol
 _atom_site_label
 _atom_site_symmetry_multiplicity
 _atom_site_fract_x
 _atom_site_fract_y
 _atom_site_fract_z
 _atom_site_occupancy
  Ho  Ho0  1  0.250000  0.582344  0.702023  1
  Ho  Ho1  1  0.250000  0.917656  0.202023  1
  Lu  Lu2  1  0.750000  0.413442  0.295266  1
  Lu  Lu3  1  0.750000  0.086558  0.795266  1
  Co  Co4  1  0.750000  0.283115  0.008687  1
  Co  Co5  1  0.750000  0.216885  0.508687  1
  Co  Co6  1  0.250000  0.406196  0.486712  1
  Co  Co7  1  0.250000  0.093804  0.986712  1
  Co  Co8  1  0.750000  0.591325  0.509885  1
  Co  Co9  1  0.750000  0.908675  0.009885  1
  Co  Co10  1  0.250000  0.220994  0.177416  1
  Co  Co11  1  0.250000  0.279006  0.677416  1
  Co  Co12  1  0.750000  0.777604  0.822630  1
  Co  Co13  1  0.750000  0.722396  0.322630  1
  Co  Co14  1  0.250000  0.888458  0.702466  1
  Co  Co15  1  0.250000  0.611542  0.202466  1
  Co  Co16  1  0.750000  0.116393  0.300888  1
  Co  Co17  1  0.750000  0.383607  0.800888  1
  Co  Co18  1  0.250000  0.464739  0.932836  1
  Co  Co19  1  0.250000  0.035261  0.432836  1
  Co  Co20  1  0.750000  0.533017  0.069609  1
  Co  Co21  1  0.750000  0.966983  0.569609  1
  P  P22  1  0.250000  0.416145  0.113453  1
  P  P23  1  0.250000  0.083855  0.613453  1
  P  P24  1  0.750000  0.578344  0.886512  1
  P  P25  1  0.750000  0.921656  0.386512  1
  P  P26  1  0.250000  0.269010  0.869108  1
  P  P27  1  0.250000  0.230990  0.369108  1
  P  P28  1  0.750000  0.729560  0.132411  1
  P  P29  1  0.750000  0.770440  0.632411  1
  P  P30  1  0.250000  0.592634  0.389552  1
  P  P31  1  0.250000  0.907366  0.889552  1
  P  P32  1  0.750000  0.397543  0.608814  1
  P  P33  1  0.750000  0.102457  0.108814  1
  Os  Os34  1  0.250000  0.715614  0.991733  1
  Os  Os35  1  0.250000  0.784386  0.491733  1
