# generated using pymatgen
data_Th14Tc3Pt2Au
_symmetry_space_group_name_H-M   'P 1'
_cell_length_a   10.06517700
_cell_length_b   10.10788760
_cell_length_c   6.33250504
_cell_angle_alpha   90.08074147
_cell_angle_beta   90.00000000
_cell_angle_gamma   119.86032392
_symmetry_Int_Tables_number   1
_chemical_formula_structural   Th14Tc3Pt2Au
_chemical_formula_sum   'Th14 Tc3 Pt2 Au1'
_cell_volume   558.72352801
_cell_formula_units_Z   1
loop_
 _symmetry_equiv_pos_site_id
 _symmetry_equiv_pos_as_xyz
  1  'x, y, z'
loop_
 _atom_site_type_symbol
 _atom_site_label
 _atom_site_symmetry_multiplicity
 _atom_site_fract_x
 _atom_site_fract_y
 _atom_site_fract_z
 _atom_site_occupancy
  Th  Th0  1  0.663364  0.326726  0.589667  1
  Th  Th1  1  0.333510  0.667020  0.040436  1
  Th  Th2  1  0.879454  0.758907  0.762296  1
  Th  Th3  1  0.246101  0.123628  0.751417  1
  Th  Th4  1  0.877528  0.123628  0.751417  1
  Th  Th5  1  0.129661  0.259323  0.244735  1
  Th  Th6  1  0.737345  0.873723  0.247357  1
  Th  Th7  1  0.136377  0.873723  0.247357  1
  Th  Th8  1  0.455200  0.910400  0.545334  1
  Th  Th9  1  0.087022  0.543436  0.541649  1
  Th  Th10  1  0.456413  0.543436  0.541649  1
  Th  Th11  1  0.538491  0.076981  0.035339  1
  Th  Th12  1  0.926503  0.458178  0.027499  1
  Th  Th13  1  0.531676  0.458178  0.027499  1
  Tc  Tc14  1  0.183934  0.367867  0.800459  1
  Tc  Tc15  1  0.634247  0.816267  0.801691  1
  Tc  Tc16  1  0.182022  0.816267  0.801691  1
  Pt  Pt17  1  0.381288  0.192058  0.308513  1
  Pt  Pt18  1  0.810769  0.192058  0.308513  1
  Au  Au19  1  0.809097  0.618195  0.313577  1
