# generated using pymatgen
data_TePb7O13
_symmetry_space_group_name_H-M   'P 1'
_cell_length_a   7.88813482
_cell_length_b   7.88813537
_cell_length_c   7.88813445
_cell_angle_alpha   58.75634542
_cell_angle_beta   58.75634411
_cell_angle_gamma   58.75634419
_symmetry_Int_Tables_number   1
_chemical_formula_structural   TePb7O13
_chemical_formula_sum   'Te1 Pb7 O13'
_cell_volume   337.20325140
_cell_formula_units_Z   1
loop_
 _symmetry_equiv_pos_site_id
 _symmetry_equiv_pos_as_xyz
  1  'x, y, z'
loop_
 _atom_site_type_symbol
 _atom_site_label
 _atom_site_symmetry_multiplicity
 _atom_site_fract_x
 _atom_site_fract_y
 _atom_site_fract_z
 _atom_site_occupancy
  Te  Te0  1  0.500534  0.500534  0.500534  1
  Pb  Pb1  1  0.999315  0.500707  0.500707  1
  Pb  Pb2  1  0.500707  0.500707  0.999315  1
  Pb  Pb3  1  0.500707  0.999315  0.500707  1
  Pb  Pb4  1  0.503568  0.999701  0.999701  1
  Pb  Pb5  1  0.999701  0.999701  0.503568  1
  Pb  Pb6  1  0.999701  0.503568  0.999701  1
  Pb  Pb7  1  0.995920  0.995920  0.995920  1
  O  O8  1  0.159190  0.580827  0.159190  1
  O  O9  1  0.570724  0.198319  0.570724  1
  O  O10  1  0.159190  0.159190  0.580827  1
  O  O11  1  0.570724  0.570724  0.198319  1
  O  O12  1  0.580827  0.159190  0.159190  1
  O  O13  1  0.198319  0.570724  0.570724  1
  O  O14  1  0.839679  0.421771  0.839679  1
  O  O15  1  0.431389  0.801074  0.431389  1
  O  O16  1  0.839679  0.839679  0.421771  1
  O  O17  1  0.431389  0.431389  0.801074  1
  O  O18  1  0.421771  0.839679  0.839679  1
  O  O19  1  0.801074  0.431389  0.431389  1
  O  O20  1  0.870888  0.870888  0.870888  1
