# generated using pymatgen
data_Y9ErTl3In5Pd4
_symmetry_space_group_name_H-M   'P 1'
_cell_length_a   3.64763600
_cell_length_b   8.20481994
_cell_length_c   18.35895414
_cell_angle_alpha   89.96541079
_cell_angle_beta   90.00000000
_cell_angle_gamma   90.00000000
_symmetry_Int_Tables_number   1
_chemical_formula_structural   Y9ErTl3In5Pd4
_chemical_formula_sum   'Y9 Er1 Tl3 In5 Pd4'
_cell_volume   549.45028862
_cell_formula_units_Z   1
loop_
 _symmetry_equiv_pos_site_id
 _symmetry_equiv_pos_as_xyz
  1  'x, y, z'
loop_
 _atom_site_type_symbol
 _atom_site_label
 _atom_site_symmetry_multiplicity
 _atom_site_fract_x
 _atom_site_fract_y
 _atom_site_fract_z
 _atom_site_occupancy
  Y  Y0  1  0.000000  0.498326  0.499746  1
  Y  Y1  1  0.000000  0.999990  0.000129  1
  Y  Y2  1  0.000000  0.738287  0.282096  1
  Y  Y3  1  0.000000  0.261185  0.718137  1
  Y  Y4  1  0.000000  0.761427  0.780734  1
  Y  Y5  1  0.000000  0.238443  0.219102  1
  Y  Y6  1  0.000000  0.617845  0.084410  1
  Y  Y7  1  0.000000  0.382323  0.915896  1
  Y  Y8  1  0.000000  0.883406  0.583256  1
  Er  Er9  1  0.000000  0.117296  0.415799  1
  Tl  Tl10  1  0.500000  0.708692  0.932590  1
  Tl  Tl11  1  0.500000  0.291497  0.067458  1
  Tl  Tl12  1  0.500000  0.792959  0.433181  1
  In  In13  1  0.500000  0.208012  0.566814  1
  In  In14  1  0.500000  0.581246  0.649944  1
  In  In15  1  0.500000  0.414695  0.349697  1
  In  In16  1  0.500000  0.917095  0.151563  1
  In  In17  1  0.500000  0.082831  0.848795  1
  Pd  Pd18  1  0.500000  0.525492  0.197679  1
  Pd  Pd19  1  0.500000  0.475067  0.802559  1
  Pd  Pd20  1  0.500000  0.977343  0.695767  1
  Pd  Pd21  1  0.500000  0.026542  0.304646  1
