# generated using pymatgen
data_Li8Y2Ho5TmSn7Bi
_symmetry_space_group_name_H-M   'P 1'
_cell_length_a   9.38766739
_cell_length_b   9.38766962
_cell_length_c   7.23501605
_cell_angle_alpha   90.09083549
_cell_angle_beta   89.90916223
_cell_angle_gamma   119.98668964
_symmetry_Int_Tables_number   1
_chemical_formula_structural   Li8Y2Ho5TmSn7Bi
_chemical_formula_sum   'Li8 Y2 Ho5 Tm1 Sn7 Bi1'
_cell_volume   552.25941336
_cell_formula_units_Z   1
loop_
 _symmetry_equiv_pos_site_id
 _symmetry_equiv_pos_as_xyz
  1  'x, y, z'
loop_
 _atom_site_type_symbol
 _atom_site_label
 _atom_site_symmetry_multiplicity
 _atom_site_fract_x
 _atom_site_fract_y
 _atom_site_fract_z
 _atom_site_occupancy
  Li  Li0  1  0.829125  0.664461  0.711179  1
  Li  Li1  1  0.833322  0.166678  0.713570  1
  Li  Li2  1  0.335341  0.664659  0.821851  1
  Li  Li3  1  0.666138  0.333862  0.321344  1
  Li  Li4  1  0.665938  0.832321  0.213641  1
  Li  Li5  1  0.167679  0.334062  0.213641  1
  Li  Li6  1  0.166675  0.833325  0.215886  1
  Li  Li7  1  0.335539  0.170875  0.711179  1
  Y  Y8  1  0.516118  0.024449  0.008808  1
  Y  Y9  1  0.975551  0.483882  0.008808  1
  Ho  Ho10  1  0.997310  0.002690  0.003609  1
  Ho  Ho11  1  0.997962  0.002038  0.498464  1
  Ho  Ho12  1  0.511389  0.488611  0.006338  1
  Ho  Ho13  1  0.019664  0.506302  0.503630  1
  Ho  Ho14  1  0.493698  0.980336  0.503630  1
  Tm  Tm15  1  0.488525  0.511475  0.505541  1
  Sn  Sn16  1  0.666588  0.333412  0.739249  1
  Sn  Sn17  1  0.333200  0.666800  0.241866  1
  Sn  Sn18  1  0.833426  0.166574  0.269555  1
  Sn  Sn19  1  0.166920  0.333511  0.768892  1
  Sn  Sn20  1  0.333505  0.166740  0.270525  1
  Sn  Sn21  1  0.833260  0.666495  0.270525  1
  Sn  Sn22  1  0.666489  0.833080  0.768892  1
  Bi  Bi23  1  0.166636  0.833364  0.767378  1
