# generated using pymatgen
data_HoEr4Bi2Ir
_symmetry_space_group_name_H-M   'P 1'
_cell_length_a   8.01980300
_cell_length_b   9.01338300
_cell_length_c   12.30503200
_cell_angle_alpha   90.00000000
_cell_angle_beta   90.00000000
_cell_angle_gamma   90.00000000
_symmetry_Int_Tables_number   1
_chemical_formula_structural   HoEr4Bi2Ir
_chemical_formula_sum   'Ho4 Er16 Bi8 Ir4'
_cell_volume   889.47608001
_cell_formula_units_Z   4
loop_
 _symmetry_equiv_pos_site_id
 _symmetry_equiv_pos_as_xyz
  1  'x, y, z'
loop_
 _atom_site_type_symbol
 _atom_site_label
 _atom_site_symmetry_multiplicity
 _atom_site_fract_x
 _atom_site_fract_y
 _atom_site_fract_z
 _atom_site_occupancy
  Ho  Ho0  1  0.623121  0.750000  0.306211  1
  Ho  Ho1  1  0.876879  0.750000  0.806211  1
  Ho  Ho2  1  0.376879  0.250000  0.693789  1
  Ho  Ho3  1  0.123121  0.250000  0.193789  1
  Er  Er4  1  0.164808  0.750000  0.207988  1
  Er  Er5  1  0.335192  0.750000  0.707988  1
  Er  Er6  1  0.835192  0.250000  0.792012  1
  Er  Er7  1  0.664808  0.250000  0.292012  1
  Er  Er8  1  0.446683  0.750000  0.999150  1
  Er  Er9  1  0.053317  0.750000  0.499150  1
  Er  Er10  1  0.553317  0.250000  0.000850  1
  Er  Er11  1  0.946683  0.250000  0.500850  1
  Er  Er12  1  0.825551  0.545406  0.065127  1
  Er  Er13  1  0.674449  0.954594  0.565127  1
  Er  Er14  1  0.174449  0.045406  0.934873  1
  Er  Er15  1  0.325551  0.454594  0.434873  1
  Er  Er16  1  0.174449  0.454594  0.934873  1
  Er  Er17  1  0.325551  0.045406  0.434873  1
  Er  Er18  1  0.825551  0.954594  0.065127  1
  Er  Er19  1  0.674449  0.545406  0.565127  1
  Bi  Bi20  1  0.932845  0.510354  0.327218  1
  Bi  Bi21  1  0.567155  0.989646  0.827218  1
  Bi  Bi22  1  0.067155  0.010354  0.672782  1
  Bi  Bi23  1  0.432845  0.489646  0.172782  1
  Bi  Bi24  1  0.067155  0.489646  0.672782  1
  Bi  Bi25  1  0.432845  0.010354  0.172782  1
  Bi  Bi26  1  0.932845  0.989646  0.327218  1
  Bi  Bi27  1  0.567155  0.510354  0.827218  1
  Ir  Ir28  1  0.421722  0.750000  0.489199  1
  Ir  Ir29  1  0.078278  0.750000  0.989199  1
  Ir  Ir30  1  0.578278  0.250000  0.510801  1
  Ir  Ir31  1  0.921722  0.250000  0.010801  1
