# generated using pymatgen
data_Y4Al(InAu5)2
_symmetry_space_group_name_H-M   'P 1'
_cell_length_a   8.50500400
_cell_length_b   8.50500331
_cell_length_c   10.28159100
_cell_angle_alpha   90.00000000
_cell_angle_beta   90.00000000
_cell_angle_gamma   107.74908136
_symmetry_Int_Tables_number   1
_chemical_formula_structural   Y4Al(InAu5)2
_chemical_formula_sum   'Y8 Al2 In4 Au20'
_cell_volume   708.31923100
_cell_formula_units_Z   2
loop_
 _symmetry_equiv_pos_site_id
 _symmetry_equiv_pos_as_xyz
  1  'x, y, z'
loop_
 _atom_site_type_symbol
 _atom_site_label
 _atom_site_symmetry_multiplicity
 _atom_site_fract_x
 _atom_site_fract_y
 _atom_site_fract_z
 _atom_site_occupancy
  Y  Y0  1  0.698629  0.301371  0.000000  1
  Y  Y1  1  0.198629  0.801371  0.500000  1
  Y  Y2  1  0.799904  0.799904  0.300139  1
  Y  Y3  1  0.299904  0.299904  0.199861  1
  Y  Y4  1  0.801371  0.198629  0.500000  1
  Y  Y5  1  0.301371  0.698629  0.000000  1
  Y  Y6  1  0.700096  0.700096  0.800139  1
  Y  Y7  1  0.200096  0.200096  0.699861  1
  Al  Al8  1  0.000000  0.000000  0.000000  1
  Al  Al9  1  0.500000  0.500000  0.500000  1
  In  In10  1  0.515747  0.015747  0.250000  1
  In  In11  1  0.984253  0.484253  0.750000  1
  In  In12  1  0.015747  0.515747  0.250000  1
  In  In13  1  0.484253  0.984253  0.750000  1
  Au  Au14  1  0.166976  0.431606  0.479374  1
  Au  Au15  1  0.905355  0.905355  0.597574  1
  Au  Au16  1  0.568394  0.833024  0.520626  1
  Au  Au17  1  0.889891  0.160595  0.204295  1
  Au  Au18  1  0.389891  0.660595  0.295705  1
  Au  Au19  1  0.660595  0.389891  0.295705  1
  Au  Au20  1  0.405355  0.405355  0.902426  1
  Au  Au21  1  0.931606  0.666976  0.020626  1
  Au  Au22  1  0.339405  0.610109  0.704295  1
  Au  Au23  1  0.333024  0.068394  0.979374  1
  Au  Au24  1  0.594645  0.594645  0.097574  1
  Au  Au25  1  0.666976  0.931606  0.020626  1
  Au  Au26  1  0.094645  0.094645  0.402426  1
  Au  Au27  1  0.610109  0.339405  0.704295  1
  Au  Au28  1  0.110109  0.839405  0.795705  1
  Au  Au29  1  0.068394  0.333024  0.979374  1
  Au  Au30  1  0.833024  0.568394  0.520626  1
  Au  Au31  1  0.160595  0.889891  0.204295  1
  Au  Au32  1  0.431606  0.166976  0.479374  1
  Au  Au33  1  0.839405  0.110109  0.795705  1
