# generated using pymatgen
data_CaTb(Si2Ni9)2
_symmetry_space_group_name_H-M   'P 1'
_cell_length_a   7.55540557
_cell_length_b   7.55540511
_cell_length_c   7.55540505
_cell_angle_alpha   99.56727314
_cell_angle_beta   99.56727537
_cell_angle_gamma   131.88125218
_symmetry_Int_Tables_number   1
_chemical_formula_structural   CaTb(Si2Ni9)2
_chemical_formula_sum   'Ca1 Tb1 Si4 Ni18'
_cell_volume   293.21420113
_cell_formula_units_Z   1
loop_
 _symmetry_equiv_pos_site_id
 _symmetry_equiv_pos_as_xyz
  1  'x, y, z'
loop_
 _atom_site_type_symbol
 _atom_site_label
 _atom_site_symmetry_multiplicity
 _atom_site_fract_x
 _atom_site_fract_y
 _atom_site_fract_z
 _atom_site_occupancy
  Ca  Ca0  1  0.500000  0.500000  0.000000  1
  Tb  Tb1  1  0.750000  0.250000  0.500000  1
  Si  Si2  1  0.624233  0.874019  0.750214  1
  Si  Si3  1  0.125981  0.375767  0.249786  1
  Si  Si4  1  0.125981  0.876196  0.750214  1
  Si  Si5  1  0.123804  0.874019  0.249786  1
  Ni  Ni6  1  0.250000  0.750000  0.500000  1
  Ni  Ni7  1  0.000000  0.000000  0.000000  1
  Ni  Ni8  1  0.687355  0.014658  0.079295  1
  Ni  Ni9  1  0.687355  0.608061  0.672697  1
  Ni  Ni10  1  0.262380  0.436087  0.578205  1
  Ni  Ni11  1  0.262380  0.684175  0.826293  1
  Ni  Ni12  1  0.935362  0.014658  0.327303  1
  Ni  Ni13  1  0.935362  0.608061  0.920705  1
  Ni  Ni14  1  0.857884  0.436087  0.173707  1
  Ni  Ni15  1  0.857884  0.684175  0.421795  1
  Ni  Ni16  1  0.563913  0.737620  0.421795  1
  Ni  Ni17  1  0.563913  0.142116  0.826293  1
  Ni  Ni18  1  0.985342  0.312645  0.920705  1
  Ni  Ni19  1  0.985342  0.064638  0.672697  1
  Ni  Ni20  1  0.315825  0.737620  0.173707  1
  Ni  Ni21  1  0.315825  0.142116  0.578205  1
  Ni  Ni22  1  0.391939  0.312645  0.327303  1
  Ni  Ni23  1  0.391939  0.064638  0.079295  1
