# generated using pymatgen
data_TiBe3ReSi
_symmetry_space_group_name_H-M   'P 1'
_cell_length_a   4.47295500
_cell_length_b   4.47295468
_cell_length_c   7.51414100
_cell_angle_alpha   90.00000000
_cell_angle_beta   90.00000000
_cell_angle_gamma   120.00000977
_symmetry_Int_Tables_number   1
_chemical_formula_structural   TiBe3ReSi
_chemical_formula_sum   'Ti2 Be6 Re2 Si2'
_cell_volume   130.19639398
_cell_formula_units_Z   2
loop_
 _symmetry_equiv_pos_site_id
 _symmetry_equiv_pos_as_xyz
  1  'x, y, z'
loop_
 _atom_site_type_symbol
 _atom_site_label
 _atom_site_symmetry_multiplicity
 _atom_site_fract_x
 _atom_site_fract_y
 _atom_site_fract_z
 _atom_site_occupancy
  Ti  Ti0  1  0.333333  0.666667  0.061861  1
  Ti  Ti1  1  0.666667  0.333333  0.561861  1
  Be  Be2  1  0.826983  0.653966  0.249856  1
  Be  Be3  1  0.173017  0.826983  0.749856  1
  Be  Be4  1  0.653966  0.826983  0.749856  1
  Be  Be5  1  0.346034  0.173017  0.249856  1
  Be  Be6  1  0.826983  0.173017  0.249856  1
  Be  Be7  1  0.173017  0.346034  0.749856  1
  Re  Re8  1  0.666667  0.333333  0.937320  1
  Re  Re9  1  0.333333  0.666667  0.437320  1
  Si  Si10  1  0.000000  0.000000  0.001248  1
  Si  Si11  1  0.000000  0.000000  0.501248  1
