# generated using pymatgen
data_Sr2DyTh(NiAs)4
_symmetry_space_group_name_H-M   'P 1'
_cell_length_a   4.10115600
_cell_length_b   4.10115662
_cell_length_c   16.80802700
_cell_angle_alpha   90.00000000
_cell_angle_beta   90.00000000
_cell_angle_gamma   119.99999498
_symmetry_Int_Tables_number   1
_chemical_formula_structural   Sr2DyTh(NiAs)4
_chemical_formula_sum   'Sr2 Dy1 Th1 Ni4 As4'
_cell_volume   244.82740834
_cell_formula_units_Z   1
loop_
 _symmetry_equiv_pos_site_id
 _symmetry_equiv_pos_as_xyz
  1  'x, y, z'
loop_
 _atom_site_type_symbol
 _atom_site_label
 _atom_site_symmetry_multiplicity
 _atom_site_fract_x
 _atom_site_fract_y
 _atom_site_fract_z
 _atom_site_occupancy
  Sr  Sr0  1  0.000000  0.000000  0.254251  1
  Sr  Sr1  1  0.000000  0.000000  0.745749  1
  Dy  Dy2  1  0.000000  0.000000  0.500000  1
  Th  Th3  1  0.000000  0.000000  0.000000  1
  Ni  Ni4  1  0.333333  0.666667  0.110608  1
  Ni  Ni5  1  0.666667  0.333333  0.889392  1
  Ni  Ni6  1  0.666667  0.333333  0.612031  1
  Ni  Ni7  1  0.333333  0.666667  0.387969  1
  As  As8  1  0.333333  0.666667  0.613489  1
  As  As9  1  0.666667  0.333333  0.386511  1
  As  As10  1  0.666667  0.333333  0.121839  1
  As  As11  1  0.333333  0.666667  0.878161  1
