# generated using pymatgen
data_BaSc(GaCu)2
_symmetry_space_group_name_H-M   'P 1'
_cell_length_a   4.38660700
_cell_length_b   4.38660716
_cell_length_c   7.93087900
_cell_angle_alpha   90.00000000
_cell_angle_beta   90.00000000
_cell_angle_gamma   120.00000630
_symmetry_Int_Tables_number   1
_chemical_formula_structural   BaSc(GaCu)2
_chemical_formula_sum   'Ba1 Sc1 Ga2 Cu2'
_cell_volume   132.16285113
_cell_formula_units_Z   1
loop_
 _symmetry_equiv_pos_site_id
 _symmetry_equiv_pos_as_xyz
  1  'x, y, z'
loop_
 _atom_site_type_symbol
 _atom_site_label
 _atom_site_symmetry_multiplicity
 _atom_site_fract_x
 _atom_site_fract_y
 _atom_site_fract_z
 _atom_site_occupancy
  Ba  Ba0  1  0.000000  0.000000  0.000000  1
  Sc  Sc1  1  0.000000  0.000000  0.500000  1
  Ga  Ga2  1  0.333333  0.666667  0.324878  1
  Ga  Ga3  1  0.666667  0.333333  0.675122  1
  Cu  Cu4  1  0.333333  0.666667  0.665579  1
  Cu  Cu5  1  0.666667  0.333333  0.334421  1
