# generated using pymatgen
data_Cs6Na4YTaP6
_symmetry_space_group_name_H-M   'P 1'
_cell_length_a   10.97079460
_cell_length_b   10.97079594
_cell_length_c   16.57120800
_cell_angle_alpha   90.00000000
_cell_angle_beta   90.00000000
_cell_angle_gamma   143.06168489
_symmetry_Int_Tables_number   1
_chemical_formula_structural   Cs6Na4YTaP6
_chemical_formula_sum   'Cs12 Na8 Y2 Ta2 P12'
_cell_volume   1198.59439187
_cell_formula_units_Z   2
loop_
 _symmetry_equiv_pos_site_id
 _symmetry_equiv_pos_as_xyz
  1  'x, y, z'
loop_
 _atom_site_type_symbol
 _atom_site_label
 _atom_site_symmetry_multiplicity
 _atom_site_fract_x
 _atom_site_fract_y
 _atom_site_fract_z
 _atom_site_occupancy
  Cs  Cs0  1  0.948996  0.609256  0.823900  1
  Cs  Cs1  1  0.551004  0.890744  0.323900  1
  Cs  Cs2  1  0.390744  0.051004  0.176100  1
  Cs  Cs3  1  0.049480  0.391991  0.174554  1
  Cs  Cs4  1  0.891991  0.549480  0.325446  1
  Cs  Cs5  1  0.450520  0.108009  0.674554  1
  Cs  Cs6  1  0.608009  0.950520  0.825446  1
  Cs  Cs7  1  0.281715  0.284570  0.316597  1
  Cs  Cs8  1  0.784570  0.781715  0.183403  1
  Cs  Cs9  1  0.218285  0.215430  0.816597  1
  Cs  Cs10  1  0.715430  0.718285  0.683403  1
  Cs  Cs11  1  0.109256  0.448996  0.676100  1
  Na  Na12  1  0.919343  0.080657  0.000000  1
  Na  Na13  1  0.580657  0.419343  0.500000  1
  Na  Na14  1  0.080965  0.919035  0.000000  1
  Na  Na15  1  0.419035  0.580965  0.500000  1
  Na  Na16  1  0.753803  0.246197  0.000000  1
  Na  Na17  1  0.746197  0.253803  0.500000  1
  Na  Na18  1  0.245684  0.754316  0.000000  1
  Na  Na19  1  0.254316  0.745684  0.500000  1
  Y  Y20  1  0.587066  0.412934  0.000000  1
  Y  Y21  1  0.912934  0.087066  0.500000  1
  Ta  Ta22  1  0.415454  0.584546  0.000000  1
  Ta  Ta23  1  0.084546  0.915454  0.500000  1
  P  P24  1  0.891303  0.570487  0.094829  1
  P  P25  1  0.429513  0.108697  0.905171  1
  P  P26  1  0.608697  0.929513  0.594829  1
  P  P27  1  0.948758  0.647029  0.584519  1
  P  P28  1  0.147029  0.448758  0.915481  1
  P  P29  1  0.551242  0.852971  0.084519  1
  P  P30  1  0.352971  0.051242  0.415481  1
  P  P31  1  0.206013  0.184703  0.581605  1
  P  P32  1  0.684703  0.706013  0.918395  1
  P  P33  1  0.293987  0.315297  0.081605  1
  P  P34  1  0.070487  0.391303  0.405171  1
  P  P35  1  0.815297  0.793987  0.418395  1
