# generated using pymatgen
data_Zr5TaBi2
_symmetry_space_group_name_H-M   'P 1'
_cell_length_a   5.70870018
_cell_length_b   8.59963628
_cell_length_c   8.59963602
_cell_angle_alpha   83.67501298
_cell_angle_beta   70.61493640
_cell_angle_gamma   70.61493319
_symmetry_Int_Tables_number   1
_chemical_formula_structural   Zr5TaBi2
_chemical_formula_sum   'Zr10 Ta2 Bi4'
_cell_volume   375.66915226
_cell_formula_units_Z   2
loop_
 _symmetry_equiv_pos_site_id
 _symmetry_equiv_pos_as_xyz
  1  'x, y, z'
loop_
 _atom_site_type_symbol
 _atom_site_label
 _atom_site_symmetry_multiplicity
 _atom_site_fract_x
 _atom_site_fract_y
 _atom_site_fract_z
 _atom_site_occupancy
  Zr  Zr0  1  0.250000  0.500000  0.500000  1
  Zr  Zr1  1  0.750000  0.500000  0.500000  1
  Zr  Zr2  1  0.075067  0.136448  0.713418  1
  Zr  Zr3  1  0.924933  0.863552  0.286582  1
  Zr  Zr4  1  0.788485  0.286582  0.136448  1
  Zr  Zr5  1  0.424933  0.286582  0.863552  1
  Zr  Zr6  1  0.211515  0.713418  0.863552  1
  Zr  Zr7  1  0.575067  0.713418  0.136448  1
  Zr  Zr8  1  0.711515  0.863552  0.713418  1
  Zr  Zr9  1  0.288485  0.136448  0.286582  1
  Ta  Ta10  1  0.250000  0.000000  0.000000  1
  Ta  Ta11  1  0.750000  0.000000  0.000000  1
  Bi  Bi12  1  0.163544  0.500000  0.172913  1
  Bi  Bi13  1  0.836456  0.500000  0.827087  1
  Bi  Bi14  1  0.336456  0.827087  0.500000  1
  Bi  Bi15  1  0.663544  0.172913  0.500000  1
