# generated using pymatgen
data_Cs2Nd2CdS5
_symmetry_space_group_name_H-M   'P 1'
_cell_length_a   15.99475400
_cell_length_b   4.21622000
_cell_length_c   18.66368500
_cell_angle_alpha   90.00000000
_cell_angle_beta   90.00000000
_cell_angle_gamma   90.00000000
_symmetry_Int_Tables_number   1
_chemical_formula_structural   Cs2Nd2CdS5
_chemical_formula_sum   'Cs8 Nd8 Cd4 S20'
_cell_volume   1258.63042273
_cell_formula_units_Z   4
loop_
 _symmetry_equiv_pos_site_id
 _symmetry_equiv_pos_as_xyz
  1  'x, y, z'
loop_
 _atom_site_type_symbol
 _atom_site_label
 _atom_site_symmetry_multiplicity
 _atom_site_fract_x
 _atom_site_fract_y
 _atom_site_fract_z
 _atom_site_occupancy
  Cs  Cs0  1  0.970218  0.250001  0.113104  1
  Cs  Cs1  1  0.490664  0.750001  0.126133  1
  Cs  Cs2  1  0.990664  0.750001  0.373867  1
  Cs  Cs3  1  0.470219  0.250001  0.386896  1
  Cs  Cs4  1  0.529782  0.750001  0.613104  1
  Cs  Cs5  1  0.009336  0.250001  0.626133  1
  Cs  Cs6  1  0.509336  0.250001  0.873867  1
  Cs  Cs7  1  0.029782  0.750001  0.886896  1
  Nd  Nd8  1  0.254131  0.250001  0.011878  1
  Nd  Nd9  1  0.213407  0.750001  0.198123  1
  Nd  Nd10  1  0.713407  0.750001  0.301878  1
  Nd  Nd11  1  0.754131  0.250001  0.488122  1
  Nd  Nd12  1  0.245869  0.750001  0.511878  1
  Nd  Nd13  1  0.286593  0.250001  0.698122  1
  Nd  Nd14  1  0.786593  0.250001  0.801878  1
  Nd  Nd15  1  0.745869  0.750001  0.988122  1
  Cd  Cd16  1  0.707254  0.250001  0.145291  1
  Cd  Cd17  1  0.207254  0.250001  0.354709  1
  Cd  Cd18  1  0.792746  0.750001  0.645291  1
  Cd  Cd19  1  0.292746  0.750001  0.854709  1
  S  S20  1  0.635041  0.250001  0.025562  1
  S  S21  1  0.143133  0.750001  0.056982  1
  S  S22  1  0.315819  0.250001  0.150609  1
  S  S23  1  0.799108  0.750001  0.152661  1
  S  S24  1  0.107137  0.250001  0.249653  1
  S  S25  1  0.607137  0.250001  0.250347  1
  S  S26  1  0.299108  0.750001  0.347339  1
  S  S27  1  0.815819  0.250001  0.349391  1
  S  S28  1  0.643133  0.750001  0.443018  1
  S  S29  1  0.135041  0.250001  0.474437  1
  S  S30  1  0.864959  0.750001  0.525562  1
  S  S31  1  0.356867  0.250001  0.556982  1
  S  S32  1  0.184181  0.750001  0.650609  1
  S  S33  1  0.700892  0.250001  0.652661  1
  S  S34  1  0.392863  0.750001  0.749653  1
  S  S35  1  0.892863  0.750001  0.750348  1
  S  S36  1  0.200892  0.250001  0.847339  1
  S  S37  1  0.684181  0.750001  0.849391  1
  S  S38  1  0.856867  0.250001  0.943018  1
  S  S39  1  0.364959  0.750001  0.974438  1
