# generated using pymatgen
data_Mn(Se2Br3)2
_symmetry_space_group_name_H-M   'P 1'
_cell_length_a   7.01515753
_cell_length_b   7.36421546
_cell_length_c   7.55093280
_cell_angle_alpha   105.29424963
_cell_angle_beta   96.83778730
_cell_angle_gamma   90.36465262
_symmetry_Int_Tables_number   1
_chemical_formula_structural   Mn(Se2Br3)2
_chemical_formula_sum   'Mn1 Se4 Br6'
_cell_volume   373.30728233
_cell_formula_units_Z   1
loop_
 _symmetry_equiv_pos_site_id
 _symmetry_equiv_pos_as_xyz
  1  'x, y, z'
loop_
 _atom_site_type_symbol
 _atom_site_label
 _atom_site_symmetry_multiplicity
 _atom_site_fract_x
 _atom_site_fract_y
 _atom_site_fract_z
 _atom_site_occupancy
  Mn  Mn0  1  0.000000  0.000000  0.000000  1
  Se  Se1  1  0.549468  0.310189  0.333966  1
  Se  Se2  1  0.702403  0.607952  0.481642  1
  Se  Se3  1  0.297598  0.392048  0.518359  1
  Se  Se4  1  0.450532  0.689812  0.666034  1
  Br  Br5  1  0.733640  0.859945  0.100010  1
  Br  Br6  1  0.902058  0.323291  0.140884  1
  Br  Br7  1  0.199280  0.990044  0.289956  1
  Br  Br8  1  0.800719  0.009956  0.710045  1
  Br  Br9  1  0.097943  0.676710  0.859116  1
  Br  Br10  1  0.266361  0.140054  0.899990  1
