# generated using pymatgen
data_Tb15Y2Tm3Pb16
_symmetry_space_group_name_H-M   'P 1'
_cell_length_a   8.19412100
_cell_length_b   8.29173777
_cell_length_c   15.68246200
_cell_angle_alpha   90.00398015
_cell_angle_beta   89.99900010
_cell_angle_gamma   89.93868777
_symmetry_Int_Tables_number   1
_chemical_formula_structural   Tb15Y2Tm3Pb16
_chemical_formula_sum   'Tb15 Y2 Tm3 Pb16'
_cell_volume   1065.52078451
_cell_formula_units_Z   1
loop_
 _symmetry_equiv_pos_site_id
 _symmetry_equiv_pos_as_xyz
  1  'x, y, z'
loop_
 _atom_site_type_symbol
 _atom_site_label
 _atom_site_symmetry_multiplicity
 _atom_site_fract_x
 _atom_site_fract_y
 _atom_site_fract_z
 _atom_site_occupancy
  Tb  Tb0  1  0.876567  0.658589  0.620451  1
  Tb  Tb1  1  0.623814  0.159082  0.379754  1
  Tb  Tb2  1  0.122987  0.341581  0.120261  1
  Tb  Tb3  1  0.623833  0.159177  0.120273  1
  Tb  Tb4  1  0.122913  0.341586  0.379673  1
  Tb  Tb5  1  0.376732  0.841341  0.620735  1
  Tb  Tb6  1  0.876696  0.658616  0.879567  1
  Tb  Tb7  1  0.533939  0.323171  0.900143  1
  Tb  Tb8  1  0.033958  0.176749  0.600076  1
  Tb  Tb9  1  0.466374  0.676317  0.400150  1
  Tb  Tb10  1  0.965792  0.822915  0.099862  1
  Tb  Tb11  1  0.466326  0.676296  0.099812  1
  Tb  Tb12  1  0.965802  0.822992  0.400149  1
  Tb  Tb13  1  0.533968  0.323310  0.599890  1
  Tb  Tb14  1  0.034033  0.176727  0.899909  1
  Y  Y15  1  0.376693  0.841075  0.879200  1
  Y  Y16  1  0.291724  0.003389  0.250162  1
  Tm  Tm17  1  0.208688  0.504034  0.750024  1
  Tm  Tm18  1  0.708621  0.995936  0.749993  1
  Tm  Tm19  1  0.791226  0.495902  0.250013  1
  Pb  Pb20  1  0.281349  0.033174  0.042870  1
  Pb  Pb21  1  0.781467  0.467184  0.456312  1
  Pb  Pb22  1  0.718557  0.967188  0.543756  1
  Pb  Pb23  1  0.218830  0.533145  0.956264  1
  Pb  Pb24  1  0.718361  0.967147  0.956197  1
  Pb  Pb25  1  0.218666  0.533039  0.543735  1
  Pb  Pb26  1  0.281344  0.033310  0.457034  1
  Pb  Pb27  1  0.781460  0.467174  0.043696  1
  Pb  Pb28  1  0.571519  0.625994  0.749974  1
  Pb  Pb29  1  0.071459  0.873868  0.750016  1
  Pb  Pb30  1  0.428756  0.374888  0.249991  1
  Pb  Pb31  1  0.926941  0.126919  0.250004  1
  Pb  Pb32  1  0.345978  0.153909  0.750007  1
  Pb  Pb33  1  0.845602  0.346371  0.750044  1
  Pb  Pb34  1  0.655088  0.846103  0.250003  1
  Pb  Pb35  1  0.153940  0.651802  0.250005  1
