# generated using pymatgen
data_YTm19Cd6FeNi
_symmetry_space_group_name_H-M   'P 1'
_cell_length_a   9.45352300
_cell_length_b   9.45374310
_cell_length_c   9.61938000
_cell_angle_alpha   90.00000000
_cell_angle_beta   90.00000000
_cell_angle_gamma   120.00076588
_symmetry_Int_Tables_number   1
_chemical_formula_structural   YTm19Cd6FeNi
_chemical_formula_sum   'Y1 Tm19 Cd6 Fe1 Ni1'
_cell_volume   744.51224113
_cell_formula_units_Z   1
loop_
 _symmetry_equiv_pos_site_id
 _symmetry_equiv_pos_as_xyz
  1  'x, y, z'
loop_
 _atom_site_type_symbol
 _atom_site_label
 _atom_site_symmetry_multiplicity
 _atom_site_fract_x
 _atom_site_fract_y
 _atom_site_fract_z
 _atom_site_occupancy
  Y  Y0  1  0.086945  0.543472  0.750000  1
  Tm  Tm1  1  0.999995  0.999997  0.499746  1
  Tm  Tm2  1  0.999995  0.999997  0.000254  1
  Tm  Tm3  1  0.541381  0.458692  0.250000  1
  Tm  Tm4  1  0.541381  0.082689  0.250000  1
  Tm  Tm5  1  0.917481  0.458740  0.250000  1
  Tm  Tm6  1  0.457533  0.543337  0.750000  1
  Tm  Tm7  1  0.457533  0.914196  0.750000  1
  Tm  Tm8  1  0.212342  0.788497  0.436002  1
  Tm  Tm9  1  0.212342  0.423847  0.436002  1
  Tm  Tm10  1  0.576027  0.788015  0.436414  1
  Tm  Tm11  1  0.788260  0.210171  0.561804  1
  Tm  Tm12  1  0.788260  0.578088  0.561804  1
  Tm  Tm13  1  0.421920  0.210960  0.562087  1
  Tm  Tm14  1  0.788260  0.210171  0.938196  1
  Tm  Tm15  1  0.788260  0.578088  0.938196  1
  Tm  Tm16  1  0.421920  0.210960  0.937913  1
  Tm  Tm17  1  0.212342  0.788497  0.063998  1
  Tm  Tm18  1  0.212342  0.423847  0.063998  1
  Tm  Tm19  1  0.576027  0.788015  0.063586  1
  Cd  Cd20  1  0.885214  0.114607  0.250000  1
  Cd  Cd21  1  0.885214  0.770607  0.250000  1
  Cd  Cd22  1  0.229524  0.114762  0.250000  1
  Cd  Cd23  1  0.114934  0.886184  0.750000  1
  Cd  Cd24  1  0.114934  0.228750  0.750000  1
  Cd  Cd25  1  0.770260  0.885130  0.750000  1
  Fe  Fe26  1  0.333002  0.666502  0.250000  1
  Ni  Ni27  1  0.666369  0.333184  0.750000  1
