# generated using pymatgen
data_Y8Ho4InCo4Rh
_symmetry_space_group_name_H-M   'P 1'
_cell_length_a   8.31382092
_cell_length_b   8.31382055
_cell_length_c   8.31382119
_cell_angle_alpha   110.68294348
_cell_angle_beta   110.72424891
_cell_angle_gamma   107.03362695
_symmetry_Int_Tables_number   1
_chemical_formula_structural   Y8Ho4InCo4Rh
_chemical_formula_sum   'Y8 Ho4 In1 Co4 Rh1'
_cell_volume   441.76697282
_cell_formula_units_Z   1
loop_
 _symmetry_equiv_pos_site_id
 _symmetry_equiv_pos_as_xyz
  1  'x, y, z'
loop_
 _atom_site_type_symbol
 _atom_site_label
 _atom_site_symmetry_multiplicity
 _atom_site_fract_x
 _atom_site_fract_y
 _atom_site_fract_z
 _atom_site_occupancy
  Y  Y0  1  0.187558  0.292835  0.480393  1
  Y  Y1  1  0.812442  0.707165  0.519607  1
  Y  Y2  1  0.187558  0.707165  0.894725  1
  Y  Y3  1  0.812442  0.292835  0.105275  1
  Y  Y4  1  0.313642  0.617512  0.303871  1
  Y  Y5  1  0.686358  0.382488  0.696129  1
  Y  Y6  1  0.313642  0.009771  0.696129  1
  Y  Y7  1  0.686358  0.990229  0.303871  1
  Ho  Ho8  1  0.404701  0.210022  0.194679  1
  Ho  Ho9  1  0.595299  0.789978  0.805321  1
  Ho  Ho10  1  0.015345  0.210022  0.805321  1
  Ho  Ho11  1  0.984655  0.789978  0.194679  1
  In  In12  1  0.500000  0.500000  0.000000  1
  Co  Co13  1  0.380604  0.000000  0.380604  1
  Co  Co14  1  0.619396  0.000000  0.619396  1
  Co  Co15  1  0.111210  0.611210  0.500000  1
  Co  Co16  1  0.888790  0.388790  0.500000  1
  Rh  Rh17  1  0.000000  0.000000  0.000000  1
