# generated using pymatgen
data_Dy5Ho5(RuPb3)2
_symmetry_space_group_name_H-M   'P 1'
_cell_length_a   9.31357202
_cell_length_b   9.31471181
_cell_length_c   6.56802900
_cell_angle_alpha   89.99967994
_cell_angle_beta   90.00015849
_cell_angle_gamma   120.00404860
_symmetry_Int_Tables_number   1
_chemical_formula_structural   Dy5Ho5(RuPb3)2
_chemical_formula_sum   'Dy5 Ho5 Ru2 Pb6'
_cell_volume   493.43922995
_cell_formula_units_Z   1
loop_
 _symmetry_equiv_pos_site_id
 _symmetry_equiv_pos_as_xyz
  1  'x, y, z'
loop_
 _atom_site_type_symbol
 _atom_site_label
 _atom_site_symmetry_multiplicity
 _atom_site_fract_x
 _atom_site_fract_y
 _atom_site_fract_z
 _atom_site_occupancy
  Dy  Dy0  1  0.000000  0.763415  0.749997  1
  Dy  Dy1  1  0.333351  0.666651  0.499957  1
  Dy  Dy2  1  0.666649  0.333299  0.499957  1
  Dy  Dy3  1  0.333345  0.666648  0.000044  1
  Dy  Dy4  1  0.666655  0.333302  0.000044  1
  Ho  Ho5  1  0.763696  0.763713  0.250006  1
  Ho  Ho6  1  0.763632  0.000014  0.749992  1
  Ho  Ho7  1  0.236304  0.000017  0.250006  1
  Ho  Ho8  1  0.236368  0.236383  0.749992  1
  Ho  Ho9  1  0.000000  0.236321  0.250004  1
  Ru  Ru10  1  0.000000  0.000232  0.000198  1
  Ru  Ru11  1  0.000000  0.000229  0.499801  1
  Pb  Pb12  1  0.402112  0.402111  0.250015  1
  Pb  Pb13  1  0.597694  0.597783  0.749986  1
  Pb  Pb14  1  0.597888  0.999999  0.250015  1
  Pb  Pb15  1  0.402306  0.000089  0.749986  1
  Pb  Pb16  1  0.000000  0.597841  0.250007  1
  Pb  Pb17  1  0.000000  0.401954  0.749994  1
