# generated using pymatgen
data_SmHo3(MoN3)4
_symmetry_space_group_name_H-M   'P 1'
_cell_length_a   7.33450314
_cell_length_b   7.33450228
_cell_length_c   6.27391644
_cell_angle_alpha   73.71956825
_cell_angle_beta   73.71955843
_cell_angle_gamma   81.72857347
_symmetry_Int_Tables_number   1
_chemical_formula_structural   SmHo3(MoN3)4
_chemical_formula_sum   'Sm1 Ho3 Mo4 N12'
_cell_volume   310.19912583
_cell_formula_units_Z   1
loop_
 _symmetry_equiv_pos_site_id
 _symmetry_equiv_pos_as_xyz
  1  'x, y, z'
loop_
 _atom_site_type_symbol
 _atom_site_label
 _atom_site_symmetry_multiplicity
 _atom_site_fract_x
 _atom_site_fract_y
 _atom_site_fract_z
 _atom_site_occupancy
  Sm  Sm0  1  0.295274  0.704726  0.750000  1
  Ho  Ho1  1  0.910773  0.089227  0.750000  1
  Ho  Ho2  1  0.707511  0.292489  0.250000  1
  Ho  Ho3  1  0.086418  0.913582  0.250000  1
  Mo  Mo4  1  0.800606  0.619163  0.771216  1
  Mo  Mo5  1  0.198790  0.378868  0.231937  1
  Mo  Mo6  1  0.621132  0.801210  0.268063  1
  Mo  Mo7  1  0.380837  0.199394  0.728784  1
  N  N8  1  0.215099  0.003687  0.849235  1
  N  N9  1  0.367049  0.346989  0.433801  1
  N  N10  1  0.638832  0.653284  0.561445  1
  N  N11  1  0.624385  0.111368  0.660476  1
  N  N12  1  0.996313  0.784901  0.650765  1
  N  N13  1  0.781610  0.002148  0.151516  1
  N  N14  1  0.111732  0.622571  0.167033  1
  N  N15  1  0.888632  0.375615  0.839524  1
  N  N16  1  0.997852  0.218390  0.348484  1
  N  N17  1  0.346716  0.361168  0.938555  1
  N  N18  1  0.653011  0.632951  0.066199  1
  N  N19  1  0.377429  0.888268  0.332967  1
