# generated using pymatgen
data_Ta4NbZn(B2Ru5)2
_symmetry_space_group_name_H-M   'P 1'
_cell_length_a   9.37478773
_cell_length_b   9.37624873
_cell_length_c   3.01923500
_cell_angle_alpha   90.00000000
_cell_angle_beta   90.00000000
_cell_angle_gamma   90.10220392
_symmetry_Int_Tables_number   1
_chemical_formula_structural   Ta4NbZn(B2Ru5)2
_chemical_formula_sum   'Ta4 Nb1 Zn1 B4 Ru10'
_cell_volume   265.39136543
_cell_formula_units_Z   1
loop_
 _symmetry_equiv_pos_site_id
 _symmetry_equiv_pos_as_xyz
  1  'x, y, z'
loop_
 _atom_site_type_symbol
 _atom_site_label
 _atom_site_symmetry_multiplicity
 _atom_site_fract_x
 _atom_site_fract_y
 _atom_site_fract_z
 _atom_site_occupancy
  Ta  Ta0  1  0.179731  0.325196  0.000000  1
  Ta  Ta1  1  0.325141  0.820460  0.000000  1
  Ta  Ta2  1  0.674904  0.179424  0.000000  1
  Ta  Ta3  1  0.999878  0.999983  0.000000  1
  Nb  Nb4  1  0.820740  0.674697  0.000000  1
  Zn  Zn5  1  0.500312  0.500149  0.000000  1
  B  B6  1  0.616171  0.869569  0.000000  1
  B  B7  1  0.383848  0.130278  0.000000  1
  B  B8  1  0.130200  0.616026  0.000000  1
  B  B9  1  0.869621  0.383901  0.000000  1
  Ru  Ru10  1  0.499752  0.000177  0.500000  1
  Ru  Ru11  1  0.000641  0.499327  0.500000  1
  Ru  Ru12  1  0.568177  0.715340  0.500000  1
  Ru  Ru13  1  0.430504  0.285272  0.500000  1
  Ru  Ru14  1  0.072909  0.780905  0.500000  1
  Ru  Ru15  1  0.928121  0.219178  0.500000  1
  Ru  Ru16  1  0.285413  0.569377  0.500000  1
  Ru  Ru17  1  0.714528  0.429524  0.500000  1
  Ru  Ru18  1  0.219133  0.072070  0.500000  1
  Ru  Ru19  1  0.780275  0.929147  0.500000  1
