# generated using pymatgen
data_TbY3Tc4F28
_symmetry_space_group_name_H-M   'P 1'
_cell_length_a   5.60808927
_cell_length_b   8.93662821
_cell_length_c   12.08287914
_cell_angle_alpha   62.62485850
_cell_angle_beta   90.01534981
_cell_angle_gamma   89.99601183
_symmetry_Int_Tables_number   1
_chemical_formula_structural   TbY3Tc4F28
_chemical_formula_sum   'Tb1 Y3 Tc4 F28'
_cell_volume   537.74861277
_cell_formula_units_Z   1
loop_
 _symmetry_equiv_pos_site_id
 _symmetry_equiv_pos_as_xyz
  1  'x, y, z'
loop_
 _atom_site_type_symbol
 _atom_site_label
 _atom_site_symmetry_multiplicity
 _atom_site_fract_x
 _atom_site_fract_y
 _atom_site_fract_z
 _atom_site_occupancy
  Tb  Tb0  1  0.241245  0.813549  0.764754  1
  Y  Y1  1  0.258908  0.813645  0.264723  1
  Y  Y2  1  0.741015  0.186637  0.735302  1
  Y  Y3  1  0.758879  0.186309  0.235277  1
  Tc  Tc4  1  0.757644  0.726528  0.043474  1
  Tc  Tc5  1  0.242158  0.273252  0.956835  1
  Tc  Tc6  1  0.257975  0.273557  0.456653  1
  Tc  Tc7  1  0.742435  0.726458  0.543062  1
  F  F8  1  0.945965  0.706679  0.418802  1
  F  F9  1  0.054254  0.293412  0.580780  1
  F  F10  1  0.445966  0.293058  0.081049  1
  F  F11  1  0.553688  0.707259  0.919063  1
  F  F12  1  0.476893  0.729546  0.139554  1
  F  F13  1  0.523082  0.270540  0.860679  1
  F  F14  1  0.977171  0.270271  0.360523  1
  F  F15  1  0.023381  0.729713  0.639005  1
  F  F16  1  0.956033  0.745310  0.171536  1
  F  F17  1  0.043860  0.254360  0.828724  1
  F  F18  1  0.456195  0.254246  0.328729  1
  F  F19  1  0.544412  0.745349  0.671129  1
  F  F20  1  0.771598  0.479832  0.140702  1
  F  F21  1  0.227838  0.519791  0.859549  1
  F  F22  1  0.272083  0.520094  0.359159  1
  F  F23  1  0.728331  0.479802  0.640571  1
  F  F24  1  0.950534  0.278785  0.046245  1
  F  F25  1  0.048946  0.721040  0.953955  1
  F  F26  1  0.450605  0.720857  0.453771  1
  F  F27  1  0.549628  0.279193  0.546003  1
  F  F28  1  0.742135  0.972019  0.447255  1
  F  F29  1  0.258153  0.028008  0.552931  1
  F  F30  1  0.242019  0.027712  0.052685  1
  F  F31  1  0.757965  0.972040  0.947566  1
  F  F32  1  0.581798  0.971232  0.231460  1
  F  F33  1  0.418004  0.029644  0.768590  1
  F  F34  1  0.081805  0.028705  0.268620  1
  F  F35  1  0.917399  0.971572  0.731282  1
