# generated using pymatgen
data_Ca3EuNi2
_symmetry_space_group_name_H-M   'P 1'
_cell_length_a   5.98074903
_cell_length_b   4.06278800
_cell_length_c   14.60840698
_cell_angle_alpha   90.00000000
_cell_angle_beta   90.27407880
_cell_angle_gamma   90.00000000
_symmetry_Int_Tables_number   1
_chemical_formula_structural   Ca3EuNi2
_chemical_formula_sum   'Ca6 Eu2 Ni4'
_cell_volume   354.95854043
_cell_formula_units_Z   2
loop_
 _symmetry_equiv_pos_site_id
 _symmetry_equiv_pos_as_xyz
  1  'x, y, z'
loop_
 _atom_site_type_symbol
 _atom_site_label
 _atom_site_symmetry_multiplicity
 _atom_site_fract_x
 _atom_site_fract_y
 _atom_site_fract_z
 _atom_site_occupancy
  Ca  Ca0  1  0.869868  0.249999  0.340960  1
  Ca  Ca1  1  0.364061  0.750000  0.414697  1
  Ca  Ca2  1  0.635988  0.249999  0.586208  1
  Ca  Ca3  1  0.129857  0.750000  0.659071  1
  Ca  Ca4  1  0.630018  0.750000  0.839572  1
  Ca  Ca5  1  0.136214  0.249999  0.911372  1
  Eu  Eu6  1  0.866381  0.750000  0.087805  1
  Eu  Eu7  1  0.367521  0.249999  0.160646  1
  Ni  Ni8  1  0.391519  0.750000  0.015204  1
  Ni  Ni9  1  0.899611  0.750000  0.486327  1
  Ni  Ni10  1  0.100425  0.249999  0.513448  1
  Ni  Ni11  1  0.608531  0.249999  0.984691  1
