# generated using pymatgen
data_Y9Ho6Pa(CdIr)4
_symmetry_space_group_name_H-M   'P 1'
_cell_length_a   9.65930697
_cell_length_b   9.65781443
_cell_length_c   9.67775453
_cell_angle_alpha   59.66195859
_cell_angle_beta   59.78925330
_cell_angle_gamma   59.82873953
_symmetry_Int_Tables_number   1
_chemical_formula_structural   Y9Ho6Pa(CdIr)4
_chemical_formula_sum   'Y9 Ho6 Pa1 Cd4 Ir4'
_cell_volume   634.90545838
_cell_formula_units_Z   1
loop_
 _symmetry_equiv_pos_site_id
 _symmetry_equiv_pos_as_xyz
  1  'x, y, z'
loop_
 _atom_site_type_symbol
 _atom_site_label
 _atom_site_symmetry_multiplicity
 _atom_site_fract_x
 _atom_site_fract_y
 _atom_site_fract_z
 _atom_site_occupancy
  Y  Y0  1  0.811008  0.189570  0.810986  1
  Y  Y1  1  0.190070  0.189673  0.811203  1
  Y  Y2  1  0.811234  0.811208  0.189447  1
  Y  Y3  1  0.941170  0.563090  0.562292  1
  Y  Y4  1  0.560987  0.938817  0.939240  1
  Y  Y5  1  0.562440  0.941111  0.562503  1
  Y  Y6  1  0.939088  0.561370  0.939094  1
  Y  Y7  1  0.561989  0.562850  0.941477  1
  Y  Y8  1  0.939524  0.939100  0.560657  1
  Ho  Ho9  1  0.349813  0.350257  0.950145  1
  Ho  Ho10  1  0.350046  0.949529  0.350160  1
  Ho  Ho11  1  0.949983  0.350094  0.349811  1
  Ho  Ho12  1  0.811297  0.189713  0.190154  1
  Ho  Ho13  1  0.189670  0.811322  0.811308  1
  Ho  Ho14  1  0.189731  0.811467  0.189839  1
  Pa  Pa15  1  0.342442  0.342776  0.342368  1
  Cd  Cd16  1  0.579105  0.578983  0.579044  1
  Cd  Cd17  1  0.578668  0.578662  0.256145  1
  Cd  Cd18  1  0.578671  0.256153  0.578709  1
  Cd  Cd19  1  0.256232  0.578609  0.578638  1
  Ir  Ir20  1  0.141960  0.142258  0.144897  1
  Ir  Ir21  1  0.147738  0.145402  0.568594  1
  Ir  Ir22  1  0.148256  0.569987  0.145624  1
  Ir  Ir23  1  0.568880  0.147998  0.147664  1
