# generated using pymatgen
data_Dy7Er3(TlBi)3
_symmetry_space_group_name_H-M   'P 1'
_cell_length_a   9.05073700
_cell_length_b   9.05073797
_cell_length_c   6.55212800
_cell_angle_alpha   90.00000000
_cell_angle_beta   90.00000000
_cell_angle_gamma   120.00000010
_symmetry_Int_Tables_number   1
_chemical_formula_structural   Dy7Er3(TlBi)3
_chemical_formula_sum   'Dy7 Er3 Tl3 Bi3'
_cell_volume   464.81586337
_cell_formula_units_Z   1
loop_
 _symmetry_equiv_pos_site_id
 _symmetry_equiv_pos_as_xyz
  1  'x, y, z'
loop_
 _atom_site_type_symbol
 _atom_site_label
 _atom_site_symmetry_multiplicity
 _atom_site_fract_x
 _atom_site_fract_y
 _atom_site_fract_z
 _atom_site_occupancy
  Dy  Dy0  1  0.666667  0.333333  0.005788  1
  Dy  Dy1  1  0.763236  0.763202  0.749822  1
  Dy  Dy2  1  0.236798  0.000034  0.749822  1
  Dy  Dy3  1  0.999966  0.236764  0.749822  1
  Dy  Dy4  1  0.237965  0.238144  0.250125  1
  Dy  Dy5  1  0.761856  0.999821  0.250125  1
  Dy  Dy6  1  0.000179  0.762035  0.250125  1
  Er  Er7  1  0.333333  0.666667  0.006262  1
  Er  Er8  1  0.333333  0.666667  0.493882  1
  Er  Er9  1  0.666667  0.333333  0.493605  1
  Tl  Tl10  1  0.606490  0.606930  0.250573  1
  Tl  Tl11  1  0.393070  0.999560  0.250573  1
  Tl  Tl12  1  0.000440  0.393510  0.250573  1
  Bi  Bi13  1  0.396094  0.396634  0.749634  1
  Bi  Bi14  1  0.603366  0.999460  0.749634  1
  Bi  Bi15  1  0.000540  0.603906  0.749634  1
