# generated using pymatgen
data_Tm2ZrSn3Rh10
_symmetry_space_group_name_H-M   'P 1'
_cell_length_a   5.65670637
_cell_length_b   5.65670644
_cell_length_c   8.49199736
_cell_angle_alpha   90.13751359
_cell_angle_beta   90.13752228
_cell_angle_gamma   97.94561518
_symmetry_Int_Tables_number   1
_chemical_formula_structural   Tm2ZrSn3Rh10
_chemical_formula_sum   'Tm2 Zr1 Sn3 Rh10'
_cell_volume   269.11923254
_cell_formula_units_Z   1
loop_
 _symmetry_equiv_pos_site_id
 _symmetry_equiv_pos_as_xyz
  1  'x, y, z'
loop_
 _atom_site_type_symbol
 _atom_site_label
 _atom_site_symmetry_multiplicity
 _atom_site_fract_x
 _atom_site_fract_y
 _atom_site_fract_z
 _atom_site_occupancy
  Tm  Tm0  1  0.781378  0.218622  0.500000  1
  Tm  Tm1  1  0.219107  0.780893  0.000000  1
  Zr  Zr2  1  0.784212  0.215788  0.000000  1
  Sn  Sn3  1  0.507003  0.492105  0.751376  1
  Sn  Sn4  1  0.507895  0.492997  0.248624  1
  Sn  Sn5  1  0.207738  0.792262  0.500000  1
  Rh  Rh6  1  0.724028  0.725735  0.999899  1
  Rh  Rh7  1  0.720677  0.722802  0.500218  1
  Rh  Rh8  1  0.274265  0.275972  0.000101  1
  Rh  Rh9  1  0.277198  0.279323  0.499782  1
  Rh  Rh10  1  0.495629  0.989885  0.749033  1
  Rh  Rh11  1  0.495393  0.990339  0.250925  1
  Rh  Rh12  1  0.993006  0.007303  0.244690  1
  Rh  Rh13  1  0.992697  0.006994  0.755310  1
  Rh  Rh14  1  0.009661  0.504607  0.749075  1
  Rh  Rh15  1  0.010115  0.504371  0.250967  1
