# generated using pymatgen
data_Zr11Ti2Al9(Ir3Os)2
_symmetry_space_group_name_H-M   'P 1'
_cell_length_a   9.14803334
_cell_length_b   9.08642346
_cell_length_c   9.14803221
_cell_angle_alpha   59.72202840
_cell_angle_beta   59.88089483
_cell_angle_gamma   59.72203462
_symmetry_Int_Tables_number   1
_chemical_formula_structural   Zr11Ti2Al9(Ir3Os)2
_chemical_formula_sum   'Zr11 Ti2 Al9 Ir6 Os2'
_cell_volume   534.94205676
_cell_formula_units_Z   1
loop_
 _symmetry_equiv_pos_site_id
 _symmetry_equiv_pos_as_xyz
  1  'x, y, z'
loop_
 _atom_site_type_symbol
 _atom_site_label
 _atom_site_symmetry_multiplicity
 _atom_site_fract_x
 _atom_site_fract_y
 _atom_site_fract_z
 _atom_site_occupancy
  Zr  Zr0  1  0.223056  0.196282  0.789426  1
  Zr  Zr1  1  0.789426  0.196282  0.223056  1
  Zr  Zr2  1  0.202138  0.799923  0.202138  1
  Zr  Zr3  1  0.800435  0.802519  0.188329  1
  Zr  Zr4  1  0.188329  0.802519  0.800435  1
  Zr  Zr5  1  0.795079  0.180924  0.795079  1
  Zr  Zr6  1  0.377332  0.381793  0.377332  1
  Zr  Zr7  1  0.378306  0.867443  0.378306  1
  Zr  Zr8  1  0.863710  0.381635  0.379003  1
  Zr  Zr9  1  0.379003  0.381635  0.863710  1
  Zr  Zr10  1  0.845323  0.468449  0.845323  1
  Ti  Ti11  1  0.503972  0.831638  0.834259  1
  Ti  Ti12  1  0.834259  0.831638  0.503972  1
  Al  Al13  1  0.155925  0.161336  0.155925  1
  Al  Al14  1  0.161339  0.517991  0.161339  1
  Al  Al15  1  0.520976  0.163671  0.159103  1
  Al  Al16  1  0.159103  0.163671  0.520976  1
  Al  Al17  1  0.616445  0.624056  0.616445  1
  Al  Al18  1  0.619326  0.141783  0.619326  1
  Al  Al19  1  0.146463  0.621562  0.616060  1
  Al  Al20  1  0.616060  0.621562  0.146463  1
  Al  Al21  1  0.827463  0.824147  0.827463  1
  Ir  Ir22  1  0.000257  0.001314  0.499988  1
  Ir  Ir23  1  0.499988  0.001314  0.000257  1
  Ir  Ir24  1  0.003942  0.503814  0.003942  1
  Ir  Ir25  1  0.491185  0.508689  0.001818  1
  Ir  Ir26  1  0.001818  0.508689  0.491185  1
  Ir  Ir27  1  0.502161  0.999530  0.502161  1
  Os  Os28  1  0.500152  0.500533  0.500152  1
  Os  Os29  1  0.997030  0.013662  0.997030  1
