# generated using pymatgen
data_Sr(InI4)2
_symmetry_space_group_name_H-M   'P 1'
_cell_length_a   8.63348700
_cell_length_b   8.87080399
_cell_length_c   16.27927205
_cell_angle_alpha   87.73913597
_cell_angle_beta   90.00000000
_cell_angle_gamma   90.00000000
_symmetry_Int_Tables_number   1
_chemical_formula_structural   Sr(InI4)2
_chemical_formula_sum   'Sr2 In4 I16'
_cell_volume   1245.79334232
_cell_formula_units_Z   2
loop_
 _symmetry_equiv_pos_site_id
 _symmetry_equiv_pos_as_xyz
  1  'x, y, z'
loop_
 _atom_site_type_symbol
 _atom_site_label
 _atom_site_symmetry_multiplicity
 _atom_site_fract_x
 _atom_site_fract_y
 _atom_site_fract_z
 _atom_site_occupancy
  Sr  Sr0  1  0.754091  0.076107  0.812937  1
  Sr  Sr1  1  0.245909  0.076107  0.312937  1
  In  In2  1  0.933878  0.222755  0.578378  1
  In  In3  1  0.066122  0.222755  0.078378  1
  In  In4  1  0.572090  0.639160  0.776575  1
  In  In5  1  0.427910  0.639160  0.276575  1
  I  I6  1  0.415940  0.613603  0.634812  1
  I  I7  1  0.584060  0.613603  0.134812  1
  I  I8  1  0.879248  0.735101  0.760662  1
  I  I9  1  0.120752  0.735101  0.260662  1
  I  I10  1  0.939510  0.487868  0.492495  1
  I  I11  1  0.060490  0.487868  0.992495  1
  I  I12  1  0.914592  0.992329  0.997502  1
  I  I13  1  0.085408  0.992329  0.497502  1
  I  I14  1  0.634247  0.123769  0.618480  1
  I  I15  1  0.365753  0.123769  0.118480  1
  I  I16  1  0.561826  0.375782  0.877288  1
  I  I17  1  0.438174  0.375782  0.377288  1
  I  I18  1  0.445703  0.870407  0.868740  1
  I  I19  1  0.554297  0.870407  0.368740  1
  I  I20  1  0.928485  0.230521  0.234333  1
  I  I21  1  0.071515  0.230521  0.734333  1
