# generated using pymatgen
data_LaInH2Pt
_symmetry_space_group_name_H-M   'P 1'
_cell_length_a   4.74563300
_cell_length_b   4.74563261
_cell_length_c   8.35924200
_cell_angle_alpha   90.00000000
_cell_angle_beta   90.00000000
_cell_angle_gamma   120.00000967
_symmetry_Int_Tables_number   1
_chemical_formula_structural   LaInH2Pt
_chemical_formula_sum   'La2 In2 H4 Pt2'
_cell_volume   163.03684065
_cell_formula_units_Z   2
loop_
 _symmetry_equiv_pos_site_id
 _symmetry_equiv_pos_as_xyz
  1  'x, y, z'
loop_
 _atom_site_type_symbol
 _atom_site_label
 _atom_site_symmetry_multiplicity
 _atom_site_fract_x
 _atom_site_fract_y
 _atom_site_fract_z
 _atom_site_occupancy
  La  La0  1  0.000000  0.000000  0.500000  1
  La  La1  1  0.000000  0.000000  0.000000  1
  In  In2  1  0.666667  0.333333  0.750000  1
  In  In3  1  0.333333  0.666667  0.250000  1
  H  H4  1  0.666667  0.333333  0.047323  1
  H  H5  1  0.333333  0.666667  0.952677  1
  H  H6  1  0.666667  0.333333  0.452677  1
  H  H7  1  0.333333  0.666667  0.547323  1
  Pt  Pt8  1  0.333333  0.666667  0.750000  1
  Pt  Pt9  1  0.666667  0.333333  0.250000  1
