# generated using pymatgen
data_Tm3Lu5Cd2IrPt
_symmetry_space_group_name_H-M   'P 1'
_cell_length_a   9.49786490
_cell_length_b   9.49786358
_cell_length_c   9.48499400
_cell_angle_alpha   60.04481980
_cell_angle_beta   60.04482440
_cell_angle_gamma   60.14483369
_symmetry_Int_Tables_number   1
_chemical_formula_structural   Tm3Lu5Cd2IrPt
_chemical_formula_sum   'Tm6 Lu10 Cd4 Ir2 Pt2'
_cell_volume   606.09630390
_cell_formula_units_Z   2
loop_
 _symmetry_equiv_pos_site_id
 _symmetry_equiv_pos_as_xyz
  1  'x, y, z'
loop_
 _atom_site_type_symbol
 _atom_site_label
 _atom_site_symmetry_multiplicity
 _atom_site_fract_x
 _atom_site_fract_y
 _atom_site_fract_z
 _atom_site_occupancy
  Tm  Tm0  1  0.186880  0.815304  0.811700  1
  Tm  Tm1  1  0.815304  0.186880  0.186115  1
  Tm  Tm2  1  0.815304  0.186880  0.811700  1
  Tm  Tm3  1  0.186880  0.815304  0.186115  1
  Tm  Tm4  1  0.813620  0.813620  0.186380  1
  Tm  Tm5  1  0.186700  0.186700  0.813300  1
  Lu  Lu6  1  0.600385  0.600385  0.596577  1
  Lu  Lu7  1  0.600385  0.600385  0.202654  1
  Lu  Lu8  1  0.606428  0.194891  0.599341  1
  Lu  Lu9  1  0.194891  0.606428  0.599341  1
  Lu  Lu10  1  0.057489  0.439404  0.439767  1
  Lu  Lu11  1  0.439404  0.057489  0.063340  1
  Lu  Lu12  1  0.439404  0.057489  0.439767  1
  Lu  Lu13  1  0.057489  0.439404  0.063340  1
  Lu  Lu14  1  0.439960  0.439960  0.060040  1
  Lu  Lu15  1  0.061948  0.061948  0.438052  1
  Cd  Cd16  1  0.831368  0.831368  0.831873  1
  Cd  Cd17  1  0.831368  0.831368  0.505390  1
  Cd  Cd18  1  0.830733  0.505866  0.831700  1
  Cd  Cd19  1  0.505866  0.830733  0.831700  1
  Ir  Ir20  1  0.390557  0.824444  0.392499  1
  Ir  Ir21  1  0.824444  0.390557  0.392499  1
  Pt  Pt22  1  0.391597  0.391597  0.394430  1
  Pt  Pt23  1  0.391597  0.391597  0.822375  1
