# generated using pymatgen
data_Nd2Y8In8Pd3Pt
_symmetry_space_group_name_H-M   'P 1'
_cell_length_a   3.64525000
_cell_length_b   8.20967895
_cell_length_c   18.48346203
_cell_angle_alpha   90.05315284
_cell_angle_beta   90.00000000
_cell_angle_gamma   90.00000000
_symmetry_Int_Tables_number   1
_chemical_formula_structural   Nd2Y8In8Pd3Pt
_chemical_formula_sum   'Nd2 Y8 In8 Pd3 Pt1'
_cell_volume   553.14198641
_cell_formula_units_Z   1
loop_
 _symmetry_equiv_pos_site_id
 _symmetry_equiv_pos_as_xyz
  1  'x, y, z'
loop_
 _atom_site_type_symbol
 _atom_site_label
 _atom_site_symmetry_multiplicity
 _atom_site_fract_x
 _atom_site_fract_y
 _atom_site_fract_z
 _atom_site_occupancy
  Nd  Nd0  1  0.000000  0.999898  0.000143  1
  Nd  Nd1  1  0.000000  0.500278  0.500160  1
  Y  Y2  1  0.000000  0.121621  0.416091  1
  Y  Y3  1  0.000000  0.877015  0.583377  1
  Y  Y4  1  0.000000  0.377948  0.916444  1
  Y  Y5  1  0.000000  0.622352  0.084745  1
  Y  Y6  1  0.000000  0.245203  0.218125  1
  Y  Y7  1  0.000000  0.759750  0.782101  1
  Y  Y8  1  0.000000  0.259994  0.718008  1
  Y  Y9  1  0.000000  0.735747  0.280819  1
  In  In10  1  0.500000  0.417827  0.347978  1
  In  In11  1  0.500000  0.581217  0.653410  1
  In  In12  1  0.500000  0.081200  0.846558  1
  In  In13  1  0.500000  0.922593  0.153474  1
  In  In14  1  0.500000  0.299898  0.067669  1
  In  In15  1  0.500000  0.699564  0.931475  1
  In  In16  1  0.500000  0.199271  0.568512  1
  In  In17  1  0.500000  0.799841  0.430959  1
  Pd  Pd18  1  0.500000  0.024538  0.304056  1
  Pd  Pd19  1  0.500000  0.974637  0.695741  1
  Pd  Pd20  1  0.500000  0.474686  0.804026  1
  Pt  Pt21  1  0.500000  0.524921  0.196127  1
