# generated using pymatgen
data_DyEr7SiPd24
_symmetry_space_group_name_H-M   'P 1'
_cell_length_a   8.29937561
_cell_length_b   8.29937521
_cell_length_c   8.29937500
_cell_angle_alpha   90.02189830
_cell_angle_beta   90.02189830
_cell_angle_gamma   90.02189683
_symmetry_Int_Tables_number   1
_chemical_formula_structural   DyEr7SiPd24
_chemical_formula_sum   'Dy1 Er7 Si1 Pd24'
_cell_volume   571.65777210
_cell_formula_units_Z   1
loop_
 _symmetry_equiv_pos_site_id
 _symmetry_equiv_pos_as_xyz
  1  'x, y, z'
loop_
 _atom_site_type_symbol
 _atom_site_label
 _atom_site_symmetry_multiplicity
 _atom_site_fract_x
 _atom_site_fract_y
 _atom_site_fract_z
 _atom_site_occupancy
  Dy  Dy0  1  0.253472  0.253472  0.253472  1
  Er  Er1  1  0.746301  0.746301  0.746301  1
  Er  Er2  1  0.746230  0.746230  0.253703  1
  Er  Er3  1  0.746230  0.253703  0.746230  1
  Er  Er4  1  0.253721  0.253721  0.746288  1
  Er  Er5  1  0.253721  0.746288  0.253721  1
  Er  Er6  1  0.253703  0.746230  0.746230  1
  Er  Er7  1  0.746288  0.253721  0.253721  1
  Si  Si8  1  0.000257  0.000257  0.000257  1
  Pd  Pd9  1  0.257110  0.500522  0.999372  1
  Pd  Pd10  1  0.742910  0.500042  0.999918  1
  Pd  Pd11  1  0.999372  0.257110  0.500522  1
  Pd  Pd12  1  0.500522  0.257110  0.999372  1
  Pd  Pd13  1  0.999918  0.742910  0.500042  1
  Pd  Pd14  1  0.500042  0.742910  0.999918  1
  Pd  Pd15  1  0.500522  0.999372  0.257110  1
  Pd  Pd16  1  0.257110  0.999372  0.500522  1
  Pd  Pd17  1  0.500042  0.999918  0.742910  1
  Pd  Pd18  1  0.742910  0.999918  0.500042  1
  Pd  Pd19  1  0.999372  0.500522  0.257110  1
  Pd  Pd20  1  0.999918  0.500042  0.742910  1
  Pd  Pd21  1  0.252255  0.500502  0.500502  1
  Pd  Pd22  1  0.747686  0.500070  0.500070  1
  Pd  Pd23  1  0.500502  0.252255  0.500502  1
  Pd  Pd24  1  0.500070  0.747686  0.500070  1
  Pd  Pd25  1  0.500502  0.500502  0.252255  1
  Pd  Pd26  1  0.500070  0.500070  0.747686  1
  Pd  Pd27  1  0.280488  0.999243  0.999243  1
  Pd  Pd28  1  0.720269  0.000001  0.000001  1
  Pd  Pd29  1  0.999243  0.280488  0.999243  1
  Pd  Pd30  1  0.000001  0.720269  0.000001  1
  Pd  Pd31  1  0.999243  0.999243  0.280488  1
  Pd  Pd32  1  0.000001  0.000001  0.720269  1
