# generated using pymatgen
data_Tb6BiO12
_symmetry_space_group_name_H-M   'P 1'
_cell_length_a   6.59170195
_cell_length_b   6.59170276
_cell_length_c   6.59170335
_cell_angle_alpha   99.05530333
_cell_angle_beta   99.05530213
_cell_angle_gamma   99.05528948
_symmetry_Int_Tables_number   1
_chemical_formula_structural   Tb6BiO12
_chemical_formula_sum   'Tb6 Bi1 O12'
_cell_volume   274.40257399
_cell_formula_units_Z   1
loop_
 _symmetry_equiv_pos_site_id
 _symmetry_equiv_pos_as_xyz
  1  'x, y, z'
loop_
 _atom_site_type_symbol
 _atom_site_label
 _atom_site_symmetry_multiplicity
 _atom_site_fract_x
 _atom_site_fract_y
 _atom_site_fract_z
 _atom_site_occupancy
  Tb  Tb0  1  0.694054  0.391089  0.858980  1
  Tb  Tb1  1  0.858980  0.694054  0.391089  1
  Tb  Tb2  1  0.391089  0.858980  0.694054  1
  Tb  Tb3  1  0.305946  0.608911  0.141020  1
  Tb  Tb4  1  0.141020  0.305946  0.608911  1
  Tb  Tb5  1  0.608911  0.141020  0.305946  1
  Bi  Bi6  1  0.000000  0.000000  0.000000  1
  O  O7  1  0.434684  0.177803  0.585043  1
  O  O8  1  0.585043  0.434684  0.177803  1
  O  O9  1  0.177803  0.585043  0.434684  1
  O  O10  1  0.565316  0.822197  0.414957  1
  O  O11  1  0.414957  0.565316  0.822197  1
  O  O12  1  0.822197  0.414957  0.565316  1
  O  O13  1  0.069635  0.315439  0.949949  1
  O  O14  1  0.684561  0.050051  0.930365  1
  O  O15  1  0.050051  0.930365  0.684561  1
  O  O16  1  0.930365  0.684561  0.050051  1
  O  O17  1  0.315439  0.949949  0.069635  1
  O  O18  1  0.949949  0.069635  0.315439  1
