# generated using pymatgen
data_LiLu2Ni11As7
_symmetry_space_group_name_H-M   'P 1'
_cell_length_a   3.83042400
_cell_length_b   9.35397747
_cell_length_c   9.39033720
_cell_angle_alpha   120.34663737
_cell_angle_beta   90.00000000
_cell_angle_gamma   90.00000000
_symmetry_Int_Tables_number   1
_chemical_formula_structural   LiLu2Ni11As7
_chemical_formula_sum   'Li1 Lu2 Ni11 As7'
_cell_volume   290.35372283
_cell_formula_units_Z   1
loop_
 _symmetry_equiv_pos_site_id
 _symmetry_equiv_pos_as_xyz
  1  'x, y, z'
loop_
 _atom_site_type_symbol
 _atom_site_label
 _atom_site_symmetry_multiplicity
 _atom_site_fract_x
 _atom_site_fract_y
 _atom_site_fract_z
 _atom_site_occupancy
  Li  Li0  1  0.500000  0.110630  0.896560  1
  Lu  Lu1  1  0.500000  0.331246  0.665193  1
  Lu  Lu2  1  0.000000  0.670689  0.337994  1
  Ni  Ni3  1  0.000000  0.875229  0.722077  1
  Ni  Ni4  1  0.000000  0.284361  0.155565  1
  Ni  Ni5  1  0.000000  0.839691  0.127405  1
  Ni  Ni6  1  0.500000  0.949297  0.566558  1
  Ni  Ni7  1  0.500000  0.430251  0.382054  1
  Ni  Ni8  1  0.500000  0.614761  0.043824  1
  Ni  Ni9  1  0.000000  0.379896  0.943445  1
  Ni  Ni10  1  0.000000  0.057635  0.432795  1
  Ni  Ni11  1  0.000000  0.561504  0.617990  1
  Ni  Ni12  1  0.500000  0.096791  0.211565  1
  Ni  Ni13  1  0.500000  0.793900  0.892769  1
  As  As14  1  0.500000  0.708863  0.597792  1
  As  As15  1  0.500000  0.415894  0.120005  1
  As  As16  1  0.500000  0.885316  0.292673  1
  As  As17  1  0.000000  0.997310  0.005187  1
  As  As18  1  0.000000  0.116969  0.705046  1
  As  As19  1  0.000000  0.288041  0.405047  1
  As  As20  1  0.000000  0.591729  0.878455  1
