# generated using pymatgen
data_Tm12Fe2Ni2SnOs
_symmetry_space_group_name_H-M   'P 1'
_cell_length_a   8.19345988
_cell_length_b   8.20140583
_cell_length_c   8.19128027
_cell_angle_alpha   105.08001089
_cell_angle_beta   111.37950123
_cell_angle_gamma   111.99098050
_symmetry_Int_Tables_number   1
_chemical_formula_structural   Tm12Fe2Ni2SnOs
_chemical_formula_sum   'Tm12 Fe2 Ni2 Sn1 Os1'
_cell_volume   422.14242749
_cell_formula_units_Z   1
loop_
 _symmetry_equiv_pos_site_id
 _symmetry_equiv_pos_as_xyz
  1  'x, y, z'
loop_
 _atom_site_type_symbol
 _atom_site_label
 _atom_site_symmetry_multiplicity
 _atom_site_fract_x
 _atom_site_fract_y
 _atom_site_fract_z
 _atom_site_occupancy
  Tm  Tm0  1  0.695855  0.279383  0.975214  1
  Tm  Tm1  1  0.304035  0.720603  0.024671  1
  Tm  Tm2  1  0.695807  0.720525  0.416377  1
  Tm  Tm3  1  0.304035  0.279303  0.583308  1
  Tm  Tm4  1  0.804022  0.121304  0.317143  1
  Tm  Tm5  1  0.804024  0.486887  0.682728  1
  Tm  Tm6  1  0.195737  0.878604  0.682714  1
  Tm  Tm7  1  0.195920  0.513229  0.317151  1
  Tm  Tm8  1  0.589030  0.773048  0.815876  1
  Tm  Tm9  1  0.957082  0.773036  0.183939  1
  Tm  Tm10  1  0.042829  0.226894  0.815943  1
  Tm  Tm11  1  0.410924  0.226914  0.184012  1
  Fe  Fe12  1  0.879188  0.499973  0.379170  1
  Fe  Fe13  1  0.121007  0.499988  0.621017  1
  Ni  Ni14  1  0.000584  0.115221  0.115246  1
  Ni  Ni15  1  0.999905  0.885086  0.885593  1
  Sn  Sn16  1  0.500054  0.000044  0.499995  1
  Os  Os17  1  0.499960  0.499957  0.999901  1
