# generated using pymatgen
data_Y4Tm8Co4BiRu
_symmetry_space_group_name_H-M   'P 1'
_cell_length_a   8.24786870
_cell_length_b   8.24786687
_cell_length_c   8.24786813
_cell_angle_alpha   110.80289797
_cell_angle_beta   110.86160300
_cell_angle_gamma   106.78216934
_symmetry_Int_Tables_number   1
_chemical_formula_structural   Y4Tm8Co4BiRu
_chemical_formula_sum   'Y4 Tm8 Co4 Bi1 Ru1'
_cell_volume   431.21046363
_cell_formula_units_Z   1
loop_
 _symmetry_equiv_pos_site_id
 _symmetry_equiv_pos_as_xyz
  1  'x, y, z'
loop_
 _atom_site_type_symbol
 _atom_site_label
 _atom_site_symmetry_multiplicity
 _atom_site_fract_x
 _atom_site_fract_y
 _atom_site_fract_z
 _atom_site_occupancy
  Y  Y0  1  0.284554  0.185141  0.469696  1
  Y  Y1  1  0.715446  0.814859  0.530304  1
  Y  Y2  1  0.284554  0.814859  0.099412  1
  Y  Y3  1  0.715446  0.185141  0.900588  1
  Tm  Tm4  1  0.621829  0.311351  0.310478  1
  Tm  Tm5  1  0.378171  0.688649  0.689522  1
  Tm  Tm6  1  0.000873  0.311351  0.689522  1
  Tm  Tm7  1  0.999127  0.688649  0.310478  1
  Tm  Tm8  1  0.212001  0.407295  0.195295  1
  Tm  Tm9  1  0.787999  0.592705  0.804705  1
  Tm  Tm10  1  0.212001  0.016708  0.804705  1
  Tm  Tm11  1  0.787999  0.983292  0.195295  1
  Co  Co12  1  0.000000  0.375117  0.375117  1
  Co  Co13  1  0.000000  0.624883  0.624883  1
  Co  Co14  1  0.388085  0.888085  0.500000  1
  Co  Co15  1  0.611915  0.111915  0.500000  1
  Bi  Bi16  1  0.500000  0.500000  0.000000  1
  Ru  Ru17  1  0.000000  0.000000  0.000000  1
