# generated using pymatgen
data_Dy5Co2Pt
_symmetry_space_group_name_H-M   'P 1'
_cell_length_a   8.73074277
_cell_length_b   8.73074302
_cell_length_c   8.73074378
_cell_angle_alpha   131.45343384
_cell_angle_beta   131.45342993
_cell_angle_gamma   71.09365242
_symmetry_Int_Tables_number   1
_chemical_formula_structural   Dy5Co2Pt
_chemical_formula_sum   'Dy10 Co4 Pt2'
_cell_volume   366.03171018
_cell_formula_units_Z   2
loop_
 _symmetry_equiv_pos_site_id
 _symmetry_equiv_pos_as_xyz
  1  'x, y, z'
loop_
 _atom_site_type_symbol
 _atom_site_label
 _atom_site_symmetry_multiplicity
 _atom_site_fract_x
 _atom_site_fract_y
 _atom_site_fract_z
 _atom_site_occupancy
  Dy  Dy0  1  0.000000  0.000000  0.000000  1
  Dy  Dy1  1  0.500000  0.500000  0.000000  1
  Dy  Dy2  1  0.815113  0.315113  0.850038  1
  Dy  Dy3  1  0.184887  0.684887  0.149963  1
  Dy  Dy4  1  0.465076  0.965076  0.149963  1
  Dy  Dy5  1  0.315113  0.465076  0.500000  1
  Dy  Dy6  1  0.034924  0.184887  0.500000  1
  Dy  Dy7  1  0.534924  0.034924  0.850037  1
  Dy  Dy8  1  0.684887  0.534924  0.500000  1
  Dy  Dy9  1  0.965076  0.815113  0.500000  1
  Co  Co10  1  0.112446  0.612446  0.724892  1
  Co  Co11  1  0.887554  0.387554  0.275108  1
  Co  Co12  1  0.612446  0.887554  0.500000  1
  Co  Co13  1  0.387554  0.112446  0.500000  1
  Pt  Pt14  1  0.250000  0.250000  0.000000  1
  Pt  Pt15  1  0.750000  0.750000  0.000000  1
