# generated using pymatgen
data_Y2LuTh(Al8Pt3)3
_symmetry_space_group_name_H-M   'P 1'
_cell_length_a   7.55727356
_cell_length_b   7.57413243
_cell_length_c   13.17760927
_cell_angle_alpha   84.52927234
_cell_angle_beta   78.99070662
_cell_angle_gamma   59.92935674
_symmetry_Int_Tables_number   1
_chemical_formula_structural   Y2LuTh(Al8Pt3)3
_chemical_formula_sum   'Y2 Lu1 Th1 Al24 Pt9'
_cell_volume   640.74989634
_cell_formula_units_Z   1
loop_
 _symmetry_equiv_pos_site_id
 _symmetry_equiv_pos_as_xyz
  1  'x, y, z'
loop_
 _atom_site_type_symbol
 _atom_site_label
 _atom_site_symmetry_multiplicity
 _atom_site_fract_x
 _atom_site_fract_y
 _atom_site_fract_z
 _atom_site_occupancy
  Y  Y0  1  0.605607  0.831397  0.193442  1
  Y  Y1  1  0.733251  0.499182  0.807961  1
  Lu  Lu2  1  0.265696  0.501158  0.194974  1
  Th  Th3  1  0.393973  0.167866  0.807719  1
  Al  Al4  1  0.687196  0.830934  0.947601  1
  Al  Al5  1  0.315076  0.167418  0.059557  1
  Al  Al6  1  0.147047  0.832648  0.559815  1
  Al  Al7  1  0.854292  0.167509  0.437157  1
  Al  Al8  1  0.481145  0.166629  0.556230  1
  Al  Al9  1  0.520280  0.832491  0.440441  1
  Al  Al10  1  0.217462  0.165937  0.328194  1
  Al  Al11  1  0.787752  0.831105  0.666581  1
  Al  Al12  1  0.438080  0.510233  0.667282  1
  Al  Al13  1  0.563022  0.493154  0.328063  1
  Al  Al14  1  0.107417  0.159650  0.665477  1
  Al  Al15  1  0.891054  0.839867  0.329437  1
  Al  Al16  1  0.350850  0.502989  0.948210  1
  Al  Al17  1  0.644674  0.501527  0.057463  1
  Al  Al18  1  0.011633  0.166779  0.957457  1
  Al  Al19  1  0.984549  0.830401  0.050482  1
  Al  Al20  1  0.185988  0.500098  0.440400  1
  Al  Al21  1  0.813745  0.500361  0.557805  1
  Al  Al22  1  0.732962  0.165397  0.183434  1
  Al  Al23  1  0.264902  0.832086  0.816609  1
  Al  Al24  1  0.057972  0.635298  0.815447  1
  Al  Al25  1  0.938831  0.369351  0.184827  1
  Al  Al26  1  0.859900  0.041129  0.816307  1
  Al  Al27  1  0.144153  0.957030  0.184178  1
  Pt  Pt28  1  0.121467  0.490830  0.638545  1
  Pt  Pt29  1  0.880851  0.508462  0.360425  1
  Pt  Pt30  1  0.656421  0.171647  0.000249  1
  Pt  Pt31  1  0.342738  0.829691  0.000384  1
  Pt  Pt32  1  0.536739  0.167528  0.360368  1
  Pt  Pt33  1  0.462244  0.834219  0.638313  1
  Pt  Pt34  1  0.778245  0.174925  0.636960  1
  Pt  Pt35  1  0.221678  0.824013  0.361805  1
  Pt  Pt36  1  0.001113  0.499063  0.000397  1
