# generated using pymatgen
data_Na2Zr6MnCl15
_symmetry_space_group_name_H-M   'P 1'
_cell_length_a   9.30435871
_cell_length_b   9.30435745
_cell_length_c   9.30435863
_cell_angle_alpha   108.65430853
_cell_angle_beta   108.65430429
_cell_angle_gamma   111.11770076
_symmetry_Int_Tables_number   1
_chemical_formula_structural   Na2Zr6MnCl15
_chemical_formula_sum   'Na2 Zr6 Mn1 Cl15'
_cell_volume   619.67996636
_cell_formula_units_Z   1
loop_
 _symmetry_equiv_pos_site_id
 _symmetry_equiv_pos_as_xyz
  1  'x, y, z'
loop_
 _atom_site_type_symbol
 _atom_site_label
 _atom_site_symmetry_multiplicity
 _atom_site_fract_x
 _atom_site_fract_y
 _atom_site_fract_z
 _atom_site_occupancy
  Na  Na0  1  0.250000  0.750000  0.500000  1
  Na  Na1  1  0.750000  0.250000  0.500000  1
  Zr  Zr2  1  0.765056  0.765056  0.000000  1
  Zr  Zr3  1  0.000000  0.222930  0.222930  1
  Zr  Zr4  1  0.222930  0.000000  0.222930  1
  Zr  Zr5  1  0.234944  0.234944  0.000000  1
  Zr  Zr6  1  0.000000  0.777070  0.777070  1
  Zr  Zr7  1  0.777070  0.000000  0.777070  1
  Mn  Mn8  1  0.000000  0.000000  0.000000  1
  Cl  Cl9  1  0.500000  0.500000  0.000000  1
  Cl  Cl10  1  0.000000  0.500000  0.500000  1
  Cl  Cl11  1  0.500000  0.000000  0.500000  1
  Cl  Cl12  1  0.237264  0.237264  0.474527  1
  Cl  Cl13  1  0.994979  0.755261  0.239718  1
  Cl  Cl14  1  0.755261  0.994979  0.239718  1
  Cl  Cl15  1  0.237264  0.762736  0.000000  1
  Cl  Cl16  1  0.484456  0.244739  0.239718  1
  Cl  Cl17  1  0.244739  0.005021  0.760282  1
  Cl  Cl18  1  0.762736  0.237264  0.000000  1
  Cl  Cl19  1  0.005021  0.244739  0.760282  1
  Cl  Cl20  1  0.244739  0.484456  0.239718  1
  Cl  Cl21  1  0.762736  0.762736  0.525473  1
  Cl  Cl22  1  0.515544  0.755261  0.760282  1
  Cl  Cl23  1  0.755261  0.515544  0.760282  1
