# generated using pymatgen
data_TbGdCr3O12
_symmetry_space_group_name_H-M   'P 1'
_cell_length_a   5.11896633
_cell_length_b   6.88278590
_cell_length_c   14.30546931
_cell_angle_alpha   84.43099342
_cell_angle_beta   80.20842080
_cell_angle_gamma   68.62981553
_symmetry_Int_Tables_number   1
_chemical_formula_structural   TbGdCr3O12
_chemical_formula_sum   'Tb2 Gd2 Cr6 O24'
_cell_volume   462.19205521
_cell_formula_units_Z   2
loop_
 _symmetry_equiv_pos_site_id
 _symmetry_equiv_pos_as_xyz
  1  'x, y, z'
loop_
 _atom_site_type_symbol
 _atom_site_label
 _atom_site_symmetry_multiplicity
 _atom_site_fract_x
 _atom_site_fract_y
 _atom_site_fract_z
 _atom_site_occupancy
  Tb  Tb0  1  0.635520  0.870651  0.873683  1
  Tb  Tb1  1  0.620001  0.206111  0.547227  1
  Gd  Gd2  1  0.364973  0.129997  0.124842  1
  Gd  Gd3  1  0.379218  0.793612  0.453989  1
  Cr  Cr4  1  0.904458  0.276321  0.951235  1
  Cr  Cr5  1  0.848959  0.978561  0.298641  1
  Cr  Cr6  1  0.872002  0.621752  0.621857  1
  Cr  Cr7  1  0.148883  0.022668  0.702285  1
  Cr  Cr8  1  0.097402  0.724216  0.045678  1
  Cr  Cr9  1  0.128453  0.376385  0.380224  1
  O  O10  1  0.835532  0.191350  0.679157  1
  O  O11  1  0.751283  0.860446  0.029128  1
  O  O12  1  0.825741  0.565606  0.370682  1
  O  O13  1  0.870490  0.513926  0.906720  1
  O  O14  1  0.905899  0.181562  0.242806  1
  O  O15  1  0.944694  0.825377  0.558485  1
  O  O16  1  0.322305  0.102324  0.769266  1
  O  O17  1  0.200801  0.849270  0.116187  1
  O  O18  1  0.331429  0.452939  0.442033  1
  O  O19  1  0.696936  0.690195  0.727380  1
  O  O20  1  0.710508  0.283287  0.056986  1
  O  O21  1  0.639768  0.023252  0.408890  1
  O  O22  1  0.295123  0.717935  0.940767  1
  O  O23  1  0.301574  0.307606  0.274607  1
  O  O24  1  0.360949  0.979149  0.592655  1
  O  O25  1  0.089699  0.819782  0.757533  1
  O  O26  1  0.131593  0.486681  0.090263  1
  O  O27  1  0.049801  0.175391  0.443852  1
  O  O28  1  0.250842  0.138409  0.967221  1
  O  O29  1  0.163481  0.809620  0.320511  1
  O  O30  1  0.177593  0.434697  0.630871  1
  O  O31  1  0.795646  0.151530  0.882101  1
  O  O32  1  0.677079  0.896413  0.232121  1
  O  O33  1  0.671361  0.542979  0.560118  1
