# generated using pymatgen
data_Sr4Cd17(GaAu4)3
_symmetry_space_group_name_H-M   'P 1'
_cell_length_a   4.52214900
_cell_length_b   12.81267505
_cell_length_c   14.25651166
_cell_angle_alpha   90.62794710
_cell_angle_beta   90.00000000
_cell_angle_gamma   90.00000000
_symmetry_Int_Tables_number   1
_chemical_formula_structural   Sr4Cd17(GaAu4)3
_chemical_formula_sum   'Sr4 Cd17 Ga3 Au12'
_cell_volume   825.98444706
_cell_formula_units_Z   1
loop_
 _symmetry_equiv_pos_site_id
 _symmetry_equiv_pos_as_xyz
  1  'x, y, z'
loop_
 _atom_site_type_symbol
 _atom_site_label
 _atom_site_symmetry_multiplicity
 _atom_site_fract_x
 _atom_site_fract_y
 _atom_site_fract_z
 _atom_site_occupancy
  Sr  Sr0  1  0.250000  0.892975  0.290804  1
  Sr  Sr1  1  0.750000  0.103974  0.709676  1
  Sr  Sr2  1  0.750000  0.399074  0.207775  1
  Sr  Sr3  1  0.250000  0.603143  0.793954  1
  Cd  Cd4  1  0.250000  0.416967  0.000293  1
  Cd  Cd5  1  0.750000  0.587390  0.996848  1
  Cd  Cd6  1  0.750000  0.908145  0.501724  1
  Cd  Cd7  1  0.250000  0.084218  0.502294  1
  Cd  Cd8  1  0.250000  0.600994  0.322906  1
  Cd  Cd9  1  0.750000  0.399876  0.674825  1
  Cd  Cd10  1  0.750000  0.102077  0.177772  1
  Cd  Cd11  1  0.250000  0.901895  0.825381  1
  Cd  Cd12  1  0.250000  0.007145  0.067978  1
  Cd  Cd13  1  0.750000  0.993467  0.935548  1
  Cd  Cd14  1  0.750000  0.511633  0.437692  1
  Cd  Cd15  1  0.250000  0.494375  0.571326  1
  Cd  Cd16  1  0.250000  0.772757  0.011070  1
  Cd  Cd17  1  0.750000  0.225931  0.982458  1
  Cd  Cd18  1  0.750000  0.270307  0.481150  1
  Cd  Cd19  1  0.250000  0.724551  0.513504  1
  Cd  Cd20  1  0.250000  0.185345  0.305433  1
  Ga  Ga21  1  0.750000  0.817823  0.695833  1
  Ga  Ga22  1  0.750000  0.685521  0.190885  1
  Ga  Ga23  1  0.250000  0.311814  0.807921  1
  Au  Au24  1  0.250000  0.592063  0.127527  1
  Au  Au25  1  0.750000  0.409177  0.870628  1
  Au  Au26  1  0.750000  0.075979  0.375991  1
  Au  Au27  1  0.250000  0.908012  0.629085  1
  Au  Au28  1  0.250000  0.229675  0.108735  1
  Au  Au29  1  0.750000  0.773341  0.880473  1
  Au  Au30  1  0.750000  0.727700  0.379888  1
  Au  Au31  1  0.250000  0.272437  0.616488  1
  Au  Au32  1  0.250000  0.383231  0.387863  1
  Au  Au33  1  0.750000  0.629717  0.621266  1
  Au  Au34  1  0.750000  0.871093  0.115115  1
  Au  Au35  1  0.250000  0.126176  0.881892  1
