# generated using pymatgen
data_HfZr2Sc(SiW)4
_symmetry_space_group_name_H-M   'P 1'
_cell_length_a   3.53157400
_cell_length_b   6.98777908
_cell_length_c   8.23852001
_cell_angle_alpha   89.92628426
_cell_angle_beta   90.00000000
_cell_angle_gamma   90.00000000
_symmetry_Int_Tables_number   1
_chemical_formula_structural   HfZr2Sc(SiW)4
_chemical_formula_sum   'Hf1 Zr2 Sc1 Si4 W4'
_cell_volume   203.30886620
_cell_formula_units_Z   1
loop_
 _symmetry_equiv_pos_site_id
 _symmetry_equiv_pos_as_xyz
  1  'x, y, z'
loop_
 _atom_site_type_symbol
 _atom_site_label
 _atom_site_symmetry_multiplicity
 _atom_site_fract_x
 _atom_site_fract_y
 _atom_site_fract_z
 _atom_site_occupancy
  Hf  Hf0  1  0.750000  0.956904  0.667131  1
  Zr  Zr1  1  0.250000  0.041578  0.334894  1
  Zr  Zr2  1  0.750000  0.458269  0.832773  1
  Sc  Sc3  1  0.250000  0.541767  0.165827  1
  Si  Si4  1  0.250000  0.758406  0.861623  1
  Si  Si5  1  0.250000  0.256218  0.638643  1
  Si  Si6  1  0.750000  0.243649  0.139897  1
  Si  Si7  1  0.750000  0.739669  0.358651  1
  W  W8  1  0.250000  0.633796  0.561528  1
  W  W9  1  0.250000  0.131245  0.939205  1
  W  W10  1  0.750000  0.368608  0.440036  1
  W  W11  1  0.750000  0.869891  0.059793  1
