# generated using pymatgen
data_La4TmP12Ir10Ru9
_symmetry_space_group_name_H-M   'P 1'
_cell_length_a   12.76743900
_cell_length_b   12.76743867
_cell_length_c   3.99483400
_cell_angle_alpha   90.00000000
_cell_angle_beta   90.00000000
_cell_angle_gamma   119.99999308
_symmetry_Int_Tables_number   1
_chemical_formula_structural   La4TmP12Ir10Ru9
_chemical_formula_sum   'La4 Tm1 P12 Ir10 Ru9'
_cell_volume   563.94528680
_cell_formula_units_Z   1
loop_
 _symmetry_equiv_pos_site_id
 _symmetry_equiv_pos_as_xyz
  1  'x, y, z'
loop_
 _atom_site_type_symbol
 _atom_site_label
 _atom_site_symmetry_multiplicity
 _atom_site_fract_x
 _atom_site_fract_y
 _atom_site_fract_z
 _atom_site_occupancy
  La  La0  1  0.333333  0.666667  0.500000  1
  La  La1  1  0.187928  0.187958  0.000000  1
  La  La2  1  0.812042  0.999970  0.000000  1
  La  La3  1  0.000030  0.812072  0.000000  1
  Tm  Tm4  1  0.666667  0.333333  0.500000  1
  P  P5  1  0.307079  0.828521  0.000000  1
  P  P6  1  0.171479  0.478559  0.000000  1
  P  P7  1  0.521441  0.692921  0.000000  1
  P  P8  1  0.823954  0.306483  0.000000  1
  P  P9  1  0.482529  0.176046  0.000000  1
  P  P10  1  0.693517  0.517471  0.000000  1
  P  P11  1  0.367419  0.368239  0.500000  1
  P  P12  1  0.631761  0.999180  0.500000  1
  P  P13  1  0.000820  0.632581  0.500000  1
  P  P14  1  0.814809  0.813495  0.500000  1
  P  P15  1  0.186505  0.001314  0.500000  1
  P  P16  1  0.998686  0.185191  0.500000  1
  Ir  Ir17  1  0.125225  0.634810  0.000000  1
  Ir  Ir18  1  0.365190  0.490414  0.000000  1
  Ir  Ir19  1  0.509586  0.874775  0.000000  1
  Ir  Ir20  1  0.634568  0.131561  0.000000  1
  Ir  Ir21  1  0.496992  0.365432  0.000000  1
  Ir  Ir22  1  0.868439  0.503008  0.000000  1
  Ir  Ir23  1  0.711191  0.709402  0.000000  1
  Ir  Ir24  1  0.290598  0.001789  0.000000  1
  Ir  Ir25  1  0.998211  0.288809  0.000000  1
  Ir  Ir26  1  0.000000  0.000000  0.500000  1
  Ru  Ru27  1  0.199454  0.819391  0.500000  1
  Ru  Ru28  1  0.180609  0.380064  0.500000  1
  Ru  Ru29  1  0.619936  0.800546  0.500000  1
  Ru  Ru30  1  0.816302  0.199697  0.500000  1
  Ru  Ru31  1  0.383395  0.183698  0.500000  1
  Ru  Ru32  1  0.800303  0.616605  0.500000  1
  Ru  Ru33  1  0.548438  0.547457  0.500000  1
  Ru  Ru34  1  0.452543  0.000981  0.500000  1
  Ru  Ru35  1  0.999019  0.451562  0.500000  1
