# generated using pymatgen
data_Pr10Nd2FeCoI17
_symmetry_space_group_name_H-M   'P 1'
_cell_length_a   10.06777432
_cell_length_b   12.05359127
_cell_length_c   12.10376534
_cell_angle_alpha   93.29285511
_cell_angle_beta   104.83199248
_cell_angle_gamma   114.40192212
_symmetry_Int_Tables_number   1
_chemical_formula_structural   Pr10Nd2FeCoI17
_chemical_formula_sum   'Pr10 Nd2 Fe1 Co1 I17'
_cell_volume   1270.63435148
_cell_formula_units_Z   1
loop_
 _symmetry_equiv_pos_site_id
 _symmetry_equiv_pos_as_xyz
  1  'x, y, z'
loop_
 _atom_site_type_symbol
 _atom_site_label
 _atom_site_symmetry_multiplicity
 _atom_site_fract_x
 _atom_site_fract_y
 _atom_site_fract_z
 _atom_site_occupancy
  Pr  Pr0  1  0.648277  0.241821  0.283963  1
  Pr  Pr1  1  0.009742  0.190714  0.414959  1
  Pr  Pr2  1  0.222601  0.670470  0.986972  1
  Pr  Pr3  1  0.257466  0.983117  0.890556  1
  Pr  Pr4  1  0.353738  0.759504  0.715671  1
  Pr  Pr5  1  0.943900  0.491821  0.677757  1
  Pr  Pr6  1  0.744157  0.018308  0.111304  1
  Pr  Pr7  1  0.149814  0.287542  0.152354  1
  Pr  Pr8  1  0.778794  0.329629  0.014270  1
  Pr  Pr9  1  0.849505  0.712245  0.848560  1
  Nd  Nd10  1  0.052808  0.504504  0.320102  1
  Nd  Nd11  1  0.990638  0.809593  0.584458  1
  Fe  Fe12  1  0.896322  0.262144  0.214566  1
  Co  Co13  1  0.103973  0.738276  0.784994  1
  I  I14  1  0.787102  0.531363  0.418295  1
  I  I15  1  0.641868  0.419347  0.759039  1
  I  I16  1  0.844189  0.893852  0.328072  1
  I  I17  1  0.326873  0.212440  0.370921  1
  I  I18  1  0.154863  0.102036  0.673683  1
  I  I19  1  0.586648  0.052677  0.842874  1
  I  I20  1  0.757666  0.186355  0.540354  1
  I  I21  1  0.549228  0.706808  0.953314  1
  I  I22  1  0.356058  0.582504  0.240825  1
  I  I23  1  0.215265  0.472124  0.581350  1
  I  I24  1  0.055819  0.367747  0.896219  1
  I  I25  1  0.449261  0.289970  0.044253  1
  I  I26  1  0.999619  0.999566  0.999180  1
  I  I27  1  0.239522  0.813741  0.461157  1
  I  I28  1  0.411108  0.946800  0.156276  1
  I  I29  1  0.675301  0.788638  0.629324  1
  I  I30  1  0.947878  0.634347  0.104380  1
