# generated using pymatgen
data_PrVCo(PRh)3
_symmetry_space_group_name_H-M   'P 1'
_cell_length_a   3.85578500
_cell_length_b   10.83214600
_cell_length_c   12.52604700
_cell_angle_alpha   90.00000000
_cell_angle_beta   90.00000000
_cell_angle_gamma   90.00000000
_symmetry_Int_Tables_number   1
_chemical_formula_structural   PrVCo(PRh)3
_chemical_formula_sum   'Pr4 V4 Co4 P12 Rh12'
_cell_volume   523.16821591
_cell_formula_units_Z   4
loop_
 _symmetry_equiv_pos_site_id
 _symmetry_equiv_pos_as_xyz
  1  'x, y, z'
loop_
 _atom_site_type_symbol
 _atom_site_label
 _atom_site_symmetry_multiplicity
 _atom_site_fract_x
 _atom_site_fract_y
 _atom_site_fract_z
 _atom_site_occupancy
  Pr  Pr0  1  0.250000  0.581854  0.706529  1
  Pr  Pr1  1  0.250000  0.918146  0.206529  1
  Pr  Pr2  1  0.750000  0.418146  0.293471  1
  Pr  Pr3  1  0.750000  0.081854  0.793471  1
  V  V4  1  0.250000  0.702726  0.986582  1
  V  V5  1  0.250000  0.797274  0.486582  1
  V  V6  1  0.750000  0.297274  0.013418  1
  V  V7  1  0.750000  0.202726  0.513418  1
  Co  Co8  1  0.250000  0.466479  0.937693  1
  Co  Co9  1  0.250000  0.033521  0.437693  1
  Co  Co10  1  0.750000  0.533521  0.062307  1
  Co  Co11  1  0.750000  0.966479  0.562307  1
  P  P12  1  0.250000  0.421658  0.106142  1
  P  P13  1  0.250000  0.078342  0.606142  1
  P  P14  1  0.750000  0.578342  0.893858  1
  P  P15  1  0.750000  0.921658  0.393858  1
  P  P16  1  0.250000  0.273313  0.875057  1
  P  P17  1  0.250000  0.226687  0.375057  1
  P  P18  1  0.750000  0.726687  0.124943  1
  P  P19  1  0.750000  0.773313  0.624943  1
  P  P20  1  0.250000  0.605904  0.393246  1
  P  P21  1  0.250000  0.894096  0.893246  1
  P  P22  1  0.750000  0.394096  0.606754  1
  P  P23  1  0.750000  0.105904  0.106754  1
  Rh  Rh24  1  0.250000  0.403905  0.488285  1
  Rh  Rh25  1  0.250000  0.096095  0.988285  1
  Rh  Rh26  1  0.750000  0.596095  0.511715  1
  Rh  Rh27  1  0.750000  0.903905  0.011715  1
  Rh  Rh28  1  0.250000  0.226957  0.179616  1
  Rh  Rh29  1  0.250000  0.273043  0.679616  1
  Rh  Rh30  1  0.750000  0.773043  0.820384  1
  Rh  Rh31  1  0.750000  0.726957  0.320384  1
  Rh  Rh32  1  0.250000  0.887020  0.694690  1
  Rh  Rh33  1  0.250000  0.612980  0.194690  1
  Rh  Rh34  1  0.750000  0.112980  0.305310  1
  Rh  Rh35  1  0.750000  0.387020  0.805310  1
