# generated using pymatgen
data_HfZr17(Si8W)2
_symmetry_space_group_name_H-M   'P 1'
_cell_length_a   7.07451213
_cell_length_b   7.07533131
_cell_length_c   12.95705558
_cell_angle_alpha   90.03277840
_cell_angle_beta   89.98954661
_cell_angle_gamma   89.92800051
_symmetry_Int_Tables_number   1
_chemical_formula_structural   HfZr17(Si8W)2
_chemical_formula_sum   'Hf1 Zr17 Si16 W2'
_cell_volume   648.55853187
_cell_formula_units_Z   1
loop_
 _symmetry_equiv_pos_site_id
 _symmetry_equiv_pos_as_xyz
  1  'x, y, z'
loop_
 _atom_site_type_symbol
 _atom_site_label
 _atom_site_symmetry_multiplicity
 _atom_site_fract_x
 _atom_site_fract_y
 _atom_site_fract_z
 _atom_site_occupancy
  Hf  Hf0  1  0.997193  0.146760  0.624622  1
  Zr  Zr1  1  0.824682  0.824406  0.500182  1
  Zr  Zr2  1  0.175437  0.175403  0.999806  1
  Zr  Zr3  1  0.497086  0.150919  0.533498  1
  Zr  Zr4  1  0.502351  0.849075  0.033665  1
  Zr  Zr5  1  0.651648  0.000688  0.284461  1
  Zr  Zr6  1  0.347826  0.999636  0.783554  1
  Zr  Zr7  1  0.849166  0.502101  0.966078  1
  Zr  Zr8  1  0.150962  0.497304  0.466836  1
  Zr  Zr9  1  0.000674  0.652842  0.716026  1
  Zr  Zr10  1  0.999479  0.348279  0.215875  1
  Zr  Zr11  1  0.497571  0.355711  0.126764  1
  Zr  Zr12  1  0.502025  0.644238  0.626847  1
  Zr  Zr13  1  0.853898  0.001789  0.875080  1
  Zr  Zr14  1  0.146676  0.998377  0.375931  1
  Zr  Zr15  1  0.644595  0.502041  0.373447  1
  Zr  Zr16  1  0.355844  0.497140  0.872698  1
  Zr  Zr17  1  0.001773  0.853583  0.124667  1
  Si  Si18  1  0.794726  0.146381  0.071115  1
  Si  Si19  1  0.204926  0.855180  0.572050  1
  Si  Si20  1  0.647408  0.701370  0.821318  1
  Si  Si21  1  0.352801  0.298638  0.321483  1
  Si  Si22  1  0.853709  0.204816  0.429725  1
  Si  Si23  1  0.146695  0.794462  0.928658  1
  Si  Si24  1  0.701218  0.647461  0.178738  1
  Si  Si25  1  0.296920  0.352753  0.677848  1
  Si  Si26  1  0.554014  0.202212  0.933873  1
  Si  Si27  1  0.446199  0.797574  0.434189  1
  Si  Si28  1  0.696567  0.957392  0.686672  1
  Si  Si29  1  0.303935  0.043191  0.187351  1
  Si  Si30  1  0.797831  0.445689  0.566318  1
  Si  Si31  1  0.202419  0.553930  0.065821  1
  Si  Si32  1  0.957274  0.695928  0.312973  1
  Si  Si33  1  0.043374  0.303541  0.812138  1
  W  W34  1  0.675883  0.324136  0.749578  1
  W  W35  1  0.325213  0.675055  0.250117  1
