# generated using pymatgen
data_V2Cr(SeS)2
_symmetry_space_group_name_H-M   'P 1'
_cell_length_a   6.71802475
_cell_length_b   6.71802492
_cell_length_c   6.04509633
_cell_angle_alpha   63.80289358
_cell_angle_beta   63.80289321
_cell_angle_gamma   29.25558901
_symmetry_Int_Tables_number   1
_chemical_formula_structural   V2Cr(SeS)2
_chemical_formula_sum   'V2 Cr1 Se2 S2'
_cell_volume   118.64577013
_cell_formula_units_Z   1
loop_
 _symmetry_equiv_pos_site_id
 _symmetry_equiv_pos_as_xyz
  1  'x, y, z'
loop_
 _atom_site_type_symbol
 _atom_site_label
 _atom_site_symmetry_multiplicity
 _atom_site_fract_x
 _atom_site_fract_y
 _atom_site_fract_z
 _atom_site_occupancy
  V  V0  1  0.740700  0.740700  0.332321  1
  V  V1  1  0.259300  0.259300  0.667679  1
  Cr  Cr2  1  0.000000  0.000000  0.000000  1
  Se  Se3  1  0.638524  0.638524  0.028290  1
  Se  Se4  1  0.361476  0.361476  0.971710  1
  S  S5  1  0.887883  0.887883  0.443591  1
  S  S6  1  0.112117  0.112117  0.556409  1
