# generated using pymatgen
data_Cs3K8Rb5TiSn3Se16
_symmetry_space_group_name_H-M   'P 1'
_cell_length_a   8.36471222
_cell_length_b   10.64966152
_cell_length_c   15.87267386
_cell_angle_alpha   90.18491051
_cell_angle_beta   90.63874465
_cell_angle_gamma   90.34088436
_symmetry_Int_Tables_number   1
_chemical_formula_structural   Cs3K8Rb5TiSn3Se16
_chemical_formula_sum   'Cs3 K8 Rb5 Ti1 Sn3 Se16'
_cell_volume   1413.83871986
_cell_formula_units_Z   1
loop_
 _symmetry_equiv_pos_site_id
 _symmetry_equiv_pos_as_xyz
  1  'x, y, z'
loop_
 _atom_site_type_symbol
 _atom_site_label
 _atom_site_symmetry_multiplicity
 _atom_site_fract_x
 _atom_site_fract_y
 _atom_site_fract_z
 _atom_site_occupancy
  Cs  Cs0  1  0.999871  0.998576  0.999365  1
  Cs  Cs1  1  0.502799  0.999944  0.500353  1
  Cs  Cs2  1  0.999653  0.501718  0.999202  1
  K  K3  1  0.828855  0.054552  0.264540  1
  K  K4  1  0.327959  0.950122  0.236767  1
  K  K5  1  0.171218  0.551708  0.729666  1
  K  K6  1  0.670208  0.449105  0.764211  1
  K  K7  1  0.173754  0.941925  0.732739  1
  K  K8  1  0.670786  0.046890  0.763803  1
  K  K9  1  0.832564  0.453176  0.267818  1
  K  K10  1  0.329005  0.552923  0.236646  1
  Rb  Rb11  1  0.503158  0.500658  0.500449  1
  Rb  Rb12  1  0.980301  0.751015  0.428485  1
  Rb  Rb13  1  0.479438  0.250838  0.074696  1
  Rb  Rb14  1  0.012141  0.248895  0.573000  1
  Rb  Rb15  1  0.523379  0.749109  0.923543  1
  Ti  Ti16  1  0.774567  0.746349  0.672453  1
  Sn  Sn17  1  0.226298  0.253011  0.329870  1
  Sn  Sn18  1  0.718584  0.750896  0.174277  1
  Sn  Sn19  1  0.280057  0.249098  0.824485  1
  Se  Se20  1  0.972726  0.248414  0.816826  1
  Se  Se21  1  0.533628  0.253802  0.324527  1
  Se  Se22  1  0.485072  0.747347  0.678219  1
  Se  Se23  1  0.026183  0.751184  0.181933  1
  Se  Se24  1  0.618412  0.555567  0.096800  1
  Se  Se25  1  0.132190  0.448167  0.407821  1
  Se  Se26  1  0.380115  0.054956  0.902235  1
  Se  Se27  1  0.871053  0.930770  0.602043  1
  Se  Se28  1  0.379246  0.444835  0.902196  1
  Se  Se29  1  0.862792  0.562403  0.598624  1
  Se  Se30  1  0.617614  0.944520  0.096641  1
  Se  Se31  1  0.121772  0.057692  0.403854  1
  Se  Se32  1  0.605413  0.751293  0.325643  1
  Se  Se33  1  0.108161  0.254686  0.178059  1
  Se  Se34  1  0.394269  0.248774  0.673376  1
  Se  Se35  1  0.886756  0.745080  0.814837  1
