# generated using pymatgen
data_Yb3Dy6Tm(CuPb3)2
_symmetry_space_group_name_H-M   'P 1'
_cell_length_a   9.17996400
_cell_length_b   9.17996261
_cell_length_c   6.83859100
_cell_angle_alpha   90.00000000
_cell_angle_beta   90.00000000
_cell_angle_gamma   119.99999781
_symmetry_Int_Tables_number   1
_chemical_formula_structural   Yb3Dy6Tm(CuPb3)2
_chemical_formula_sum   'Yb3 Dy6 Tm1 Cu2 Pb6'
_cell_volume   499.09033759
_cell_formula_units_Z   1
loop_
 _symmetry_equiv_pos_site_id
 _symmetry_equiv_pos_as_xyz
  1  'x, y, z'
loop_
 _atom_site_type_symbol
 _atom_site_label
 _atom_site_symmetry_multiplicity
 _atom_site_fract_x
 _atom_site_fract_y
 _atom_site_fract_z
 _atom_site_occupancy
  Yb  Yb0  1  0.333333  0.666667  0.500000  1
  Yb  Yb1  1  0.666667  0.333333  0.500000  1
  Yb  Yb2  1  0.666667  0.333333  0.000000  1
  Dy  Dy3  1  0.253993  0.000064  0.749012  1
  Dy  Dy4  1  0.746071  0.000064  0.250988  1
  Dy  Dy5  1  0.999936  0.253929  0.749012  1
  Dy  Dy6  1  0.999936  0.746007  0.250988  1
  Dy  Dy7  1  0.746071  0.746007  0.749012  1
  Dy  Dy8  1  0.253993  0.253929  0.250988  1
  Tm  Tm9  1  0.333333  0.666667  0.000000  1
  Cu  Cu10  1  0.000000  0.000000  0.500000  1
  Cu  Cu11  1  0.000000  0.000000  0.000000  1
  Pb  Pb12  1  0.608819  0.997697  0.753415  1
  Pb  Pb13  1  0.388878  0.997697  0.246585  1
  Pb  Pb14  1  0.002303  0.611122  0.753415  1
  Pb  Pb15  1  0.002303  0.391181  0.246585  1
  Pb  Pb16  1  0.388878  0.391181  0.753415  1
  Pb  Pb17  1  0.608819  0.611122  0.246585  1
