# generated using pymatgen
data_Eu5Hf3(Ni4P3)4
_symmetry_space_group_name_H-M   'P 1'
_cell_length_a   12.43691500
_cell_length_b   12.43691359
_cell_length_c   3.84425200
_cell_angle_alpha   90.00000000
_cell_angle_beta   90.00000000
_cell_angle_gamma   120.00000108
_symmetry_Int_Tables_number   1
_chemical_formula_structural   Eu5Hf3(Ni4P3)4
_chemical_formula_sum   'Eu5 Hf3 Ni16 P12'
_cell_volume   514.95319752
_cell_formula_units_Z   1
loop_
 _symmetry_equiv_pos_site_id
 _symmetry_equiv_pos_as_xyz
  1  'x, y, z'
loop_
 _atom_site_type_symbol
 _atom_site_label
 _atom_site_symmetry_multiplicity
 _atom_site_fract_x
 _atom_site_fract_y
 _atom_site_fract_z
 _atom_site_occupancy
  Eu  Eu0  1  0.185596  0.185596  0.500000  1
  Eu  Eu1  1  0.814404  0.000000  0.500000  1
  Eu  Eu2  1  0.000000  0.814404  0.500000  1
  Eu  Eu3  1  0.333333  0.666667  0.000000  1
  Eu  Eu4  1  0.666667  0.333333  0.000000  1
  Hf  Hf5  1  0.565864  0.565864  0.000000  1
  Hf  Hf6  1  0.434136  0.000000  0.000000  1
  Hf  Hf7  1  0.000000  0.434136  0.000000  1
  Ni  Ni8  1  0.723006  0.723006  0.500000  1
  Ni  Ni9  1  0.276994  0.000000  0.500000  1
  Ni  Ni10  1  0.000000  0.276994  0.500000  1
  Ni  Ni11  1  0.187088  0.380128  0.000000  1
  Ni  Ni12  1  0.619872  0.806960  0.000000  1
  Ni  Ni13  1  0.193040  0.812912  0.000000  1
  Ni  Ni14  1  0.806960  0.619872  0.000000  1
  Ni  Ni15  1  0.812912  0.193040  0.000000  1
  Ni  Ni16  1  0.380128  0.187088  0.000000  1
  Ni  Ni17  1  0.363797  0.484666  0.500000  1
  Ni  Ni18  1  0.515334  0.879132  0.500000  1
  Ni  Ni19  1  0.120868  0.636203  0.500000  1
  Ni  Ni20  1  0.879132  0.515334  0.500000  1
  Ni  Ni21  1  0.636203  0.120868  0.500000  1
  Ni  Ni22  1  0.484666  0.363797  0.500000  1
  Ni  Ni23  1  0.000000  0.000000  0.000000  1
  P  P24  1  0.819812  0.819812  0.000000  1
  P  P25  1  0.180188  0.000000  0.000000  1
  P  P26  1  0.000000  0.180188  0.000000  1
  P  P27  1  0.169986  0.473752  0.500000  1
  P  P28  1  0.526248  0.696234  0.500000  1
  P  P29  1  0.303766  0.830014  0.500000  1
  P  P30  1  0.696234  0.526248  0.500000  1
  P  P31  1  0.830014  0.303766  0.500000  1
  P  P32  1  0.473752  0.169986  0.500000  1
  P  P33  1  0.359974  0.359974  0.000000  1
  P  P34  1  0.640026  0.000000  0.000000  1
  P  P35  1  0.000000  0.640026  0.000000  1
