# generated using pymatgen
data_Tb8Y4Co4CuBi
_symmetry_space_group_name_H-M   'P 1'
_cell_length_a   8.38455181
_cell_length_b   8.38455284
_cell_length_c   8.38455209
_cell_angle_alpha   111.30408148
_cell_angle_beta   109.76065025
_cell_angle_gamma   107.37298383
_symmetry_Int_Tables_number   1
_chemical_formula_structural   Tb8Y4Co4CuBi
_chemical_formula_sum   'Tb8 Y4 Co4 Cu1 Bi1'
_cell_volume   453.21126674
_cell_formula_units_Z   1
loop_
 _symmetry_equiv_pos_site_id
 _symmetry_equiv_pos_as_xyz
  1  'x, y, z'
loop_
 _atom_site_type_symbol
 _atom_site_label
 _atom_site_symmetry_multiplicity
 _atom_site_fract_x
 _atom_site_fract_y
 _atom_site_fract_z
 _atom_site_occupancy
  Tb  Tb0  1  0.686121  0.377417  0.691296  1
  Tb  Tb1  1  0.313879  0.622583  0.308704  1
  Tb  Tb2  1  0.686121  0.994826  0.308704  1
  Tb  Tb3  1  0.313879  0.005174  0.691296  1
  Tb  Tb4  1  0.588887  0.790245  0.798643  1
  Tb  Tb5  1  0.411113  0.209755  0.201357  1
  Tb  Tb6  1  0.991601  0.790245  0.201357  1
  Tb  Tb7  1  0.008399  0.209755  0.798643  1
  Y  Y8  1  0.816603  0.709209  0.525811  1
  Y  Y9  1  0.183397  0.290791  0.474189  1
  Y  Y10  1  0.183397  0.709209  0.892607  1
  Y  Y11  1  0.816603  0.290791  0.107393  1
  Co  Co12  1  0.623486  0.000000  0.623486  1
  Co  Co13  1  0.376514  0.000000  0.376514  1
  Co  Co14  1  0.112105  0.612105  0.500000  1
  Co  Co15  1  0.887895  0.387895  0.500000  1
  Cu  Cu16  1  0.000000  0.000000  0.000000  1
  Bi  Bi17  1  0.500000  0.500000  0.000000  1
