# generated using pymatgen
data_Tb9Dy(Ir2Ru)2
_symmetry_space_group_name_H-M   'P 1'
_cell_length_a   10.88727100
_cell_length_b   10.88727100
_cell_length_c   6.43931500
_cell_angle_alpha   90.00000000
_cell_angle_beta   90.00000000
_cell_angle_gamma   90.00000000
_symmetry_Int_Tables_number   1
_chemical_formula_structural   Tb9Dy(Ir2Ru)2
_chemical_formula_sum   'Tb18 Dy2 Ir8 Ru4'
_cell_volume   763.26919881
_cell_formula_units_Z   2
loop_
 _symmetry_equiv_pos_site_id
 _symmetry_equiv_pos_as_xyz
  1  'x, y, z'
loop_
 _atom_site_type_symbol
 _atom_site_label
 _atom_site_symmetry_multiplicity
 _atom_site_fract_x
 _atom_site_fract_y
 _atom_site_fract_z
 _atom_site_occupancy
  Tb  Tb0  1  0.293483  0.086901  0.378928  1
  Tb  Tb1  1  0.293483  0.913099  0.878928  1
  Tb  Tb2  1  0.706517  0.086901  0.878928  1
  Tb  Tb3  1  0.706517  0.913099  0.378928  1
  Tb  Tb4  1  0.586898  0.793318  0.878867  1
  Tb  Tb5  1  0.586898  0.206682  0.378867  1
  Tb  Tb6  1  0.413102  0.793318  0.378867  1
  Tb  Tb7  1  0.413102  0.206682  0.878867  1
  Tb  Tb8  1  0.206682  0.413102  0.621133  1
  Tb  Tb9  1  0.206682  0.586898  0.121133  1
  Tb  Tb10  1  0.793318  0.413102  0.121133  1
  Tb  Tb11  1  0.793318  0.586898  0.621133  1
  Tb  Tb12  1  0.913099  0.706517  0.121072  1
  Tb  Tb13  1  0.913099  0.293483  0.621072  1
  Tb  Tb14  1  0.086901  0.706517  0.621072  1
  Tb  Tb15  1  0.086901  0.293483  0.121072  1
  Tb  Tb16  1  0.000000  0.000000  0.500000  1
  Tb  Tb17  1  0.000000  0.000000  0.000000  1
  Dy  Dy18  1  0.500000  0.500000  0.000000  1
  Dy  Dy19  1  0.500000  0.500000  0.500000  1
  Ir  Ir20  1  0.847413  0.152587  0.250000  1
  Ir  Ir21  1  0.847413  0.847413  0.750000  1
  Ir  Ir22  1  0.152587  0.152587  0.750000  1
  Ir  Ir23  1  0.152587  0.847413  0.250000  1
  Ir  Ir24  1  0.652281  0.347719  0.750000  1
  Ir  Ir25  1  0.652281  0.652281  0.250000  1
  Ir  Ir26  1  0.347719  0.347719  0.250000  1
  Ir  Ir27  1  0.347719  0.652281  0.750000  1
  Ru  Ru28  1  0.500000  0.000000  0.123305  1
  Ru  Ru29  1  0.500000  0.000000  0.623305  1
  Ru  Ru30  1  0.000000  0.500000  0.876695  1
  Ru  Ru31  1  0.000000  0.500000  0.376695  1
