# generated using pymatgen
data_Dy8Sc12Ga6Si9As
_symmetry_space_group_name_H-M   'P 1'
_cell_length_a   7.16442128
_cell_length_b   7.41715601
_cell_length_c   14.19081903
_cell_angle_alpha   90.00037954
_cell_angle_beta   89.87852801
_cell_angle_gamma   90.39816869
_symmetry_Int_Tables_number   1
_chemical_formula_structural   Dy8Sc12Ga6Si9As
_chemical_formula_sum   'Dy8 Sc12 Ga6 Si9 As1'
_cell_volume   754.07497361
_cell_formula_units_Z   1
loop_
 _symmetry_equiv_pos_site_id
 _symmetry_equiv_pos_as_xyz
  1  'x, y, z'
loop_
 _atom_site_type_symbol
 _atom_site_label
 _atom_site_symmetry_multiplicity
 _atom_site_fract_x
 _atom_site_fract_y
 _atom_site_fract_z
 _atom_site_occupancy
  Dy  Dy0  1  0.012691  0.173108  0.097629  1
  Dy  Dy1  1  0.989344  0.825971  0.900989  1
  Dy  Dy2  1  0.489279  0.676688  0.902164  1
  Dy  Dy3  1  0.991099  0.825038  0.601365  1
  Dy  Dy4  1  0.511932  0.322027  0.098565  1
  Dy  Dy5  1  0.010487  0.174196  0.399830  1
  Dy  Dy6  1  0.510469  0.325278  0.399411  1
  Dy  Dy7  1  0.490750  0.673710  0.599943  1
  Sc  Sc8  1  0.162591  0.502867  0.750205  1
  Sc  Sc9  1  0.836043  0.499533  0.249863  1
  Sc  Sc10  1  0.335528  0.001115  0.249186  1
  Sc  Sc11  1  0.659464  0.998374  0.750695  1
  Sc  Sc12  1  0.332014  0.172239  0.627905  1
  Sc  Sc13  1  0.668820  0.826634  0.373137  1
  Sc  Sc14  1  0.169105  0.673421  0.372910  1
  Sc  Sc15  1  0.667937  0.825496  0.125640  1
  Sc  Sc16  1  0.827257  0.329695  0.626024  1
  Sc  Sc17  1  0.332773  0.173182  0.873335  1
  Sc  Sc18  1  0.823541  0.327772  0.875997  1
  Sc  Sc19  1  0.173260  0.675291  0.124804  1
  Ga  Ga20  1  0.160405  0.461443  0.539734  1
  Ga  Ga21  1  0.839388  0.538411  0.460321  1
  Ga  Ga22  1  0.339045  0.962110  0.460944  1
  Ga  Ga23  1  0.840106  0.539549  0.039622  1
  Ga  Ga24  1  0.661416  0.038625  0.539522  1
  Ga  Ga25  1  0.159573  0.460153  0.960490  1
  Si  Si26  1  0.966833  0.883846  0.248476  1
  Si  Si27  1  0.466206  0.614391  0.248850  1
  Si  Si28  1  0.531364  0.384029  0.751231  1
  Si  Si29  1  0.297599  0.861029  0.751533  1
  Si  Si30  1  0.715038  0.126718  0.248418  1
  Si  Si31  1  0.214017  0.373277  0.248477  1
  Si  Si32  1  0.788103  0.628964  0.751622  1
  Si  Si33  1  0.655379  0.036595  0.962052  1
  Si  Si34  1  0.345241  0.964407  0.037852  1
  As  As35  1  0.025902  0.124817  0.751260  1
