# generated using pymatgen
data_Tb4HoIr2Ru
_symmetry_space_group_name_H-M   'P 1'
_cell_length_a   10.86290900
_cell_length_b   10.86290900
_cell_length_c   6.43716400
_cell_angle_alpha   90.00000000
_cell_angle_beta   90.00000000
_cell_angle_gamma   90.00000000
_symmetry_Int_Tables_number   1
_chemical_formula_structural   Tb4HoIr2Ru
_chemical_formula_sum   'Tb16 Ho4 Ir8 Ru4'
_cell_volume   759.60332419
_cell_formula_units_Z   4
loop_
 _symmetry_equiv_pos_site_id
 _symmetry_equiv_pos_as_xyz
  1  'x, y, z'
loop_
 _atom_site_type_symbol
 _atom_site_label
 _atom_site_symmetry_multiplicity
 _atom_site_fract_x
 _atom_site_fract_y
 _atom_site_fract_z
 _atom_site_occupancy
  Tb  Tb0  1  0.292970  0.086602  0.377996  1
  Tb  Tb1  1  0.292970  0.913398  0.877996  1
  Tb  Tb2  1  0.707030  0.086602  0.877996  1
  Tb  Tb3  1  0.707030  0.913398  0.377996  1
  Tb  Tb4  1  0.586602  0.792970  0.877996  1
  Tb  Tb5  1  0.586602  0.207030  0.377996  1
  Tb  Tb6  1  0.413398  0.792970  0.377996  1
  Tb  Tb7  1  0.413398  0.207030  0.877996  1
  Tb  Tb8  1  0.207030  0.413398  0.622004  1
  Tb  Tb9  1  0.207030  0.586602  0.122004  1
  Tb  Tb10  1  0.792970  0.413398  0.122004  1
  Tb  Tb11  1  0.792970  0.586602  0.622004  1
  Tb  Tb12  1  0.913398  0.707030  0.122004  1
  Tb  Tb13  1  0.913398  0.292970  0.622004  1
  Tb  Tb14  1  0.086602  0.707030  0.622004  1
  Tb  Tb15  1  0.086602  0.292970  0.122004  1
  Ho  Ho16  1  0.000000  0.000000  0.500000  1
  Ho  Ho17  1  0.000000  0.000000  0.000000  1
  Ho  Ho18  1  0.500000  0.500000  0.000000  1
  Ho  Ho19  1  0.500000  0.500000  0.500000  1
  Ir  Ir20  1  0.848331  0.151669  0.250000  1
  Ir  Ir21  1  0.848331  0.848331  0.750000  1
  Ir  Ir22  1  0.151669  0.151669  0.750000  1
  Ir  Ir23  1  0.151669  0.848331  0.250000  1
  Ir  Ir24  1  0.651669  0.348331  0.750000  1
  Ir  Ir25  1  0.651669  0.651669  0.250000  1
  Ir  Ir26  1  0.348331  0.348331  0.250000  1
  Ir  Ir27  1  0.348331  0.651669  0.750000  1
  Ru  Ru28  1  0.500000  0.000000  0.121488  1
  Ru  Ru29  1  0.500000  0.000000  0.621488  1
  Ru  Ru30  1  0.000000  0.500000  0.878512  1
  Ru  Ru31  1  0.000000  0.500000  0.378512  1
