# generated using pymatgen
data_YbHoTm6(B6Ru)4
_symmetry_space_group_name_H-M   'P 1'
_cell_length_a   3.62337900
_cell_length_b   9.07812546
_cell_length_c   11.45929100
_cell_angle_alpha   89.92775908
_cell_angle_beta   90.00000000
_cell_angle_gamma   90.00000000
_symmetry_Int_Tables_number   1
_chemical_formula_structural   YbHoTm6(B6Ru)4
_chemical_formula_sum   'Yb1 Ho1 Tm6 B24 Ru4'
_cell_volume   376.93576460
_cell_formula_units_Z   1
loop_
 _symmetry_equiv_pos_site_id
 _symmetry_equiv_pos_as_xyz
  1  'x, y, z'
loop_
 _atom_site_type_symbol
 _atom_site_label
 _atom_site_symmetry_multiplicity
 _atom_site_fract_x
 _atom_site_fract_y
 _atom_site_fract_z
 _atom_site_occupancy
  Yb  Yb0  1  0.000000  0.323303  0.413648  1
  Ho  Ho1  1  0.000000  0.676192  0.585113  1
  Tm  Tm2  1  0.000000  0.822111  0.086164  1
  Tm  Tm3  1  0.000000  0.178502  0.914766  1
  Tm  Tm4  1  0.000000  0.944082  0.371210  1
  Tm  Tm5  1  0.000000  0.057810  0.628011  1
  Tm  Tm6  1  0.000000  0.443100  0.129081  1
  Tm  Tm7  1  0.000000  0.556030  0.872495  1
  B  B8  1  0.500000  0.554049  0.432549  1
  B  B9  1  0.500000  0.445693  0.567344  1
  B  B10  1  0.500000  0.053175  0.066178  1
  B  B11  1  0.500000  0.946087  0.933057  1
  B  B12  1  0.500000  0.749063  0.419180  1
  B  B13  1  0.500000  0.251312  0.580945  1
  B  B14  1  0.500000  0.248051  0.080068  1
  B  B15  1  0.500000  0.751313  0.920087  1
  B  B16  1  0.500000  0.792007  0.265398  1
  B  B17  1  0.500000  0.208965  0.734828  1
  B  B18  1  0.500000  0.290454  0.233608  1
  B  B19  1  0.500000  0.708756  0.766313  1
  B  B20  1  0.500000  0.631885  0.185094  1
  B  B21  1  0.500000  0.368511  0.815842  1
  B  B22  1  0.500000  0.130784  0.314317  1
  B  B23  1  0.500000  0.869041  0.684910  1
  B  B24  1  0.500000  0.982436  0.211717  1
  B  B25  1  0.500000  0.017577  0.787468  1
  B  B26  1  0.500000  0.483367  0.287227  1
  B  B27  1  0.500000  0.516816  0.713106  1
  B  B28  1  0.500000  0.607272  0.029742  1
  B  B29  1  0.500000  0.392941  0.970861  1
  B  B30  1  0.500000  0.102950  0.471542  1
  B  B31  1  0.500000  0.896014  0.528667  1
  Ru  Ru32  1  0.000000  0.639830  0.319844  1
  Ru  Ru33  1  0.000000  0.361524  0.680880  1
  Ru  Ru34  1  0.000000  0.136734  0.177491  1
  Ru  Ru35  1  0.000000  0.862263  0.821247  1
