# generated using pymatgen
data_Er4Lu8Co3Tc
_symmetry_space_group_name_H-M   'P 1'
_cell_length_a   6.18495646
_cell_length_b   7.01642617
_cell_length_c   8.97888700
_cell_angle_alpha   90.00000000
_cell_angle_beta   90.00000000
_cell_angle_gamma   90.00336594
_symmetry_Int_Tables_number   1
_chemical_formula_structural   Er4Lu8Co3Tc
_chemical_formula_sum   'Er4 Lu8 Co3 Tc1'
_cell_volume   389.65038696
_cell_formula_units_Z   1
loop_
 _symmetry_equiv_pos_site_id
 _symmetry_equiv_pos_as_xyz
  1  'x, y, z'
loop_
 _atom_site_type_symbol
 _atom_site_label
 _atom_site_symmetry_multiplicity
 _atom_site_fract_x
 _atom_site_fract_y
 _atom_site_fract_z
 _atom_site_occupancy
  Er  Er0  1  0.862508  0.534850  0.250000  1
  Er  Er1  1  0.619159  0.043567  0.250000  1
  Er  Er2  1  0.134949  0.458464  0.750000  1
  Er  Er3  1  0.365912  0.954775  0.750000  1
  Lu  Lu4  1  0.326561  0.673300  0.064795  1
  Lu  Lu5  1  0.175622  0.180971  0.436810  1
  Lu  Lu6  1  0.676601  0.322347  0.567104  1
  Lu  Lu7  1  0.830471  0.826400  0.936435  1
  Lu  Lu8  1  0.676601  0.322347  0.932896  1
  Lu  Lu9  1  0.830471  0.826400  0.563565  1
  Lu  Lu10  1  0.326561  0.673300  0.435205  1
  Lu  Lu11  1  0.175622  0.180971  0.063190  1
  Co  Co12  1  0.459565  0.387257  0.250000  1
  Co  Co13  1  0.962688  0.114562  0.750000  1
  Co  Co14  1  0.541849  0.610602  0.750000  1
  Tc  Tc15  1  0.034860  0.889887  0.250000  1
