# generated using pymatgen
data_DyYGa6(NiAg)2
_symmetry_space_group_name_H-M   'P 1'
_cell_length_a   4.09455700
_cell_length_b   6.52172000
_cell_length_c   8.01919700
_cell_angle_alpha   90.00000000
_cell_angle_beta   104.79118646
_cell_angle_gamma   90.00000000
_symmetry_Int_Tables_number   1
_chemical_formula_structural   DyYGa6(NiAg)2
_chemical_formula_sum   'Dy1 Y1 Ga6 Ni2 Ag2'
_cell_volume   207.04499979
_cell_formula_units_Z   1
loop_
 _symmetry_equiv_pos_site_id
 _symmetry_equiv_pos_as_xyz
  1  'x, y, z'
loop_
 _atom_site_type_symbol
 _atom_site_label
 _atom_site_symmetry_multiplicity
 _atom_site_fract_x
 _atom_site_fract_y
 _atom_site_fract_z
 _atom_site_occupancy
  Dy  Dy0  1  0.627229  0.250000  0.254457  1
  Y  Y1  1  0.372795  0.750000  0.745591  1
  Ga  Ga2  1  0.569516  0.750000  0.139033  1
  Ga  Ga3  1  0.430506  0.250000  0.861012  1
  Ga  Ga4  1  0.185221  0.550266  0.370440  1
  Ga  Ga5  1  0.814761  0.449703  0.629523  1
  Ga  Ga6  1  0.185221  0.949734  0.370440  1
  Ga  Ga7  1  0.814761  0.050297  0.629523  1
  Ni  Ni8  1  0.723075  0.750000  0.446152  1
  Ni  Ni9  1  0.276893  0.250000  0.553785  1
  Ag  Ag10  1  0.000011  0.499973  0.000022  1
  Ag  Ag11  1  0.000011  0.000027  0.000022  1
