# generated using pymatgen
data_HfZr3As4
_symmetry_space_group_name_H-M   'P 1'
_cell_length_a   3.82565000
_cell_length_b   3.82564906
_cell_length_c   12.94950500
_cell_angle_alpha   90.00000000
_cell_angle_beta   90.00000000
_cell_angle_gamma   120.00000813
_symmetry_Int_Tables_number   1
_chemical_formula_structural   HfZr3As4
_chemical_formula_sum   'Hf1 Zr3 As4'
_cell_volume   164.13232700
_cell_formula_units_Z   1
loop_
 _symmetry_equiv_pos_site_id
 _symmetry_equiv_pos_as_xyz
  1  'x, y, z'
loop_
 _atom_site_type_symbol
 _atom_site_label
 _atom_site_symmetry_multiplicity
 _atom_site_fract_x
 _atom_site_fract_y
 _atom_site_fract_z
 _atom_site_occupancy
  Hf  Hf0  1  0.333333  0.666667  0.117342  1
  Zr  Zr1  1  0.333333  0.666667  0.383067  1
  Zr  Zr2  1  0.666667  0.333333  0.883326  1
  Zr  Zr3  1  0.666667  0.333333  0.616252  1
  As  As4  1  0.666667  0.333333  0.247518  1
  As  As5  1  0.333333  0.666667  0.750200  1
  As  As6  1  0.000000  0.000000  0.499853  1
  As  As7  1  0.000000  0.000000  0.002442  1
