# generated using pymatgen
data_U4Te3N4
_symmetry_space_group_name_H-M   'P 1'
_cell_length_a   3.87768825
_cell_length_b   3.87768856
_cell_length_c   14.88059626
_cell_angle_alpha   97.48654340
_cell_angle_beta   97.48654424
_cell_angle_gamma   89.99999567
_symmetry_Int_Tables_number   1
_chemical_formula_structural   U4Te3N4
_chemical_formula_sum   'U4 Te3 N4'
_cell_volume   219.92031234
_cell_formula_units_Z   1
loop_
 _symmetry_equiv_pos_site_id
 _symmetry_equiv_pos_as_xyz
  1  'x, y, z'
loop_
 _atom_site_type_symbol
 _atom_site_label
 _atom_site_symmetry_multiplicity
 _atom_site_fract_x
 _atom_site_fract_y
 _atom_site_fract_z
 _atom_site_occupancy
  U  U0  1  0.570006  0.570006  0.140013  1
  U  U1  1  0.148754  0.148754  0.297509  1
  U  U2  1  0.851244  0.851244  0.702491  1
  U  U3  1  0.429993  0.429993  0.859986  1
  Te  Te4  1  0.000000  0.000000  0.000000  1
  Te  Te5  1  0.706196  0.706196  0.412394  1
  Te  Te6  1  0.293803  0.293803  0.587606  1
  N  N7  1  0.607475  0.107476  0.214954  1
  N  N8  1  0.107476  0.607475  0.214954  1
  N  N9  1  0.892523  0.392524  0.785047  1
  N  N10  1  0.392524  0.892523  0.785047  1
