# generated using pymatgen
data_La20Ir7Pt5
_symmetry_space_group_name_H-M   'P 1'
_cell_length_a   11.53915066
_cell_length_b   11.53915066
_cell_length_c   6.65314453
_cell_angle_alpha   90.03247562
_cell_angle_beta   90.03247562
_cell_angle_gamma   89.97863451
_symmetry_Int_Tables_number   1
_chemical_formula_structural   La20Ir7Pt5
_chemical_formula_sum   'La20 Ir7 Pt5'
_cell_volume   885.87914191
_cell_formula_units_Z   1
loop_
 _symmetry_equiv_pos_site_id
 _symmetry_equiv_pos_as_xyz
  1  'x, y, z'
loop_
 _atom_site_type_symbol
 _atom_site_label
 _atom_site_symmetry_multiplicity
 _atom_site_fract_x
 _atom_site_fract_y
 _atom_site_fract_z
 _atom_site_occupancy
  La  La0  1  0.295575  0.092689  0.380582  1
  La  La1  1  0.295861  0.906814  0.880099  1
  La  La2  1  0.704555  0.088911  0.880557  1
  La  La3  1  0.704032  0.906701  0.380217  1
  La  La4  1  0.588770  0.791148  0.887203  1
  La  La5  1  0.587214  0.205533  0.381653  1
  La  La6  1  0.410897  0.792248  0.387112  1
  La  La7  1  0.408675  0.207027  0.887992  1
  La  La8  1  0.208852  0.411230  0.612797  1
  La  La9  1  0.207752  0.589103  0.112888  1
  La  La10  1  0.794467  0.412786  0.118347  1
  La  La11  1  0.792973  0.591325  0.612008  1
  La  La12  1  0.907311  0.704425  0.119418  1
  La  La13  1  0.911089  0.295445  0.619443  1
  La  La14  1  0.093186  0.704139  0.619901  1
  La  La15  1  0.093299  0.295968  0.119783  1
  La  La16  1  0.999779  0.999756  0.499590  1
  La  La17  1  0.000244  0.000221  0.000410  1
  La  La18  1  0.497795  0.501908  0.001069  1
  La  La19  1  0.498092  0.502205  0.498931  1
  Ir  Ir20  1  0.654675  0.653583  0.249873  1
  Ir  Ir21  1  0.346417  0.345325  0.250127  1
  Ir  Ir22  1  0.345036  0.654964  0.750000  1
  Ir  Ir23  1  0.500568  0.000437  0.116129  1
  Ir  Ir24  1  0.500380  0.001274  0.617136  1
  Ir  Ir25  1  0.998726  0.499620  0.882864  1
  Ir  Ir26  1  0.999563  0.499432  0.383871  1
  Pt  Pt27  1  0.845105  0.154895  0.250000  1
  Pt  Pt28  1  0.845572  0.846271  0.750183  1
  Pt  Pt29  1  0.153729  0.154428  0.749817  1
  Pt  Pt30  1  0.154330  0.845670  0.250000  1
  Pt  Pt31  1  0.655479  0.344521  0.750000  1
