# generated using pymatgen
data_Lu20Cd6RuPt
_symmetry_space_group_name_H-M   'P 1'
_cell_length_a   9.41661600
_cell_length_b   9.41661678
_cell_length_c   9.60880600
_cell_angle_alpha   90.00000000
_cell_angle_beta   90.00000000
_cell_angle_gamma   120.00000428
_symmetry_Int_Tables_number   1
_chemical_formula_structural   Lu20Cd6RuPt
_chemical_formula_sum   'Lu20 Cd6 Ru1 Pt1'
_cell_volume   737.88689218
_cell_formula_units_Z   1
loop_
 _symmetry_equiv_pos_site_id
 _symmetry_equiv_pos_as_xyz
  1  'x, y, z'
loop_
 _atom_site_type_symbol
 _atom_site_label
 _atom_site_symmetry_multiplicity
 _atom_site_fract_x
 _atom_site_fract_y
 _atom_site_fract_z
 _atom_site_occupancy
  Lu  Lu0  1  0.000000  0.000000  0.499473  1
  Lu  Lu1  1  0.000000  0.000000  0.000527  1
  Lu  Lu2  1  0.208241  0.791759  0.442465  1
  Lu  Lu3  1  0.208241  0.416482  0.442465  1
  Lu  Lu4  1  0.583518  0.791759  0.442465  1
  Lu  Lu5  1  0.790294  0.209706  0.559826  1
  Lu  Lu6  1  0.790294  0.580587  0.559826  1
  Lu  Lu7  1  0.419413  0.209706  0.559826  1
  Lu  Lu8  1  0.790294  0.209706  0.940174  1
  Lu  Lu9  1  0.790294  0.580587  0.940174  1
  Lu  Lu10  1  0.419413  0.209706  0.940174  1
  Lu  Lu11  1  0.208241  0.791759  0.057535  1
  Lu  Lu12  1  0.208241  0.416482  0.057535  1
  Lu  Lu13  1  0.583518  0.791759  0.057535  1
  Lu  Lu14  1  0.542313  0.457687  0.250000  1
  Lu  Lu15  1  0.542313  0.084625  0.250000  1
  Lu  Lu16  1  0.915375  0.457687  0.250000  1
  Lu  Lu17  1  0.459031  0.540969  0.750000  1
  Lu  Lu18  1  0.459031  0.918062  0.750000  1
  Lu  Lu19  1  0.081938  0.540969  0.750000  1
  Cd  Cd20  1  0.885353  0.114647  0.250000  1
  Cd  Cd21  1  0.885353  0.770708  0.250000  1
  Cd  Cd22  1  0.229292  0.114647  0.250000  1
  Cd  Cd23  1  0.114399  0.885601  0.750000  1
  Cd  Cd24  1  0.114399  0.228795  0.750000  1
  Cd  Cd25  1  0.771205  0.885601  0.750000  1
  Ru  Ru26  1  0.666667  0.333333  0.750000  1
  Pt  Pt27  1  0.333333  0.666667  0.250000  1
