# generated using pymatgen
data_Ho8Ta10Ti2Si15As
_symmetry_space_group_name_H-M   'P 1'
_cell_length_a   7.04088291
_cell_length_b   7.02743453
_cell_length_c   12.97079889
_cell_angle_alpha   89.96598659
_cell_angle_beta   89.87515411
_cell_angle_gamma   89.96617575
_symmetry_Int_Tables_number   1
_chemical_formula_structural   Ho8Ta10Ti2Si15As
_chemical_formula_sum   'Ho8 Ta10 Ti2 Si15 As1'
_cell_volume   641.78486757
_cell_formula_units_Z   1
loop_
 _symmetry_equiv_pos_site_id
 _symmetry_equiv_pos_as_xyz
  1  'x, y, z'
loop_
 _atom_site_type_symbol
 _atom_site_label
 _atom_site_symmetry_multiplicity
 _atom_site_fract_x
 _atom_site_fract_y
 _atom_site_fract_z
 _atom_site_occupancy
  Ho  Ho0  1  0.342477  0.001948  0.466814  1
  Ho  Ho1  1  0.498302  0.843267  0.718755  1
  Ho  Ho2  1  0.501266  0.157693  0.217918  1
  Ho  Ho3  1  0.841906  0.497955  0.282347  1
  Ho  Ho4  1  0.158235  0.500762  0.782022  1
  Ho  Ho5  1  0.659181  0.996127  0.968490  1
  Ho  Ho6  1  0.999657  0.343517  0.530751  1
  Ho  Ho7  1  0.997586  0.659149  0.032119  1
  Ta  Ta8  1  0.328822  0.329182  0.999745  1
  Ta  Ta9  1  0.172537  0.827409  0.250052  1
  Ta  Ta10  1  0.824956  0.173607  0.750131  1
  Ta  Ta11  1  0.670453  0.669949  0.499823  1
  Ta  Ta12  1  0.154777  0.008096  0.874556  1
  Ta  Ta13  1  0.493041  0.652310  0.124754  1
  Ta  Ta14  1  0.508420  0.348384  0.625223  1
  Ta  Ta15  1  0.653373  0.494883  0.876299  1
  Ta  Ta16  1  0.347133  0.507226  0.375681  1
  Ta  Ta17  1  0.846857  0.993180  0.374082  1
  Ti  Ti18  1  0.007776  0.153221  0.125927  1
  Ti  Ti19  1  0.990472  0.843277  0.624799  1
  Si  Si20  1  0.365623  0.704532  0.932250  1
  Si  Si21  1  0.633002  0.295658  0.432183  1
  Si  Si22  1  0.704203  0.364833  0.068296  1
  Si  Si23  1  0.296019  0.634797  0.568091  1
  Si  Si24  1  0.797907  0.867727  0.182160  1
  Si  Si25  1  0.134106  0.202632  0.317497  1
  Si  Si26  1  0.867112  0.797977  0.817276  1
  Si  Si27  1  0.292464  0.954867  0.064545  1
  Si  Si28  1  0.546405  0.793969  0.313662  1
  Si  Si29  1  0.461009  0.206850  0.817985  1
  Si  Si30  1  0.795710  0.547708  0.685400  1
  Si  Si31  1  0.203879  0.452609  0.185269  1
  Si  Si32  1  0.707505  0.044621  0.564172  1
  Si  Si33  1  0.954363  0.293733  0.937118  1
  Si  Si34  1  0.045715  0.706539  0.436332  1
  As  As35  1  0.197753  0.129809  0.677477  1
