# generated using pymatgen
data_Pr2Nd8Si5Bi
_symmetry_space_group_name_H-M   'P 1'
_cell_length_a   7.86277078
_cell_length_b   7.85775645
_cell_length_c   9.29096700
_cell_angle_alpha   114.97135062
_cell_angle_beta   114.98843445
_cell_angle_gamma   90.09557873
_symmetry_Int_Tables_number   1
_chemical_formula_structural   Pr2Nd8Si5Bi
_chemical_formula_sum   'Pr2 Nd8 Si5 Bi1'
_cell_volume   460.20197406
_cell_formula_units_Z   1
loop_
 _symmetry_equiv_pos_site_id
 _symmetry_equiv_pos_as_xyz
  1  'x, y, z'
loop_
 _atom_site_type_symbol
 _atom_site_label
 _atom_site_symmetry_multiplicity
 _atom_site_fract_x
 _atom_site_fract_y
 _atom_site_fract_z
 _atom_site_occupancy
  Pr  Pr0  1  0.201027  0.670035  0.722002  1
  Pr  Pr1  1  0.520975  0.051967  0.722002  1
  Nd  Nd2  1  0.522675  0.522675  0.045350  1
  Nd  Nd3  1  0.979073  0.979073  0.958146  1
  Nd  Nd4  1  0.978753  0.826843  0.277179  1
  Nd  Nd5  1  0.298426  0.450337  0.277179  1
  Nd  Nd6  1  0.827735  0.298708  0.276454  1
  Nd  Nd7  1  0.448720  0.977747  0.276454  1
  Nd  Nd8  1  0.048993  0.202723  0.723222  1
  Nd  Nd9  1  0.674229  0.520499  0.723222  1
  Si  Si10  1  0.247244  0.247244  0.494487  1
  Si  Si11  1  0.617471  0.883528  0.000900  1
  Si  Si12  1  0.383428  0.117371  0.000900  1
  Si  Si13  1  0.884428  0.384651  0.001075  1
  Si  Si14  1  0.116646  0.616423  0.001075  1
  Bi  Bi15  1  0.750176  0.750176  0.500352  1
