# generated using pymatgen
data_Pr2Co2Ag
_symmetry_space_group_name_H-M   'P 1'
_cell_length_a   3.96612700
_cell_length_b   3.96612748
_cell_length_c   16.86094900
_cell_angle_alpha   90.00000000
_cell_angle_beta   90.00000000
_cell_angle_gamma   120.00000435
_symmetry_Int_Tables_number   1
_chemical_formula_structural   Pr2Co2Ag
_chemical_formula_sum   'Pr4 Co4 Ag2'
_cell_volume   229.69202320
_cell_formula_units_Z   2
loop_
 _symmetry_equiv_pos_site_id
 _symmetry_equiv_pos_as_xyz
  1  'x, y, z'
loop_
 _atom_site_type_symbol
 _atom_site_label
 _atom_site_symmetry_multiplicity
 _atom_site_fract_x
 _atom_site_fract_y
 _atom_site_fract_z
 _atom_site_occupancy
  Pr  Pr0  1  0.000000  0.000000  0.115232  1
  Pr  Pr1  1  0.000000  0.000000  0.384768  1
  Pr  Pr2  1  0.000000  0.000000  0.884768  1
  Pr  Pr3  1  0.000000  0.000000  0.615232  1
  Co  Co4  1  0.333333  0.666667  0.000251  1
  Co  Co5  1  0.666667  0.333333  0.999749  1
  Co  Co6  1  0.333333  0.666667  0.499749  1
  Co  Co7  1  0.666667  0.333333  0.500251  1
  Ag  Ag8  1  0.333333  0.666667  0.750000  1
  Ag  Ag9  1  0.666667  0.333333  0.250000  1
