# generated using pymatgen
data_Nd2Y4TcBi2
_symmetry_space_group_name_H-M   'P 1'
_cell_length_a   8.40529808
_cell_length_b   8.40529749
_cell_length_c   4.35702400
_cell_angle_alpha   90.00000000
_cell_angle_beta   90.00000000
_cell_angle_gamma   119.68838070
_symmetry_Int_Tables_number   1
_chemical_formula_structural   Nd2Y4TcBi2
_chemical_formula_sum   'Nd2 Y4 Tc1 Bi2'
_cell_volume   267.41266142
_cell_formula_units_Z   1
loop_
 _symmetry_equiv_pos_site_id
 _symmetry_equiv_pos_as_xyz
  1  'x, y, z'
loop_
 _atom_site_type_symbol
 _atom_site_label
 _atom_site_symmetry_multiplicity
 _atom_site_fract_x
 _atom_site_fract_y
 _atom_site_fract_z
 _atom_site_occupancy
  Nd  Nd0  1  0.602332  0.998206  0.000000  1
  Nd  Nd1  1  0.998206  0.602332  0.000000  1
  Y  Y2  1  0.232688  0.000579  0.500000  1
  Y  Y3  1  0.000579  0.232688  0.500000  1
  Y  Y4  1  0.771699  0.771699  0.500000  1
  Y  Y5  1  0.392926  0.392926  0.000000  1
  Tc  Tc6  1  0.005890  0.005890  0.000000  1
  Bi  Bi7  1  0.334328  0.661352  0.500000  1
  Bi  Bi8  1  0.661352  0.334328  0.500000  1
