# generated using pymatgen
data_Sc3Nb(V3Si4)2
_symmetry_space_group_name_H-M   'P 1'
_cell_length_a   6.59747868
_cell_length_b   6.59822254
_cell_length_c   12.20288467
_cell_angle_alpha   90.04633677
_cell_angle_beta   89.86345803
_cell_angle_gamma   90.00218988
_symmetry_Int_Tables_number   1
_chemical_formula_structural   Sc3Nb(V3Si4)2
_chemical_formula_sum   'Sc6 Nb2 V12 Si16'
_cell_volume   531.20980882
_cell_formula_units_Z   2
loop_
 _symmetry_equiv_pos_site_id
 _symmetry_equiv_pos_as_xyz
  1  'x, y, z'
loop_
 _atom_site_type_symbol
 _atom_site_label
 _atom_site_symmetry_multiplicity
 _atom_site_fract_x
 _atom_site_fract_y
 _atom_site_fract_z
 _atom_site_occupancy
  Sc  Sc0  1  0.162352  0.498501  0.779593  1
  Sc  Sc1  1  0.501612  0.837187  0.720478  1
  Sc  Sc2  1  0.500768  0.164746  0.220349  1
  Sc  Sc3  1  0.998894  0.337173  0.529261  1
  Sc  Sc4  1  0.664340  0.000600  0.971346  1
  Sc  Sc5  1  0.338872  0.999300  0.469295  1
  Nb  Nb6  1  0.006769  0.657506  0.030959  1
  Nb  Nb7  1  0.840784  0.507499  0.280940  1
  V  V8  1  0.330840  0.336452  0.000307  1
  V  V9  1  0.163875  0.829837  0.248675  1
  V  V10  1  0.833561  0.166703  0.751692  1
  V  V11  1  0.668844  0.667520  0.498592  1
  V  V12  1  0.002364  0.157503  0.126328  1
  V  V13  1  0.342933  0.504793  0.374232  1
  V  V14  1  0.655968  0.495653  0.878804  1
  V  V15  1  0.508180  0.342971  0.623153  1
  V  V16  1  0.490492  0.656923  0.123576  1
  V  V17  1  0.993837  0.841246  0.626788  1
  V  V18  1  0.153903  0.007474  0.875329  1
  V  V19  1  0.841196  0.990665  0.371241  1
  Si  Si20  1  0.292924  0.962203  0.064890  1
  Si  Si21  1  0.538751  0.793174  0.313773  1
  Si  Si22  1  0.461586  0.205799  0.814754  1
  Si  Si23  1  0.794861  0.538362  0.685773  1
  Si  Si24  1  0.204506  0.457321  0.185389  1
  Si  Si25  1  0.707065  0.038865  0.564283  1
  Si  Si26  1  0.958363  0.296023  0.935287  1
  Si  Si27  1  0.040834  0.706642  0.435485  1
  Si  Si28  1  0.707596  0.373957  0.073599  1
  Si  Si29  1  0.126150  0.204927  0.320471  1
  Si  Si30  1  0.870194  0.793639  0.822785  1
  Si  Si31  1  0.204332  0.129198  0.679628  1
  Si  Si32  1  0.794424  0.866815  0.176842  1
  Si  Si33  1  0.298115  0.629255  0.569377  1
  Si  Si34  1  0.368213  0.707031  0.929268  1
  Si  Si35  1  0.631703  0.296538  0.427459  1
