# generated using pymatgen
data_Mn(WF4)3
_symmetry_space_group_name_H-M   'P 1'
_cell_length_a   8.33102503
_cell_length_b   5.83565346
_cell_length_c   5.83400093
_cell_angle_alpha   89.98381584
_cell_angle_beta   90.13265406
_cell_angle_gamma   89.81858802
_symmetry_Int_Tables_number   1
_chemical_formula_structural   Mn(WF4)3
_chemical_formula_sum   'Mn1 W3 F12'
_cell_volume   283.62928365
_cell_formula_units_Z   1
loop_
 _symmetry_equiv_pos_site_id
 _symmetry_equiv_pos_as_xyz
  1  'x, y, z'
loop_
 _atom_site_type_symbol
 _atom_site_label
 _atom_site_symmetry_multiplicity
 _atom_site_fract_x
 _atom_site_fract_y
 _atom_site_fract_z
 _atom_site_occupancy
  Mn  Mn0  1  0.500000  0.000000  0.000000  1
  W  W1  1  0.000000  0.000000  0.000000  1
  W  W2  1  0.000000  0.500000  0.500000  1
  W  W3  1  0.500000  0.500000  0.500000  1
  F  F4  1  0.251435  0.014142  0.999162  1
  F  F5  1  0.507580  0.314667  0.214855  1
  F  F6  1  0.991363  0.307162  0.196440  1
  F  F7  1  0.007050  0.803621  0.307064  1
  F  F8  1  0.494295  0.791160  0.303381  1
  F  F9  1  0.742818  0.515471  0.503290  1
  F  F10  1  0.257182  0.484529  0.496710  1
  F  F11  1  0.505705  0.208840  0.696619  1
  F  F12  1  0.992950  0.196379  0.692936  1
  F  F13  1  0.008637  0.692838  0.803560  1
  F  F14  1  0.492420  0.685333  0.785145  1
  F  F15  1  0.748565  0.985858  0.000838  1
