# generated using pymatgen
data_HfZr5(GaNi)6
_symmetry_space_group_name_H-M   'P 1'
_cell_length_a   6.89856907
_cell_length_b   6.91018723
_cell_length_c   6.94224600
_cell_angle_alpha   90.00000000
_cell_angle_beta   90.00000000
_cell_angle_gamma   120.14057145
_symmetry_Int_Tables_number   1
_chemical_formula_structural   HfZr5(GaNi)6
_chemical_formula_sum   'Hf1 Zr5 Ga6 Ni6'
_cell_volume   286.19533038
_cell_formula_units_Z   1
loop_
 _symmetry_equiv_pos_site_id
 _symmetry_equiv_pos_as_xyz
  1  'x, y, z'
loop_
 _atom_site_type_symbol
 _atom_site_label
 _atom_site_symmetry_multiplicity
 _atom_site_fract_x
 _atom_site_fract_y
 _atom_site_fract_z
 _atom_site_occupancy
  Hf  Hf0  1  0.989129  0.397350  0.250000  1
  Zr  Zr1  1  0.602498  0.591217  0.250000  1
  Zr  Zr2  1  0.012081  0.409486  0.750000  1
  Zr  Zr3  1  0.409040  0.011651  0.250000  1
  Zr  Zr4  1  0.397962  0.988795  0.750000  1
  Zr  Zr5  1  0.591333  0.601827  0.750000  1
  Ga  Ga6  1  0.259573  0.260011  0.499922  1
  Ga  Ga7  1  0.739821  0.999614  0.499858  1
  Ga  Ga8  1  0.000134  0.740552  0.498698  1
  Ga  Ga9  1  0.739821  0.999614  0.000142  1
  Ga  Ga10  1  0.259573  0.260011  0.000078  1
  Ga  Ga11  1  0.000134  0.740552  0.001302  1
  Ni  Ni12  1  0.330775  0.664737  0.475214  1
  Ni  Ni13  1  0.000310  0.999835  0.750000  1
  Ni  Ni14  1  0.000298  0.003139  0.250000  1
  Ni  Ni15  1  0.330775  0.664737  0.024786  1
  Ni  Ni16  1  0.668373  0.333437  0.519611  1
  Ni  Ni17  1  0.668373  0.333437  0.980389  1
