# generated using pymatgen
data_Lu(S8Br)3
_symmetry_space_group_name_H-M   'P 1'
_cell_length_a   15.60376573
_cell_length_b   15.60376393
_cell_length_c   15.60376613
_cell_angle_alpha   119.27823589
_cell_angle_beta   119.27823723
_cell_angle_gamma   119.27823287
_symmetry_Int_Tables_number   1
_chemical_formula_structural   Lu(S8Br)3
_chemical_formula_sum   'Lu1 S24 Br3'
_cell_volume   837.13815452
_cell_formula_units_Z   1
loop_
 _symmetry_equiv_pos_site_id
 _symmetry_equiv_pos_as_xyz
  1  'x, y, z'
loop_
 _atom_site_type_symbol
 _atom_site_label
 _atom_site_symmetry_multiplicity
 _atom_site_fract_x
 _atom_site_fract_y
 _atom_site_fract_z
 _atom_site_occupancy
  Lu  Lu0  1  0.432969  0.432969  0.432969  1
  S  S1  1  0.007682  0.593999  0.593999  1
  S  S2  1  0.593999  0.593999  0.007682  1
  S  S3  1  0.593999  0.007682  0.593999  1
  S  S4  1  0.269052  0.868628  0.743479  1
  S  S5  1  0.868628  0.743479  0.269052  1
  S  S6  1  0.743479  0.269052  0.868628  1
  S  S7  1  0.868628  0.269052  0.743479  1
  S  S8  1  0.269052  0.743479  0.868628  1
  S  S9  1  0.743479  0.868628  0.269052  1
  S  S10  1  0.082196  0.600622  0.424588  1
  S  S11  1  0.600622  0.424588  0.082196  1
  S  S12  1  0.424588  0.082196  0.600622  1
  S  S13  1  0.600622  0.082196  0.424588  1
  S  S14  1  0.082196  0.424588  0.600622  1
  S  S15  1  0.424588  0.600622  0.082196  1
  S  S16  1  0.383444  0.765658  0.639282  1
  S  S17  1  0.765658  0.639282  0.383444  1
  S  S18  1  0.639282  0.383444  0.765658  1
  S  S19  1  0.765658  0.383444  0.639282  1
  S  S20  1  0.383444  0.639282  0.765658  1
  S  S21  1  0.639282  0.765658  0.383444  1
  S  S22  1  0.170975  0.446306  0.446306  1
  S  S23  1  0.446306  0.446306  0.170975  1
  S  S24  1  0.446306  0.170975  0.446306  1
  Br  Br25  1  0.021013  0.889978  0.889978  1
  Br  Br26  1  0.889978  0.889978  0.021013  1
  Br  Br27  1  0.889978  0.021013  0.889978  1
