# generated using pymatgen
data_Y2HoCd3Ga2Au
_symmetry_space_group_name_H-M   'P 1'
_cell_length_a   7.37925900
_cell_length_b   7.37904919
_cell_length_c   4.33986900
_cell_angle_alpha   90.00000000
_cell_angle_beta   90.00000000
_cell_angle_gamma   119.99905358
_symmetry_Int_Tables_number   1
_chemical_formula_structural   Y2HoCd3Ga2Au
_chemical_formula_sum   'Y2 Ho1 Cd3 Ga2 Au1'
_cell_volume   204.65603368
_cell_formula_units_Z   1
loop_
 _symmetry_equiv_pos_site_id
 _symmetry_equiv_pos_as_xyz
  1  'x, y, z'
loop_
 _atom_site_type_symbol
 _atom_site_label
 _atom_site_symmetry_multiplicity
 _atom_site_fract_x
 _atom_site_fract_y
 _atom_site_fract_z
 _atom_site_occupancy
  Y  Y0  1  0.413368  0.413483  0.500000  1
  Y  Y1  1  0.586632  0.000115  0.500000  1
  Ho  Ho2  1  0.000000  0.586719  0.500000  1
  Cd  Cd3  1  0.745073  0.744904  0.000000  1
  Cd  Cd4  1  0.254927  0.999833  0.000000  1
  Cd  Cd5  1  0.000000  0.255399  0.000000  1
  Ga  Ga6  1  0.667262  0.333824  0.000000  1
  Ga  Ga7  1  0.332738  0.666563  0.000000  1
  Au  Au8  1  0.000000  0.999160  0.500000  1
