# generated using pymatgen
data_NdY2Th2(In2Pd)2
_symmetry_space_group_name_H-M   'P 1'
_cell_length_a   3.80872900
_cell_length_b   8.17965700
_cell_length_c   18.34824200
_cell_angle_alpha   90.00000000
_cell_angle_beta   90.00000000
_cell_angle_gamma   90.00000000
_symmetry_Int_Tables_number   1
_chemical_formula_structural   NdY2Th2(In2Pd)2
_chemical_formula_sum   'Nd2 Y4 Th4 In8 Pd4'
_cell_volume   571.62290785
_cell_formula_units_Z   2
loop_
 _symmetry_equiv_pos_site_id
 _symmetry_equiv_pos_as_xyz
  1  'x, y, z'
loop_
 _atom_site_type_symbol
 _atom_site_label
 _atom_site_symmetry_multiplicity
 _atom_site_fract_x
 _atom_site_fract_y
 _atom_site_fract_z
 _atom_site_occupancy
  Nd  Nd0  1  0.500000  0.000000  0.000000  1
  Nd  Nd1  1  0.500000  0.500000  0.500000  1
  Y  Y2  1  0.500000  0.116823  0.582737  1
  Y  Y3  1  0.500000  0.883177  0.417263  1
  Y  Y4  1  0.500000  0.383177  0.082737  1
  Y  Y5  1  0.500000  0.616823  0.917263  1
  Th  Th6  1  0.500000  0.236964  0.783078  1
  Th  Th7  1  0.500000  0.763036  0.216922  1
  Th  Th8  1  0.500000  0.263036  0.283078  1
  Th  Th9  1  0.500000  0.736964  0.716922  1
  In  In10  1  0.000000  0.085954  0.147818  1
  In  In11  1  0.000000  0.914046  0.852182  1
  In  In12  1  0.000000  0.414046  0.647818  1
  In  In13  1  0.000000  0.585954  0.352182  1
  In  In14  1  0.000000  0.201267  0.435721  1
  In  In15  1  0.000000  0.798733  0.564279  1
  In  In16  1  0.000000  0.298733  0.935721  1
  In  In17  1  0.000000  0.701267  0.064279  1
  Pd  Pd18  1  0.000000  0.024736  0.698097  1
  Pd  Pd19  1  0.000000  0.975264  0.301903  1
  Pd  Pd20  1  0.000000  0.475264  0.198097  1
  Pd  Pd21  1  0.000000  0.524736  0.801903  1
