# generated using pymatgen
data_Tb3Dy(Y3Ru2)2
_symmetry_space_group_name_H-M   'P 1'
_cell_length_a   8.54580407
_cell_length_b   8.54580389
_cell_length_c   7.29157629
_cell_angle_alpha   83.27340640
_cell_angle_beta   83.27340646
_cell_angle_gamma   43.91900258
_symmetry_Int_Tables_number   1
_chemical_formula_structural   Tb3Dy(Y3Ru2)2
_chemical_formula_sum   'Tb3 Dy1 Y6 Ru4'
_cell_volume   366.41259991
_cell_formula_units_Z   1
loop_
 _symmetry_equiv_pos_site_id
 _symmetry_equiv_pos_as_xyz
  1  'x, y, z'
loop_
 _atom_site_type_symbol
 _atom_site_label
 _atom_site_symmetry_multiplicity
 _atom_site_fract_x
 _atom_site_fract_y
 _atom_site_fract_z
 _atom_site_occupancy
  Tb  Tb0  1  0.979981  0.206727  0.085746  1
  Tb  Tb1  1  0.793273  0.020019  0.414254  1
  Tb  Tb2  1  0.577475  0.422525  0.750000  1
  Dy  Dy3  1  0.423317  0.576683  0.250000  1
  Y  Y4  1  0.207655  0.978814  0.584346  1
  Y  Y5  1  0.021186  0.792345  0.915654  1
  Y  Y6  1  0.205985  0.359155  0.314517  1
  Y  Y7  1  0.640845  0.794015  0.185483  1
  Y  Y8  1  0.793372  0.641089  0.685676  1
  Y  Y9  1  0.358911  0.206628  0.814324  1
  Ru  Ru10  1  0.176089  0.604869  0.573088  1
  Ru  Ru11  1  0.395131  0.823911  0.926912  1
  Ru  Ru12  1  0.823186  0.396407  0.423803  1
  Ru  Ru13  1  0.603593  0.176814  0.076197  1
