# generated using pymatgen
data_TiNb4Ga2SiB
_symmetry_space_group_name_H-M   'P 1'
_cell_length_a   7.75761882
_cell_length_b   7.75761824
_cell_length_c   5.29078798
_cell_angle_alpha   90.03495641
_cell_angle_beta   90.03494936
_cell_angle_gamma   119.92824401
_symmetry_Int_Tables_number   1
_chemical_formula_structural   TiNb4Ga2SiB
_chemical_formula_sum   'Ti2 Nb8 Ga4 Si2 B2'
_cell_volume   275.94407609
_cell_formula_units_Z   2
loop_
 _symmetry_equiv_pos_site_id
 _symmetry_equiv_pos_as_xyz
  1  'x, y, z'
loop_
 _atom_site_type_symbol
 _atom_site_label
 _atom_site_symmetry_multiplicity
 _atom_site_fract_x
 _atom_site_fract_y
 _atom_site_fract_z
 _atom_site_occupancy
  Ti  Ti0  1  0.667464  0.329986  0.500191  1
  Ti  Ti1  1  0.329986  0.667464  0.500191  1
  Nb  Nb2  1  0.330101  0.667501  0.997352  1
  Nb  Nb3  1  0.667501  0.330101  0.997352  1
  Nb  Nb4  1  0.757472  0.757472  0.248192  1
  Nb  Nb5  1  0.244534  0.999290  0.250107  1
  Nb  Nb6  1  0.999290  0.244534  0.250107  1
  Nb  Nb7  1  0.241107  0.241107  0.751131  1
  Nb  Nb8  1  0.757844  0.004957  0.750834  1
  Nb  Nb9  1  0.004957  0.757844  0.750834  1
  Ga  Ga10  1  0.402486  0.402486  0.255786  1
  Ga  Ga11  1  0.597754  0.997879  0.256936  1
  Ga  Ga12  1  0.997879  0.597754  0.256936  1
  Ga  Ga13  1  0.599871  0.599871  0.743534  1
  Si  Si14  1  0.403519  0.000241  0.745065  1
  Si  Si15  1  0.000241  0.403519  0.745065  1
  B  B16  1  0.999041  0.999041  0.499041  1
  B  B17  1  0.998948  0.998948  0.001344  1
