# generated using pymatgen
data_Nd16Cd4Tc3Ag
_symmetry_space_group_name_H-M   'P 1'
_cell_length_a   9.95396463
_cell_length_b   10.05401217
_cell_length_c   10.05401200
_cell_angle_alpha   59.99999399
_cell_angle_beta   59.66694798
_cell_angle_gamma   59.66694981
_symmetry_Int_Tables_number   1
_chemical_formula_structural   Nd16Cd4Tc3Ag
_chemical_formula_sum   'Nd16 Cd4 Tc3 Ag1'
_cell_volume   707.87271477
_cell_formula_units_Z   1
loop_
 _symmetry_equiv_pos_site_id
 _symmetry_equiv_pos_as_xyz
  1  'x, y, z'
loop_
 _atom_site_type_symbol
 _atom_site_label
 _atom_site_symmetry_multiplicity
 _atom_site_fract_x
 _atom_site_fract_y
 _atom_site_fract_z
 _atom_site_occupancy
  Nd  Nd0  1  0.588132  0.606797  0.606797  1
  Nd  Nd1  1  0.588132  0.606797  0.198275  1
  Nd  Nd2  1  0.588132  0.198275  0.606797  1
  Nd  Nd3  1  0.214905  0.595032  0.595032  1
  Nd  Nd4  1  0.071587  0.441112  0.441112  1
  Nd  Nd5  1  0.439903  0.060116  0.060116  1
  Nd  Nd6  1  0.439903  0.060116  0.439866  1
  Nd  Nd7  1  0.071587  0.441112  0.046190  1
  Nd  Nd8  1  0.439903  0.439866  0.060116  1
  Nd  Nd9  1  0.071587  0.046190  0.441112  1
  Nd  Nd10  1  0.185143  0.813117  0.813117  1
  Nd  Nd11  1  0.805708  0.190054  0.190054  1
  Nd  Nd12  1  0.805708  0.190054  0.814184  1
  Nd  Nd13  1  0.185143  0.813117  0.188623  1
  Nd  Nd14  1  0.805708  0.814184  0.190054  1
  Nd  Nd15  1  0.185143  0.188623  0.813117  1
  Cd  Cd16  1  0.830112  0.829232  0.829232  1
  Cd  Cd17  1  0.830112  0.829232  0.511423  1
  Cd  Cd18  1  0.830112  0.511423  0.829232  1
  Cd  Cd19  1  0.509411  0.830196  0.830196  1
  Tc  Tc20  1  0.396939  0.382610  0.382610  1
  Tc  Tc21  1  0.396939  0.382610  0.837843  1
  Tc  Tc22  1  0.396939  0.837843  0.382610  1
  Ag  Ag23  1  0.823117  0.392294  0.392294  1
