# generated using pymatgen
data_Tb3Dy(Nb3Si4)2
_symmetry_space_group_name_H-M   'P 1'
_cell_length_a   7.08901700
_cell_length_b   7.08868802
_cell_length_c   13.08146500
_cell_angle_alpha   90.00000000
_cell_angle_beta   90.00000000
_cell_angle_gamma   89.99806007
_symmetry_Int_Tables_number   1
_chemical_formula_structural   Tb3Dy(Nb3Si4)2
_chemical_formula_sum   'Tb6 Dy2 Nb12 Si16'
_cell_volume   657.36755330
_cell_formula_units_Z   2
loop_
 _symmetry_equiv_pos_site_id
 _symmetry_equiv_pos_as_xyz
  1  'x, y, z'
loop_
 _atom_site_type_symbol
 _atom_site_label
 _atom_site_symmetry_multiplicity
 _atom_site_fract_x
 _atom_site_fract_y
 _atom_site_fract_z
 _atom_site_occupancy
  Tb  Tb0  1  0.156854  0.496744  0.467371  1
  Tb  Tb1  1  0.503226  0.843091  0.032646  1
  Tb  Tb2  1  0.843146  0.503256  0.967371  1
  Tb  Tb3  1  0.496774  0.156909  0.532646  1
  Tb  Tb4  1  0.343014  0.996881  0.782490  1
  Tb  Tb5  1  0.656986  0.003119  0.282490  1
  Dy  Dy6  1  0.997254  0.343242  0.217466  1
  Dy  Dy7  1  0.002746  0.656758  0.717466  1
  Nb  Nb8  1  0.172537  0.172710  0.000021  1
  Nb  Nb9  1  0.827463  0.827290  0.500021  1
  Nb  Nb10  1  0.327350  0.672510  0.249997  1
  Nb  Nb11  1  0.672650  0.327490  0.749997  1
  Nb  Nb12  1  0.151877  0.992424  0.375716  1
  Nb  Nb13  1  0.848123  0.007576  0.875716  1
  Nb  Nb14  1  0.507252  0.651992  0.626035  1
  Nb  Nb15  1  0.347872  0.492953  0.873943  1
  Nb  Nb16  1  0.492748  0.348008  0.126035  1
  Nb  Nb17  1  0.652128  0.507047  0.373943  1
  Nb  Nb18  1  0.992573  0.151961  0.624270  1
  Nb  Nb19  1  0.007427  0.848039  0.124270  1
  Si  Si20  1  0.365622  0.296561  0.317008  1
  Si  Si21  1  0.634378  0.703439  0.817008  1
  Si  Si22  1  0.202938  0.865485  0.567302  1
  Si  Si23  1  0.134084  0.796662  0.932801  1
  Si  Si24  1  0.797062  0.134515  0.067302  1
  Si  Si25  1  0.865916  0.203338  0.432801  1
  Si  Si26  1  0.296204  0.366272  0.682893  1
  Si  Si27  1  0.703796  0.633728  0.182893  1
  Si  Si28  1  0.291814  0.048078  0.186374  1
  Si  Si29  1  0.708186  0.951922  0.686374  1
  Si  Si30  1  0.452242  0.792012  0.436369  1
  Si  Si31  1  0.207691  0.547529  0.063775  1
  Si  Si32  1  0.547758  0.207988  0.936369  1
  Si  Si33  1  0.792309  0.452471  0.563775  1
  Si  Si34  1  0.047796  0.292510  0.813524  1
  Si  Si35  1  0.952204  0.707490  0.313524  1
