# generated using pymatgen
data_DyHo(ScSb5)2
_symmetry_space_group_name_H-M   'P 1'
_cell_length_a   4.20600700
_cell_length_b   13.06049410
_cell_length_c   14.23404171
_cell_angle_alpha   78.81878853
_cell_angle_beta   90.00000000
_cell_angle_gamma   90.00000000
_symmetry_Int_Tables_number   1
_chemical_formula_structural   DyHo(ScSb5)2
_chemical_formula_sum   'Dy2 Ho2 Sc4 Sb20'
_cell_volume   767.07028845
_cell_formula_units_Z   2
loop_
 _symmetry_equiv_pos_site_id
 _symmetry_equiv_pos_as_xyz
  1  'x, y, z'
loop_
 _atom_site_type_symbol
 _atom_site_label
 _atom_site_symmetry_multiplicity
 _atom_site_fract_x
 _atom_site_fract_y
 _atom_site_fract_z
 _atom_site_occupancy
  Dy  Dy0  1  0.250000  0.953451  0.354661  1
  Dy  Dy1  1  0.750000  0.046549  0.645339  1
  Ho  Ho2  1  0.250000  0.669325  0.576225  1
  Ho  Ho3  1  0.750000  0.330675  0.423775  1
  Sc  Sc4  1  0.250000  0.396640  0.772801  1
  Sc  Sc5  1  0.750000  0.603360  0.227199  1
  Sc  Sc6  1  0.250000  0.657351  0.858670  1
  Sc  Sc7  1  0.750000  0.342649  0.141330  1
  Sb  Sb8  1  0.250000  0.148046  0.780639  1
  Sb  Sb9  1  0.750000  0.851954  0.219361  1
  Sb  Sb10  1  0.250000  0.143204  0.482826  1
  Sb  Sb11  1  0.750000  0.856796  0.517174  1
  Sb  Sb12  1  0.250000  0.163063  0.160652  1
  Sb  Sb13  1  0.750000  0.836937  0.839348  1
  Sb  Sb14  1  0.250000  0.422133  0.975075  1
  Sb  Sb15  1  0.750000  0.577867  0.024925  1
  Sb  Sb16  1  0.750000  0.028462  0.913489  1
  Sb  Sb17  1  0.250000  0.971538  0.086511  1
  Sb  Sb18  1  0.750000  0.143050  0.315548  1
  Sb  Sb19  1  0.250000  0.856950  0.684452  1
  Sb  Sb20  1  0.750000  0.280014  0.936542  1
  Sb  Sb21  1  0.250000  0.719986  0.063458  1
  Sb  Sb22  1  0.750000  0.289385  0.658996  1
  Sb  Sb23  1  0.250000  0.710615  0.341004  1
  Sb  Sb24  1  0.750000  0.573415  0.741160  1
  Sb  Sb25  1  0.250000  0.426585  0.258840  1
  Sb  Sb26  1  0.750000  0.570374  0.443853  1
  Sb  Sb27  1  0.250000  0.429626  0.556147  1
