# generated using pymatgen
data_Tb4Al24Pd6PtAu2
_symmetry_space_group_name_H-M   'P 1'
_cell_length_a   7.59599489
_cell_length_b   7.61215346
_cell_length_c   13.20417729
_cell_angle_alpha   84.50651414
_cell_angle_beta   78.96308005
_cell_angle_gamma   59.91907387
_symmetry_Int_Tables_number   1
_chemical_formula_structural   Tb4Al24Pd6PtAu2
_chemical_formula_sum   'Tb4 Al24 Pd6 Pt1 Au2'
_cell_volume   648.44257039
_cell_formula_units_Z   1
loop_
 _symmetry_equiv_pos_site_id
 _symmetry_equiv_pos_as_xyz
  1  'x, y, z'
loop_
 _atom_site_type_symbol
 _atom_site_label
 _atom_site_symmetry_multiplicity
 _atom_site_fract_x
 _atom_site_fract_y
 _atom_site_fract_z
 _atom_site_occupancy
  Tb  Tb0  1  0.392882  0.168959  0.809099  1
  Tb  Tb1  1  0.607292  0.830983  0.190943  1
  Tb  Tb2  1  0.733470  0.498773  0.809682  1
  Tb  Tb3  1  0.266612  0.500988  0.190320  1
  Al  Al4  1  0.683455  0.834282  0.945178  1
  Al  Al5  1  0.316587  0.165663  0.054876  1
  Al  Al6  1  0.145921  0.838847  0.562159  1
  Al  Al7  1  0.854139  0.161087  0.437874  1
  Al  Al8  1  0.487361  0.159971  0.559518  1
  Al  Al9  1  0.512578  0.840006  0.440465  1
  Al  Al10  1  0.222848  0.160292  0.327218  1
  Al  Al11  1  0.777288  0.840096  0.672786  1
  Al  Al12  1  0.440836  0.506937  0.673003  1
  Al  Al13  1  0.559302  0.492893  0.327036  1
  Al  Al14  1  0.109517  0.153894  0.671734  1
  Al  Al15  1  0.889997  0.846059  0.328259  1
  Al  Al16  1  0.352717  0.499230  0.944901  1
  Al  Al17  1  0.647344  0.500676  0.055123  1
  Al  Al18  1  0.015132  0.167127  0.954131  1
  Al  Al19  1  0.984828  0.832926  0.045904  1
  Al  Al20  1  0.194875  0.499373  0.437443  1
  Al  Al21  1  0.805193  0.500650  0.562543  1
  Al  Al22  1  0.732570  0.164583  0.183583  1
  Al  Al23  1  0.267356  0.835463  0.816412  1
  Al  Al24  1  0.060426  0.634039  0.817938  1
  Al  Al25  1  0.939496  0.366062  0.182055  1
  Al  Al26  1  0.854409  0.042321  0.815930  1
  Al  Al27  1  0.145357  0.958026  0.183766  1
  Pd  Pd28  1  0.657319  0.171489  0.999811  1
  Pd  Pd29  1  0.342682  0.828434  0.000308  1
  Pd  Pd30  1  0.537464  0.166961  0.362595  1
  Pd  Pd31  1  0.462515  0.833059  0.637358  1
  Pd  Pd32  1  0.780346  0.175057  0.636354  1
  Pd  Pd33  1  0.000030  0.499994  0.000006  1
  Pt  Pt34  1  0.219863  0.824683  0.363752  1
  Au  Au35  1  0.120250  0.491266  0.637611  1
  Au  Au36  1  0.879746  0.508852  0.362327  1
