# generated using pymatgen
data_SmY2Fe2Co7P6
_symmetry_space_group_name_H-M   'P 1'
_cell_length_a   3.71731100
_cell_length_b   10.59247100
_cell_length_c   12.15793400
_cell_angle_alpha   90.00000000
_cell_angle_beta   90.00000000
_cell_angle_gamma   90.00000000
_symmetry_Int_Tables_number   1
_chemical_formula_structural   SmY2Fe2Co7P6
_chemical_formula_sum   'Sm2 Y4 Fe4 Co14 P12'
_cell_volume   478.72483922
_cell_formula_units_Z   2
loop_
 _symmetry_equiv_pos_site_id
 _symmetry_equiv_pos_as_xyz
  1  'x, y, z'
loop_
 _atom_site_type_symbol
 _atom_site_label
 _atom_site_symmetry_multiplicity
 _atom_site_fract_x
 _atom_site_fract_y
 _atom_site_fract_z
 _atom_site_occupancy
  Sm  Sm0  1  0.000000  0.500000  0.522768  1
  Sm  Sm1  1  0.500000  0.000000  0.477232  1
  Y  Y2  1  0.500000  0.818894  0.203861  1
  Y  Y3  1  0.500000  0.181106  0.203861  1
  Y  Y4  1  0.000000  0.681106  0.796139  1
  Y  Y5  1  0.000000  0.318894  0.796139  1
  Fe  Fe6  1  0.500000  0.500000  0.154362  1
  Fe  Fe7  1  0.000000  0.000000  0.845638  1
  Fe  Fe8  1  0.000000  0.500000  0.988964  1
  Fe  Fe9  1  0.500000  0.000000  0.011036  1
  Co  Co10  1  0.500000  0.500000  0.702956  1
  Co  Co11  1  0.000000  0.000000  0.297044  1
  Co  Co12  1  0.500000  0.331812  0.994604  1
  Co  Co13  1  0.500000  0.668188  0.994604  1
  Co  Co14  1  0.000000  0.168188  0.005396  1
  Co  Co15  1  0.000000  0.831812  0.005396  1
  Co  Co16  1  0.500000  0.296297  0.429734  1
  Co  Co17  1  0.500000  0.703703  0.429734  1
  Co  Co18  1  0.000000  0.203703  0.570266  1
  Co  Co19  1  0.000000  0.796297  0.570266  1
  Co  Co20  1  0.500000  0.879384  0.710748  1
  Co  Co21  1  0.500000  0.120616  0.710748  1
  Co  Co22  1  0.000000  0.620616  0.289252  1
  Co  Co23  1  0.000000  0.379384  0.289252  1
  P  P24  1  0.500000  0.500000  0.885169  1
  P  P25  1  0.000000  0.000000  0.114831  1
  P  P26  1  0.500000  0.500000  0.339157  1
  P  P27  1  0.000000  0.000000  0.660843  1
  P  P28  1  0.500000  0.308055  0.617086  1
  P  P29  1  0.500000  0.691945  0.617086  1
  P  P30  1  0.000000  0.191945  0.382914  1
  P  P31  1  0.000000  0.808055  0.382914  1
  P  P32  1  0.500000  0.847596  0.894228  1
  P  P33  1  0.500000  0.152404  0.894228  1
  P  P34  1  0.000000  0.652404  0.105772  1
  P  P35  1  0.000000  0.347596  0.105772  1
