# generated using pymatgen
data_LiCa3Ga9Pd
_symmetry_space_group_name_H-M   'P 1'
_cell_length_a   8.17183599
_cell_length_b   8.17183681
_cell_length_c   8.17183700
_cell_angle_alpha   148.61340844
_cell_angle_beta   109.18941844
_cell_angle_gamma   79.49245522
_symmetry_Int_Tables_number   1
_chemical_formula_structural   LiCa3Ga9Pd
_chemical_formula_sum   'Li1 Ca3 Ga9 Pd1'
_cell_volume   263.01063922
_cell_formula_units_Z   1
loop_
 _symmetry_equiv_pos_site_id
 _symmetry_equiv_pos_as_xyz
  1  'x, y, z'
loop_
 _atom_site_type_symbol
 _atom_site_label
 _atom_site_symmetry_multiplicity
 _atom_site_fract_x
 _atom_site_fract_y
 _atom_site_fract_z
 _atom_site_occupancy
  Li  Li0  1  0.819966  0.000000  0.819966  1
  Ca  Ca1  1  0.498165  0.500000  0.998165  1
  Ca  Ca2  1  0.204393  0.202859  0.001534  1
  Ca  Ca3  1  0.798674  0.797141  0.001534  1
  Ga  Ga4  1  0.079635  0.361814  0.717822  1
  Ga  Ga5  1  0.922030  0.640209  0.281821  1
  Ga  Ga6  1  0.641612  0.359791  0.281821  1
  Ga  Ga7  1  0.356008  0.638186  0.717822  1
  Ga  Ga8  1  0.797906  0.159343  0.638564  1
  Ga  Ga9  1  0.208763  0.844924  0.363838  1
  Ga  Ga10  1  0.518913  0.155076  0.363838  1
  Ga  Ga11  1  0.479222  0.840657  0.638564  1
  Ga  Ga12  1  0.999939  0.500000  0.499939  1
  Pd  Pd13  1  0.174774  0.000000  0.174774  1
