# generated using pymatgen
data_Th4B20PdPt
_symmetry_space_group_name_H-M   'P 1'
_cell_length_a   4.20331100
_cell_length_b   5.77361415
_cell_length_c   11.46608225
_cell_angle_alpha   90.16739169
_cell_angle_beta   90.00000000
_cell_angle_gamma   90.00000000
_symmetry_Int_Tables_number   1
_chemical_formula_structural   Th4B20PdPt
_chemical_formula_sum   'Th4 B20 Pd1 Pt1'
_cell_volume   278.26108902
_cell_formula_units_Z   1
loop_
 _symmetry_equiv_pos_site_id
 _symmetry_equiv_pos_as_xyz
  1  'x, y, z'
loop_
 _atom_site_type_symbol
 _atom_site_label
 _atom_site_symmetry_multiplicity
 _atom_site_fract_x
 _atom_site_fract_y
 _atom_site_fract_z
 _atom_site_occupancy
  Th  Th0  1  0.500000  0.307329  0.859419  1
  Th  Th1  1  0.500000  0.692671  0.140581  1
  Th  Th2  1  0.500000  0.806720  0.638560  1
  Th  Th3  1  0.500000  0.193280  0.361440  1
  B  B4  1  0.000000  0.114898  0.544438  1
  B  B5  1  0.000000  0.885102  0.455562  1
  B  B6  1  0.000000  0.615835  0.956274  1
  B  B7  1  0.000000  0.384165  0.043726  1
  B  B8  1  0.000000  0.140002  0.698652  1
  B  B9  1  0.000000  0.859998  0.301348  1
  B  B10  1  0.303608  0.217553  0.120057  1
  B  B11  1  0.303608  0.782447  0.879943  1
  B  B12  1  0.697138  0.717264  0.380309  1
  B  B13  1  0.697138  0.282736  0.619691  1
  B  B14  1  0.696392  0.782447  0.879943  1
  B  B15  1  0.696392  0.217553  0.120057  1
  B  B16  1  0.302862  0.282736  0.619691  1
  B  B17  1  0.302862  0.717264  0.380309  1
  B  B18  1  0.000000  0.053308  0.194167  1
  B  B19  1  0.000000  0.946692  0.805833  1
  B  B20  1  0.000000  0.554681  0.305130  1
  B  B21  1  0.000000  0.445319  0.694870  1
  B  B22  1  0.000000  0.360217  0.198051  1
  B  B23  1  0.000000  0.639783  0.801949  1
  Pd  Pd24  1  0.000000  0.500000  0.500000  1
  Pt  Pt25  1  0.000000  0.000000  0.000000  1
