# generated using pymatgen
data_Lu5Co2Os
_symmetry_space_group_name_H-M   'P 1'
_cell_length_a   8.48130037
_cell_length_b   8.48130021
_cell_length_c   8.48129884
_cell_angle_alpha   131.54515993
_cell_angle_beta   131.54515433
_cell_angle_gamma   70.94835840
_symmetry_Int_Tables_number   1
_chemical_formula_structural   Lu5Co2Os
_chemical_formula_sum   'Lu10 Co4 Os2'
_cell_volume   334.65848437
_cell_formula_units_Z   2
loop_
 _symmetry_equiv_pos_site_id
 _symmetry_equiv_pos_as_xyz
  1  'x, y, z'
loop_
 _atom_site_type_symbol
 _atom_site_label
 _atom_site_symmetry_multiplicity
 _atom_site_fract_x
 _atom_site_fract_y
 _atom_site_fract_z
 _atom_site_occupancy
  Lu  Lu0  1  0.678911  0.535617  0.500000  1
  Lu  Lu1  1  0.464383  0.964383  0.143294  1
  Lu  Lu2  1  0.821089  0.321089  0.856706  1
  Lu  Lu3  1  0.535617  0.035617  0.856706  1
  Lu  Lu4  1  0.000000  0.000000  0.000000  1
  Lu  Lu5  1  0.035617  0.178911  0.500000  1
  Lu  Lu6  1  0.321089  0.464383  0.500000  1
  Lu  Lu7  1  0.178911  0.678911  0.143294  1
  Lu  Lu8  1  0.964383  0.821089  0.500000  1
  Lu  Lu9  1  0.500000  0.500000  0.000000  1
  Co  Co10  1  0.113425  0.613425  0.726850  1
  Co  Co11  1  0.886575  0.386575  0.273150  1
  Co  Co12  1  0.613425  0.886575  0.500000  1
  Co  Co13  1  0.386575  0.113425  0.500000  1
  Os  Os14  1  0.250000  0.250000  0.000000  1
  Os  Os15  1  0.750000  0.750000  0.000000  1
