# generated using pymatgen
data_TbDy3ZnPt3
_symmetry_space_group_name_H-M   'P 1'
_cell_length_a   4.55567200
_cell_length_b   5.58426576
_cell_length_c   7.11127115
_cell_angle_alpha   89.81125148
_cell_angle_beta   90.00000000
_cell_angle_gamma   90.00000000
_symmetry_Int_Tables_number   1
_chemical_formula_structural   TbDy3ZnPt3
_chemical_formula_sum   'Tb1 Dy3 Zn1 Pt3'
_cell_volume   180.91034762
_cell_formula_units_Z   1
loop_
 _symmetry_equiv_pos_site_id
 _symmetry_equiv_pos_as_xyz
  1  'x, y, z'
loop_
 _atom_site_type_symbol
 _atom_site_label
 _atom_site_symmetry_multiplicity
 _atom_site_fract_x
 _atom_site_fract_y
 _atom_site_fract_z
 _atom_site_occupancy
  Tb  Tb0  1  0.250000  0.359952  0.687228  1
  Dy  Dy1  1  0.250000  0.148916  0.177768  1
  Dy  Dy2  1  0.750000  0.630170  0.306743  1
  Dy  Dy3  1  0.750000  0.861630  0.828861  1
  Zn  Zn4  1  0.250000  0.864385  0.532677  1
  Pt  Pt5  1  0.250000  0.664298  0.043658  1
  Pt  Pt6  1  0.750000  0.125672  0.468143  1
  Pt  Pt7  1  0.750000  0.344977  0.954922  1
