# generated using pymatgen
data_Nd4Ho3Er(B6Os)4
_symmetry_space_group_name_H-M   'P 1'
_cell_length_a   3.69820100
_cell_length_b   9.22689212
_cell_length_c   11.65493300
_cell_angle_alpha   90.01002678
_cell_angle_beta   90.00000000
_cell_angle_gamma   90.00000000
_symmetry_Int_Tables_number   1
_chemical_formula_structural   Nd4Ho3Er(B6Os)4
_chemical_formula_sum   'Nd4 Ho3 Er1 B24 Os4'
_cell_volume   397.70012652
_cell_formula_units_Z   1
loop_
 _symmetry_equiv_pos_site_id
 _symmetry_equiv_pos_as_xyz
  1  'x, y, z'
loop_
 _atom_site_type_symbol
 _atom_site_label
 _atom_site_symmetry_multiplicity
 _atom_site_fract_x
 _atom_site_fract_y
 _atom_site_fract_z
 _atom_site_occupancy
  Nd  Nd0  1  0.000000  0.322557  0.414222  1
  Nd  Nd1  1  0.000000  0.677503  0.585878  1
  Nd  Nd2  1  0.000000  0.822386  0.085743  1
  Nd  Nd3  1  0.000000  0.177597  0.914116  1
  Ho  Ho4  1  0.000000  0.944235  0.372356  1
  Ho  Ho5  1  0.000000  0.055814  0.627765  1
  Ho  Ho6  1  0.000000  0.444249  0.127439  1
  Er  Er7  1  0.000000  0.555821  0.872294  1
  B  B8  1  0.500000  0.556073  0.430461  1
  B  B9  1  0.500000  0.444043  0.569681  1
  B  B10  1  0.500000  0.056006  0.069460  1
  B  B11  1  0.500000  0.943708  0.930465  1
  B  B12  1  0.500000  0.749390  0.417415  1
  B  B13  1  0.500000  0.250730  0.582678  1
  B  B14  1  0.500000  0.249435  0.082500  1
  B  B15  1  0.500000  0.750139  0.917426  1
  B  B16  1  0.500000  0.790459  0.266993  1
  B  B17  1  0.500000  0.209726  0.733070  1
  B  B18  1  0.500000  0.290513  0.232903  1
  B  B19  1  0.500000  0.709132  0.767118  1
  B  B20  1  0.500000  0.630644  0.185385  1
  B  B21  1  0.500000  0.369667  0.814740  1
  B  B22  1  0.500000  0.130743  0.314515  1
  B  B23  1  0.500000  0.869157  0.685542  1
  B  B24  1  0.500000  0.985526  0.214067  1
  B  B25  1  0.500000  0.014328  0.785974  1
  B  B26  1  0.500000  0.485478  0.285847  1
  B  B27  1  0.500000  0.514781  0.714385  1
  B  B28  1  0.500000  0.602637  0.027789  1
  B  B29  1  0.500000  0.397642  0.971555  1
  B  B30  1  0.500000  0.103002  0.471820  1
  B  B31  1  0.500000  0.897022  0.528280  1
  Os  Os32  1  0.000000  0.639031  0.319504  1
  Os  Os33  1  0.000000  0.361215  0.680650  1
  Os  Os34  1  0.000000  0.139099  0.180335  1
  Os  Os35  1  0.000000  0.860512  0.819629  1
