# generated using pymatgen
data_Pr16Cd4Ir3Au
_symmetry_space_group_name_H-M   'P 1'
_cell_length_a   10.06317366
_cell_length_b   10.06317248
_cell_length_c   10.06317290
_cell_angle_alpha   60.28553864
_cell_angle_beta   60.28554667
_cell_angle_gamma   60.28553833
_symmetry_Int_Tables_number   1
_chemical_formula_structural   Pr16Cd4Ir3Au
_chemical_formula_sum   'Pr16 Cd4 Ir3 Au1'
_cell_volume   725.24923452
_cell_formula_units_Z   1
loop_
 _symmetry_equiv_pos_site_id
 _symmetry_equiv_pos_as_xyz
  1  'x, y, z'
loop_
 _atom_site_type_symbol
 _atom_site_label
 _atom_site_symmetry_multiplicity
 _atom_site_fract_x
 _atom_site_fract_y
 _atom_site_fract_z
 _atom_site_occupancy
  Pr  Pr0  1  0.346527  0.346527  0.346527  1
  Pr  Pr1  1  0.356483  0.356483  0.945075  1
  Pr  Pr2  1  0.356483  0.945075  0.356483  1
  Pr  Pr3  1  0.945075  0.356483  0.356483  1
  Pr  Pr4  1  0.799917  0.191569  0.191569  1
  Pr  Pr5  1  0.188697  0.809506  0.809506  1
  Pr  Pr6  1  0.191569  0.799917  0.191569  1
  Pr  Pr7  1  0.809506  0.188697  0.809506  1
  Pr  Pr8  1  0.191569  0.191569  0.799917  1
  Pr  Pr9  1  0.809506  0.809506  0.188697  1
  Pr  Pr10  1  0.940854  0.562311  0.562311  1
  Pr  Pr11  1  0.561646  0.939533  0.939533  1
  Pr  Pr12  1  0.562311  0.940854  0.562311  1
  Pr  Pr13  1  0.939533  0.561646  0.939533  1
  Pr  Pr14  1  0.562311  0.562311  0.940854  1
  Pr  Pr15  1  0.939533  0.939533  0.561646  1
  Cd  Cd16  1  0.580493  0.580493  0.580493  1
  Cd  Cd17  1  0.580158  0.580158  0.259170  1
  Cd  Cd18  1  0.580158  0.259170  0.580158  1
  Cd  Cd19  1  0.259170  0.580158  0.580158  1
  Ir  Ir20  1  0.141182  0.141182  0.572397  1
  Ir  Ir21  1  0.141182  0.572397  0.141182  1
  Ir  Ir22  1  0.572397  0.141182  0.141182  1
  Au  Au23  1  0.143740  0.143740  0.143740  1
