# generated using pymatgen
data_Er3Tm2GaSb2
_symmetry_space_group_name_H-M   'P 1'
_cell_length_a   8.73796800
_cell_length_b   8.75115668
_cell_length_c   6.33998000
_cell_angle_alpha   90.00000000
_cell_angle_beta   90.00000000
_cell_angle_gamma   119.95015118
_symmetry_Int_Tables_number   1
_chemical_formula_structural   Er3Tm2GaSb2
_chemical_formula_sum   'Er6 Tm4 Ga2 Sb4'
_cell_volume   420.06099861
_cell_formula_units_Z   2
loop_
 _symmetry_equiv_pos_site_id
 _symmetry_equiv_pos_as_xyz
  1  'x, y, z'
loop_
 _atom_site_type_symbol
 _atom_site_label
 _atom_site_symmetry_multiplicity
 _atom_site_fract_x
 _atom_site_fract_y
 _atom_site_fract_z
 _atom_site_occupancy
  Er  Er0  1  0.244638  0.000000  0.250000  1
  Er  Er1  1  0.755362  0.000000  0.750000  1
  Er  Er2  1  0.986432  0.231640  0.250000  1
  Er  Er3  1  0.754793  0.768360  0.250000  1
  Er  Er4  1  0.245207  0.231640  0.750000  1
  Er  Er5  1  0.013568  0.768360  0.750000  1
  Tm  Tm6  1  0.342798  0.685598  0.000000  1
  Tm  Tm7  1  0.657202  0.314402  0.500000  1
  Tm  Tm8  1  0.657202  0.314402  0.000000  1
  Tm  Tm9  1  0.342798  0.685598  0.500000  1
  Ga  Ga10  1  0.603302  0.000000  0.250000  1
  Ga  Ga11  1  0.396698  0.000000  0.750000  1
  Sb  Sb12  1  0.993700  0.605447  0.250000  1
  Sb  Sb13  1  0.388254  0.394553  0.250000  1
  Sb  Sb14  1  0.611746  0.605447  0.750000  1
  Sb  Sb15  1  0.006300  0.394553  0.750000  1
