# generated using pymatgen
data_Cr3GaF12
_symmetry_space_group_name_H-M   'P 1'
_cell_length_a   7.28182899
_cell_length_b   7.28182920
_cell_length_c   7.28182916
_cell_angle_alpha   119.61048925
_cell_angle_beta   119.61049171
_cell_angle_gamma   60.38951704
_symmetry_Int_Tables_number   1
_chemical_formula_structural   Cr3GaF12
_chemical_formula_sum   'Cr3 Ga1 F12'
_cell_volume   275.43270780
_cell_formula_units_Z   1
loop_
 _symmetry_equiv_pos_site_id
 _symmetry_equiv_pos_as_xyz
  1  'x, y, z'
loop_
 _atom_site_type_symbol
 _atom_site_label
 _atom_site_symmetry_multiplicity
 _atom_site_fract_x
 _atom_site_fract_y
 _atom_site_fract_z
 _atom_site_occupancy
  Cr  Cr0  1  0.000000  0.000000  0.000000  1
  Cr  Cr1  1  0.500001  0.000000  0.500001  1
  Cr  Cr2  1  0.000000  0.500001  0.500001  1
  Ga  Ga3  1  0.000000  0.000000  0.500001  1
  F  F4  1  0.936789  0.936789  0.189731  1
  F  F5  1  0.935426  0.314706  0.185294  1
  F  F6  1  0.314706  0.935426  0.185294  1
  F  F7  1  0.685294  0.685294  0.435426  1
  F  F8  1  0.689731  0.063212  0.436788  1
  F  F9  1  0.063212  0.689731  0.436788  1
  F  F10  1  0.936788  0.310269  0.563210  1
  F  F11  1  0.310269  0.936788  0.563210  1
  F  F12  1  0.314706  0.314706  0.564572  1
  F  F13  1  0.685293  0.064573  0.814707  1
  F  F14  1  0.064573  0.685293  0.814707  1
  F  F15  1  0.063212  0.063212  0.810270  1
