# generated using pymatgen
data_SmHo2Lu2Bi3
_symmetry_space_group_name_H-M   'P 1'
_cell_length_a   8.19409900
_cell_length_b   9.44615700
_cell_length_c   11.97911600
_cell_angle_alpha   90.00000000
_cell_angle_beta   90.00000000
_cell_angle_gamma   90.00000000
_symmetry_Int_Tables_number   1
_chemical_formula_structural   SmHo2Lu2Bi3
_chemical_formula_sum   'Sm4 Ho8 Lu8 Bi12'
_cell_volume   927.21646859
_cell_formula_units_Z   4
loop_
 _symmetry_equiv_pos_site_id
 _symmetry_equiv_pos_as_xyz
  1  'x, y, z'
loop_
 _atom_site_type_symbol
 _atom_site_label
 _atom_site_symmetry_multiplicity
 _atom_site_fract_x
 _atom_site_fract_y
 _atom_site_fract_z
 _atom_site_occupancy
  Sm  Sm0  1  0.314170  0.250221  0.218650  1
  Sm  Sm1  1  0.814170  0.249779  0.281350  1
  Sm  Sm2  1  0.685830  0.750221  0.781350  1
  Sm  Sm3  1  0.185830  0.749779  0.718650  1
  Ho  Ho4  1  0.352835  0.750050  0.217385  1
  Ho  Ho5  1  0.852835  0.749950  0.282615  1
  Ho  Ho6  1  0.647165  0.250050  0.782615  1
  Ho  Ho7  1  0.147165  0.249950  0.717385  1
  Ho  Ho8  1  0.692191  0.564686  0.059652  1
  Ho  Ho9  1  0.192191  0.935314  0.440348  1
  Ho  Ho10  1  0.307809  0.064686  0.940348  1
  Ho  Ho11  1  0.807809  0.435314  0.559652  1
  Lu  Lu12  1  0.308137  0.432858  0.940572  1
  Lu  Lu13  1  0.808137  0.067142  0.559428  1
  Lu  Lu14  1  0.691863  0.932858  0.059428  1
  Lu  Lu15  1  0.191863  0.567142  0.440572  1
  Lu  Lu16  1  0.476944  0.249827  0.488940  1
  Lu  Lu17  1  0.976944  0.250173  0.011060  1
  Lu  Lu18  1  0.523056  0.749827  0.511060  1
  Lu  Lu19  1  0.023056  0.750173  0.988940  1
  Bi  Bi20  1  0.403210  0.747929  0.959697  1
  Bi  Bi21  1  0.903210  0.752071  0.540303  1
  Bi  Bi22  1  0.596790  0.247929  0.040303  1
  Bi  Bi23  1  0.096790  0.252071  0.459697  1
  Bi  Bi24  1  0.565296  0.993560  0.327982  1
  Bi  Bi25  1  0.065296  0.506440  0.172018  1
  Bi  Bi26  1  0.434704  0.493560  0.672018  1
  Bi  Bi27  1  0.934704  0.006440  0.827982  1
  Bi  Bi28  1  0.434965  0.006134  0.672171  1
  Bi  Bi29  1  0.934965  0.493866  0.827829  1
  Bi  Bi30  1  0.565035  0.506134  0.327829  1
  Bi  Bi31  1  0.065035  0.993866  0.172171  1
