# generated using pymatgen
data_LiZrScZnPt2
_symmetry_space_group_name_H-M   'P 1'
_cell_length_a   5.08836530
_cell_length_b   5.08836556
_cell_length_c   5.23264335
_cell_angle_alpha   89.78579801
_cell_angle_beta   90.21420543
_cell_angle_gamma   129.30141308
_symmetry_Int_Tables_number   1
_chemical_formula_structural   LiZrScZnPt2
_chemical_formula_sum   'Li1 Zr1 Sc1 Zn1 Pt2'
_cell_volume   104.83746985
_cell_formula_units_Z   1
loop_
 _symmetry_equiv_pos_site_id
 _symmetry_equiv_pos_as_xyz
  1  'x, y, z'
loop_
 _atom_site_type_symbol
 _atom_site_label
 _atom_site_symmetry_multiplicity
 _atom_site_fract_x
 _atom_site_fract_y
 _atom_site_fract_z
 _atom_site_occupancy
  Li  Li0  1  0.003102  0.996898  0.500732  1
  Zr  Zr1  1  0.708966  0.291034  0.249171  1
  Sc  Sc2  1  0.289701  0.710299  0.748202  1
  Zn  Zn3  1  0.003837  0.996163  0.003361  1
  Pt  Pt4  1  0.394566  0.605434  0.252211  1
  Pt  Pt5  1  0.599828  0.400172  0.746322  1
