# generated using pymatgen
data_TlAgHg2(Pt2O7)2
_symmetry_space_group_name_H-M   'P 1'
_cell_length_a   7.27143278
_cell_length_b   7.32517921
_cell_length_c   7.25761445
_cell_angle_alpha   60.11084353
_cell_angle_beta   59.93697938
_cell_angle_gamma   60.24241337
_symmetry_Int_Tables_number   1
_chemical_formula_structural   TlAgHg2(Pt2O7)2
_chemical_formula_sum   'Tl1 Ag1 Hg2 Pt4 O14'
_cell_volume   273.94409112
_cell_formula_units_Z   1
loop_
 _symmetry_equiv_pos_site_id
 _symmetry_equiv_pos_as_xyz
  1  'x, y, z'
loop_
 _atom_site_type_symbol
 _atom_site_label
 _atom_site_symmetry_multiplicity
 _atom_site_fract_x
 _atom_site_fract_y
 _atom_site_fract_z
 _atom_site_occupancy
  Tl  Tl0  1  0.125000  0.625000  0.125000  1
  Ag  Ag1  1  0.125000  0.125000  0.625000  1
  Hg  Hg2  1  0.125000  0.125000  0.125000  1
  Hg  Hg3  1  0.625000  0.125000  0.125000  1
  Pt  Pt4  1  0.625000  0.625000  0.125000  1
  Pt  Pt5  1  0.625000  0.625000  0.625000  1
  Pt  Pt6  1  0.625000  0.125000  0.625000  1
  Pt  Pt7  1  0.125000  0.625000  0.625000  1
  O  O8  1  0.703958  0.297084  0.295000  1
  O  O9  1  0.706882  0.297407  0.700754  1
  O  O10  1  0.001576  0.019099  0.977749  1
  O  O11  1  0.292737  0.701248  0.292628  1
  O  O12  1  0.713388  0.701248  0.292628  1
  O  O13  1  0.956780  0.547370  0.539070  1
  O  O14  1  0.293220  0.702630  0.710930  1
  O  O15  1  0.248424  0.230901  0.272251  1
  O  O16  1  0.957263  0.548752  0.957372  1
  O  O17  1  0.543118  0.952593  0.549246  1
  O  O18  1  0.536612  0.548752  0.957372  1
  O  O19  1  0.955042  0.952593  0.549246  1
  O  O20  1  0.546042  0.952916  0.955000  1
  O  O21  1  0.294958  0.297407  0.700754  1
