# generated using pymatgen
data_CaLaMnIr3
_symmetry_space_group_name_H-M   'P 1'
_cell_length_a   5.55725592
_cell_length_b   5.55725509
_cell_length_c   5.27302667
_cell_angle_alpha   58.20030153
_cell_angle_beta   58.20030404
_cell_angle_gamma   59.99999607
_symmetry_Int_Tables_number   1
_chemical_formula_structural   CaLaMnIr3
_chemical_formula_sum   'Ca1 La1 Mn1 Ir3'
_cell_volume   111.91799505
_cell_formula_units_Z   1
loop_
 _symmetry_equiv_pos_site_id
 _symmetry_equiv_pos_as_xyz
  1  'x, y, z'
loop_
 _atom_site_type_symbol
 _atom_site_label
 _atom_site_symmetry_multiplicity
 _atom_site_fract_x
 _atom_site_fract_y
 _atom_site_fract_z
 _atom_site_occupancy
  Ca  Ca0  1  0.999948  0.999948  0.000155  1
  La  La1  1  0.249058  0.249058  0.252826  1
  Mn  Mn2  1  0.625340  0.625340  0.123980  1
  Ir  Ir3  1  0.626050  0.626050  0.624346  1
  Ir  Ir4  1  0.123555  0.626050  0.624346  1
  Ir  Ir5  1  0.626050  0.123555  0.624346  1
