# generated using pymatgen
data_MgTaP7Ru12
_symmetry_space_group_name_H-M   'P 1'
_cell_length_a   9.37491500
_cell_length_b   9.37491378
_cell_length_c   3.88470300
_cell_angle_alpha   90.00000000
_cell_angle_beta   90.00000000
_cell_angle_gamma   119.99999985
_symmetry_Int_Tables_number   1
_chemical_formula_structural   MgTaP7Ru12
_chemical_formula_sum   'Mg1 Ta1 P7 Ru12'
_cell_volume   295.68076567
_cell_formula_units_Z   1
loop_
 _symmetry_equiv_pos_site_id
 _symmetry_equiv_pos_as_xyz
  1  'x, y, z'
loop_
 _atom_site_type_symbol
 _atom_site_label
 _atom_site_symmetry_multiplicity
 _atom_site_fract_x
 _atom_site_fract_y
 _atom_site_fract_z
 _atom_site_occupancy
  Mg  Mg0  1  0.333333  0.666667  0.000000  1
  Ta  Ta1  1  0.666667  0.333333  0.500000  1
  P  P2  1  0.598041  0.720938  0.500000  1
  P  P3  1  0.000000  0.000000  0.000000  1
  P  P4  1  0.279062  0.877104  0.500000  1
  P  P5  1  0.122896  0.401959  0.500000  1
  P  P6  1  0.888381  0.573818  0.000000  1
  P  P7  1  0.426182  0.314564  0.000000  1
  P  P8  1  0.685436  0.111619  0.000000  1
  Ru  Ru9  1  0.553191  0.953893  0.500000  1
  Ru  Ru10  1  0.400703  0.446809  0.500000  1
  Ru  Ru11  1  0.913821  0.123030  0.500000  1
  Ru  Ru12  1  0.209209  0.086179  0.500000  1
  Ru  Ru13  1  0.876970  0.790791  0.500000  1
  Ru  Ru14  1  0.724516  0.886391  0.000000  1
  Ru  Ru15  1  0.113609  0.838125  0.000000  1
  Ru  Ru16  1  0.161875  0.275484  0.000000  1
  Ru  Ru17  1  0.431206  0.080918  0.000000  1
  Ru  Ru18  1  0.919082  0.350289  0.000000  1
  Ru  Ru19  1  0.649711  0.568794  0.000000  1
  Ru  Ru20  1  0.046107  0.599297  0.500000  1
