# generated using pymatgen
data_YbPaF6
_symmetry_space_group_name_H-M   'P 1'
_cell_length_a   6.28430185
_cell_length_b   6.28430282
_cell_length_c   6.28430200
_cell_angle_alpha   60.00000430
_cell_angle_beta   59.99999919
_cell_angle_gamma   60.00000153
_symmetry_Int_Tables_number   1
_chemical_formula_structural   YbPaF6
_chemical_formula_sum   'Yb1 Pa1 F6'
_cell_volume   175.49154878
_cell_formula_units_Z   1
loop_
 _symmetry_equiv_pos_site_id
 _symmetry_equiv_pos_as_xyz
  1  'x, y, z'
loop_
 _atom_site_type_symbol
 _atom_site_label
 _atom_site_symmetry_multiplicity
 _atom_site_fract_x
 _atom_site_fract_y
 _atom_site_fract_z
 _atom_site_occupancy
  Yb  Yb0  1  0.499999  0.499999  0.499999  1
  Pa  Pa1  1  0.000000  0.000000  0.000000  1
  F  F2  1  0.751121  0.248878  0.248878  1
  F  F3  1  0.248878  0.751121  0.248878  1
  F  F4  1  0.751122  0.751122  0.248877  1
  F  F5  1  0.751122  0.248877  0.751122  1
  F  F6  1  0.248877  0.751122  0.751122  1
  F  F7  1  0.248878  0.248878  0.751121  1
