# generated using pymatgen
data_Dy2Zn14Ru3
_symmetry_space_group_name_H-M   'P 1'
_cell_length_a   6.82378788
_cell_length_b   6.82378688
_cell_length_c   6.82378719
_cell_angle_alpha   98.13046909
_cell_angle_beta   81.86953047
_cell_angle_gamma   98.13047007
_symmetry_Int_Tables_number   1
_chemical_formula_structural   Dy2Zn14Ru3
_chemical_formula_sum   'Dy2 Zn14 Ru3'
_cell_volume   308.98839820
_cell_formula_units_Z   1
loop_
 _symmetry_equiv_pos_site_id
 _symmetry_equiv_pos_as_xyz
  1  'x, y, z'
loop_
 _atom_site_type_symbol
 _atom_site_label
 _atom_site_symmetry_multiplicity
 _atom_site_fract_x
 _atom_site_fract_y
 _atom_site_fract_z
 _atom_site_occupancy
  Dy  Dy0  1  0.321739  0.678261  0.321738  1
  Dy  Dy1  1  0.678262  0.321738  0.678261  1
  Zn  Zn2  1  0.292654  0.292653  0.000000  1
  Zn  Zn3  1  0.707345  0.707345  0.000000  1
  Zn  Zn4  1  0.101294  0.898707  0.101293  1
  Zn  Zn5  1  0.648023  0.351978  0.158606  1
  Zn  Zn6  1  0.000000  0.292654  0.292654  1
  Zn  Zn7  1  0.707347  0.000000  0.292653  1
  Zn  Zn8  1  0.351978  0.158606  0.351978  1
  Zn  Zn9  1  0.841393  0.648021  0.351978  1
  Zn  Zn10  1  0.158606  0.351978  0.648022  1
  Zn  Zn11  1  0.648023  0.841394  0.648022  1
  Zn  Zn12  1  0.000000  0.707346  0.707346  1
  Zn  Zn13  1  0.292654  0.000000  0.707345  1
  Zn  Zn14  1  0.351978  0.648023  0.841394  1
  Zn  Zn15  1  0.898707  0.101294  0.898706  1
  Ru  Ru16  1  0.500000  0.999999  0.000000  1
  Ru  Ru17  1  0.999999  0.500000  0.000001  1
  Ru  Ru18  1  0.000000  0.000001  0.500000  1
