# generated using pymatgen
data_Ti2Tl4P6Se25
_symmetry_space_group_name_H-M   'P 1'
_cell_length_a   7.03481802
_cell_length_b   18.70741294
_cell_length_c   19.50664200
_cell_angle_alpha   88.05707807
_cell_angle_beta   79.61167826
_cell_angle_gamma   79.16261403
_symmetry_Int_Tables_number   1
_chemical_formula_structural   Ti2Tl4P6Se25
_chemical_formula_sum   'Ti4 Tl8 P12 Se50'
_cell_volume   2480.02253774
_cell_formula_units_Z   2
loop_
 _symmetry_equiv_pos_site_id
 _symmetry_equiv_pos_as_xyz
  1  'x, y, z'
loop_
 _atom_site_type_symbol
 _atom_site_label
 _atom_site_symmetry_multiplicity
 _atom_site_fract_x
 _atom_site_fract_y
 _atom_site_fract_z
 _atom_site_occupancy
  Ti  Ti0  1  0.591722  0.751410  0.438418  1
  Ti  Ti1  1  0.780140  0.251410  0.061582  1
  Ti  Ti2  1  0.093131  0.748590  0.938418  1
  Ti  Ti3  1  0.781549  0.248590  0.561582  1
  Tl  Tl4  1  0.029292  0.150457  0.856229  1
  Tl  Tl5  1  0.624660  0.130344  0.278073  1
  Tl  Tl6  1  0.635521  0.650457  0.643771  1
  Tl  Tl7  1  0.929750  0.349543  0.356229  1
  Tl  Tl8  1  0.505003  0.369656  0.778073  1
  Tl  Tl9  1  0.035978  0.849543  0.143771  1
  Tl  Tl10  1  0.033077  0.869656  0.721927  1
  Tl  Tl11  1  0.652733  0.630344  0.221927  1
  P  P12  1  0.670693  0.570256  0.429484  1
  P  P13  1  0.670433  0.429744  0.570516  1
  P  P14  1  0.072254  0.666034  0.789298  1
  P  P15  1  0.850177  0.070256  0.070516  1
  P  P16  1  0.611552  0.166034  0.710702  1
  P  P17  1  0.488288  0.833966  0.289298  1
  P  P18  1  0.527584  0.333966  0.210702  1
  P  P19  1  0.202227  0.650142  0.077932  1
  P  P20  1  0.990949  0.929744  0.929484  1
  P  P21  1  0.602370  0.849858  0.577932  1
  P  P22  1  0.930302  0.349858  0.922068  1
  P  P23  1  0.030159  0.150142  0.422068  1
  Se  Se24  1  0.842332  0.744109  0.857773  1
  Se  Se25  1  0.868142  0.500000  0.500000  1
  Se  Se26  1  0.307776  0.442761  0.223628  1
  Se  Se27  1  0.570024  0.194434  0.819953  1
  Se  Se28  1  0.372682  0.724673  0.011073  1
  Se  Se29  1  0.897868  0.353262  0.617322  1
  Se  Se30  1  0.440829  0.493677  0.642800  1
  Se  Se31  1  0.345556  0.834867  0.530563  1
  Se  Se32  1  0.265189  0.853262  0.882678  1
  Se  Se33  1  0.139975  0.694434  0.680047  1
  Se  Se34  1  0.001128  0.146738  0.117322  1
  Se  Se35  1  0.982614  0.462191  0.952721  1
  Se  Se36  1  0.194805  0.037809  0.452721  1
  Se  Se37  1  0.916615  0.156879  0.649948  1
  Se  Se38  1  0.118142  0.000000  0.000000  1
  Se  Se39  1  0.930423  0.665133  0.030563  1
  Se  Se40  1  0.281404  0.942761  0.276372  1
  Se  Se41  1  0.577308  0.506323  0.357200  1
  Se  Se42  1  0.450105  0.244109  0.642227  1
  Se  Se43  1  0.974165  0.557239  0.776372  1
  Se  Se44  1  0.826856  0.853043  0.996842  1
  Se  Se45  1  0.514458  0.305566  0.319953  1
  Se  Se46  1  0.416055  0.037936  0.614554  1
  Se  Se47  1  0.685335  0.962191  0.547279  1
  Se  Se48  1  0.444214  0.255891  0.142227  1
  Se  Se49  1  0.088664  0.166067  0.310871  1
  Se  Se50  1  0.004730  0.333933  0.810871  1
  Se  Se51  1  0.868451  0.646738  0.382678  1
  Se  Se52  1  0.780607  0.537936  0.885446  1
  Se  Se53  1  0.068543  0.962064  0.385446  1
  Se  Se54  1  0.684506  0.006323  0.142800  1
  Se  Se55  1  0.710986  0.165133  0.469437  1
  Se  Se56  1  0.336442  0.755891  0.357773  1
  Se  Se57  1  0.429899  0.646957  0.496842  1
  Se  Se58  1  0.203989  0.462064  0.114554  1
  Se  Se59  1  0.149535  0.666067  0.189129  1
  Se  Se60  1  0.397526  0.537809  0.047279  1
  Se  Se61  1  0.316564  0.656879  0.850052  1
  Se  Se62  1  0.133757  0.224673  0.488927  1
  Se  Se63  1  0.573698  0.353043  0.503158  1
  Se  Se64  1  0.676741  0.146957  0.003158  1
  Se  Se65  1  0.500538  0.057239  0.723628  1
  Se  Se66  1  0.847356  0.775327  0.511073  1
  Se  Se67  1  0.108429  0.275327  0.988927  1
  Se  Se68  1  0.723443  0.843121  0.350052  1
  Se  Se69  1  0.626119  0.334867  0.969437  1
  Se  Se70  1  0.584411  0.805566  0.180047  1
  Se  Se71  1  0.565601  0.833933  0.689129  1
  Se  Se72  1  0.823494  0.343121  0.149948  1
  Se  Se73  1  0.833629  0.993677  0.857200  1
