# generated using pymatgen
data_Na4Ac9Dy7Sn16
_symmetry_space_group_name_H-M   'P 1'
_cell_length_a   8.27603710
_cell_length_b   8.50838959
_cell_length_c   16.21456200
_cell_angle_alpha   90.24075587
_cell_angle_beta   90.09796875
_cell_angle_gamma   90.03334600
_symmetry_Int_Tables_number   1
_chemical_formula_structural   Na4Ac9Dy7Sn16
_chemical_formula_sum   'Na4 Ac9 Dy7 Sn16'
_cell_volume   1141.74856314
_cell_formula_units_Z   1
loop_
 _symmetry_equiv_pos_site_id
 _symmetry_equiv_pos_as_xyz
  1  'x, y, z'
loop_
 _atom_site_type_symbol
 _atom_site_label
 _atom_site_symmetry_multiplicity
 _atom_site_fract_x
 _atom_site_fract_y
 _atom_site_fract_z
 _atom_site_occupancy
  Na  Na0  1  0.823821  0.501826  0.752712  1
  Na  Na1  1  0.324654  0.998565  0.753254  1
  Na  Na2  1  0.176779  0.500547  0.248059  1
  Na  Na3  1  0.676432  0.000577  0.249268  1
  Ac  Ac4  1  0.156922  0.324428  0.622420  1
  Ac  Ac5  1  0.501149  0.679025  0.599163  1
  Ac  Ac6  1  0.001447  0.820901  0.904350  1
  Ac  Ac7  1  0.496913  0.320246  0.098529  1
  Ac  Ac8  1  0.995597  0.180671  0.398788  1
  Ac  Ac9  1  0.497261  0.322319  0.399400  1
  Ac  Ac10  1  0.997232  0.178224  0.097958  1
  Ac  Ac11  1  0.504094  0.680765  0.904912  1
  Ac  Ac12  1  0.001828  0.817283  0.599366  1
  Dy  Dy13  1  0.656630  0.171604  0.626224  1
  Dy  Dy14  1  0.157072  0.326502  0.876792  1
  Dy  Dy15  1  0.342117  0.827156  0.124873  1
  Dy  Dy16  1  0.844679  0.673170  0.372858  1
  Dy  Dy17  1  0.346299  0.827322  0.370206  1
  Dy  Dy18  1  0.843628  0.674288  0.125159  1
  Dy  Dy19  1  0.655467  0.171580  0.877744  1
  Sn  Sn20  1  0.674084  0.955692  0.462406  1
  Sn  Sn21  1  0.170642  0.541514  0.037511  1
  Sn  Sn22  1  0.326182  0.042854  0.964509  1
  Sn  Sn23  1  0.811512  0.458567  0.532283  1
  Sn  Sn24  1  0.339408  0.033216  0.531571  1
  Sn  Sn25  1  0.829824  0.457440  0.964334  1
  Sn  Sn26  1  0.672075  0.957356  0.038354  1
  Sn  Sn27  1  0.172608  0.551173  0.455383  1
  Sn  Sn28  1  0.462294  0.381754  0.756741  1
  Sn  Sn29  1  0.949779  0.115528  0.754252  1
  Sn  Sn30  1  0.545906  0.622445  0.247704  1
  Sn  Sn31  1  0.044266  0.878669  0.249017  1
  Sn  Sn32  1  0.697386  0.876695  0.751750  1
  Sn  Sn33  1  0.204914  0.627678  0.754996  1
  Sn  Sn34  1  0.299076  0.121524  0.248640  1
  Sn  Sn35  1  0.800024  0.380896  0.248510  1
