# generated using pymatgen
data_PrHo5Al24(Os3Ru)2
_symmetry_space_group_name_H-M   'P 1'
_cell_length_a   8.82105475
_cell_length_b   8.82105364
_cell_length_c   9.57237900
_cell_angle_alpha   90.00000000
_cell_angle_beta   90.00000000
_cell_angle_gamma   119.75748231
_symmetry_Int_Tables_number   1
_chemical_formula_structural   PrHo5Al24(Os3Ru)2
_chemical_formula_sum   'Pr1 Ho5 Al24 Os6 Ru2'
_cell_volume   646.61776870
_cell_formula_units_Z   1
loop_
 _symmetry_equiv_pos_site_id
 _symmetry_equiv_pos_as_xyz
  1  'x, y, z'
loop_
 _atom_site_type_symbol
 _atom_site_label
 _atom_site_symmetry_multiplicity
 _atom_site_fract_x
 _atom_site_fract_y
 _atom_site_fract_z
 _atom_site_occupancy
  Pr  Pr0  1  0.808144  0.191856  0.750000  1
  Ho  Ho1  1  0.193134  0.387077  0.250000  1
  Ho  Ho2  1  0.805620  0.611190  0.750000  1
  Ho  Ho3  1  0.612923  0.806866  0.250000  1
  Ho  Ho4  1  0.388810  0.194380  0.750000  1
  Ho  Ho5  1  0.193057  0.806943  0.250000  1
  Al  Al6  1  0.333007  0.666993  0.016609  1
  Al  Al7  1  0.666320  0.333680  0.986781  1
  Al  Al8  1  0.666320  0.333680  0.513219  1
  Al  Al9  1  0.333007  0.666993  0.483391  1
  Al  Al10  1  0.164165  0.324996  0.574858  1
  Al  Al11  1  0.838235  0.676901  0.423062  1
  Al  Al12  1  0.675004  0.835835  0.574858  1
  Al  Al13  1  0.838235  0.676901  0.076938  1
  Al  Al14  1  0.323099  0.161765  0.423062  1
  Al  Al15  1  0.164165  0.324996  0.925142  1
  Al  Al16  1  0.161946  0.838054  0.575182  1
  Al  Al17  1  0.323099  0.161765  0.076938  1
  Al  Al18  1  0.837969  0.162031  0.420669  1
  Al  Al19  1  0.675004  0.835835  0.925142  1
  Al  Al20  1  0.837969  0.162031  0.079331  1
  Al  Al21  1  0.161946  0.838054  0.924818  1
  Al  Al22  1  0.559348  0.120654  0.250000  1
  Al  Al23  1  0.436348  0.875896  0.750000  1
  Al  Al24  1  0.879346  0.440652  0.250000  1
  Al  Al25  1  0.124104  0.563652  0.750000  1
  Al  Al26  1  0.560090  0.439910  0.250000  1
  Al  Al27  1  0.439552  0.560448  0.750000  1
  Al  Al28  1  0.999678  0.000322  0.250000  1
  Al  Al29  1  0.003189  0.996811  0.750000  1
  Os  Os30  1  0.498253  0.999113  0.001362  1
  Os  Os31  1  0.000887  0.501747  0.001362  1
  Os  Os32  1  0.498253  0.999113  0.498638  1
  Os  Os33  1  0.499686  0.500314  0.000697  1
  Os  Os34  1  0.000887  0.501747  0.498638  1
  Os  Os35  1  0.499686  0.500314  0.499303  1
  Ru  Ru36  1  0.999757  0.000243  0.000449  1
  Ru  Ru37  1  0.999757  0.000243  0.499551  1
