# generated using pymatgen
data_Cs(V3S4)4
_symmetry_space_group_name_H-M   'P 1'
_cell_length_a   9.83235167
_cell_length_b   9.83235199
_cell_length_c   9.29528328
_cell_angle_alpha   61.68460697
_cell_angle_beta   61.68460751
_cell_angle_gamma   38.24330257
_symmetry_Int_Tables_number   1
_chemical_formula_structural   Cs(V3S4)4
_chemical_formula_sum   'Cs1 V12 S16'
_cell_volume   481.07446564
_cell_formula_units_Z   1
loop_
 _symmetry_equiv_pos_site_id
 _symmetry_equiv_pos_as_xyz
  1  'x, y, z'
loop_
 _atom_site_type_symbol
 _atom_site_label
 _atom_site_symmetry_multiplicity
 _atom_site_fract_x
 _atom_site_fract_y
 _atom_site_fract_z
 _atom_site_occupancy
  Cs  Cs0  1  0.374846  0.374846  0.999710  1
  V  V1  1  0.932957  0.932957  0.510289  1
  V  V2  1  0.433017  0.433017  0.515850  1
  V  V3  1  0.130635  0.130635  0.374973  1
  V  V4  1  0.633214  0.633214  0.366835  1
  V  V5  1  0.058217  0.058217  0.116493  1
  V  V6  1  0.562506  0.562506  0.114654  1
  V  V7  1  0.065728  0.569240  0.491618  1
  V  V8  1  0.569240  0.065728  0.491618  1
  V  V9  1  0.876239  0.364429  0.623589  1
  V  V10  1  0.364429  0.876239  0.623589  1
  V  V11  1  0.932047  0.441924  0.885174  1
  V  V12  1  0.441924  0.932047  0.885174  1
  S  S13  1  0.528092  0.528092  0.637833  1
  S  S14  1  0.022325  0.022325  0.651101  1
  S  S15  1  0.700781  0.700781  0.053154  1
  S  S16  1  0.193339  0.193339  0.057307  1
  S  S17  1  0.403656  0.403656  0.304895  1
  S  S18  1  0.901242  0.901242  0.297217  1
  S  S19  1  0.477758  0.977925  0.348947  1
  S  S20  1  0.977925  0.477758  0.348947  1
  S  S21  1  0.299410  0.799828  0.945257  1
  S  S22  1  0.799828  0.299410  0.945257  1
  S  S23  1  0.600393  0.095265  0.705223  1
  S  S24  1  0.095265  0.600393  0.705223  1
  S  S25  1  0.707611  0.707611  0.666021  1
  S  S26  1  0.208751  0.208751  0.667670  1
  S  S27  1  0.291264  0.792362  0.333190  1
  S  S28  1  0.792362  0.291264  0.333190  1
