# generated using pymatgen
data_BaLa3(CoH5)4
_symmetry_space_group_name_H-M   'P 1'
_cell_length_a   4.65040187
_cell_length_b   6.44315718
_cell_length_c   8.49402976
_cell_angle_alpha   90.80641668
_cell_angle_beta   89.89075340
_cell_angle_gamma   89.89837591
_symmetry_Int_Tables_number   1
_chemical_formula_structural   BaLa3(CoH5)4
_chemical_formula_sum   'Ba1 La3 Co4 H20'
_cell_volume   254.48282592
_cell_formula_units_Z   1
loop_
 _symmetry_equiv_pos_site_id
 _symmetry_equiv_pos_as_xyz
  1  'x, y, z'
loop_
 _atom_site_type_symbol
 _atom_site_label
 _atom_site_symmetry_multiplicity
 _atom_site_fract_x
 _atom_site_fract_y
 _atom_site_fract_z
 _atom_site_occupancy
  Ba  Ba0  1  0.239958  0.143088  0.684338  1
  La  La1  1  0.244179  0.354357  0.186381  1
  La  La2  1  0.742222  0.647173  0.814855  1
  La  La3  1  0.743310  0.854735  0.311048  1
  Co  Co4  1  0.233540  0.649840  0.537507  1
  Co  Co5  1  0.730650  0.358830  0.443001  1
  Co  Co6  1  0.730729  0.149584  0.968474  1
  Co  Co7  1  0.235237  0.842311  0.051751  1
  H  H8  1  0.922317  0.543872  0.513694  1
  H  H9  1  0.416499  0.452101  0.478970  1
  H  H10  1  0.423554  0.039506  0.994158  1
  H  H11  1  0.929233  0.953425  0.012570  1
  H  H12  1  0.001937  0.667645  0.092719  1
  H  H13  1  0.515090  0.335437  0.927646  1
  H  H14  1  0.512047  0.176422  0.396804  1
  H  H15  1  0.994165  0.816800  0.580161  1
  H  H16  1  0.494940  0.684185  0.088465  1
  H  H17  1  0.974878  0.317751  0.931225  1
  H  H18  1  0.979137  0.194559  0.401056  1
  H  H19  1  0.500434  0.797263  0.576728  1
  H  H20  1  0.240636  0.766526  0.878185  1
  H  H21  1  0.737687  0.209440  0.144519  1
  H  H22  1  0.735837  0.297347  0.617095  1
  H  H23  1  0.238055  0.715170  0.363330  1
  H  H24  1  0.237504  0.959951  0.218887  1
  H  H25  1  0.736566  0.041216  0.800059  1
  H  H26  1  0.737938  0.469864  0.276920  1
  H  H27  1  0.239722  0.561603  0.709455  1
