# generated using pymatgen
data_Sr2(Ni3B2)3
_symmetry_space_group_name_H-M   'P 1'
_cell_length_a   7.47356199
_cell_length_b   7.47356265
_cell_length_c   7.47356193
_cell_angle_alpha   97.34780258
_cell_angle_beta   82.65220637
_cell_angle_gamma   97.34779204
_symmetry_Int_Tables_number   1
_chemical_formula_structural   Sr2(Ni3B2)3
_chemical_formula_sum   'Sr4 Ni18 B12'
_cell_volume   407.95353507
_cell_formula_units_Z   2
loop_
 _symmetry_equiv_pos_site_id
 _symmetry_equiv_pos_as_xyz
  1  'x, y, z'
loop_
 _atom_site_type_symbol
 _atom_site_label
 _atom_site_symmetry_multiplicity
 _atom_site_fract_x
 _atom_site_fract_y
 _atom_site_fract_z
 _atom_site_occupancy
  Sr  Sr0  1  0.126211  0.873788  0.126211  1
  Sr  Sr1  1  0.373789  0.626211  0.373788  1
  Sr  Sr2  1  0.626212  0.373788  0.626211  1
  Sr  Sr3  1  0.873788  0.126211  0.873788  1
  Ni  Ni4  1  0.606641  0.417534  0.062743  1
  Ni  Ni5  1  0.106641  0.437256  0.082466  1
  Ni  Ni6  1  0.562744  0.917534  0.106641  1
  Ni  Ni7  1  0.750000  0.711295  0.211294  1
  Ni  Ni8  1  0.711295  0.211295  0.250000  1
  Ni  Ni9  1  0.211294  0.250000  0.288705  1
  Ni  Ni10  1  0.417535  0.062744  0.393359  1
  Ni  Ni11  1  0.937256  0.606641  0.417534  1
  Ni  Ni12  1  0.917534  0.106641  0.437257  1
  Ni  Ni13  1  0.082465  0.893359  0.562744  1
  Ni  Ni14  1  0.062743  0.393360  0.582466  1
  Ni  Ni15  1  0.582465  0.937256  0.606640  1
  Ni  Ni16  1  0.788704  0.750000  0.711295  1
  Ni  Ni17  1  0.288705  0.788705  0.749999  1
  Ni  Ni18  1  0.250000  0.288705  0.788704  1
  Ni  Ni19  1  0.437257  0.082466  0.893359  1
  Ni  Ni20  1  0.893360  0.562744  0.917534  1
  Ni  Ni21  1  0.393359  0.582465  0.937256  1
  B  B22  1  0.342170  0.314784  0.040661  1
  B  B23  1  0.459340  0.185216  0.157830  1
  B  B24  1  0.842170  0.459340  0.185217  1
  B  B25  1  0.959340  0.342170  0.314784  1
  B  B26  1  0.685216  0.959340  0.342170  1
  B  B27  1  0.814784  0.842170  0.459340  1
  B  B28  1  0.185216  0.157830  0.540661  1
  B  B29  1  0.314785  0.040661  0.657830  1
  B  B30  1  0.040660  0.657830  0.685216  1
  B  B31  1  0.157830  0.540660  0.814784  1
  B  B32  1  0.540661  0.814784  0.842170  1
  B  B33  1  0.657830  0.685216  0.959340  1
