# generated using pymatgen
data_Dy5Tm(AlC3)2
_symmetry_space_group_name_H-M   'P 1'
_cell_length_a   3.55604400
_cell_length_b   7.02765975
_cell_length_c   9.96857789
_cell_angle_alpha   89.84730292
_cell_angle_beta   90.00000000
_cell_angle_gamma   90.00000000
_symmetry_Int_Tables_number   1
_chemical_formula_structural   Dy5Tm(AlC3)2
_chemical_formula_sum   'Dy5 Tm1 Al2 C6'
_cell_volume   249.12052868
_cell_formula_units_Z   1
loop_
 _symmetry_equiv_pos_site_id
 _symmetry_equiv_pos_as_xyz
  1  'x, y, z'
loop_
 _atom_site_type_symbol
 _atom_site_label
 _atom_site_symmetry_multiplicity
 _atom_site_fract_x
 _atom_site_fract_y
 _atom_site_fract_z
 _atom_site_occupancy
  Dy  Dy0  1  0.500000  0.510050  0.199260  1
  Dy  Dy1  1  0.500000  0.489936  0.800209  1
  Dy  Dy2  1  0.500000  0.990833  0.200637  1
  Dy  Dy3  1  0.000000  0.749643  0.458884  1
  Dy  Dy4  1  0.000000  0.249533  0.541328  1
  Tm  Tm5  1  0.500000  0.013051  0.799152  1
  Al  Al6  1  0.000000  0.754574  0.004313  1
  Al  Al7  1  0.000000  0.246192  0.993767  1
  C  C8  1  0.500000  0.508788  0.566073  1
  C  C9  1  0.500000  0.490678  0.433728  1
  C  C10  1  0.500000  0.990293  0.568223  1
  C  C11  1  0.500000  0.008287  0.435599  1
  C  C12  1  0.000000  0.750477  0.207745  1
  C  C13  1  0.000000  0.247665  0.791083  1
