# generated using pymatgen
data_HoLuB6Rh
_symmetry_space_group_name_H-M   'P 1'
_cell_length_a   3.61577800
_cell_length_b   9.10149800
_cell_length_c   11.44022700
_cell_angle_alpha   90.00000000
_cell_angle_beta   90.00000000
_cell_angle_gamma   90.00000000
_symmetry_Int_Tables_number   1
_chemical_formula_structural   HoLuB6Rh
_chemical_formula_sum   'Ho4 Lu4 B24 Rh4'
_cell_volume   376.48638728
_cell_formula_units_Z   4
loop_
 _symmetry_equiv_pos_site_id
 _symmetry_equiv_pos_as_xyz
  1  'x, y, z'
loop_
 _atom_site_type_symbol
 _atom_site_label
 _atom_site_symmetry_multiplicity
 _atom_site_fract_x
 _atom_site_fract_y
 _atom_site_fract_z
 _atom_site_occupancy
  Ho  Ho0  1  0.500000  0.321634  0.413672  1
  Ho  Ho1  1  0.500000  0.678366  0.586328  1
  Ho  Ho2  1  0.500000  0.178366  0.913672  1
  Ho  Ho3  1  0.500000  0.821634  0.086328  1
  Lu  Lu4  1  0.500000  0.444593  0.126806  1
  Lu  Lu5  1  0.500000  0.555407  0.873194  1
  Lu  Lu6  1  0.500000  0.055407  0.626806  1
  Lu  Lu7  1  0.500000  0.944593  0.373194  1
  B  B8  1  0.000000  0.106487  0.471215  1
  B  B9  1  0.000000  0.893513  0.528785  1
  B  B10  1  0.000000  0.393513  0.971215  1
  B  B11  1  0.000000  0.606487  0.028785  1
  B  B12  1  0.000000  0.132436  0.316795  1
  B  B13  1  0.000000  0.867564  0.683205  1
  B  B14  1  0.000000  0.367564  0.816795  1
  B  B15  1  0.000000  0.632436  0.183205  1
  B  B16  1  0.000000  0.054408  0.065360  1
  B  B17  1  0.000000  0.945592  0.934640  1
  B  B18  1  0.000000  0.445592  0.565360  1
  B  B19  1  0.000000  0.554408  0.434640  1
  B  B20  1  0.000000  0.482758  0.286048  1
  B  B21  1  0.000000  0.517242  0.713952  1
  B  B22  1  0.000000  0.017242  0.786048  1
  B  B23  1  0.000000  0.982758  0.213952  1
  B  B24  1  0.000000  0.250995  0.079633  1
  B  B25  1  0.000000  0.749005  0.920367  1
  B  B26  1  0.000000  0.249005  0.579633  1
  B  B27  1  0.000000  0.750995  0.420367  1
  B  B28  1  0.000000  0.295072  0.235875  1
  B  B29  1  0.000000  0.704928  0.764125  1
  B  B30  1  0.000000  0.204928  0.735875  1
  B  B31  1  0.000000  0.795072  0.264125  1
  Rh  Rh32  1  0.500000  0.140419  0.179569  1
  Rh  Rh33  1  0.500000  0.859581  0.820431  1
  Rh  Rh34  1  0.500000  0.359581  0.679569  1
  Rh  Rh35  1  0.500000  0.640419  0.320431  1
