# generated using pymatgen
data_Ho12Fe2Co2SnPt
_symmetry_space_group_name_H-M   'P 1'
_cell_length_a   8.27631947
_cell_length_b   8.27631909
_cell_length_c   8.27631889
_cell_angle_alpha   111.82999159
_cell_angle_beta   110.91813778
_cell_angle_gamma   105.73048213
_symmetry_Int_Tables_number   1
_chemical_formula_structural   Ho12Fe2Co2SnPt
_chemical_formula_sum   'Ho12 Fe2 Co2 Sn1 Pt1'
_cell_volume   434.99211327
_cell_formula_units_Z   1
loop_
 _symmetry_equiv_pos_site_id
 _symmetry_equiv_pos_as_xyz
  1  'x, y, z'
loop_
 _atom_site_type_symbol
 _atom_site_label
 _atom_site_symmetry_multiplicity
 _atom_site_fract_x
 _atom_site_fract_y
 _atom_site_fract_z
 _atom_site_occupancy
  Ho  Ho0  1  0.415414  0.215843  0.199572  1
  Ho  Ho1  1  0.584586  0.784157  0.800428  1
  Ho  Ho2  1  0.016271  0.215843  0.800428  1
  Ho  Ho3  1  0.983729  0.784157  0.199572  1
  Ho  Ho4  1  0.187352  0.287610  0.474961  1
  Ho  Ho5  1  0.812648  0.712390  0.525039  1
  Ho  Ho6  1  0.187352  0.712390  0.899742  1
  Ho  Ho7  1  0.812648  0.287610  0.100258  1
  Ho  Ho8  1  0.313749  0.619026  0.305277  1
  Ho  Ho9  1  0.686251  0.380974  0.694723  1
  Ho  Ho10  1  0.313749  0.008470  0.694723  1
  Ho  Ho11  1  0.686251  0.991530  0.305277  1
  Fe  Fe12  1  0.384137  0.000000  0.384137  1
  Fe  Fe13  1  0.615863  0.000000  0.615863  1
  Co  Co14  1  0.110610  0.610610  0.500000  1
  Co  Co15  1  0.889390  0.389390  0.500000  1
  Sn  Sn16  1  0.500000  0.500000  0.000000  1
  Pt  Pt17  1  0.000000  0.000000  0.000000  1
