# generated using pymatgen
data_NdLu2PtO7
_symmetry_space_group_name_H-M   'P 1'
_cell_length_a   6.41225742
_cell_length_b   6.41225601
_cell_length_c   7.45073100
_cell_angle_alpha   90.00000000
_cell_angle_beta   90.00000000
_cell_angle_gamma   109.29263963
_symmetry_Int_Tables_number   1
_chemical_formula_structural   NdLu2PtO7
_chemical_formula_sum   'Nd2 Lu4 Pt2 O14'
_cell_volume   289.14829146
_cell_formula_units_Z   2
loop_
 _symmetry_equiv_pos_site_id
 _symmetry_equiv_pos_as_xyz
  1  'x, y, z'
loop_
 _atom_site_type_symbol
 _atom_site_label
 _atom_site_symmetry_multiplicity
 _atom_site_fract_x
 _atom_site_fract_y
 _atom_site_fract_z
 _atom_site_occupancy
  Nd  Nd0  1  0.500000  0.500000  0.500000  1
  Nd  Nd1  1  0.500000  0.500000  0.000000  1
  Lu  Lu2  1  0.531744  0.000659  0.750000  1
  Lu  Lu3  1  0.000659  0.531744  0.250000  1
  Lu  Lu4  1  0.468256  0.999341  0.250000  1
  Lu  Lu5  1  0.999341  0.468256  0.750000  1
  Pt  Pt6  1  0.000000  0.000000  0.500000  1
  Pt  Pt7  1  0.000000  0.000000  0.000000  1
  O  O8  1  0.672177  0.928194  0.473741  1
  O  O9  1  0.928194  0.672177  0.526259  1
  O  O10  1  0.672177  0.928194  0.026259  1
  O  O11  1  0.928194  0.672177  0.973741  1
  O  O12  1  0.327823  0.071806  0.526259  1
  O  O13  1  0.071806  0.327823  0.473741  1
  O  O14  1  0.327823  0.071806  0.973741  1
  O  O15  1  0.071806  0.327823  0.026259  1
  O  O16  1  0.922250  0.077750  0.750000  1
  O  O17  1  0.077750  0.922250  0.250000  1
  O  O18  1  0.357286  0.642714  0.750000  1
  O  O19  1  0.642714  0.357286  0.250000  1
  O  O20  1  0.644695  0.355305  0.750000  1
  O  O21  1  0.355305  0.644695  0.250000  1
