# generated using pymatgen
data_Th2Co7B3
_symmetry_space_group_name_H-M   'P 1'
_cell_length_a   5.03906600
_cell_length_b   5.03906686
_cell_length_c   13.17275600
_cell_angle_alpha   90.00000000
_cell_angle_beta   90.00000000
_cell_angle_gamma   120.00002065
_symmetry_Int_Tables_number   1
_chemical_formula_structural   Th2Co7B3
_chemical_formula_sum   'Th4 Co14 B6'
_cell_volume   289.67255886
_cell_formula_units_Z   2
loop_
 _symmetry_equiv_pos_site_id
 _symmetry_equiv_pos_as_xyz
  1  'x, y, z'
loop_
 _atom_site_type_symbol
 _atom_site_label
 _atom_site_symmetry_multiplicity
 _atom_site_fract_x
 _atom_site_fract_y
 _atom_site_fract_z
 _atom_site_occupancy
  Th  Th0  1  0.000000  0.000000  0.256466  1
  Th  Th1  1  0.000000  0.000000  0.500000  1
  Th  Th2  1  0.000000  0.000000  0.000000  1
  Th  Th3  1  0.000000  0.000000  0.743534  1
  Co  Co4  1  0.500000  0.500000  0.156031  1
  Co  Co5  1  0.500000  0.500000  0.383471  1
  Co  Co6  1  0.000000  0.500000  0.843969  1
  Co  Co7  1  0.500000  0.000000  0.156031  1
  Co  Co8  1  0.500000  0.000000  0.843969  1
  Co  Co9  1  0.500000  0.500000  0.616529  1
  Co  Co10  1  0.500000  0.000000  0.383471  1
  Co  Co11  1  0.000000  0.500000  0.156031  1
  Co  Co12  1  0.000000  0.500000  0.383471  1
  Co  Co13  1  0.500000  0.500000  0.843969  1
  Co  Co14  1  0.500000  0.000000  0.616529  1
  Co  Co15  1  0.000000  0.500000  0.616529  1
  Co  Co16  1  0.666667  0.333333  0.000000  1
  Co  Co17  1  0.333333  0.666667  0.000000  1
  B  B18  1  0.333333  0.666667  0.267872  1
  B  B19  1  0.666667  0.333333  0.500000  1
  B  B20  1  0.333333  0.666667  0.732128  1
  B  B21  1  0.666667  0.333333  0.267872  1
  B  B22  1  0.666667  0.333333  0.732128  1
  B  B23  1  0.333333  0.666667  0.500000  1
