# generated using pymatgen
data_Tb5HoTh2(MgIr)2
_symmetry_space_group_name_H-M   'P 1'
_cell_length_a   9.82673178
_cell_length_b   9.82673242
_cell_length_c   9.83100500
_cell_angle_alpha   59.98561955
_cell_angle_beta   59.98561738
_cell_angle_gamma   60.02876848
_symmetry_Int_Tables_number   1
_chemical_formula_structural   Tb5HoTh2(MgIr)2
_chemical_formula_sum   'Tb10 Ho2 Th4 Mg4 Ir4'
_cell_volume   671.27582260
_cell_formula_units_Z   2
loop_
 _symmetry_equiv_pos_site_id
 _symmetry_equiv_pos_as_xyz
  1  'x, y, z'
loop_
 _atom_site_type_symbol
 _atom_site_label
 _atom_site_symmetry_multiplicity
 _atom_site_fract_x
 _atom_site_fract_y
 _atom_site_fract_z
 _atom_site_occupancy
  Tb  Tb0  1  0.812618  0.187382  0.187382  1
  Tb  Tb1  1  0.187382  0.812618  0.812618  1
  Tb  Tb2  1  0.187382  0.812618  0.187382  1
  Tb  Tb3  1  0.812618  0.187382  0.812618  1
  Tb  Tb4  1  0.187264  0.187264  0.812736  1
  Tb  Tb5  1  0.812736  0.812736  0.187264  1
  Tb  Tb6  1  0.934663  0.565337  0.565337  1
  Tb  Tb7  1  0.565337  0.934663  0.934663  1
  Tb  Tb8  1  0.565337  0.934663  0.565337  1
  Tb  Tb9  1  0.934663  0.565337  0.934663  1
  Ho  Ho10  1  0.564960  0.564960  0.935040  1
  Ho  Ho11  1  0.935040  0.935040  0.564960  1
  Th  Th12  1  0.348047  0.348047  0.347877  1
  Th  Th13  1  0.348047  0.348047  0.956028  1
  Th  Th14  1  0.347877  0.956028  0.348047  1
  Th  Th15  1  0.956028  0.347877  0.348047  1
  Mg  Mg16  1  0.580352  0.580352  0.580591  1
  Mg  Mg17  1  0.580352  0.580352  0.258705  1
  Mg  Mg18  1  0.580591  0.258705  0.580352  1
  Mg  Mg19  1  0.258705  0.580591  0.580352  1
  Ir  Ir20  1  0.143581  0.143581  0.143887  1
  Ir  Ir21  1  0.143581  0.143581  0.568954  1
  Ir  Ir22  1  0.143887  0.568954  0.143581  1
  Ir  Ir23  1  0.568954  0.143887  0.143581  1
