# generated using pymatgen
data_Cs4Ta2PbS8
_symmetry_space_group_name_H-M   'P 1'
_cell_length_a   9.83901807
_cell_length_b   10.05515013
_cell_length_c   12.19483991
_cell_angle_alpha   106.63779977
_cell_angle_beta   103.53417739
_cell_angle_gamma   93.97724065
_symmetry_Int_Tables_number   1
_chemical_formula_structural   Cs4Ta2PbS8
_chemical_formula_sum   'Cs8 Ta4 Pb2 S16'
_cell_volume   1111.75165878
_cell_formula_units_Z   2
loop_
 _symmetry_equiv_pos_site_id
 _symmetry_equiv_pos_as_xyz
  1  'x, y, z'
loop_
 _atom_site_type_symbol
 _atom_site_label
 _atom_site_symmetry_multiplicity
 _atom_site_fract_x
 _atom_site_fract_y
 _atom_site_fract_z
 _atom_site_occupancy
  Cs  Cs0  1  0.938985  0.527139  0.258772  1
  Cs  Cs1  1  0.061015  0.472861  0.741228  1
  Cs  Cs2  1  0.766511  0.997892  0.471548  1
  Cs  Cs3  1  0.233489  0.002108  0.528452  1
  Cs  Cs4  1  0.603483  0.745987  0.020780  1
  Cs  Cs5  1  0.396517  0.254013  0.979220  1
  Cs  Cs6  1  0.617925  0.679741  0.616026  1
  Cs  Cs7  1  0.382075  0.320259  0.383974  1
  Ta  Ta8  1  0.950589  0.111768  0.233112  1
  Ta  Ta9  1  0.049411  0.888232  0.766888  1
  Ta  Ta10  1  0.375362  0.682393  0.258314  1
  Ta  Ta11  1  0.624638  0.317607  0.741686  1
  Pb  Pb12  1  0.846611  0.142188  0.923841  1
  Pb  Pb13  1  0.153389  0.857812  0.076159  1
  S  S14  1  0.956895  0.883268  0.232126  1
  S  S15  1  0.043105  0.116732  0.767874  1
  S  S16  1  0.589788  0.082626  0.728815  1
  S  S17  1  0.410212  0.917374  0.271185  1
  S  S18  1  0.294561  0.660178  0.412937  1
  S  S19  1  0.705439  0.339822  0.587063  1
  S  S20  1  0.793229  0.425033  0.917820  1
  S  S21  1  0.206771  0.574967  0.082180  1
  S  S22  1  0.022542  0.255686  0.421928  1
  S  S23  1  0.977458  0.744314  0.578072  1
  S  S24  1  0.105943  0.163982  0.130949  1
  S  S25  1  0.894057  0.836018  0.869051  1
  S  S26  1  0.730939  0.138593  0.133405  1
  S  S27  1  0.269061  0.861407  0.866595  1
  S  S28  1  0.577237  0.584901  0.262047  1
  S  S29  1  0.422763  0.415099  0.737953  1
