# generated using pymatgen
data_Er2AlGaIrPt
_symmetry_space_group_name_H-M   'P 1'
_cell_length_a   4.33426300
_cell_length_b   6.78845594
_cell_length_c   7.83713473
_cell_angle_alpha   89.88305267
_cell_angle_beta   90.00000000
_cell_angle_gamma   90.00000000
_symmetry_Int_Tables_number   1
_chemical_formula_structural   Er2AlGaIrPt
_chemical_formula_sum   'Er4 Al2 Ga2 Ir2 Pt2'
_cell_volume   230.59116971
_cell_formula_units_Z   2
loop_
 _symmetry_equiv_pos_site_id
 _symmetry_equiv_pos_as_xyz
  1  'x, y, z'
loop_
 _atom_site_type_symbol
 _atom_site_label
 _atom_site_symmetry_multiplicity
 _atom_site_fract_x
 _atom_site_fract_y
 _atom_site_fract_z
 _atom_site_occupancy
  Er  Er0  1  0.250000  0.468691  0.182399  1
  Er  Er1  1  0.750000  0.531309  0.817601  1
  Er  Er2  1  0.750000  0.028407  0.681133  1
  Er  Er3  1  0.250000  0.971593  0.318867  1
  Al  Al4  1  0.750000  0.640611  0.439403  1
  Al  Al5  1  0.250000  0.359389  0.560597  1
  Ga  Ga6  1  0.250000  0.850740  0.935889  1
  Ga  Ga7  1  0.750000  0.149260  0.064111  1
  Ir  Ir8  1  0.250000  0.733979  0.616931  1
  Ir  Ir9  1  0.750000  0.266021  0.383069  1
  Pt  Pt10  1  0.750000  0.765339  0.122134  1
  Pt  Pt11  1  0.250000  0.234661  0.877866  1
