# generated using pymatgen
data_Sm4H9Pd2O3
_symmetry_space_group_name_H-M   'P 1'
_cell_length_a   7.26159650
_cell_length_b   7.26159695
_cell_length_c   5.36556800
_cell_angle_alpha   90.07051514
_cell_angle_beta   89.92948486
_cell_angle_gamma   136.62210569
_symmetry_Int_Tables_number   1
_chemical_formula_structural   Sm4H9Pd2O3
_chemical_formula_sum   'Sm4 H9 Pd2 O3'
_cell_volume   194.31860038
_cell_formula_units_Z   1
loop_
 _symmetry_equiv_pos_site_id
 _symmetry_equiv_pos_as_xyz
  1  'x, y, z'
loop_
 _atom_site_type_symbol
 _atom_site_label
 _atom_site_symmetry_multiplicity
 _atom_site_fract_x
 _atom_site_fract_y
 _atom_site_fract_z
 _atom_site_occupancy
  Sm  Sm0  1  0.339769  0.649008  0.993965  1
  Sm  Sm1  1  0.851210  0.160439  0.505711  1
  Sm  Sm2  1  0.660439  0.351210  0.994289  1
  Sm  Sm3  1  0.149008  0.839769  0.506035  1
  H  H4  1  0.499761  0.999761  0.250000  1
  H  H5  1  0.158095  0.912218  0.021018  1
  H  H6  1  0.587180  0.340151  0.478472  1
  H  H7  1  0.840151  0.087180  0.021528  1
  H  H8  1  0.412218  0.658095  0.478982  1
  H  H9  1  0.759063  0.744561  0.246623  1
  H  H10  1  0.241758  0.256287  0.751888  1
  H  H11  1  0.756287  0.741758  0.748112  1
  H  H12  1  0.244561  0.259063  0.253377  1
  Pd  Pd13  1  0.999828  0.000427  0.005274  1
  Pd  Pd14  1  0.500427  0.499828  0.494726  1
  O  O15  1  0.000131  0.500131  0.250000  1
  O  O16  1  0.500011  0.000011  0.750000  1
  O  O17  1  0.000101  0.500101  0.750000  1
