# generated using pymatgen
data_CsRb2AsSe4
_symmetry_space_group_name_H-M   'P 1'
_cell_length_a   10.06652300
_cell_length_b   10.58698500
_cell_length_c   11.45559500
_cell_angle_alpha   90.00000000
_cell_angle_beta   90.00000000
_cell_angle_gamma   90.00000000
_symmetry_Int_Tables_number   1
_chemical_formula_structural   CsRb2AsSe4
_chemical_formula_sum   'Cs4 Rb8 As4 Se16'
_cell_volume   1220.87004788
_cell_formula_units_Z   4
loop_
 _symmetry_equiv_pos_site_id
 _symmetry_equiv_pos_as_xyz
  1  'x, y, z'
loop_
 _atom_site_type_symbol
 _atom_site_label
 _atom_site_symmetry_multiplicity
 _atom_site_fract_x
 _atom_site_fract_y
 _atom_site_fract_z
 _atom_site_occupancy
  Cs  Cs0  1  0.655651  0.920053  0.250000  1
  Cs  Cs1  1  0.155651  0.579947  0.250000  1
  Cs  Cs2  1  0.844349  0.420053  0.750000  1
  Cs  Cs3  1  0.344349  0.079947  0.750000  1
  Rb  Rb4  1  0.061866  0.804460  0.953766  1
  Rb  Rb5  1  0.561866  0.695540  0.546234  1
  Rb  Rb6  1  0.438134  0.304460  0.046234  1
  Rb  Rb7  1  0.938134  0.195540  0.453766  1
  Rb  Rb8  1  0.938134  0.195540  0.046234  1
  Rb  Rb9  1  0.438134  0.304460  0.453766  1
  Rb  Rb10  1  0.561866  0.695540  0.953766  1
  Rb  Rb11  1  0.061866  0.804460  0.546234  1
  As  As12  1  0.767363  0.975610  0.750000  1
  As  As13  1  0.232637  0.024390  0.250000  1
  As  As14  1  0.732637  0.475610  0.250000  1
  As  As15  1  0.267363  0.524390  0.750000  1
  Se  Se16  1  0.352131  0.972532  0.079140  1
  Se  Se17  1  0.852131  0.527468  0.420860  1
  Se  Se18  1  0.147869  0.472532  0.920860  1
  Se  Se19  1  0.647869  0.027468  0.579140  1
  Se  Se20  1  0.026124  0.916550  0.250000  1
  Se  Se21  1  0.526124  0.583450  0.250000  1
  Se  Se22  1  0.473876  0.416550  0.750000  1
  Se  Se23  1  0.973876  0.083450  0.750000  1
  Se  Se24  1  0.647869  0.027468  0.920860  1
  Se  Se25  1  0.352131  0.972532  0.420860  1
  Se  Se26  1  0.852131  0.527468  0.079140  1
  Se  Se27  1  0.147869  0.472532  0.579140  1
  Se  Se28  1  0.811771  0.756936  0.750000  1
  Se  Se29  1  0.311771  0.743064  0.750000  1
  Se  Se30  1  0.688229  0.256936  0.250000  1
  Se  Se31  1  0.188229  0.243064  0.250000  1
