# generated using pymatgen
data_Tb7Th(Nb3Si4)4
_symmetry_space_group_name_H-M   'P 1'
_cell_length_a   7.10324698
_cell_length_b   7.10408735
_cell_length_c   13.15659010
_cell_angle_alpha   89.92111856
_cell_angle_beta   89.96906290
_cell_angle_gamma   90.06451928
_symmetry_Int_Tables_number   1
_chemical_formula_structural   Tb7Th(Nb3Si4)4
_chemical_formula_sum   'Tb7 Th1 Nb12 Si16'
_cell_volume   663.90784643
_cell_formula_units_Z   1
loop_
 _symmetry_equiv_pos_site_id
 _symmetry_equiv_pos_as_xyz
  1  'x, y, z'
loop_
 _atom_site_type_symbol
 _atom_site_label
 _atom_site_symmetry_multiplicity
 _atom_site_fract_x
 _atom_site_fract_y
 _atom_site_fract_z
 _atom_site_occupancy
  Tb  Tb0  1  0.001757  0.659099  0.717922  1
  Tb  Tb1  1  0.160232  0.499838  0.468490  1
  Tb  Tb2  1  0.500206  0.839638  0.030855  1
  Tb  Tb3  1  0.839882  0.500695  0.967646  1
  Tb  Tb4  1  0.498460  0.159660  0.532839  1
  Tb  Tb5  1  0.339987  0.998628  0.782029  1
  Tb  Tb6  1  0.659212  0.001338  0.282946  1
  Th  Th7  1  0.996042  0.338644  0.217902  1
  Nb  Nb8  1  0.170173  0.169460  0.999601  1
  Nb  Nb9  1  0.829683  0.830028  0.501130  1
  Nb  Nb10  1  0.328424  0.668970  0.249620  1
  Nb  Nb11  1  0.670779  0.329240  0.749757  1
  Nb  Nb12  1  0.155535  0.995613  0.376576  1
  Nb  Nb13  1  0.844626  0.007682  0.874806  1
  Nb  Nb14  1  0.507852  0.654498  0.625992  1
  Nb  Nb15  1  0.346120  0.492718  0.873272  1
  Nb  Nb16  1  0.492926  0.344322  0.125172  1
  Nb  Nb17  1  0.656520  0.509318  0.375129  1
  Nb  Nb18  1  0.991880  0.154579  0.625139  1
  Nb  Nb19  1  0.007789  0.844879  0.123786  1
  Si  Si20  1  0.297015  0.040409  0.186493  1
  Si  Si21  1  0.706265  0.954965  0.686650  1
  Si  Si22  1  0.454731  0.793145  0.437151  1
  Si  Si23  1  0.208949  0.546052  0.060600  1
  Si  Si24  1  0.542504  0.205802  0.935742  1
  Si  Si25  1  0.793679  0.455740  0.563738  1
  Si  Si26  1  0.044536  0.293281  0.813478  1
  Si  Si27  1  0.956227  0.712250  0.315438  1
  Si  Si28  1  0.373494  0.296334  0.318799  1
  Si  Si29  1  0.631909  0.703838  0.817030  1
  Si  Si30  1  0.204036  0.868965  0.567464  1
  Si  Si31  1  0.130889  0.796182  0.932011  1
  Si  Si32  1  0.792495  0.127233  0.064012  1
  Si  Si33  1  0.868120  0.203633  0.435289  1
  Si  Si34  1  0.296185  0.368277  0.682650  1
  Si  Si35  1  0.700879  0.635048  0.182846  1
