# generated using pymatgen
data_Cs6HoInBi4
_symmetry_space_group_name_H-M   'P 1'
_cell_length_a   10.68630237
_cell_length_b   10.68630204
_cell_length_c   10.68630138
_cell_angle_alpha   128.61595298
_cell_angle_beta   137.62891655
_cell_angle_gamma   68.72204420
_symmetry_Int_Tables_number   1
_chemical_formula_structural   Cs6HoInBi4
_chemical_formula_sum   'Cs6 Ho1 In1 Bi4'
_cell_volume   631.32971728
_cell_formula_units_Z   1
loop_
 _symmetry_equiv_pos_site_id
 _symmetry_equiv_pos_as_xyz
  1  'x, y, z'
loop_
 _atom_site_type_symbol
 _atom_site_label
 _atom_site_symmetry_multiplicity
 _atom_site_fract_x
 _atom_site_fract_y
 _atom_site_fract_z
 _atom_site_occupancy
  Cs  Cs0  1  0.688391  0.467568  0.797643  1
  Cs  Cs1  1  0.811609  0.109252  0.279178  1
  Cs  Cs2  1  0.169926  0.890748  0.702357  1
  Cs  Cs3  1  0.330074  0.532432  0.220822  1
  Cs  Cs4  1  0.750000  0.000000  0.750000  1
  Cs  Cs5  1  0.250000  0.000000  0.250000  1
  Ho  Ho6  1  0.250000  0.500000  0.750000  1
  In  In7  1  0.750000  0.500000  0.250000  1
  Bi  Bi8  1  0.405969  0.216150  0.817765  1
  Bi  Bi9  1  0.601615  0.783850  0.189820  1
  Bi  Bi10  1  0.094031  0.411795  0.310180  1
  Bi  Bi11  1  0.898385  0.588205  0.682235  1
