# generated using pymatgen
data_Sm6Ho2Sc12Si15P
_symmetry_space_group_name_H-M   'P 1'
_cell_length_a   7.15407050
_cell_length_b   7.42478600
_cell_length_c   14.07173722
_cell_angle_alpha   89.87703057
_cell_angle_beta   90.01532715
_cell_angle_gamma   90.35248873
_symmetry_Int_Tables_number   1
_chemical_formula_structural   Sm6Ho2Sc12Si15P
_chemical_formula_sum   'Sm6 Ho2 Sc12 Si15 P1'
_cell_volume   747.43880176
_cell_formula_units_Z   1
loop_
 _symmetry_equiv_pos_site_id
 _symmetry_equiv_pos_as_xyz
  1  'x, y, z'
loop_
 _atom_site_type_symbol
 _atom_site_label
 _atom_site_symmetry_multiplicity
 _atom_site_fract_x
 _atom_site_fract_y
 _atom_site_fract_z
 _atom_site_occupancy
  Sm  Sm0  1  0.009768  0.173394  0.097972  1
  Sm  Sm1  1  0.991743  0.828755  0.898619  1
  Sm  Sm2  1  0.490588  0.672036  0.904093  1
  Sm  Sm3  1  0.991094  0.828949  0.599450  1
  Sm  Sm4  1  0.511178  0.326948  0.096420  1
  Sm  Sm5  1  0.010671  0.173766  0.403802  1
  Ho  Ho6  1  0.510922  0.324914  0.403250  1
  Ho  Ho7  1  0.491358  0.674006  0.596001  1
  Sc  Sc8  1  0.160087  0.501283  0.749354  1
  Sc  Sc9  1  0.838006  0.498071  0.250697  1
  Sc  Sc10  1  0.338891  0.001153  0.251102  1
  Sc  Sc11  1  0.662167  0.000066  0.748946  1
  Sc  Sc12  1  0.327935  0.173402  0.627605  1
  Sc  Sc13  1  0.667100  0.822982  0.375425  1
  Sc  Sc14  1  0.169176  0.675149  0.376294  1
  Sc  Sc15  1  0.668587  0.824660  0.125782  1
  Sc  Sc16  1  0.831451  0.325139  0.625590  1
  Sc  Sc17  1  0.326937  0.171168  0.871200  1
  Sc  Sc18  1  0.831921  0.324563  0.872906  1
  Sc  Sc19  1  0.168434  0.676513  0.125338  1
  Si  Si20  1  0.965035  0.878332  0.250981  1
  Si  Si21  1  0.465218  0.617713  0.251107  1
  Si  Si22  1  0.532033  0.380223  0.748837  1
  Si  Si23  1  0.301518  0.863568  0.748336  1
  Si  Si24  1  0.710677  0.123601  0.251505  1
  Si  Si25  1  0.214917  0.376940  0.251743  1
  Si  Si26  1  0.786096  0.625139  0.748307  1
  Si  Si27  1  0.159484  0.463871  0.540815  1
  Si  Si28  1  0.839865  0.536091  0.460945  1
  Si  Si29  1  0.344903  0.964458  0.461167  1
  Si  Si30  1  0.845803  0.537916  0.038824  1
  Si  Si31  1  0.654916  0.037368  0.540188  1
  Si  Si32  1  0.154265  0.462096  0.959567  1
  Si  Si33  1  0.656510  0.037716  0.959603  1
  Si  Si34  1  0.343514  0.964263  0.038939  1
  P  P35  1  0.027235  0.133789  0.749290  1
