# generated using pymatgen
data_Cs2RbCoNCl4O3
_symmetry_space_group_name_H-M   'P 1'
_cell_length_a   9.61565900
_cell_length_b   10.27788400
_cell_length_c   12.79562800
_cell_angle_alpha   90.00000000
_cell_angle_beta   90.00000000
_cell_angle_gamma   90.00000000
_symmetry_Int_Tables_number   1
_chemical_formula_structural   Cs2RbCoNCl4O3
_chemical_formula_sum   'Cs8 Rb4 Co4 N4 Cl16 O12'
_cell_volume   1264.57435689
_cell_formula_units_Z   4
loop_
 _symmetry_equiv_pos_site_id
 _symmetry_equiv_pos_as_xyz
  1  'x, y, z'
loop_
 _atom_site_type_symbol
 _atom_site_label
 _atom_site_symmetry_multiplicity
 _atom_site_fract_x
 _atom_site_fract_y
 _atom_site_fract_z
 _atom_site_occupancy
  Cs  Cs0  1  0.885054  0.507356  0.677114  1
  Cs  Cs1  1  0.385054  0.992644  0.822886  1
  Cs  Cs2  1  0.885054  0.992644  0.677114  1
  Cs  Cs3  1  0.614946  0.492644  0.177114  1
  Cs  Cs4  1  0.114946  0.492644  0.322886  1
  Cs  Cs5  1  0.614946  0.007356  0.177114  1
  Cs  Cs6  1  0.114946  0.007356  0.322886  1
  Cs  Cs7  1  0.385054  0.507356  0.822886  1
  Rb  Rb8  1  0.917348  0.250000  0.967372  1
  Rb  Rb9  1  0.082652  0.750000  0.032628  1
  Rb  Rb10  1  0.582652  0.750000  0.467372  1
  Rb  Rb11  1  0.417348  0.250000  0.532628  1
  Co  Co12  1  0.682687  0.750000  0.908738  1
  Co  Co13  1  0.182687  0.750000  0.591262  1
  Co  Co14  1  0.817313  0.250000  0.408738  1
  Co  Co15  1  0.317313  0.250000  0.091262  1
  N  N16  1  0.658409  0.250000  0.726152  1
  N  N17  1  0.841591  0.750000  0.226152  1
  N  N18  1  0.158409  0.250000  0.773848  1
  N  N19  1  0.341591  0.750000  0.273848  1
  Cl  Cl20  1  0.194485  0.433561  0.054872  1
  Cl  Cl21  1  0.872952  0.250000  0.233607  1
  Cl  Cl22  1  0.805515  0.566439  0.945128  1
  Cl  Cl23  1  0.305515  0.933561  0.554872  1
  Cl  Cl24  1  0.305515  0.566439  0.554872  1
  Cl  Cl25  1  0.694485  0.433561  0.445128  1
  Cl  Cl26  1  0.194485  0.066439  0.054872  1
  Cl  Cl27  1  0.518832  0.250000  0.994601  1
  Cl  Cl28  1  0.805515  0.933561  0.945128  1
  Cl  Cl29  1  0.694485  0.066439  0.445128  1
  Cl  Cl30  1  0.481168  0.750000  0.005399  1
  Cl  Cl31  1  0.372952  0.250000  0.266393  1
  Cl  Cl32  1  0.018832  0.250000  0.505399  1
  Cl  Cl33  1  0.981168  0.750000  0.494601  1
  Cl  Cl34  1  0.627048  0.750000  0.733607  1
  Cl  Cl35  1  0.127048  0.750000  0.766393  1
  O  O36  1  0.600604  0.143019  0.702473  1
  O  O37  1  0.600604  0.356981  0.702473  1
  O  O38  1  0.899396  0.643019  0.202473  1
  O  O39  1  0.276358  0.250000  0.729324  1
  O  O40  1  0.723642  0.750000  0.270676  1
  O  O41  1  0.100604  0.143019  0.797527  1
  O  O42  1  0.223642  0.750000  0.229324  1
  O  O43  1  0.776358  0.250000  0.770676  1
  O  O44  1  0.399396  0.643019  0.297527  1
  O  O45  1  0.899396  0.856981  0.202473  1
  O  O46  1  0.399396  0.856981  0.297527  1
  O  O47  1  0.100604  0.356981  0.797527  1
