# generated using pymatgen
data_La4Ga24CuNi
_symmetry_space_group_name_H-M   'P 1'
_cell_length_a   6.19456300
_cell_length_b   6.19456300
_cell_length_c   15.54548300
_cell_angle_alpha   90.00000000
_cell_angle_beta   90.00000000
_cell_angle_gamma   90.00000000
_symmetry_Int_Tables_number   1
_chemical_formula_structural   La4Ga24CuNi
_chemical_formula_sum   'La4 Ga24 Cu1 Ni1'
_cell_volume   596.52076825
_cell_formula_units_Z   1
loop_
 _symmetry_equiv_pos_site_id
 _symmetry_equiv_pos_as_xyz
  1  'x, y, z'
loop_
 _atom_site_type_symbol
 _atom_site_label
 _atom_site_symmetry_multiplicity
 _atom_site_fract_x
 _atom_site_fract_y
 _atom_site_fract_z
 _atom_site_occupancy
  La  La0  1  0.750000  0.250001  0.243843  1
  La  La1  1  0.250001  0.750000  0.244910  1
  La  La2  1  0.750000  0.250001  0.756157  1
  La  La3  1  0.250001  0.750000  0.755090  1
  Ga  Ga4  1  0.003784  0.996217  0.082901  1
  Ga  Ga5  1  0.496217  0.503783  0.082901  1
  Ga  Ga6  1  0.004157  0.504157  0.082925  1
  Ga  Ga7  1  0.495843  0.995844  0.082925  1
  Ga  Ga8  1  0.250001  0.250001  0.180131  1
  Ga  Ga9  1  0.750000  0.750000  0.180131  1
  Ga  Ga10  1  0.250001  0.250001  0.341160  1
  Ga  Ga11  1  0.750000  0.750000  0.341160  1
  Ga  Ga12  1  0.576380  0.076378  0.430169  1
  Ga  Ga13  1  0.923621  0.423622  0.430169  1
  Ga  Ga14  1  0.423887  0.576115  0.430291  1
  Ga  Ga15  1  0.076113  0.923886  0.430291  1
  Ga  Ga16  1  0.923621  0.076378  0.569831  1
  Ga  Ga17  1  0.576380  0.423622  0.569831  1
  Ga  Ga18  1  0.076113  0.576115  0.569709  1
  Ga  Ga19  1  0.423887  0.923886  0.569709  1
  Ga  Ga20  1  0.250001  0.250001  0.658840  1
  Ga  Ga21  1  0.750000  0.750000  0.658840  1
  Ga  Ga22  1  0.250001  0.250001  0.819868  1
  Ga  Ga23  1  0.750000  0.750000  0.819868  1
  Ga  Ga24  1  0.496217  0.996217  0.917100  1
  Ga  Ga25  1  0.003784  0.503783  0.917100  1
  Ga  Ga26  1  0.495843  0.504157  0.917076  1
  Ga  Ga27  1  0.004157  0.995844  0.917076  1
  Cu  Cu28  1  0.750000  0.250001  0.000000  1
  Ni  Ni29  1  0.250001  0.750000  0.000000  1
