# generated using pymatgen
data_Rb2TiWN4
_symmetry_space_group_name_H-M   'P 1'
_cell_length_a   6.04279522
_cell_length_b   6.04279142
_cell_length_c   6.04279421
_cell_angle_alpha   120.64974165
_cell_angle_beta   120.64980313
_cell_angle_gamma   88.87821865
_symmetry_Int_Tables_number   1
_chemical_formula_structural   Rb2TiWN4
_chemical_formula_sum   'Rb2 Ti1 W1 N4'
_cell_volume   154.46195009
_cell_formula_units_Z   1
loop_
 _symmetry_equiv_pos_site_id
 _symmetry_equiv_pos_as_xyz
  1  'x, y, z'
loop_
 _atom_site_type_symbol
 _atom_site_label
 _atom_site_symmetry_multiplicity
 _atom_site_fract_x
 _atom_site_fract_y
 _atom_site_fract_z
 _atom_site_occupancy
  Rb  Rb0  1  0.250000  0.750000  0.499999  1
  Rb  Rb1  1  0.500000  0.500000  0.000000  1
  Ti  Ti2  1  0.000000  0.000000  0.000000  1
  W  W3  1  0.750000  0.250000  0.500000  1
  N  N4  1  0.799945  0.128007  0.179171  1
  N  N5  1  0.948837  0.620774  0.820830  1
  N  N6  1  0.379226  0.200055  0.328062  1
  N  N7  1  0.871993  0.051164  0.671938  1
