# generated using pymatgen
data_Li6TbGd5(WO6)4
_symmetry_space_group_name_H-M   'P 1'
_cell_length_a   10.76536349
_cell_length_b   10.77359258
_cell_length_c   10.76941252
_cell_angle_alpha   109.47491646
_cell_angle_beta   109.44398958
_cell_angle_gamma   109.49540071
_symmetry_Int_Tables_number   1
_chemical_formula_structural   Li6TbGd5(WO6)4
_chemical_formula_sum   'Li12 Tb2 Gd10 W8 O48'
_cell_volume   961.51451664
_cell_formula_units_Z   2
loop_
 _symmetry_equiv_pos_site_id
 _symmetry_equiv_pos_as_xyz
  1  'x, y, z'
loop_
 _atom_site_type_symbol
 _atom_site_label
 _atom_site_symmetry_multiplicity
 _atom_site_fract_x
 _atom_site_fract_y
 _atom_site_fract_z
 _atom_site_occupancy
  Li  Li0  1  0.874751  0.749992  0.124757  1
  Li  Li1  1  0.250007  0.874767  0.124760  1
  Li  Li2  1  0.874696  0.124735  0.249720  1
  Li  Li3  1  0.375026  0.624985  0.249714  1
  Li  Li4  1  0.625062  0.250000  0.375049  1
  Li  Li5  1  0.749990  0.625050  0.375049  1
  Li  Li6  1  0.250277  0.375458  0.625491  1
  Li  Li7  1  0.375215  0.750035  0.625493  1
  Li  Li8  1  0.124981  0.874700  0.749973  1
  Li  Li9  1  0.624989  0.375273  0.749974  1
  Li  Li10  1  0.124981  0.250277  0.875013  1
  Li  Li11  1  0.750032  0.124739  0.875017  1
  Tb  Tb12  1  0.250280  0.625097  0.874858  1
  Tb  Tb13  1  0.624580  0.749760  0.874855  1
  Gd  Gd14  1  0.750049  0.375019  0.124988  1
  Gd  Gd15  1  0.374937  0.249967  0.124985  1
  Gd  Gd16  1  0.624693  0.874691  0.249382  1
  Gd  Gd17  1  0.125045  0.375046  0.250091  1
  Gd  Gd18  1  0.125079  0.750065  0.375045  1
  Gd  Gd19  1  0.249966  0.124981  0.375047  1
  Gd  Gd20  1  0.749738  0.874895  0.625202  1
  Gd  Gd21  1  0.875461  0.250306  0.625201  1
  Gd  Gd22  1  0.374936  0.124935  0.749873  1
  Gd  Gd23  1  0.875263  0.625262  0.750529  1
  W  W24  1  0.999307  0.999631  0.999866  1
  W  W25  1  0.499769  0.999009  0.999398  1
  W  W26  1  0.499626  0.500386  0.999397  1
  W  W27  1  0.000562  0.500238  0.999867  1
  W  W28  1  0.999848  0.999983  0.499968  1
  W  W29  1  0.000584  0.500381  0.500736  1
  W  W30  1  0.500120  0.999986  0.499968  1
  W  W31  1  0.500156  0.500354  0.500733  1
  O  O32  1  0.117139  0.198721  0.025540  1
  O  O33  1  0.908402  0.326822  0.025536  1
  O  O34  1  0.407177  0.880589  0.079861  1
  O  O35  1  0.672682  0.699272  0.079861  1
  O  O36  1  0.673134  0.972932  0.090656  1
  O  O37  1  0.417522  0.617723  0.090654  1
  O  O38  1  0.198465  0.025353  0.117328  1
  O  O39  1  0.918866  0.591975  0.117328  1
  O  O40  1  0.581206  0.198080  0.172954  1
  O  O41  1  0.591747  0.474874  0.172956  1
  O  O42  1  0.025756  0.117628  0.199100  1
  O  O43  1  0.173348  0.581474  0.199102  1
  O  O44  1  0.918917  0.326944  0.301622  1
  O  O45  1  0.382704  0.474680  0.301618  1
  O  O46  1  0.300960  0.918525  0.326747  1
  O  O47  1  0.025781  0.908219  0.326743  1
  O  O48  1  0.474445  0.301334  0.382886  1
  O  O49  1  0.908443  0.581552  0.382891  1
  O  O50  1  0.525833  0.826685  0.408243  1
  O  O51  1  0.882410  0.081556  0.408244  1
  O  O52  1  0.617574  0.091621  0.418327  1
  O  O53  1  0.800753  0.826705  0.418327  1
  O  O54  1  0.300775  0.382329  0.474235  1
  O  O55  1  0.173465  0.591911  0.474240  1
  O  O56  1  0.699058  0.617622  0.526035  1
  O  O57  1  0.826979  0.408413  0.526034  1
  O  O58  1  0.199088  0.173322  0.581509  1
  O  O59  1  0.382421  0.908186  0.581509  1
  O  O60  1  0.117534  0.918573  0.591782  1
  O  O61  1  0.474249  0.173209  0.591783  1
  O  O62  1  0.526468  0.699395  0.619466  1
  O  O63  1  0.092998  0.420070  0.619468  1
  O  O64  1  0.699172  0.081491  0.673265  1
  O  O65  1  0.974092  0.091774  0.673265  1
  O  O66  1  0.082716  0.673413  0.700394  1
  O  O67  1  0.617675  0.526978  0.700388  1
  O  O68  1  0.974083  0.882358  0.801044  1
  O  O69  1  0.826963  0.418687  0.801046  1
  O  O70  1  0.408060  0.527601  0.826967  1
  O  O71  1  0.418904  0.799364  0.826968  1
  O  O72  1  0.082640  0.409282  0.882234  1
  O  O73  1  0.799594  0.972951  0.882233  1
  O  O74  1  0.581133  0.382606  0.907936  1
  O  O75  1  0.326798  0.025325  0.907933  1
  O  O76  1  0.326679  0.301143  0.918372  1
  O  O77  1  0.591690  0.117229  0.918372  1
  O  O78  1  0.092845  0.672962  0.973502  1
  O  O79  1  0.880658  0.800543  0.973500  1
