# generated using pymatgen
data_YTh(TaSe2)8
_symmetry_space_group_name_H-M   'P 1'
_cell_length_a   7.01165200
_cell_length_b   7.01165408
_cell_length_c   14.73464800
_cell_angle_alpha   90.00000000
_cell_angle_beta   90.00000000
_cell_angle_gamma   120.00000906
_symmetry_Int_Tables_number   1
_chemical_formula_structural   YTh(TaSe2)8
_chemical_formula_sum   'Y1 Th1 Ta8 Se16'
_cell_volume   627.35186369
_cell_formula_units_Z   1
loop_
 _symmetry_equiv_pos_site_id
 _symmetry_equiv_pos_as_xyz
  1  'x, y, z'
loop_
 _atom_site_type_symbol
 _atom_site_label
 _atom_site_symmetry_multiplicity
 _atom_site_fract_x
 _atom_site_fract_y
 _atom_site_fract_z
 _atom_site_occupancy
  Y  Y0  1  0.000000  0.000000  0.500000  1
  Th  Th1  1  0.000000  0.000000  0.000000  1
  Ta  Ta2  1  0.506758  0.493242  0.746833  1
  Ta  Ta3  1  0.013514  0.506758  0.253167  1
  Ta  Ta4  1  0.493242  0.986486  0.253167  1
  Ta  Ta5  1  0.506758  0.013514  0.746833  1
  Ta  Ta6  1  0.986486  0.493242  0.746833  1
  Ta  Ta7  1  0.493242  0.506758  0.253167  1
  Ta  Ta8  1  0.000000  0.000000  0.747465  1
  Ta  Ta9  1  0.000000  0.000000  0.252535  1
  Se  Se10  1  0.830486  0.169514  0.365596  1
  Se  Se11  1  0.830486  0.660974  0.365596  1
  Se  Se12  1  0.339026  0.169514  0.365596  1
  Se  Se13  1  0.660259  0.830130  0.859687  1
  Se  Se14  1  0.169514  0.339026  0.634404  1
  Se  Se15  1  0.169870  0.830130  0.859687  1
  Se  Se16  1  0.169870  0.339741  0.859687  1
  Se  Se17  1  0.830130  0.169870  0.140313  1
  Se  Se18  1  0.339741  0.169870  0.140313  1
  Se  Se19  1  0.660974  0.830486  0.634404  1
  Se  Se20  1  0.333333  0.666667  0.135852  1
  Se  Se21  1  0.666667  0.333333  0.629683  1
  Se  Se22  1  0.666667  0.333333  0.864148  1
  Se  Se23  1  0.333333  0.666667  0.370317  1
  Se  Se24  1  0.830130  0.660259  0.140313  1
  Se  Se25  1  0.169514  0.830486  0.634404  1
