# generated using pymatgen
data_LaNd7BePd24
_symmetry_space_group_name_H-M   'P 1'
_cell_length_a   8.44688800
_cell_length_b   8.44688698
_cell_length_c   8.44688700
_cell_angle_alpha   89.90751287
_cell_angle_beta   90.09248711
_cell_angle_gamma   90.09249385
_symmetry_Int_Tables_number   1
_chemical_formula_structural   LaNd7BePd24
_chemical_formula_sum   'La1 Nd7 Be1 Pd24'
_cell_volume   602.68225949
_cell_formula_units_Z   1
loop_
 _symmetry_equiv_pos_site_id
 _symmetry_equiv_pos_as_xyz
  1  'x, y, z'
loop_
 _atom_site_type_symbol
 _atom_site_label
 _atom_site_symmetry_multiplicity
 _atom_site_fract_x
 _atom_site_fract_y
 _atom_site_fract_z
 _atom_site_occupancy
  La  La0  1  0.747478  0.252522  0.252522  1
  Nd  Nd1  1  0.250800  0.251604  0.251604  1
  Nd  Nd2  1  0.748722  0.748878  0.748878  1
  Nd  Nd3  1  0.748396  0.749200  0.251604  1
  Nd  Nd4  1  0.748396  0.251604  0.749200  1
  Nd  Nd5  1  0.251122  0.251278  0.748878  1
  Nd  Nd6  1  0.251122  0.748878  0.251278  1
  Nd  Nd7  1  0.252185  0.747815  0.747815  1
  Be  Be8  1  0.002525  0.997475  0.997475  1
  Pd  Pd9  1  0.253896  0.498971  0.000324  1
  Pd  Pd10  1  0.745956  0.502058  0.998879  1
  Pd  Pd11  1  0.001121  0.254044  0.502058  1
  Pd  Pd12  1  0.497942  0.254044  0.998879  1
  Pd  Pd13  1  0.999676  0.746104  0.498971  1
  Pd  Pd14  1  0.501029  0.746104  0.000324  1
  Pd  Pd15  1  0.497942  0.998879  0.254044  1
  Pd  Pd16  1  0.253896  0.000324  0.498971  1
  Pd  Pd17  1  0.501029  0.000324  0.746104  1
  Pd  Pd18  1  0.745956  0.998879  0.502058  1
  Pd  Pd19  1  0.001121  0.502058  0.254044  1
  Pd  Pd20  1  0.999676  0.498971  0.746104  1
  Pd  Pd21  1  0.251007  0.499193  0.499193  1
  Pd  Pd22  1  0.748319  0.502803  0.502803  1
  Pd  Pd23  1  0.497197  0.251681  0.502803  1
  Pd  Pd24  1  0.500807  0.748993  0.499193  1
  Pd  Pd25  1  0.497197  0.502803  0.251681  1
  Pd  Pd26  1  0.500807  0.499193  0.748993  1
  Pd  Pd27  1  0.270609  0.999854  0.999854  1
  Pd  Pd28  1  0.732535  0.999380  0.999380  1
  Pd  Pd29  1  0.000620  0.267465  0.999380  1
  Pd  Pd30  1  0.000146  0.729391  0.999854  1
  Pd  Pd31  1  0.000620  0.999380  0.267465  1
  Pd  Pd32  1  0.000146  0.999854  0.729391  1
