# generated using pymatgen
data_LuCo2(Sn3Ru)2
_symmetry_space_group_name_H-M   'P 1'
_cell_length_a   6.87256222
_cell_length_b   6.87256229
_cell_length_c   6.73316037
_cell_angle_alpha   120.14548436
_cell_angle_beta   120.14549150
_cell_angle_gamma   90.91552091
_symmetry_Int_Tables_number   1
_chemical_formula_structural   LuCo2(Sn3Ru)2
_chemical_formula_sum   'Lu1 Co2 Sn6 Ru2'
_cell_volume   221.99640033
_cell_formula_units_Z   1
loop_
 _symmetry_equiv_pos_site_id
 _symmetry_equiv_pos_as_xyz
  1  'x, y, z'
loop_
 _atom_site_type_symbol
 _atom_site_label
 _atom_site_symmetry_multiplicity
 _atom_site_fract_x
 _atom_site_fract_y
 _atom_site_fract_z
 _atom_site_occupancy
  Lu  Lu0  1  0.006741  0.006741  0.000000  1
  Co  Co1  1  0.391051  0.755638  0.000000  1
  Co  Co2  1  0.755638  0.391051  0.000000  1
  Sn  Sn3  1  0.471655  0.108649  0.000000  1
  Sn  Sn4  1  0.108649  0.471655  0.000000  1
  Sn  Sn5  1  0.872711  0.872711  0.332429  1
  Sn  Sn6  1  0.540281  0.540281  0.667571  1
  Sn  Sn7  1  0.001463  0.501463  0.500000  1
  Sn  Sn8  1  0.501463  0.001463  0.500000  1
  Ru  Ru9  1  0.258002  0.258002  0.665656  1
  Ru  Ru10  1  0.592346  0.592346  0.334344  1
