# generated using pymatgen
data_Ta4TiNbPt2
_symmetry_space_group_name_H-M   'P 1'
_cell_length_a   5.20238200
_cell_length_b   5.20238200
_cell_length_c   5.12053000
_cell_angle_alpha   90.00000000
_cell_angle_beta   90.00000000
_cell_angle_gamma   90.00000000
_symmetry_Int_Tables_number   1
_chemical_formula_structural   Ta4TiNbPt2
_chemical_formula_sum   'Ta4 Ti1 Nb1 Pt2'
_cell_volume   138.58601012
_cell_formula_units_Z   1
loop_
 _symmetry_equiv_pos_site_id
 _symmetry_equiv_pos_as_xyz
  1  'x, y, z'
loop_
 _atom_site_type_symbol
 _atom_site_label
 _atom_site_symmetry_multiplicity
 _atom_site_fract_x
 _atom_site_fract_y
 _atom_site_fract_z
 _atom_site_occupancy
  Ta  Ta0  1  0.000000  0.250698  0.498272  1
  Ta  Ta1  1  0.000000  0.749302  0.498272  1
  Ta  Ta2  1  0.249302  0.500000  0.001728  1
  Ta  Ta3  1  0.750698  0.500000  0.001728  1
  Ti  Ti4  1  0.500000  0.000000  0.750000  1
  Nb  Nb5  1  0.500000  0.000000  0.250000  1
  Pt  Pt6  1  0.500000  0.500000  0.509256  1
  Pt  Pt7  1  0.000000  0.000000  0.990744  1
