# generated using pymatgen
data_Tb15Ce(CdRu)4
_symmetry_space_group_name_H-M   'P 1'
_cell_length_a   9.71964775
_cell_length_b   9.71964782
_cell_length_c   9.71964829
_cell_angle_alpha   59.34154674
_cell_angle_beta   59.34154434
_cell_angle_gamma   59.34154777
_symmetry_Int_Tables_number   1
_chemical_formula_structural   Tb15Ce(CdRu)4
_chemical_formula_sum   'Tb15 Ce1 Cd4 Ru4'
_cell_volume   639.55448156
_cell_formula_units_Z   1
loop_
 _symmetry_equiv_pos_site_id
 _symmetry_equiv_pos_as_xyz
  1  'x, y, z'
loop_
 _atom_site_type_symbol
 _atom_site_label
 _atom_site_symmetry_multiplicity
 _atom_site_fract_x
 _atom_site_fract_y
 _atom_site_fract_z
 _atom_site_occupancy
  Tb  Tb0  1  0.562304  0.562304  0.938162  1
  Tb  Tb1  1  0.938816  0.560945  0.938816  1
  Tb  Tb2  1  0.560945  0.938816  0.938816  1
  Tb  Tb3  1  0.938816  0.938816  0.560945  1
  Tb  Tb4  1  0.562304  0.938162  0.562304  1
  Tb  Tb5  1  0.938162  0.562304  0.562304  1
  Tb  Tb6  1  0.189189  0.189189  0.811776  1
  Tb  Tb7  1  0.810808  0.188711  0.810808  1
  Tb  Tb8  1  0.188710  0.810809  0.810808  1
  Tb  Tb9  1  0.810808  0.810809  0.188711  1
  Tb  Tb10  1  0.189188  0.811776  0.189188  1
  Tb  Tb11  1  0.811776  0.189189  0.189189  1
  Tb  Tb12  1  0.346161  0.346161  0.957954  1
  Tb  Tb13  1  0.346161  0.957954  0.346161  1
  Tb  Tb14  1  0.957954  0.346161  0.346161  1
  Ce  Ce15  1  0.342015  0.342015  0.342015  1
  Cd  Cd16  1  0.579798  0.579798  0.258662  1
  Cd  Cd17  1  0.579798  0.258662  0.579798  1
  Cd  Cd18  1  0.258662  0.579798  0.579798  1
  Cd  Cd19  1  0.579837  0.579837  0.579837  1
  Ru  Ru20  1  0.146612  0.146612  0.575613  1
  Ru  Ru21  1  0.146612  0.575613  0.146612  1
  Ru  Ru22  1  0.575613  0.146612  0.146612  1
  Ru  Ru23  1  0.138950  0.138950  0.138950  1
