# generated using pymatgen
data_Sm3Y11Au20
_symmetry_space_group_name_H-M   'P 1'
_cell_length_a   8.81213758
_cell_length_b   8.81213659
_cell_length_c   10.47249500
_cell_angle_alpha   89.92487033
_cell_angle_beta   89.92487034
_cell_angle_gamma   107.13479949
_symmetry_Int_Tables_number   1
_chemical_formula_structural   Sm3Y11Au20
_chemical_formula_sum   'Sm3 Y11 Au20'
_cell_volume   777.13095575
_cell_formula_units_Z   1
loop_
 _symmetry_equiv_pos_site_id
 _symmetry_equiv_pos_as_xyz
  1  'x, y, z'
loop_
 _atom_site_type_symbol
 _atom_site_label
 _atom_site_symmetry_multiplicity
 _atom_site_fract_x
 _atom_site_fract_y
 _atom_site_fract_z
 _atom_site_occupancy
  Sm  Sm0  1  0.689852  0.689852  0.808569  1
  Sm  Sm1  1  0.188796  0.188796  0.690052  1
  Sm  Sm2  1  0.811238  0.811238  0.309717  1
  Y  Y3  1  0.694715  0.304843  0.000078  1
  Y  Y4  1  0.304843  0.694715  0.000078  1
  Y  Y5  1  0.804574  0.194965  0.500126  1
  Y  Y6  1  0.194965  0.804574  0.500126  1
  Y  Y7  1  0.001026  0.001026  0.000700  1
  Y  Y8  1  0.499080  0.499080  0.499055  1
  Y  Y9  1  0.003073  0.502345  0.250190  1
  Y  Y10  1  0.997138  0.496768  0.750397  1
  Y  Y11  1  0.496768  0.997138  0.750397  1
  Y  Y12  1  0.502345  0.003073  0.250190  1
  Y  Y13  1  0.313237  0.313237  0.188323  1
  Au  Au14  1  0.860030  0.151834  0.209322  1
  Au  Au15  1  0.138902  0.847918  0.791529  1
  Au  Au16  1  0.638258  0.348324  0.709345  1
  Au  Au17  1  0.649919  0.360374  0.290185  1
  Au  Au18  1  0.360374  0.649919  0.290185  1
  Au  Au19  1  0.348324  0.638258  0.709345  1
  Au  Au20  1  0.847918  0.138902  0.791529  1
  Au  Au21  1  0.151834  0.860030  0.209322  1
  Au  Au22  1  0.937903  0.644738  0.004438  1
  Au  Au23  1  0.063239  0.355126  0.997373  1
  Au  Au24  1  0.561218  0.854716  0.503950  1
  Au  Au25  1  0.144210  0.438079  0.496517  1
  Au  Au26  1  0.438079  0.144210  0.496517  1
  Au  Au27  1  0.854716  0.561218  0.503950  1
  Au  Au28  1  0.355126  0.063239  0.997373  1
  Au  Au29  1  0.644738  0.937903  0.004438  1
  Au  Au30  1  0.106384  0.106384  0.395881  1
  Au  Au31  1  0.898091  0.898091  0.599357  1
  Au  Au32  1  0.396229  0.396229  0.900266  1
  Au  Au33  1  0.602858  0.602858  0.101182  1
