# generated using pymatgen
data_HoU2CdO8
_symmetry_space_group_name_H-M   'P 1'
_cell_length_a   7.22032602
_cell_length_b   7.00989989
_cell_length_c   3.53382500
_cell_angle_alpha   90.00000000
_cell_angle_beta   90.00000000
_cell_angle_gamma   89.74981461
_symmetry_Int_Tables_number   1
_chemical_formula_structural   HoU2CdO8
_chemical_formula_sum   'Ho1 U2 Cd1 O8'
_cell_volume   178.85847441
_cell_formula_units_Z   1
loop_
 _symmetry_equiv_pos_site_id
 _symmetry_equiv_pos_as_xyz
  1  'x, y, z'
loop_
 _atom_site_type_symbol
 _atom_site_label
 _atom_site_symmetry_multiplicity
 _atom_site_fract_x
 _atom_site_fract_y
 _atom_site_fract_z
 _atom_site_occupancy
  Ho  Ho0  1  0.999991  0.499998  0.499999  1
  U  U1  1  0.000002  0.000002  0.000000  1
  U  U2  1  0.499997  0.500000  0.000000  1
  Cd  Cd3  1  0.500002  0.000000  0.499999  1
  O  O4  1  0.003823  0.297353  0.000000  1
  O  O5  1  0.996177  0.702650  0.000000  1
  O  O6  1  0.504177  0.218720  0.000000  1
  O  O7  1  0.495823  0.781277  0.000000  1
  O  O8  1  0.822924  0.003427  0.499999  1
  O  O9  1  0.177079  0.996573  0.499999  1
  O  O10  1  0.315795  0.498291  0.499999  1
  O  O11  1  0.684204  0.501706  0.499999  1
