# generated using pymatgen
data_Sr2Yb2TmPt4
_symmetry_space_group_name_H-M   'P 1'
_cell_length_a   7.68695200
_cell_length_b   7.81408300
_cell_length_c   14.84202000
_cell_angle_alpha   90.00000000
_cell_angle_beta   90.00000000
_cell_angle_gamma   90.00000000
_symmetry_Int_Tables_number   1
_chemical_formula_structural   Sr2Yb2TmPt4
_chemical_formula_sum   'Sr8 Yb8 Tm4 Pt16'
_cell_volume   891.50791152
_cell_formula_units_Z   4
loop_
 _symmetry_equiv_pos_site_id
 _symmetry_equiv_pos_as_xyz
  1  'x, y, z'
loop_
 _atom_site_type_symbol
 _atom_site_label
 _atom_site_symmetry_multiplicity
 _atom_site_fract_x
 _atom_site_fract_y
 _atom_site_fract_z
 _atom_site_occupancy
  Sr  Sr0  1  0.500596  0.324788  0.904522  1
  Sr  Sr1  1  0.000596  0.175212  0.595478  1
  Sr  Sr2  1  0.499404  0.675212  0.404522  1
  Sr  Sr3  1  0.999404  0.824788  0.095478  1
  Sr  Sr4  1  0.498503  0.675912  0.096513  1
  Sr  Sr5  1  0.998503  0.824088  0.403487  1
  Sr  Sr6  1  0.501497  0.324088  0.596513  1
  Sr  Sr7  1  0.001497  0.175912  0.903487  1
  Yb  Yb8  1  0.661488  0.167070  0.122896  1
  Yb  Yb9  1  0.161488  0.332930  0.377104  1
  Yb  Yb10  1  0.338512  0.832930  0.622897  1
  Yb  Yb11  1  0.838512  0.667070  0.877103  1
  Yb  Yb12  1  0.177726  0.495769  0.749907  1
  Yb  Yb13  1  0.677726  0.004231  0.750093  1
  Yb  Yb14  1  0.822274  0.504231  0.249907  1
  Yb  Yb15  1  0.322274  0.995769  0.250093  1
  Tm  Tm16  1  0.339756  0.833601  0.875304  1
  Tm  Tm17  1  0.839756  0.666399  0.624696  1
  Tm  Tm18  1  0.660244  0.166399  0.375305  1
  Tm  Tm19  1  0.160244  0.333601  0.124695  1
  Pt  Pt20  1  0.328869  0.045353  0.041489  1
  Pt  Pt21  1  0.828869  0.454647  0.458511  1
  Pt  Pt22  1  0.671131  0.954647  0.541489  1
  Pt  Pt23  1  0.171131  0.545353  0.958511  1
  Pt  Pt24  1  0.656058  0.957494  0.955319  1
  Pt  Pt25  1  0.156058  0.542506  0.544681  1
  Pt  Pt26  1  0.343942  0.042506  0.455319  1
  Pt  Pt27  1  0.843942  0.457494  0.044681  1
  Pt  Pt28  1  0.545912  0.636168  0.751611  1
  Pt  Pt29  1  0.045912  0.863832  0.748389  1
  Pt  Pt30  1  0.454088  0.363832  0.251611  1
  Pt  Pt31  1  0.954088  0.136168  0.248389  1
  Pt  Pt32  1  0.304169  0.119954  0.753513  1
  Pt  Pt33  1  0.804169  0.380046  0.746487  1
  Pt  Pt34  1  0.695831  0.880046  0.253513  1
  Pt  Pt35  1  0.195831  0.619954  0.246487  1
