# generated using pymatgen
data_Y4FeRe2Os5
_symmetry_space_group_name_H-M   'P 1'
_cell_length_a   5.33699170
_cell_length_b   5.24058191
_cell_length_c   8.91511300
_cell_angle_alpha   90.00000000
_cell_angle_beta   90.00000000
_cell_angle_gamma   119.19743252
_symmetry_Int_Tables_number   1
_chemical_formula_structural   Y4FeRe2Os5
_chemical_formula_sum   'Y4 Fe1 Re2 Os5'
_cell_volume   217.66532365
_cell_formula_units_Z   1
loop_
 _symmetry_equiv_pos_site_id
 _symmetry_equiv_pos_as_xyz
  1  'x, y, z'
loop_
 _atom_site_type_symbol
 _atom_site_label
 _atom_site_symmetry_multiplicity
 _atom_site_fract_x
 _atom_site_fract_y
 _atom_site_fract_z
 _atom_site_occupancy
  Y  Y0  1  0.327544  0.666320  0.439219  1
  Y  Y1  1  0.667523  0.333127  0.566212  1
  Y  Y2  1  0.667523  0.333127  0.933788  1
  Y  Y3  1  0.327544  0.666320  0.060781  1
  Fe  Fe4  1  0.169834  0.833168  0.750000  1
  Re  Re5  1  0.835209  0.167481  0.250000  1
  Re  Re6  1  0.832632  0.662293  0.250000  1
  Os  Os7  1  0.991342  0.997498  0.503819  1
  Os  Os8  1  0.991342  0.997498  0.996181  1
  Os  Os9  1  0.353012  0.176685  0.250000  1
  Os  Os10  1  0.178211  0.344080  0.750000  1
  Os  Os11  1  0.658287  0.822403  0.750000  1
