# generated using pymatgen
data_Er8Hg2IrRh
_symmetry_space_group_name_H-M   'P 1'
_cell_length_a   9.51421591
_cell_length_b   9.51383520
_cell_length_c   9.50448314
_cell_angle_alpha   60.03821921
_cell_angle_beta   60.03834074
_cell_angle_gamma   60.09121875
_symmetry_Int_Tables_number   1
_chemical_formula_structural   Er8Hg2IrRh
_chemical_formula_sum   'Er16 Hg4 Ir2 Rh2'
_cell_volume   609.10480265
_cell_formula_units_Z   2
loop_
 _symmetry_equiv_pos_site_id
 _symmetry_equiv_pos_as_xyz
  1  'x, y, z'
loop_
 _atom_site_type_symbol
 _atom_site_label
 _atom_site_symmetry_multiplicity
 _atom_site_fract_x
 _atom_site_fract_y
 _atom_site_fract_z
 _atom_site_occupancy
  Er  Er0  1  0.600967  0.600950  0.599691  1
  Er  Er1  1  0.601001  0.600988  0.198307  1
  Er  Er2  1  0.602375  0.196105  0.600755  1
  Er  Er3  1  0.196031  0.602380  0.600773  1
  Er  Er4  1  0.059588  0.439414  0.439820  1
  Er  Er5  1  0.439471  0.059608  0.061215  1
  Er  Er6  1  0.439498  0.059582  0.439710  1
  Er  Er7  1  0.059543  0.439445  0.061289  1
  Er  Er8  1  0.439632  0.439612  0.060408  1
  Er  Er9  1  0.060305  0.060266  0.439728  1
  Er  Er10  1  0.187901  0.813416  0.812010  1
  Er  Er11  1  0.813375  0.187940  0.186646  1
  Er  Er12  1  0.813365  0.187917  0.811993  1
  Er  Er13  1  0.187927  0.813396  0.186671  1
  Er  Er14  1  0.811925  0.811922  0.188057  1
  Er  Er15  1  0.186611  0.186572  0.813381  1
  Hg  Hg16  1  0.834485  0.834449  0.834202  1
  Hg  Hg17  1  0.834461  0.834485  0.496856  1
  Hg  Hg18  1  0.834838  0.495677  0.834762  1
  Hg  Hg19  1  0.495681  0.834857  0.834746  1
  Ir  Ir20  1  0.392922  0.822935  0.392064  1
  Ir  Ir21  1  0.822956  0.392895  0.392078  1
  Rh  Rh22  1  0.392588  0.392602  0.392050  1
  Rh  Rh23  1  0.392553  0.392585  0.822785  1
