# generated using pymatgen
data_Er4Zn2SiRu5
_symmetry_space_group_name_H-M   'P 1'
_cell_length_a   5.28056300
_cell_length_b   5.33682904
_cell_length_c   8.79505200
_cell_angle_alpha   90.00000000
_cell_angle_beta   90.00000000
_cell_angle_gamma   120.35310147
_symmetry_Int_Tables_number   1
_chemical_formula_structural   Er4Zn2SiRu5
_chemical_formula_sum   'Er4 Zn2 Si1 Ru5'
_cell_volume   213.88300805
_cell_formula_units_Z   1
loop_
 _symmetry_equiv_pos_site_id
 _symmetry_equiv_pos_as_xyz
  1  'x, y, z'
loop_
 _atom_site_type_symbol
 _atom_site_label
 _atom_site_symmetry_multiplicity
 _atom_site_fract_x
 _atom_site_fract_y
 _atom_site_fract_z
 _atom_site_occupancy
  Er  Er0  1  0.335526  0.667764  0.432324  1
  Er  Er1  1  0.658038  0.329019  0.555073  1
  Er  Er2  1  0.658038  0.329019  0.944927  1
  Er  Er3  1  0.335526  0.667764  0.067676  1
  Zn  Zn4  1  0.192711  0.350682  0.750000  1
  Zn  Zn5  1  0.192711  0.842028  0.750000  1
  Si  Si6  1  0.308929  0.154465  0.250000  1
  Ru  Ru7  1  0.814719  0.642264  0.250000  1
  Ru  Ru8  1  0.694287  0.847143  0.750000  1
  Ru  Ru9  1  0.997397  0.998698  0.000536  1
  Ru  Ru10  1  0.814719  0.172456  0.250000  1
  Ru  Ru11  1  0.997397  0.998698  0.499464  1
