# generated using pymatgen
data_Dy5Ho5Si5Pb
_symmetry_space_group_name_H-M   'P 1'
_cell_length_a   8.51554924
_cell_length_b   8.54881588
_cell_length_c   6.39678400
_cell_angle_alpha   90.00000000
_cell_angle_beta   90.00000000
_cell_angle_gamma   119.89861947
_symmetry_Int_Tables_number   1
_chemical_formula_structural   Dy5Ho5Si5Pb
_chemical_formula_sum   'Dy5 Ho5 Si5 Pb1'
_cell_volume   403.69531152
_cell_formula_units_Z   1
loop_
 _symmetry_equiv_pos_site_id
 _symmetry_equiv_pos_as_xyz
  1  'x, y, z'
loop_
 _atom_site_type_symbol
 _atom_site_label
 _atom_site_symmetry_multiplicity
 _atom_site_fract_x
 _atom_site_fract_y
 _atom_site_fract_z
 _atom_site_occupancy
  Dy  Dy0  1  0.998589  0.242970  0.250000  1
  Dy  Dy1  1  0.755796  0.757142  0.250000  1
  Dy  Dy2  1  0.766476  0.999942  0.750000  1
  Dy  Dy3  1  0.240480  0.252861  0.750000  1
  Dy  Dy4  1  0.240659  0.999926  0.250000  1
  Ho  Ho5  1  0.987416  0.746983  0.750000  1
  Ho  Ho6  1  0.674969  0.343732  0.003919  1
  Ho  Ho7  1  0.331213  0.656364  0.496055  1
  Ho  Ho8  1  0.331213  0.656364  0.003945  1
  Ho  Ho9  1  0.674969  0.343732  0.496081  1
  Si  Si10  1  0.393789  0.392259  0.250000  1
  Si  Si11  1  0.001497  0.607668  0.250000  1
  Si  Si12  1  0.998433  0.394720  0.750000  1
  Si  Si13  1  0.604219  0.605557  0.750000  1
  Si  Si14  1  0.605789  0.999980  0.250000  1
  Pb  Pb15  1  0.394493  0.999801  0.750000  1
