# generated using pymatgen
data_Ta2V3As
_symmetry_space_group_name_H-M   'P 1'
_cell_length_a   5.02662400
_cell_length_b   5.02662307
_cell_length_c   8.28958900
_cell_angle_alpha   90.00000000
_cell_angle_beta   90.00000000
_cell_angle_gamma   120.00000615
_symmetry_Int_Tables_number   1
_chemical_formula_structural   Ta2V3As
_chemical_formula_sum   'Ta4 V6 As2'
_cell_volume   181.39124583
_cell_formula_units_Z   2
loop_
 _symmetry_equiv_pos_site_id
 _symmetry_equiv_pos_as_xyz
  1  'x, y, z'
loop_
 _atom_site_type_symbol
 _atom_site_label
 _atom_site_symmetry_multiplicity
 _atom_site_fract_x
 _atom_site_fract_y
 _atom_site_fract_z
 _atom_site_occupancy
  Ta  Ta0  1  0.333333  0.666667  0.936420  1
  Ta  Ta1  1  0.666667  0.333333  0.063580  1
  Ta  Ta2  1  0.666667  0.333333  0.436420  1
  Ta  Ta3  1  0.333333  0.666667  0.563580  1
  V  V4  1  0.173063  0.826937  0.250000  1
  V  V5  1  0.173063  0.346124  0.250000  1
  V  V6  1  0.653876  0.826937  0.250000  1
  V  V7  1  0.826937  0.173063  0.750000  1
  V  V8  1  0.826937  0.653876  0.750000  1
  V  V9  1  0.346124  0.173063  0.750000  1
  As  As10  1  0.000000  0.000000  0.500000  1
  As  As11  1  0.000000  0.000000  0.000000  1
