# generated using pymatgen
data_DyHf(NiAs)2
_symmetry_space_group_name_H-M   'P 1'
_cell_length_a   3.99407300
_cell_length_b   3.99407216
_cell_length_c   14.80361200
_cell_angle_alpha   90.00000000
_cell_angle_beta   90.00000000
_cell_angle_gamma   119.99999868
_symmetry_Int_Tables_number   1
_chemical_formula_structural   DyHf(NiAs)2
_chemical_formula_sum   'Dy2 Hf2 Ni4 As4'
_cell_volume   204.51738743
_cell_formula_units_Z   2
loop_
 _symmetry_equiv_pos_site_id
 _symmetry_equiv_pos_as_xyz
  1  'x, y, z'
loop_
 _atom_site_type_symbol
 _atom_site_label
 _atom_site_symmetry_multiplicity
 _atom_site_fract_x
 _atom_site_fract_y
 _atom_site_fract_z
 _atom_site_occupancy
  Dy  Dy0  1  0.000000  0.000000  0.000000  1
  Dy  Dy1  1  0.000000  0.000000  0.500000  1
  Hf  Hf2  1  0.000000  0.000000  0.250000  1
  Hf  Hf3  1  0.000000  0.000000  0.750000  1
  Ni  Ni4  1  0.333333  0.666667  0.157557  1
  Ni  Ni5  1  0.666667  0.333333  0.842443  1
  Ni  Ni6  1  0.666667  0.333333  0.657557  1
  Ni  Ni7  1  0.333333  0.666667  0.342443  1
  As  As8  1  0.333333  0.666667  0.621937  1
  As  As9  1  0.666667  0.333333  0.378063  1
  As  As10  1  0.666667  0.333333  0.121937  1
  As  As11  1  0.333333  0.666667  0.878063  1
