# generated using pymatgen
data_Pb4WSeO10
_symmetry_space_group_name_H-M   'P 1'
_cell_length_a   7.73474759
_cell_length_b   7.73474634
_cell_length_c   7.44982900
_cell_angle_alpha   69.61059633
_cell_angle_beta   69.61059790
_cell_angle_gamma   44.93433195
_symmetry_Int_Tables_number   1
_chemical_formula_structural   Pb4WSeO10
_chemical_formula_sum   'Pb4 W1 Se1 O10'
_cell_volume   291.56367163
_cell_formula_units_Z   1
loop_
 _symmetry_equiv_pos_site_id
 _symmetry_equiv_pos_as_xyz
  1  'x, y, z'
loop_
 _atom_site_type_symbol
 _atom_site_label
 _atom_site_symmetry_multiplicity
 _atom_site_fract_x
 _atom_site_fract_y
 _atom_site_fract_z
 _atom_site_occupancy
  Pb  Pb0  1  0.508918  0.508918  0.752625  1
  Pb  Pb1  1  0.490941  0.490941  0.252717  1
  Pb  Pb2  1  0.137550  0.137550  0.887470  1
  Pb  Pb3  1  0.862709  0.862709  0.104988  1
  W  W4  1  0.172574  0.172574  0.340597  1
  Se  Se5  1  0.827217  0.827217  0.661476  1
  O  O6  1  0.251770  0.746010  0.000035  1
  O  O7  1  0.746010  0.251770  0.000035  1
  O  O8  1  0.704990  0.704990  0.688969  1
  O  O9  1  0.305654  0.305654  0.301085  1
  O  O10  1  0.392436  0.902986  0.218831  1
  O  O11  1  0.078685  0.621097  0.773849  1
  O  O12  1  0.901813  0.901813  0.424592  1
  O  O13  1  0.094651  0.094651  0.600053  1
  O  O14  1  0.902986  0.392436  0.218831  1
  O  O15  1  0.621097  0.078685  0.773849  1
