# generated using pymatgen
data_LiScFe2(NO3)8
_symmetry_space_group_name_H-M   'P 1'
_cell_length_a   7.76441231
_cell_length_b   7.75210507
_cell_length_c   7.80906385
_cell_angle_alpha   89.54066506
_cell_angle_beta   89.24380131
_cell_angle_gamma   90.36810695
_symmetry_Int_Tables_number   1
_chemical_formula_structural   LiScFe2(NO3)8
_chemical_formula_sum   'Li1 Sc1 Fe2 N8 O24'
_cell_volume   469.96570625
_cell_formula_units_Z   1
loop_
 _symmetry_equiv_pos_site_id
 _symmetry_equiv_pos_as_xyz
  1  'x, y, z'
loop_
 _atom_site_type_symbol
 _atom_site_label
 _atom_site_symmetry_multiplicity
 _atom_site_fract_x
 _atom_site_fract_y
 _atom_site_fract_z
 _atom_site_occupancy
  Li  Li0  1  0.000000  0.500000  0.000000  1
  Sc  Sc1  1  0.000000  0.000000  0.500000  1
  Fe  Fe2  1  0.500000  0.500000  0.500000  1
  Fe  Fe3  1  0.500000  0.000000  0.000000  1
  N  N4  1  0.679428  0.175173  0.321895  1
  N  N5  1  0.670291  0.324146  0.822978  1
  N  N6  1  0.827100  0.824435  0.827715  1
  N  N7  1  0.819453  0.675472  0.329129  1
  N  N8  1  0.172900  0.175565  0.172285  1
  N  N9  1  0.180547  0.324528  0.670871  1
  N  N10  1  0.329709  0.675854  0.177022  1
  N  N11  1  0.320572  0.824827  0.678105  1
  O  O12  1  0.554310  0.206002  0.818268  1
  O  O13  1  0.567317  0.290630  0.321397  1
  O  O14  1  0.671132  0.440442  0.706887  1
  O  O15  1  0.682061  0.059508  0.210769  1
  O  O16  1  0.704103  0.679036  0.445859  1
  O  O17  1  0.707594  0.827741  0.939035  1
  O  O18  1  0.780968  0.326118  0.936959  1
  O  O19  1  0.795303  0.175597  0.438400  1
  O  O20  1  0.826148  0.939029  0.706565  1
  O  O21  1  0.824298  0.564092  0.217338  1
  O  O22  1  0.942018  0.714855  0.832815  1
  O  O23  1  0.935068  0.796267  0.330525  1
  O  O24  1  0.064932  0.203733  0.669475  1
  O  O25  1  0.057982  0.285145  0.167185  1
  O  O26  1  0.175702  0.435908  0.782662  1
  O  O27  1  0.173852  0.060971  0.293435  1
  O  O28  1  0.219032  0.673882  0.063041  1
  O  O29  1  0.204697  0.824403  0.561600  1
  O  O30  1  0.292406  0.172259  0.060965  1
  O  O31  1  0.295897  0.320964  0.554141  1
  O  O32  1  0.328868  0.559558  0.293113  1
  O  O33  1  0.317939  0.940492  0.789231  1
  O  O34  1  0.432683  0.709370  0.678603  1
  O  O35  1  0.445690  0.793998  0.181732  1
