# generated using pymatgen
data_DyHoBe2SiO7
_symmetry_space_group_name_H-M   'P 1'
_cell_length_a   7.32405429
_cell_length_b   7.32405429
_cell_length_c   4.78788800
_cell_angle_alpha   90.00000000
_cell_angle_beta   90.00000000
_cell_angle_gamma   89.89140166
_symmetry_Int_Tables_number   1
_chemical_formula_structural   DyHoBe2SiO7
_chemical_formula_sum   'Dy2 Ho2 Be4 Si2 O14'
_cell_volume   256.83033142
_cell_formula_units_Z   2
loop_
 _symmetry_equiv_pos_site_id
 _symmetry_equiv_pos_as_xyz
  1  'x, y, z'
loop_
 _atom_site_type_symbol
 _atom_site_label
 _atom_site_symmetry_multiplicity
 _atom_site_fract_x
 _atom_site_fract_y
 _atom_site_fract_z
 _atom_site_occupancy
  Dy  Dy0  1  0.159064  0.659065  0.492348  1
  Dy  Dy1  1  0.840936  0.340935  0.492348  1
  Ho  Ho2  1  0.658647  0.841354  0.508382  1
  Ho  Ho3  1  0.341353  0.158646  0.508382  1
  Be  Be4  1  0.363747  0.863747  0.040783  1
  Be  Be5  1  0.636252  0.136254  0.040783  1
  Be  Be6  1  0.862906  0.637093  0.959605  1
  Be  Be7  1  0.137095  0.362906  0.959605  1
  Si  Si8  1  0.000000  0.000000  0.999580  1
  Si  Si9  1  0.500001  0.500001  0.999580  1
  O  O10  1  0.000000  0.500001  0.818330  1
  O  O11  1  0.500001  0.000000  0.184826  1
  O  O12  1  0.359400  0.859399  0.708511  1
  O  O13  1  0.640600  0.140601  0.708511  1
  O  O14  1  0.857617  0.642382  0.291579  1
  O  O15  1  0.142383  0.357618  0.291579  1
  O  O16  1  0.082246  0.162737  0.799263  1
  O  O17  1  0.917753  0.837263  0.799263  1
  O  O18  1  0.581652  0.336849  0.199553  1
  O  O19  1  0.418347  0.663151  0.199553  1
  O  O20  1  0.662737  0.582246  0.799263  1
  O  O21  1  0.337263  0.417753  0.799263  1
  O  O22  1  0.836849  0.081652  0.199553  1
  O  O23  1  0.163151  0.918347  0.199553  1
