# generated using pymatgen
data_Ta5TiNbCo6
_symmetry_space_group_name_H-M   'P 1'
_cell_length_a   9.12516589
_cell_length_b   9.12516641
_cell_length_c   9.12516610
_cell_angle_alpha   31.55291552
_cell_angle_beta   31.55290753
_cell_angle_gamma   31.55291538
_symmetry_Int_Tables_number   1
_chemical_formula_structural   Ta5TiNbCo6
_chemical_formula_sum   'Ta5 Ti1 Nb1 Co6'
_cell_volume   184.73573356
_cell_formula_units_Z   1
loop_
 _symmetry_equiv_pos_site_id
 _symmetry_equiv_pos_as_xyz
  1  'x, y, z'
loop_
 _atom_site_type_symbol
 _atom_site_label
 _atom_site_symmetry_multiplicity
 _atom_site_fract_x
 _atom_site_fract_y
 _atom_site_fract_z
 _atom_site_occupancy
  Ta  Ta0  1  0.833099  0.833099  0.833099  1
  Ta  Ta1  1  0.166981  0.166981  0.166981  1
  Ta  Ta2  1  0.655552  0.655552  0.655552  1
  Ta  Ta3  1  0.344949  0.344949  0.344949  1
  Ta  Ta4  1  0.550028  0.550028  0.550028  1
  Ti  Ti5  1  0.000002  0.000002  0.000002  1
  Nb  Nb6  1  0.449760  0.449760  0.449760  1
  Co  Co7  1  0.908273  0.415039  0.908273  1
  Co  Co8  1  0.908273  0.908273  0.415039  1
  Co  Co9  1  0.415039  0.908273  0.908273  1
  Co  Co10  1  0.091714  0.584618  0.091714  1
  Co  Co11  1  0.091714  0.091714  0.584618  1
  Co  Co12  1  0.584618  0.091714  0.091714  1
