# generated using pymatgen
data_Sr10InGa4Sn
_symmetry_space_group_name_H-M   'P 1'
_cell_length_a   8.59044300
_cell_length_b   8.59044300
_cell_length_c   15.60403800
_cell_angle_alpha   90.00000000
_cell_angle_beta   90.00000000
_cell_angle_gamma   90.00000000
_symmetry_Int_Tables_number   1
_chemical_formula_structural   Sr10InGa4Sn
_chemical_formula_sum   'Sr20 In2 Ga8 Sn2'
_cell_volume   1151.51107769
_cell_formula_units_Z   2
loop_
 _symmetry_equiv_pos_site_id
 _symmetry_equiv_pos_as_xyz
  1  'x, y, z'
loop_
 _atom_site_type_symbol
 _atom_site_label
 _atom_site_symmetry_multiplicity
 _atom_site_fract_x
 _atom_site_fract_y
 _atom_site_fract_z
 _atom_site_occupancy
  Sr  Sr0  1  0.821561  0.819542  0.891727  1
  Sr  Sr1  1  0.178833  0.176751  0.608168  1
  Sr  Sr2  1  0.823249  0.178833  0.391832  1
  Sr  Sr3  1  0.176751  0.821167  0.391832  1
  Sr  Sr4  1  0.321167  0.323249  0.391832  1
  Sr  Sr5  1  0.819542  0.178439  0.108273  1
  Sr  Sr6  1  0.319542  0.678439  0.891727  1
  Sr  Sr7  1  0.180458  0.821561  0.108273  1
  Sr  Sr8  1  0.500000  0.000000  0.752473  1
  Sr  Sr9  1  0.000000  0.500000  0.247527  1
  Sr  Sr10  1  0.323249  0.678833  0.608168  1
  Sr  Sr11  1  0.678439  0.680458  0.108273  1
  Sr  Sr12  1  0.676751  0.321167  0.608168  1
  Sr  Sr13  1  0.000000  0.500000  0.748884  1
  Sr  Sr14  1  0.821167  0.823249  0.608168  1
  Sr  Sr15  1  0.680458  0.321561  0.891727  1
  Sr  Sr16  1  0.178439  0.180458  0.891727  1
  Sr  Sr17  1  0.500000  0.000000  0.251116  1
  Sr  Sr18  1  0.678833  0.676751  0.391832  1
  Sr  Sr19  1  0.321561  0.319542  0.108273  1
  In  In20  1  0.500000  0.000000  0.498614  1
  In  In21  1  0.000000  0.500000  0.501386  1
  Ga  Ga22  1  0.604315  0.395779  0.247811  1
  Ga  Ga23  1  0.395685  0.604221  0.247811  1
  Ga  Ga24  1  0.104221  0.104315  0.247811  1
  Ga  Ga25  1  0.395779  0.395685  0.752189  1
  Ga  Ga26  1  0.104315  0.895779  0.752189  1
  Ga  Ga27  1  0.895779  0.895685  0.247811  1
  Ga  Ga28  1  0.604221  0.604315  0.752189  1
  Ga  Ga29  1  0.895685  0.104221  0.752189  1
  Sn  Sn30  1  0.000000  0.500000  0.000912  1
  Sn  Sn31  1  0.500000  0.000000  0.999088  1
