# generated using pymatgen
data_LaPr5Ir17Rh
_symmetry_space_group_name_H-M   'P 1'
_cell_length_a   5.40264800
_cell_length_b   5.40264577
_cell_length_c   17.70536200
_cell_angle_alpha   90.00000000
_cell_angle_beta   90.00000000
_cell_angle_gamma   119.99998914
_symmetry_Int_Tables_number   1
_chemical_formula_structural   LaPr5Ir17Rh
_chemical_formula_sum   'La1 Pr5 Ir17 Rh1'
_cell_volume   447.55731165
_cell_formula_units_Z   1
loop_
 _symmetry_equiv_pos_site_id
 _symmetry_equiv_pos_as_xyz
  1  'x, y, z'
loop_
 _atom_site_type_symbol
 _atom_site_label
 _atom_site_symmetry_multiplicity
 _atom_site_fract_x
 _atom_site_fract_y
 _atom_site_fract_z
 _atom_site_occupancy
  La  La0  1  0.333333  0.666667  0.750000  1
  Pr  Pr1  1  0.333333  0.666667  0.541393  1
  Pr  Pr2  1  0.666667  0.333333  0.040827  1
  Pr  Pr3  1  0.666667  0.333333  0.459173  1
  Pr  Pr4  1  0.333333  0.666667  0.958607  1
  Pr  Pr5  1  0.666667  0.333333  0.250000  1
  Ir  Ir6  1  0.166190  0.332380  0.128393  1
  Ir  Ir7  1  0.833267  0.666534  0.628364  1
  Ir  Ir8  1  0.667620  0.833810  0.128393  1
  Ir  Ir9  1  0.166190  0.833810  0.128393  1
  Ir  Ir10  1  0.833267  0.166733  0.628364  1
  Ir  Ir11  1  0.333466  0.166733  0.628364  1
  Ir  Ir12  1  0.833267  0.666534  0.871636  1
  Ir  Ir13  1  0.833267  0.166733  0.871636  1
  Ir  Ir14  1  0.333466  0.166733  0.871636  1
  Ir  Ir15  1  0.667620  0.833810  0.371607  1
  Ir  Ir16  1  0.166190  0.833810  0.371607  1
  Ir  Ir17  1  0.166190  0.332380  0.371607  1
  Ir  Ir18  1  0.000000  0.000000  0.250000  1
  Ir  Ir19  1  0.000000  0.000000  0.750000  1
  Ir  Ir20  1  0.333333  0.666667  0.250000  1
  Ir  Ir21  1  0.000000  0.000000  0.999393  1
  Ir  Ir22  1  0.000000  0.000000  0.500607  1
  Rh  Rh23  1  0.666667  0.333333  0.750000  1
