# generated using pymatgen
data_Hf6BeBiPb
_symmetry_space_group_name_H-M   'P 1'
_cell_length_a   7.68005200
_cell_length_b   7.68005138
_cell_length_c   3.79871300
_cell_angle_alpha   90.00000000
_cell_angle_beta   90.00000000
_cell_angle_gamma   119.99999404
_symmetry_Int_Tables_number   1
_chemical_formula_structural   Hf6BeBiPb
_chemical_formula_sum   'Hf6 Be1 Bi1 Pb1'
_cell_volume   194.04185916
_cell_formula_units_Z   1
loop_
 _symmetry_equiv_pos_site_id
 _symmetry_equiv_pos_as_xyz
  1  'x, y, z'
loop_
 _atom_site_type_symbol
 _atom_site_label
 _atom_site_symmetry_multiplicity
 _atom_site_fract_x
 _atom_site_fract_y
 _atom_site_fract_z
 _atom_site_occupancy
  Hf  Hf0  1  0.617864  0.999638  0.500000  1
  Hf  Hf1  1  0.381774  0.382136  0.500000  1
  Hf  Hf2  1  0.000362  0.618226  0.500000  1
  Hf  Hf3  1  0.226748  0.998032  0.000000  1
  Hf  Hf4  1  0.771285  0.773252  0.000000  1
  Hf  Hf5  1  0.001968  0.228715  0.000000  1
  Be  Be6  1  0.000000  0.000000  0.500000  1
  Bi  Bi7  1  0.666667  0.333333  0.000000  1
  Pb  Pb8  1  0.333333  0.666667  0.000000  1
