# generated using pymatgen
data_Ac3Mg3Ga2Pt
_symmetry_space_group_name_H-M   'P 1'
_cell_length_a   7.78463600
_cell_length_b   7.78463727
_cell_length_c   4.55385800
_cell_angle_alpha   90.00000000
_cell_angle_beta   90.00000000
_cell_angle_gamma   119.99999461
_symmetry_Int_Tables_number   1
_chemical_formula_structural   Ac3Mg3Ga2Pt
_chemical_formula_sum   'Ac3 Mg3 Ga2 Pt1'
_cell_volume   238.99390799
_cell_formula_units_Z   1
loop_
 _symmetry_equiv_pos_site_id
 _symmetry_equiv_pos_as_xyz
  1  'x, y, z'
loop_
 _atom_site_type_symbol
 _atom_site_label
 _atom_site_symmetry_multiplicity
 _atom_site_fract_x
 _atom_site_fract_y
 _atom_site_fract_z
 _atom_site_occupancy
  Ac  Ac0  1  0.408170  0.000000  0.000000  1
  Ac  Ac1  1  0.000000  0.408170  0.000000  1
  Ac  Ac2  1  0.591831  0.591830  0.000000  1
  Mg  Mg3  1  0.770108  0.000000  0.499999  1
  Mg  Mg4  1  0.229892  0.229892  0.499999  1
  Mg  Mg5  1  0.000000  0.770108  0.499999  1
  Ga  Ga6  1  0.666667  0.333333  0.499999  1
  Ga  Ga7  1  0.333333  0.666667  0.499999  1
  Pt  Pt8  1  0.000000  0.000000  0.000000  1
