# generated using pymatgen
data_SmCo5As3
_symmetry_space_group_name_H-M   'P 1'
_cell_length_a   3.82548200
_cell_length_b   12.23698300
_cell_length_c   10.72635300
_cell_angle_alpha   90.00000000
_cell_angle_beta   90.00000000
_cell_angle_gamma   90.00000000
_symmetry_Int_Tables_number   1
_chemical_formula_structural   SmCo5As3
_chemical_formula_sum   'Sm4 Co20 As12'
_cell_volume   502.12587882
_cell_formula_units_Z   4
loop_
 _symmetry_equiv_pos_site_id
 _symmetry_equiv_pos_as_xyz
  1  'x, y, z'
loop_
 _atom_site_type_symbol
 _atom_site_label
 _atom_site_symmetry_multiplicity
 _atom_site_fract_x
 _atom_site_fract_y
 _atom_site_fract_z
 _atom_site_occupancy
  Sm  Sm0  1  0.750000  0.701629  0.082107  1
  Sm  Sm1  1  0.250000  0.298371  0.917893  1
  Sm  Sm2  1  0.250000  0.798371  0.582107  1
  Sm  Sm3  1  0.750000  0.201629  0.417893  1
  Co  Co4  1  0.750000  0.696282  0.383236  1
  Co  Co5  1  0.250000  0.303718  0.616764  1
  Co  Co6  1  0.250000  0.803718  0.883236  1
  Co  Co7  1  0.750000  0.196282  0.116764  1
  Co  Co8  1  0.750000  0.990997  0.210834  1
  Co  Co9  1  0.250000  0.009003  0.789166  1
  Co  Co10  1  0.250000  0.509003  0.710834  1
  Co  Co11  1  0.750000  0.490997  0.289166  1
  Co  Co12  1  0.750000  0.676994  0.783673  1
  Co  Co13  1  0.250000  0.323006  0.216327  1
  Co  Co14  1  0.250000  0.823006  0.283673  1
  Co  Co15  1  0.750000  0.176994  0.716327  1
  Co  Co16  1  0.750000  0.932660  0.969906  1
  Co  Co17  1  0.250000  0.067340  0.030094  1
  Co  Co18  1  0.250000  0.567340  0.469906  1
  Co  Co19  1  0.750000  0.432660  0.530094  1
  Co  Co20  1  0.750000  0.989043  0.593281  1
  Co  Co21  1  0.250000  0.010957  0.406719  1
  Co  Co22  1  0.250000  0.510957  0.093281  1
  Co  Co23  1  0.750000  0.489042  0.906719  1
  As  As24  1  0.750000  0.612817  0.584165  1
  As  As25  1  0.250000  0.387183  0.415835  1
  As  As26  1  0.250000  0.887183  0.084165  1
  As  As27  1  0.750000  0.112817  0.915835  1
  As  As28  1  0.750000  0.891492  0.397334  1
  As  As29  1  0.250000  0.108508  0.602666  1
  As  As30  1  0.250000  0.608508  0.897334  1
  As  As31  1  0.750000  0.391492  0.102666  1
  As  As32  1  0.750000  0.870231  0.771207  1
  As  As33  1  0.250000  0.129769  0.228793  1
  As  As34  1  0.250000  0.629769  0.271207  1
  As  As35  1  0.750000  0.370231  0.728793  1
