# generated using pymatgen
data_Tb15ErCd4CoPd2Rh
_symmetry_space_group_name_H-M   'P 1'
_cell_length_a   9.63663417
_cell_length_b   9.62957532
_cell_length_c   9.63270500
_cell_angle_alpha   60.07899010
_cell_angle_beta   60.07864707
_cell_angle_gamma   59.97930031
_symmetry_Int_Tables_number   1
_chemical_formula_structural   Tb15ErCd4CoPd2Rh
_chemical_formula_sum   'Tb15 Er1 Cd4 Co1 Pd2 Rh1'
_cell_volume   632.72353537
_cell_formula_units_Z   1
loop_
 _symmetry_equiv_pos_site_id
 _symmetry_equiv_pos_as_xyz
  1  'x, y, z'
loop_
 _atom_site_type_symbol
 _atom_site_label
 _atom_site_symmetry_multiplicity
 _atom_site_fract_x
 _atom_site_fract_y
 _atom_site_fract_z
 _atom_site_occupancy
  Tb  Tb0  1  0.589657  0.595210  0.606213  1
  Tb  Tb1  1  0.184681  0.815425  0.816398  1
  Tb  Tb2  1  0.064637  0.056248  0.439195  1
  Tb  Tb3  1  0.437855  0.067269  0.057304  1
  Tb  Tb4  1  0.812450  0.187301  0.817630  1
  Tb  Tb5  1  0.440341  0.056472  0.439880  1
  Tb  Tb6  1  0.597437  0.193659  0.614771  1
  Tb  Tb7  1  0.812963  0.816129  0.188567  1
  Tb  Tb8  1  0.200978  0.598714  0.608316  1
  Tb  Tb9  1  0.809666  0.188941  0.188302  1
  Tb  Tb10  1  0.060796  0.441215  0.439110  1
  Tb  Tb11  1  0.186062  0.813986  0.187429  1
  Tb  Tb12  1  0.603817  0.610919  0.186629  1
  Tb  Tb13  1  0.184303  0.185846  0.816097  1
  Tb  Tb14  1  0.071922  0.438480  0.051769  1
  Er  Er15  1  0.439495  0.439628  0.051612  1
  Cd  Cd16  1  0.830676  0.828760  0.507727  1
  Cd  Cd17  1  0.833028  0.831342  0.830096  1
  Cd  Cd18  1  0.503967  0.830464  0.829887  1
  Cd  Cd19  1  0.830972  0.506839  0.828507  1
  Co  Co20  1  0.392655  0.390937  0.824431  1
  Pd  Pd21  1  0.398855  0.393479  0.389897  1
  Pd  Pd22  1  0.819688  0.391397  0.390489  1
  Rh  Rh23  1  0.393105  0.821339  0.389743  1
