# generated using pymatgen
data_Y10In8CuPt3
_symmetry_space_group_name_H-M   'P 1'
_cell_length_a   3.64164700
_cell_length_b   8.15746527
_cell_length_c   18.25278443
_cell_angle_alpha   89.96892396
_cell_angle_beta   90.00000000
_cell_angle_gamma   90.00000000
_symmetry_Int_Tables_number   1
_chemical_formula_structural   Y10In8CuPt3
_chemical_formula_sum   'Y10 In8 Cu1 Pt3'
_cell_volume   542.22824905
_cell_formula_units_Z   1
loop_
 _symmetry_equiv_pos_site_id
 _symmetry_equiv_pos_as_xyz
  1  'x, y, z'
loop_
 _atom_site_type_symbol
 _atom_site_label
 _atom_site_symmetry_multiplicity
 _atom_site_fract_x
 _atom_site_fract_y
 _atom_site_fract_z
 _atom_site_occupancy
  Y  Y0  1  0.000000  0.117655  0.415275  1
  Y  Y1  1  0.000000  0.884213  0.583760  1
  Y  Y2  1  0.000000  0.383879  0.915920  1
  Y  Y3  1  0.000000  0.617605  0.084487  1
  Y  Y4  1  0.000000  0.246233  0.219694  1
  Y  Y5  1  0.000000  0.757261  0.779840  1
  Y  Y6  1  0.000000  0.257381  0.720161  1
  Y  Y7  1  0.000000  0.735356  0.280524  1
  Y  Y8  1  0.000000  0.999148  0.000497  1
  Y  Y9  1  0.000000  0.499395  0.499416  1
  In  In10  1  0.500000  0.419699  0.351915  1
  In  In11  1  0.500000  0.577417  0.647999  1
  In  In12  1  0.500000  0.076881  0.851557  1
  In  In13  1  0.500000  0.924895  0.151550  1
  In  In14  1  0.500000  0.291849  0.067072  1
  In  In15  1  0.500000  0.708761  0.933446  1
  In  In16  1  0.500000  0.208744  0.566343  1
  In  In17  1  0.500000  0.793874  0.431495  1
  Cu  Cu18  1  0.500000  0.023763  0.301960  1
  Pt  Pt19  1  0.500000  0.975152  0.696082  1
  Pt  Pt20  1  0.500000  0.475147  0.803450  1
  Pt  Pt21  1  0.500000  0.525696  0.197556  1
