# generated using pymatgen
data_TbYAl2PdRh
_symmetry_space_group_name_H-M   'P 1'
_cell_length_a   4.37719000
_cell_length_b   6.89789480
_cell_length_c   7.87608602
_cell_angle_alpha   90.11771674
_cell_angle_beta   90.00000000
_cell_angle_gamma   90.00000000
_symmetry_Int_Tables_number   1
_chemical_formula_structural   TbYAl2PdRh
_chemical_formula_sum   'Tb2 Y2 Al4 Pd2 Rh2'
_cell_volume   237.80528312
_cell_formula_units_Z   2
loop_
 _symmetry_equiv_pos_site_id
 _symmetry_equiv_pos_as_xyz
  1  'x, y, z'
loop_
 _atom_site_type_symbol
 _atom_site_label
 _atom_site_symmetry_multiplicity
 _atom_site_fract_x
 _atom_site_fract_y
 _atom_site_fract_z
 _atom_site_occupancy
  Tb  Tb0  1  0.250000  0.030245  0.677569  1
  Tb  Tb1  1  0.750000  0.969755  0.322431  1
  Y  Y2  1  0.250000  0.535732  0.816485  1
  Y  Y3  1  0.750000  0.464268  0.183515  1
  Al  Al4  1  0.250000  0.636461  0.438775  1
  Al  Al5  1  0.750000  0.363539  0.561225  1
  Al  Al6  1  0.250000  0.144708  0.064218  1
  Al  Al7  1  0.750000  0.855292  0.935782  1
  Pd  Pd8  1  0.750000  0.226922  0.880965  1
  Pd  Pd9  1  0.250000  0.773078  0.119035  1
  Rh  Rh10  1  0.750000  0.733683  0.616162  1
  Rh  Rh11  1  0.250000  0.266317  0.383838  1
