# generated using pymatgen
data_Dy7LuTi8(Si4Mo)4
_symmetry_space_group_name_H-M   'P 1'
_cell_length_a   6.78306609
_cell_length_b   6.96997305
_cell_length_c   13.26393904
_cell_angle_alpha   89.96110297
_cell_angle_beta   90.00103026
_cell_angle_gamma   89.99099104
_symmetry_Int_Tables_number   1
_chemical_formula_structural   Dy7LuTi8(Si4Mo)4
_chemical_formula_sum   'Dy7 Lu1 Ti8 Si16 Mo4'
_cell_volume   627.08954391
_cell_formula_units_Z   1
loop_
 _symmetry_equiv_pos_site_id
 _symmetry_equiv_pos_as_xyz
  1  'x, y, z'
loop_
 _atom_site_type_symbol
 _atom_site_label
 _atom_site_symmetry_multiplicity
 _atom_site_fract_x
 _atom_site_fract_y
 _atom_site_fract_z
 _atom_site_occupancy
  Dy  Dy0  1  0.502921  0.328267  0.096677  1
  Dy  Dy1  1  0.003034  0.171686  0.403197  1
  Dy  Dy2  1  0.497105  0.671315  0.597039  1
  Dy  Dy3  1  0.997033  0.828359  0.903899  1
  Dy  Dy4  1  0.496719  0.671546  0.903628  1
  Dy  Dy5  1  0.996970  0.828390  0.596974  1
  Dy  Dy6  1  0.502921  0.328387  0.402544  1
  Lu  Lu7  1  0.002370  0.172363  0.097317  1
  Ti  Ti8  1  0.833482  0.327344  0.627361  1
  Ti  Ti9  1  0.333075  0.172679  0.873183  1
  Ti  Ti10  1  0.166514  0.673382  0.126898  1
  Ti  Ti11  1  0.667139  0.827780  0.372354  1
  Ti  Ti12  1  0.166363  0.672574  0.372303  1
  Ti  Ti13  1  0.667397  0.827871  0.126523  1
  Ti  Ti14  1  0.833984  0.326564  0.873310  1
  Ti  Ti15  1  0.333198  0.172705  0.627178  1
  Si  Si16  1  0.658698  0.041365  0.542897  1
  Si  Si17  1  0.158995  0.457283  0.958148  1
  Si  Si18  1  0.338425  0.960397  0.043109  1
  Si  Si19  1  0.840939  0.541398  0.456971  1
  Si  Si20  1  0.341119  0.958374  0.457004  1
  Si  Si21  1  0.841766  0.539059  0.043414  1
  Si  Si22  1  0.659262  0.041184  0.957662  1
  Si  Si23  1  0.159160  0.458798  0.542795  1
  Si  Si24  1  0.535926  0.373575  0.750346  1
  Si  Si25  1  0.035902  0.125918  0.750164  1
  Si  Si26  1  0.464314  0.626648  0.249441  1
  Si  Si27  1  0.964509  0.875383  0.249188  1
  Si  Si28  1  0.797490  0.625186  0.750426  1
  Si  Si29  1  0.297400  0.874643  0.750276  1
  Si  Si30  1  0.201672  0.373333  0.249017  1
  Si  Si31  1  0.704016  0.125901  0.249046  1
  Mo  Mo32  1  0.660907  0.011401  0.750411  1
  Mo  Mo33  1  0.160741  0.488301  0.750333  1
  Mo  Mo34  1  0.338797  0.989367  0.249406  1
  Mo  Mo35  1  0.839739  0.511276  0.249558  1
