# generated using pymatgen
data_Ho20Ga7NiBi4
_symmetry_space_group_name_H-M   'P 1'
_cell_length_a   8.15967491
_cell_length_b   8.15967491
_cell_length_c   12.70155102
_cell_angle_alpha   90.00535694
_cell_angle_beta   89.99464306
_cell_angle_gamma   91.70661860
_symmetry_Int_Tables_number   1
_chemical_formula_structural   Ho20Ga7NiBi4
_chemical_formula_sum   'Ho20 Ga7 Ni1 Bi4'
_cell_volume   845.29788502
_cell_formula_units_Z   1
loop_
 _symmetry_equiv_pos_site_id
 _symmetry_equiv_pos_as_xyz
  1  'x, y, z'
loop_
 _atom_site_type_symbol
 _atom_site_label
 _atom_site_symmetry_multiplicity
 _atom_site_fract_x
 _atom_site_fract_y
 _atom_site_fract_z
 _atom_site_occupancy
  Ho  Ho0  1  0.002719  0.494302  0.750286  1
  Ho  Ho1  1  0.001306  0.500600  0.250229  1
  Ho  Ho2  1  0.500600  0.001306  0.249771  1
  Ho  Ho3  1  0.494302  0.002719  0.749714  1
  Ho  Ho4  1  0.667760  0.667505  0.617376  1
  Ho  Ho5  1  0.652391  0.348029  0.105028  1
  Ho  Ho6  1  0.846211  0.846379  0.389237  1
  Ho  Ho7  1  0.137353  0.845601  0.888578  1
  Ho  Ho8  1  0.349746  0.349881  0.609893  1
  Ho  Ho9  1  0.347885  0.652300  0.105071  1
  Ho  Ho10  1  0.151793  0.151671  0.392307  1
  Ho  Ho11  1  0.845447  0.137091  0.888541  1
  Ho  Ho12  1  0.652300  0.347885  0.394929  1
  Ho  Ho13  1  0.349881  0.349746  0.890107  1
  Ho  Ho14  1  0.137091  0.845447  0.611459  1
  Ho  Ho15  1  0.846379  0.846211  0.110763  1
  Ho  Ho16  1  0.348029  0.652391  0.394972  1
  Ho  Ho17  1  0.667505  0.667760  0.882624  1
  Ho  Ho18  1  0.845601  0.137353  0.611422  1
  Ho  Ho19  1  0.151671  0.151793  0.107693  1
  Ga  Ga20  1  0.847452  0.149581  0.249967  1
  Ga  Ga21  1  0.644009  0.644009  0.250000  1
  Ga  Ga22  1  0.352996  0.651693  0.749975  1
  Ga  Ga23  1  0.142490  0.142490  0.750000  1
  Ga  Ga24  1  0.149581  0.847452  0.250033  1
  Ga  Ga25  1  0.352633  0.352633  0.250000  1
  Ga  Ga26  1  0.651693  0.352996  0.750025  1
  Ni  Ni27  1  0.871278  0.871278  0.750000  1
  Bi  Bi28  1  0.000266  0.495632  0.500074  1
  Bi  Bi29  1  0.000264  0.495738  0.000285  1
  Bi  Bi30  1  0.495738  0.000264  0.499715  1
  Bi  Bi31  1  0.495632  0.000266  0.999926  1
