# generated using pymatgen
data_Ni2Ag3SbO6
_symmetry_space_group_name_H-M   'P 1'
_cell_length_a   5.38649300
_cell_length_b   5.38649244
_cell_length_c   18.94322400
_cell_angle_alpha   90.00000000
_cell_angle_beta   90.00000000
_cell_angle_gamma   119.99998499
_symmetry_Int_Tables_number   1
_chemical_formula_structural   Ni2Ag3SbO6
_chemical_formula_sum   'Ni6 Ag9 Sb3 O18'
_cell_volume   475.98881430
_cell_formula_units_Z   3
loop_
 _symmetry_equiv_pos_site_id
 _symmetry_equiv_pos_as_xyz
  1  'x, y, z'
loop_
 _atom_site_type_symbol
 _atom_site_label
 _atom_site_symmetry_multiplicity
 _atom_site_fract_x
 _atom_site_fract_y
 _atom_site_fract_z
 _atom_site_occupancy
  Ni  Ni0  1  0.106830  0.893170  0.333333  1
  Ni  Ni1  1  0.106830  0.213659  0.666667  1
  Ni  Ni2  1  0.786341  0.893170  0.000000  1
  Ni  Ni3  1  0.773433  0.226567  0.333333  1
  Ni  Ni4  1  0.773433  0.546864  0.666667  1
  Ni  Ni5  1  0.453136  0.226567  0.000000  1
  Ag  Ag6  1  0.442718  0.221358  0.500000  1
  Ag  Ag7  1  0.778642  0.221358  0.833333  1
  Ag  Ag8  1  0.778642  0.557282  0.166667  1
  Ag  Ag9  1  0.114536  0.557268  0.500000  1
  Ag  Ag10  1  0.442732  0.557268  0.833333  1
  Ag  Ag11  1  0.442732  0.885464  0.166667  1
  Ag  Ag12  1  0.766915  0.883457  0.500000  1
  Ag  Ag13  1  0.116543  0.883457  0.833333  1
  Ag  Ag14  1  0.116543  0.233085  0.166667  1
  Sb  Sb15  1  0.440054  0.559946  0.333333  1
  Sb  Sb16  1  0.440054  0.880107  0.666667  1
  Sb  Sb17  1  0.119893  0.559946  0.000000  1
  O  O18  1  0.762369  0.559720  0.278357  1
  O  O19  1  0.440280  0.202649  0.611690  1
  O  O20  1  0.797351  0.237631  0.945024  1
  O  O21  1  0.762369  0.202649  0.721643  1
  O  O22  1  0.440280  0.237631  0.388310  1
  O  O23  1  0.797351  0.559720  0.054976  1
  O  O24  1  0.440486  0.883065  0.278517  1
  O  O25  1  0.116935  0.557421  0.611850  1
  O  O26  1  0.442579  0.559514  0.945184  1
  O  O27  1  0.440486  0.557421  0.721483  1
  O  O28  1  0.116935  0.559514  0.388150  1
  O  O29  1  0.442579  0.883065  0.054816  1
  O  O30  1  0.117515  0.236848  0.278456  1
  O  O31  1  0.763152  0.880667  0.611789  1
  O  O32  1  0.119333  0.882485  0.945122  1
  O  O33  1  0.117515  0.880667  0.721544  1
  O  O34  1  0.763152  0.882485  0.388211  1
  O  O35  1  0.119333  0.236848  0.054878  1
