# generated using pymatgen
data_Er12Ni4BiOs
_symmetry_space_group_name_H-M   'P 1'
_cell_length_a   8.27065719
_cell_length_b   8.27065613
_cell_length_c   8.27065800
_cell_angle_alpha   111.52115013
_cell_angle_beta   110.25015855
_cell_angle_gamma   106.68056860
_symmetry_Int_Tables_number   1
_chemical_formula_structural   Er12Ni4BiOs
_chemical_formula_sum   'Er12 Ni4 Bi1 Os1'
_cell_volume   434.68357348
_cell_formula_units_Z   1
loop_
 _symmetry_equiv_pos_site_id
 _symmetry_equiv_pos_as_xyz
  1  'x, y, z'
loop_
 _atom_site_type_symbol
 _atom_site_label
 _atom_site_symmetry_multiplicity
 _atom_site_fract_x
 _atom_site_fract_y
 _atom_site_fract_z
 _atom_site_occupancy
  Er  Er0  1  0.317985  0.126613  0.808628  1
  Er  Er1  1  0.682001  0.490595  0.808593  1
  Er  Er2  1  0.409213  0.716125  0.693039  1
  Er  Er3  1  0.590787  0.283875  0.306961  1
  Er  Er4  1  0.976913  0.283875  0.693088  1
  Er  Er5  1  0.023087  0.716125  0.306912  1
  Er  Er6  1  0.317999  0.509405  0.191407  1
  Er  Er7  1  0.682015  0.873387  0.191372  1
  Er  Er8  1  0.177857  0.782788  0.960669  1
  Er  Er9  1  0.822119  0.782788  0.604932  1
  Er  Er10  1  0.177881  0.217212  0.395068  1
  Er  Er11  1  0.822143  0.217212  0.039331  1
  Ni  Ni12  1  0.878465  0.878122  0.999656  1
  Ni  Ni13  1  0.121535  0.121878  0.000344  1
  Ni  Ni14  1  0.638087  0.500000  0.138087  1
  Ni  Ni15  1  0.361913  0.500000  0.861913  1
  Bi  Bi16  1  0.500000  0.000000  0.500000  1
  Os  Os17  1  0.000000  0.500000  0.500000  1
