# generated using pymatgen
data_TbTm7(Ge4Mo3)4
_symmetry_space_group_name_H-M   'P 1'
_cell_length_a   6.90452003
_cell_length_b   7.02702031
_cell_length_c   13.08344405
_cell_angle_alpha   89.96582008
_cell_angle_beta   90.02620814
_cell_angle_gamma   89.98788048
_symmetry_Int_Tables_number   1
_chemical_formula_structural   TbTm7(Ge4Mo3)4
_chemical_formula_sum   'Tb1 Tm7 Ge16 Mo12'
_cell_volume   634.78499344
_cell_formula_units_Z   1
loop_
 _symmetry_equiv_pos_site_id
 _symmetry_equiv_pos_as_xyz
  1  'x, y, z'
loop_
 _atom_site_type_symbol
 _atom_site_label
 _atom_site_symmetry_multiplicity
 _atom_site_fract_x
 _atom_site_fract_y
 _atom_site_fract_z
 _atom_site_occupancy
  Tb  Tb0  1  0.988672  0.829729  0.591412  1
  Tm  Tm1  1  0.488188  0.670359  0.591898  1
  Tm  Tm2  1  0.988328  0.829566  0.908014  1
  Tm  Tm3  1  0.511993  0.329298  0.092033  1
  Tm  Tm4  1  0.011834  0.170957  0.407931  1
  Tm  Tm5  1  0.511613  0.329518  0.408147  1
  Tm  Tm6  1  0.011794  0.170751  0.091976  1
  Tm  Tm7  1  0.488167  0.670795  0.908165  1
  Ge  Ge8  1  0.670673  0.954877  0.452004  1
  Ge  Ge9  1  0.171994  0.545212  0.047686  1
  Ge  Ge10  1  0.328534  0.045538  0.952092  1
  Ge  Ge11  1  0.827740  0.453095  0.547594  1
  Ge  Ge12  1  0.329452  0.045921  0.547385  1
  Ge  Ge13  1  0.828010  0.454995  0.952271  1
  Ge  Ge14  1  0.671587  0.954568  0.047943  1
  Ge  Ge15  1  0.172005  0.545014  0.451891  1
  Ge  Ge16  1  0.468641  0.369595  0.750230  1
  Ge  Ge17  1  0.968800  0.131297  0.749984  1
  Ge  Ge18  1  0.531180  0.630522  0.249870  1
  Ge  Ge19  1  0.031322  0.869388  0.250271  1
  Ge  Ge20  1  0.687753  0.853342  0.750361  1
  Ge  Ge21  1  0.189392  0.645790  0.750560  1
  Ge  Ge22  1  0.311566  0.146747  0.250168  1
  Ge  Ge23  1  0.811515  0.353277  0.250177  1
  Mo  Mo24  1  0.667490  0.156118  0.627155  1
  Mo  Mo25  1  0.168559  0.344227  0.873310  1
  Mo  Mo26  1  0.330847  0.844530  0.126518  1
  Mo  Mo27  1  0.830532  0.655243  0.373090  1
  Mo  Mo28  1  0.331667  0.844181  0.372962  1
  Mo  Mo29  1  0.831493  0.655652  0.126761  1
  Mo  Mo30  1  0.669291  0.155679  0.873629  1
  Mo  Mo31  1  0.169256  0.344276  0.626437  1
  Mo  Mo32  1  0.832486  0.495345  0.750032  1
  Mo  Mo33  1  0.333014  0.004671  0.750059  1
  Mo  Mo34  1  0.167272  0.504290  0.249936  1
  Mo  Mo35  1  0.667341  0.995635  0.250051  1
