# generated using pymatgen
data_Er5Zn(B2Rh5)2
_symmetry_space_group_name_H-M   'P 1'
_cell_length_a   9.62911000
_cell_length_b   9.62911000
_cell_length_c   3.21781200
_cell_angle_alpha   90.00000000
_cell_angle_beta   90.00000000
_cell_angle_gamma   90.00000000
_symmetry_Int_Tables_number   1
_chemical_formula_structural   Er5Zn(B2Rh5)2
_chemical_formula_sum   'Er5 Zn1 B4 Rh10'
_cell_volume   298.35475441
_cell_formula_units_Z   1
loop_
 _symmetry_equiv_pos_site_id
 _symmetry_equiv_pos_as_xyz
  1  'x, y, z'
loop_
 _atom_site_type_symbol
 _atom_site_label
 _atom_site_symmetry_multiplicity
 _atom_site_fract_x
 _atom_site_fract_y
 _atom_site_fract_z
 _atom_site_occupancy
  Er  Er0  1  0.829770  0.321720  0.000000  1
  Er  Er1  1  0.321720  0.170230  0.000000  1
  Er  Er2  1  0.678280  0.829770  0.000000  1
  Er  Er3  1  0.170230  0.678280  0.000000  1
  Er  Er4  1  0.500000  0.500000  0.000000  1
  Zn  Zn5  1  0.000000  0.000000  0.000000  1
  B  B6  1  0.627414  0.117320  0.000000  1
  B  B7  1  0.117320  0.372586  0.000000  1
  B  B8  1  0.882680  0.627414  0.000000  1
  B  B9  1  0.372586  0.882680  0.000000  1
  Rh  Rh10  1  0.068186  0.218817  0.500000  1
  Rh  Rh11  1  0.218817  0.931814  0.500000  1
  Rh  Rh12  1  0.781183  0.068186  0.500000  1
  Rh  Rh13  1  0.931814  0.781183  0.500000  1
  Rh  Rh14  1  0.424937  0.729896  0.500000  1
  Rh  Rh15  1  0.575063  0.270104  0.500000  1
  Rh  Rh16  1  0.729896  0.575063  0.500000  1
  Rh  Rh17  1  0.270104  0.424937  0.500000  1
  Rh  Rh18  1  0.500000  0.000000  0.500000  1
  Rh  Rh19  1  0.000000  0.500000  0.500000  1
