# generated using pymatgen
data_SrAc3(FeO3)4
_symmetry_space_group_name_H-M   'P 1'
_cell_length_a   5.62953398
_cell_length_b   5.67175341
_cell_length_c   8.06673500
_cell_angle_alpha   90.03958955
_cell_angle_beta   90.30541425
_cell_angle_gamma   90.37566985
_symmetry_Int_Tables_number   1
_chemical_formula_structural   SrAc3(FeO3)4
_chemical_formula_sum   'Sr1 Ac3 Fe4 O12'
_cell_volume   257.55616863
_cell_formula_units_Z   1
loop_
 _symmetry_equiv_pos_site_id
 _symmetry_equiv_pos_as_xyz
  1  'x, y, z'
loop_
 _atom_site_type_symbol
 _atom_site_label
 _atom_site_symmetry_multiplicity
 _atom_site_fract_x
 _atom_site_fract_y
 _atom_site_fract_z
 _atom_site_occupancy
  Sr  Sr0  1  0.512437  0.503562  0.748132  1
  Ac  Ac1  1  0.014409  0.996679  0.748331  1
  Ac  Ac2  1  0.487454  0.497543  0.251280  1
  Ac  Ac3  1  0.986886  0.000317  0.250099  1
  Fe  Fe4  1  0.999291  0.499751  0.501350  1
  Fe  Fe5  1  0.500149  0.999674  0.503114  1
  Fe  Fe6  1  0.999336  0.499482  0.995603  1
  Fe  Fe7  1  0.500215  0.000021  0.996486  1
  O  O8  1  0.994889  0.452468  0.749221  1
  O  O9  1  0.493441  0.047544  0.748529  1
  O  O10  1  0.003448  0.543712  0.251777  1
  O  O11  1  0.504297  0.952861  0.252270  1
  O  O12  1  0.269372  0.731186  0.979721  1
  O  O13  1  0.262099  0.736740  0.522710  1
  O  O14  1  0.768412  0.768945  0.521026  1
  O  O15  1  0.776246  0.775869  0.979546  1
  O  O16  1  0.737357  0.263132  0.471361  1
  O  O17  1  0.730074  0.269546  0.029081  1
  O  O18  1  0.226737  0.227947  0.027188  1
  O  O19  1  0.233451  0.233021  0.473177  1
