# generated using pymatgen
data_Tb2HoZn3(GaCo)6
_symmetry_space_group_name_H-M   'P 1'
_cell_length_a   4.10879500
_cell_length_b   8.89825594
_cell_length_c   8.89825763
_cell_angle_alpha   59.91432207
_cell_angle_beta   90.00000000
_cell_angle_gamma   90.00000000
_symmetry_Int_Tables_number   1
_chemical_formula_structural   Tb2HoZn3(GaCo)6
_chemical_formula_sum   'Tb2 Ho1 Zn3 Ga6 Co6'
_cell_volume   281.50063524
_cell_formula_units_Z   1
loop_
 _symmetry_equiv_pos_site_id
 _symmetry_equiv_pos_as_xyz
  1  'x, y, z'
loop_
 _atom_site_type_symbol
 _atom_site_label
 _atom_site_symmetry_multiplicity
 _atom_site_fract_x
 _atom_site_fract_y
 _atom_site_fract_z
 _atom_site_occupancy
  Tb  Tb0  1  0.500000  0.333358  0.333337  1
  Tb  Tb1  1  0.500000  0.666663  0.666642  1
  Ho  Ho2  1  0.000000  0.999854  0.000146  1
  Zn  Zn3  1  0.500000  0.292129  0.707871  1
  Zn  Zn4  1  0.500000  0.707873  0.999967  1
  Zn  Zn5  1  0.500000  0.000033  0.292127  1
  Ga  Ga6  1  0.000000  0.493621  0.506379  1
  Ga  Ga7  1  0.000000  0.506536  0.999997  1
  Ga  Ga8  1  0.000000  0.000003  0.493464  1
  Ga  Ga9  1  0.500000  0.716507  0.283493  1
  Ga  Ga10  1  0.500000  0.283529  0.999992  1
  Ga  Ga11  1  0.500000  0.000008  0.716471  1
  Co  Co12  1  0.000000  0.188285  0.178437  1
  Co  Co13  1  0.000000  0.178354  0.633563  1
  Co  Co14  1  0.000000  0.633469  0.188319  1
  Co  Co15  1  0.000000  0.821563  0.811715  1
  Co  Co16  1  0.000000  0.366437  0.821646  1
  Co  Co17  1  0.000000  0.811681  0.366531  1
