# generated using pymatgen
data_Ho6Sc4Si5As
_symmetry_space_group_name_H-M   'P 1'
_cell_length_a   8.24941200
_cell_length_b   8.26130940
_cell_length_c   5.99011000
_cell_angle_alpha   90.00000000
_cell_angle_beta   90.00000000
_cell_angle_gamma   119.95237213
_symmetry_Int_Tables_number   1
_chemical_formula_structural   Ho6Sc4Si5As
_chemical_formula_sum   'Ho6 Sc4 Si5 As1'
_cell_volume   353.70853712
_cell_formula_units_Z   1
loop_
 _symmetry_equiv_pos_site_id
 _symmetry_equiv_pos_as_xyz
  1  'x, y, z'
loop_
 _atom_site_type_symbol
 _atom_site_label
 _atom_site_symmetry_multiplicity
 _atom_site_fract_x
 _atom_site_fract_y
 _atom_site_fract_z
 _atom_site_occupancy
  Ho  Ho0  1  0.996509  0.750794  0.750000  1
  Ho  Ho1  1  0.000255  0.246646  0.250000  1
  Ho  Ho2  1  0.753608  0.753354  0.250000  1
  Ho  Ho3  1  0.754587  0.000000  0.750000  1
  Ho  Ho4  1  0.245716  0.249206  0.750000  1
  Ho  Ho5  1  0.246594  0.000000  0.250000  1
  Sc  Sc6  1  0.332769  0.663724  0.498021  1
  Sc  Sc7  1  0.669046  0.336276  0.001979  1
  Sc  Sc8  1  0.669046  0.336276  0.498021  1
  Sc  Sc9  1  0.332769  0.663724  0.001979  1
  Si  Si10  1  0.397814  0.396566  0.250000  1
  Si  Si11  1  0.001248  0.603434  0.250000  1
  Si  Si12  1  0.999606  0.397524  0.750000  1
  Si  Si13  1  0.602082  0.602476  0.750000  1
  Si  Si14  1  0.604018  0.000000  0.250000  1
  As  As15  1  0.394331  0.000000  0.750000  1
