# generated using pymatgen
data_Tb2PrP4Pd7
_symmetry_space_group_name_H-M   'P 1'
_cell_length_a   7.99023219
_cell_length_b   7.99023257
_cell_length_c   9.52569475
_cell_angle_alpha   55.80138053
_cell_angle_beta   55.80137930
_cell_angle_gamma   29.25833909
_symmetry_Int_Tables_number   1
_chemical_formula_structural   Tb2PrP4Pd7
_chemical_formula_sum   'Tb2 Pr1 P4 Pd7'
_cell_volume   241.94315935
_cell_formula_units_Z   1
loop_
 _symmetry_equiv_pos_site_id
 _symmetry_equiv_pos_as_xyz
  1  'x, y, z'
loop_
 _atom_site_type_symbol
 _atom_site_label
 _atom_site_symmetry_multiplicity
 _atom_site_fract_x
 _atom_site_fract_y
 _atom_site_fract_z
 _atom_site_occupancy
  Tb  Tb0  1  0.679267  0.679267  0.324075  1
  Tb  Tb1  1  0.320733  0.320733  0.675925  1
  Pr  Pr2  1  0.000000  0.000000  0.000000  1
  P  P3  1  0.337192  0.337192  0.259985  1
  P  P4  1  0.662808  0.662808  0.740015  1
  P  P5  1  0.893298  0.893298  0.816632  1
  P  P6  1  0.106702  0.106702  0.183368  1
  Pd  Pd7  1  0.304567  0.304567  0.030420  1
  Pd  Pd8  1  0.695433  0.695433  0.969580  1
  Pd  Pd9  1  0.509621  0.509621  0.712561  1
  Pd  Pd10  1  0.830194  0.830194  0.425183  1
  Pd  Pd11  1  0.490379  0.490379  0.287439  1
  Pd  Pd12  1  0.169806  0.169806  0.574817  1
  Pd  Pd13  1  0.000000  0.000000  0.500000  1
