# generated using pymatgen
data_Sm5CuBi3Au3O20
_symmetry_space_group_name_H-M   'P 1'
_cell_length_a   8.57230572
_cell_length_b   8.61340636
_cell_length_c   5.84683993
_cell_angle_alpha   89.11212640
_cell_angle_beta   91.37361306
_cell_angle_gamma   89.52524634
_symmetry_Int_Tables_number   1
_chemical_formula_structural   Sm5CuBi3Au3O20
_chemical_formula_sum   'Sm5 Cu1 Bi3 Au3 O20'
_cell_volume   431.51961096
_cell_formula_units_Z   1
loop_
 _symmetry_equiv_pos_site_id
 _symmetry_equiv_pos_as_xyz
  1  'x, y, z'
loop_
 _atom_site_type_symbol
 _atom_site_label
 _atom_site_symmetry_multiplicity
 _atom_site_fract_x
 _atom_site_fract_y
 _atom_site_fract_z
 _atom_site_occupancy
  Sm  Sm0  1  0.354072  0.659147  0.252585  1
  Sm  Sm1  1  0.846569  0.149797  0.744398  1
  Sm  Sm2  1  0.649832  0.651378  0.747972  1
  Sm  Sm3  1  0.648685  0.346954  0.252305  1
  Sm  Sm4  1  0.839617  0.852844  0.251868  1
  Cu  Cu5  1  0.494646  0.000785  0.402987  1
  Bi  Bi6  1  0.144384  0.844779  0.760985  1
  Bi  Bi7  1  0.359413  0.355935  0.748227  1
  Bi  Bi8  1  0.154996  0.141572  0.252305  1
  Au  Au9  1  0.502059  0.005163  0.903910  1
  Au  Au10  1  0.997987  0.492245  0.095933  1
  Au  Au11  1  0.004967  0.498982  0.593522  1
  O  O12  1  0.106405  0.288367  0.593422  1
  O  O13  1  0.910671  0.277359  0.118037  1
  O  O14  1  0.911846  0.714478  0.611665  1
  O  O15  1  0.718473  0.912291  0.888270  1
  O  O16  1  0.218891  0.588410  0.620866  1
  O  O17  1  0.412201  0.792046  0.898064  1
  O  O18  1  0.403967  0.197458  0.397179  1
  O  O19  1  0.782404  0.590802  0.109661  1
  O  O20  1  0.293995  0.923949  0.374560  1
  O  O21  1  0.587778  0.220283  0.881806  1
  O  O22  1  0.487338  0.500630  0.994622  1
  O  O23  1  0.496835  0.491777  0.500641  1
  O  O24  1  0.789649  0.407370  0.603118  1
  O  O25  1  0.090749  0.708385  0.102208  1
  O  O26  1  0.291686  0.104160  0.898841  1
  O  O27  1  0.579031  0.798892  0.396553  1
  O  O28  1  0.207984  0.386606  0.106725  1
  O  O29  1  0.011920  0.003512  0.007241  1
  O  O30  1  0.005905  0.009450  0.490296  1
  O  O31  1  0.695047  0.084192  0.399227  1
