# generated using pymatgen
data_Ac3Si2S8Br
_symmetry_space_group_name_H-M   'P 1'
_cell_length_a   8.11937300
_cell_length_b   9.16908161
_cell_length_c   11.21845170
_cell_angle_alpha   96.60780597
_cell_angle_beta   90.00000000
_cell_angle_gamma   116.27999754
_symmetry_Int_Tables_number   1
_chemical_formula_structural   Ac3Si2S8Br
_chemical_formula_sum   'Ac6 Si4 S16 Br2'
_cell_volume   742.66606234
_cell_formula_units_Z   2
loop_
 _symmetry_equiv_pos_site_id
 _symmetry_equiv_pos_as_xyz
  1  'x, y, z'
loop_
 _atom_site_type_symbol
 _atom_site_label
 _atom_site_symmetry_multiplicity
 _atom_site_fract_x
 _atom_site_fract_y
 _atom_site_fract_z
 _atom_site_occupancy
  Ac  Ac0  1  0.311975  0.386216  0.182021  1
  Ac  Ac1  1  0.606609  0.000000  0.250000  1
  Ac  Ac2  1  0.925758  0.613784  0.317979  1
  Ac  Ac3  1  0.074240  0.386216  0.682021  1
  Ac  Ac4  1  0.393391  0.000000  0.750000  1
  Ac  Ac5  1  0.688025  0.613784  0.817979  1
  Si  Si6  1  0.695764  0.320198  0.029954  1
  Si  Si7  1  0.375567  0.679803  0.470046  1
  Si  Si8  1  0.624434  0.320198  0.529954  1
  Si  Si9  1  0.304236  0.679801  0.970045  1
  S  S10  1  0.422927  0.138316  0.046870  1
  S  S11  1  0.707972  0.557214  0.084131  1
  S  S12  1  0.889148  0.294674  0.142813  1
  S  S13  1  0.255673  0.700194  0.156386  1
  S  S14  1  0.555479  0.299805  0.343614  1
  S  S15  1  0.594474  0.705326  0.357187  1
  S  S16  1  0.150757  0.442785  0.415868  1
  S  S17  1  0.284611  0.861683  0.453130  1
  S  S18  1  0.715388  0.138316  0.546869  1
  S  S19  1  0.849243  0.557214  0.584131  1
  S  S20  1  0.405526  0.294674  0.642812  1
  S  S21  1  0.444521  0.700194  0.656386  1
  S  S22  1  0.744326  0.299805  0.843614  1
  S  S23  1  0.110852  0.705326  0.857188  1
  S  S24  1  0.292028  0.442785  0.915869  1
  S  S25  1  0.577073  0.861683  0.953131  1
  Br  Br26  1  0.004479  0.000000  0.250000  1
  Br  Br27  1  0.995521  0.000000  0.750000  1
