# generated using pymatgen
data_YHo3(InGa2)2
_symmetry_space_group_name_H-M   'P 1'
_cell_length_a   7.18267600
_cell_length_b   7.18267562
_cell_length_c   4.41302900
_cell_angle_alpha   90.00000000
_cell_angle_beta   90.00000000
_cell_angle_gamma   90.16729264
_symmetry_Int_Tables_number   1
_chemical_formula_structural   YHo3(InGa2)2
_chemical_formula_sum   'Y1 Ho3 In2 Ga4'
_cell_volume   227.67086626
_cell_formula_units_Z   1
loop_
 _symmetry_equiv_pos_site_id
 _symmetry_equiv_pos_as_xyz
  1  'x, y, z'
loop_
 _atom_site_type_symbol
 _atom_site_label
 _atom_site_symmetry_multiplicity
 _atom_site_fract_x
 _atom_site_fract_y
 _atom_site_fract_z
 _atom_site_occupancy
  Y  Y0  1  0.327613  0.827613  0.500000  1
  Ho  Ho1  1  0.828064  0.672315  0.500000  1
  Ho  Ho2  1  0.172315  0.328064  0.500000  1
  Ho  Ho3  1  0.672297  0.172297  0.500000  1
  In  In4  1  0.999618  0.000421  0.000000  1
  In  In5  1  0.500421  0.499618  0.000000  1
  Ga  Ga6  1  0.125794  0.625794  0.000000  1
  Ga  Ga7  1  0.626665  0.873886  0.000000  1
  Ga  Ga8  1  0.373886  0.126665  0.000000  1
  Ga  Ga9  1  0.873327  0.373327  0.000000  1
