# generated using pymatgen
data_Ho4Tm8Co5Sn
_symmetry_space_group_name_H-M   'P 1'
_cell_length_a   8.17863213
_cell_length_b   8.17872113
_cell_length_c   8.17863073
_cell_angle_alpha   110.94289679
_cell_angle_beta   110.70519114
_cell_angle_gamma   106.79785410
_symmetry_Int_Tables_number   1
_chemical_formula_structural   Ho4Tm8Co5Sn
_chemical_formula_sum   'Ho4 Tm8 Co5 Sn1'
_cell_volume   420.45517686
_cell_formula_units_Z   1
loop_
 _symmetry_equiv_pos_site_id
 _symmetry_equiv_pos_as_xyz
  1  'x, y, z'
loop_
 _atom_site_type_symbol
 _atom_site_label
 _atom_site_symmetry_multiplicity
 _atom_site_fract_x
 _atom_site_fract_y
 _atom_site_fract_z
 _atom_site_occupancy
  Ho  Ho0  1  0.287632  0.186197  0.473831  1
  Ho  Ho1  1  0.712368  0.813803  0.526169  1
  Ho  Ho2  1  0.287634  0.813803  0.101435  1
  Ho  Ho3  1  0.712366  0.186197  0.898565  1
  Tm  Tm4  1  0.619914  0.313603  0.306315  1
  Tm  Tm5  1  0.380086  0.686397  0.693685  1
  Tm  Tm6  1  0.007288  0.313603  0.693689  1
  Tm  Tm7  1  0.992712  0.686397  0.306311  1
  Tm  Tm8  1  0.212077  0.405210  0.193134  1
  Tm  Tm9  1  0.787923  0.594790  0.806866  1
  Tm  Tm10  1  0.212071  0.018943  0.806871  1
  Tm  Tm11  1  0.787929  0.981057  0.193129  1
  Co  Co12  1  0.999996  0.375605  0.375610  1
  Co  Co13  1  0.000004  0.624395  0.624390  1
  Co  Co14  1  0.387201  0.887229  0.500027  1
  Co  Co15  1  0.612799  0.112771  0.499973  1
  Co  Co16  1  0.000000  0.000000  0.000000  1
  Sn  Sn17  1  0.500000  0.500000  0.000000  1
