# generated using pymatgen
data_Eu4ErZn3Pd4
_symmetry_space_group_name_H-M   'P 1'
_cell_length_a   4.47836900
_cell_length_b   7.41822040
_cell_length_c   8.34239612
_cell_angle_alpha   91.65967044
_cell_angle_beta   90.00000000
_cell_angle_gamma   90.00000000
_symmetry_Int_Tables_number   1
_chemical_formula_structural   Eu4ErZn3Pd4
_chemical_formula_sum   'Eu4 Er1 Zn3 Pd4'
_cell_volume   277.03088344
_cell_formula_units_Z   1
loop_
 _symmetry_equiv_pos_site_id
 _symmetry_equiv_pos_as_xyz
  1  'x, y, z'
loop_
 _atom_site_type_symbol
 _atom_site_label
 _atom_site_symmetry_multiplicity
 _atom_site_fract_x
 _atom_site_fract_y
 _atom_site_fract_z
 _atom_site_occupancy
  Eu  Eu0  1  0.250000  0.032583  0.300196  1
  Eu  Eu1  1  0.250000  0.517417  0.178066  1
  Eu  Eu2  1  0.750000  0.995563  0.699040  1
  Eu  Eu3  1  0.750000  0.462166  0.835582  1
  Er  Er4  1  0.250000  0.638689  0.571287  1
  Zn  Zn5  1  0.250000  0.157464  0.931784  1
  Zn  Zn6  1  0.750000  0.355566  0.428557  1
  Zn  Zn7  1  0.750000  0.843098  0.063461  1
  Pd  Pd8  1  0.250000  0.271642  0.612352  1
  Pd  Pd9  1  0.250000  0.787240  0.894135  1
  Pd  Pd10  1  0.750000  0.728814  0.378715  1
  Pd  Pd11  1  0.750000  0.209759  0.106826  1
