# generated using pymatgen
data_Mn6Fe2TcMo3
_symmetry_space_group_name_H-M   'P 1'
_cell_length_a   4.66881906
_cell_length_b   4.66882063
_cell_length_c   7.77503600
_cell_angle_alpha   89.99970245
_cell_angle_beta   90.00029466
_cell_angle_gamma   120.01898995
_symmetry_Int_Tables_number   1
_chemical_formula_structural   Mn6Fe2TcMo3
_chemical_formula_sum   'Mn6 Fe2 Tc1 Mo3'
_cell_volume   146.74527826
_cell_formula_units_Z   1
loop_
 _symmetry_equiv_pos_site_id
 _symmetry_equiv_pos_as_xyz
  1  'x, y, z'
loop_
 _atom_site_type_symbol
 _atom_site_label
 _atom_site_symmetry_multiplicity
 _atom_site_fract_x
 _atom_site_fract_y
 _atom_site_fract_z
 _atom_site_occupancy
  Mn  Mn0  1  0.827224  0.654590  0.750583  1
  Mn  Mn1  1  0.827221  0.172779  0.750586  1
  Mn  Mn2  1  0.345410  0.172776  0.750583  1
  Mn  Mn3  1  0.173084  0.346099  0.248491  1
  Mn  Mn4  1  0.173079  0.826922  0.248508  1
  Mn  Mn5  1  0.653901  0.826916  0.248491  1
  Fe  Fe6  1  0.000068  0.999932  0.499452  1
  Fe  Fe7  1  0.000060  0.999940  0.000531  1
  Tc  Tc8  1  0.666658  0.333342  0.068926  1
  Mo  Mo9  1  0.333331  0.666669  0.936468  1
  Mo  Mo10  1  0.333320  0.666680  0.566140  1
  Mo  Mo11  1  0.666644  0.333356  0.431240  1
