# generated using pymatgen
data_CePu3F15
_symmetry_space_group_name_H-M   'P 1'
_cell_length_a   8.56135417
_cell_length_b   8.56135284
_cell_length_c   8.48332700
_cell_angle_alpha   80.30045508
_cell_angle_beta   80.30045660
_cell_angle_gamma   101.19034741
_symmetry_Int_Tables_number   1
_chemical_formula_structural   CePu3F15
_chemical_formula_sum   'Ce2 Pu6 F30'
_cell_volume   588.10213184
_cell_formula_units_Z   2
loop_
 _symmetry_equiv_pos_site_id
 _symmetry_equiv_pos_as_xyz
  1  'x, y, z'
loop_
 _atom_site_type_symbol
 _atom_site_label
 _atom_site_symmetry_multiplicity
 _atom_site_fract_x
 _atom_site_fract_y
 _atom_site_fract_z
 _atom_site_occupancy
  Ce  Ce0  1  0.179900  0.820100  0.250000  1
  Ce  Ce1  1  0.820100  0.179900  0.750000  1
  Pu  Pu2  1  0.747879  0.252121  0.250000  1
  Pu  Pu3  1  0.252121  0.747879  0.750000  1
  Pu  Pu4  1  0.751940  0.679299  0.681587  1
  Pu  Pu5  1  0.320701  0.248060  0.818413  1
  Pu  Pu6  1  0.248060  0.320701  0.318413  1
  Pu  Pu7  1  0.679299  0.751940  0.181587  1
  F  F8  1  0.466798  0.533202  0.250000  1
  F  F9  1  0.749132  0.965237  0.965779  1
  F  F10  1  0.034763  0.250868  0.534221  1
  F  F11  1  0.250868  0.034763  0.034221  1
  F  F12  1  0.965237  0.749132  0.465779  1
  F  F13  1  0.533202  0.466798  0.750000  1
  F  F14  1  0.776860  0.290724  0.988199  1
  F  F15  1  0.008916  0.276410  0.211704  1
  F  F16  1  0.785827  0.511662  0.224086  1
  F  F17  1  0.511662  0.785827  0.724086  1
  F  F18  1  0.276410  0.008916  0.711704  1
  F  F19  1  0.290724  0.776860  0.488199  1
  F  F20  1  0.223140  0.709276  0.011801  1
  F  F21  1  0.991084  0.723590  0.788296  1
  F  F22  1  0.214173  0.488338  0.775914  1
  F  F23  1  0.488338  0.214173  0.275914  1
  F  F24  1  0.723590  0.991084  0.288296  1
  F  F25  1  0.709276  0.223140  0.511801  1
  F  F26  1  0.325723  0.350431  0.047222  1
  F  F27  1  0.950440  0.819633  0.149717  1
  F  F28  1  0.847175  0.451777  0.675143  1
  F  F29  1  0.451777  0.847175  0.175143  1
  F  F30  1  0.819633  0.950440  0.649717  1
  F  F31  1  0.350431  0.325723  0.547222  1
  F  F32  1  0.674277  0.649569  0.952778  1
  F  F33  1  0.049560  0.180367  0.850283  1
  F  F34  1  0.152825  0.548223  0.324857  1
  F  F35  1  0.548223  0.152825  0.824857  1
  F  F36  1  0.180367  0.049560  0.350283  1
  F  F37  1  0.649569  0.674277  0.452778  1
