# generated using pymatgen
data_Dy3Ho13MgIn3Rh4
_symmetry_space_group_name_H-M   'P 1'
_cell_length_a   9.63664562
_cell_length_b   9.63965931
_cell_length_c   9.63461189
_cell_angle_alpha   59.94893296
_cell_angle_beta   59.96654820
_cell_angle_gamma   59.94459343
_symmetry_Int_Tables_number   1
_chemical_formula_structural   Dy3Ho13MgIn3Rh4
_chemical_formula_sum   'Dy3 Ho13 Mg1 In3 Rh4'
_cell_volume   632.18927856
_cell_formula_units_Z   1
loop_
 _symmetry_equiv_pos_site_id
 _symmetry_equiv_pos_as_xyz
  1  'x, y, z'
loop_
 _atom_site_type_symbol
 _atom_site_label
 _atom_site_symmetry_multiplicity
 _atom_site_fract_x
 _atom_site_fract_y
 _atom_site_fract_z
 _atom_site_occupancy
  Dy  Dy0  1  0.187245  0.187473  0.812373  1
  Dy  Dy1  1  0.598987  0.598916  0.203011  1
  Dy  Dy2  1  0.440384  0.060082  0.440075  1
  Ho  Ho3  1  0.440065  0.440312  0.059954  1
  Ho  Ho4  1  0.813534  0.186138  0.813722  1
  Ho  Ho5  1  0.187432  0.811771  0.187838  1
  Ho  Ho6  1  0.438244  0.062371  0.062090  1
  Ho  Ho7  1  0.186085  0.813343  0.813854  1
  Ho  Ho8  1  0.062371  0.438276  0.062304  1
  Ho  Ho9  1  0.814010  0.813678  0.185977  1
  Ho  Ho10  1  0.203341  0.598845  0.598789  1
  Ho  Ho11  1  0.059896  0.440569  0.439996  1
  Ho  Ho12  1  0.061989  0.062225  0.438216  1
  Ho  Ho13  1  0.812019  0.187450  0.187648  1
  Ho  Ho14  1  0.598891  0.203564  0.598756  1
  Ho  Ho15  1  0.599466  0.599174  0.599439  1
  Mg  Mg16  1  0.827923  0.827865  0.827645  1
  In  In17  1  0.832910  0.832755  0.501898  1
  In  In18  1  0.502244  0.832561  0.832727  1
  In  In19  1  0.832660  0.502225  0.832580  1
  Rh  Rh20  1  0.391914  0.823353  0.392547  1
  Rh  Rh21  1  0.392333  0.392759  0.392554  1
  Rh  Rh22  1  0.823644  0.391946  0.392605  1
  Rh  Rh23  1  0.392416  0.392352  0.823406  1
