# generated using pymatgen
data_YbHfB6Ru
_symmetry_space_group_name_H-M   'P 1'
_cell_length_a   3.54231900
_cell_length_b   8.97838500
_cell_length_c   11.33637200
_cell_angle_alpha   90.00000000
_cell_angle_beta   90.00000000
_cell_angle_gamma   90.00000000
_symmetry_Int_Tables_number   1
_chemical_formula_structural   YbHfB6Ru
_chemical_formula_sum   'Yb4 Hf4 B24 Ru4'
_cell_volume   360.54541879
_cell_formula_units_Z   4
loop_
 _symmetry_equiv_pos_site_id
 _symmetry_equiv_pos_as_xyz
  1  'x, y, z'
loop_
 _atom_site_type_symbol
 _atom_site_label
 _atom_site_symmetry_multiplicity
 _atom_site_fract_x
 _atom_site_fract_y
 _atom_site_fract_z
 _atom_site_occupancy
  Yb  Yb0  1  0.000000  0.323041  0.414047  1
  Yb  Yb1  1  0.000000  0.676959  0.585953  1
  Yb  Yb2  1  0.000000  0.823041  0.085953  1
  Yb  Yb3  1  0.000000  0.176959  0.914047  1
  Hf  Hf4  1  0.000000  0.945161  0.373022  1
  Hf  Hf5  1  0.000000  0.054839  0.626978  1
  Hf  Hf6  1  0.000000  0.445161  0.126978  1
  Hf  Hf7  1  0.000000  0.554839  0.873022  1
  B  B8  1  0.500000  0.554635  0.432999  1
  B  B9  1  0.500000  0.445365  0.567001  1
  B  B10  1  0.500000  0.054635  0.067001  1
  B  B11  1  0.500000  0.945365  0.932999  1
  B  B12  1  0.500000  0.751680  0.417397  1
  B  B13  1  0.500000  0.248320  0.582603  1
  B  B14  1  0.500000  0.251680  0.082603  1
  B  B15  1  0.500000  0.748320  0.917397  1
  B  B16  1  0.500000  0.794204  0.263621  1
  B  B17  1  0.500000  0.205796  0.736379  1
  B  B18  1  0.500000  0.294204  0.236379  1
  B  B19  1  0.500000  0.705796  0.763621  1
  B  B20  1  0.500000  0.630759  0.182303  1
  B  B21  1  0.500000  0.369241  0.817697  1
  B  B22  1  0.500000  0.130759  0.317697  1
  B  B23  1  0.500000  0.869241  0.682303  1
  B  B24  1  0.500000  0.983023  0.213475  1
  B  B25  1  0.500000  0.016977  0.786525  1
  B  B26  1  0.500000  0.483023  0.286525  1
  B  B27  1  0.500000  0.516977  0.713475  1
  B  B28  1  0.500000  0.600393  0.026539  1
  B  B29  1  0.500000  0.399607  0.973461  1
  B  B30  1  0.500000  0.100393  0.473461  1
  B  B31  1  0.500000  0.899607  0.526539  1
  Ru  Ru32  1  0.000000  0.641216  0.317511  1
  Ru  Ru33  1  0.000000  0.358784  0.682489  1
  Ru  Ru34  1  0.000000  0.141216  0.182489  1
  Ru  Ru35  1  0.000000  0.858784  0.817511  1
