# generated using pymatgen
data_Nd8SiGeBr12
_symmetry_space_group_name_H-M   'P 1'
_cell_length_a   4.21186700
_cell_length_b   13.76279711
_cell_length_c   14.56384812
_cell_angle_alpha   90.01474142
_cell_angle_beta   90.00000000
_cell_angle_gamma   90.00000000
_symmetry_Int_Tables_number   1
_chemical_formula_structural   Nd8SiGeBr12
_chemical_formula_sum   'Nd8 Si1 Ge1 Br12'
_cell_volume   844.22358997
_cell_formula_units_Z   1
loop_
 _symmetry_equiv_pos_site_id
 _symmetry_equiv_pos_as_xyz
  1  'x, y, z'
loop_
 _atom_site_type_symbol
 _atom_site_label
 _atom_site_symmetry_multiplicity
 _atom_site_fract_x
 _atom_site_fract_y
 _atom_site_fract_z
 _atom_site_occupancy
  Nd  Nd0  1  0.500000  0.119351  0.339875  1
  Nd  Nd1  1  0.500000  0.880649  0.660125  1
  Nd  Nd2  1  0.500000  0.618809  0.159395  1
  Nd  Nd3  1  0.500000  0.381191  0.840605  1
  Nd  Nd4  1  0.000000  0.120314  0.579869  1
  Nd  Nd5  1  0.000000  0.879686  0.420131  1
  Nd  Nd6  1  0.000000  0.619568  0.920623  1
  Nd  Nd7  1  0.000000  0.380432  0.079377  1
  Si  Si8  1  0.500000  0.500000  0.000000  1
  Ge  Ge9  1  0.500000  0.000000  0.500000  1
  Br  Br10  1  0.500000  0.243617  0.162167  1
  Br  Br11  1  0.500000  0.756383  0.837833  1
  Br  Br12  1  0.500000  0.743568  0.337809  1
  Br  Br13  1  0.500000  0.256432  0.662191  1
  Br  Br14  1  0.000000  0.254030  0.411397  1
  Br  Br15  1  0.000000  0.745970  0.588603  1
  Br  Br16  1  0.000000  0.754012  0.088660  1
  Br  Br17  1  0.000000  0.245988  0.911340  1
  Br  Br18  1  0.000000  0.001772  0.244558  1
  Br  Br19  1  0.000000  0.998228  0.755442  1
  Br  Br20  1  0.000000  0.501833  0.255445  1
  Br  Br21  1  0.000000  0.498167  0.744555  1
