# generated using pymatgen
data_Dy8ErTmRu4
_symmetry_space_group_name_H-M   'P 1'
_cell_length_a   6.34321253
_cell_length_b   7.25614476
_cell_length_c   8.46260769
_cell_angle_alpha   96.61583552
_cell_angle_beta   112.01064567
_cell_angle_gamma   90.00000361
_symmetry_Int_Tables_number   1
_chemical_formula_structural   Dy8ErTmRu4
_chemical_formula_sum   'Dy8 Er1 Tm1 Ru4'
_cell_volume   358.32171593
_cell_formula_units_Z   1
loop_
 _symmetry_equiv_pos_site_id
 _symmetry_equiv_pos_as_xyz
  1  'x, y, z'
loop_
 _atom_site_type_symbol
 _atom_site_label
 _atom_site_symmetry_multiplicity
 _atom_site_fract_x
 _atom_site_fract_y
 _atom_site_fract_z
 _atom_site_occupancy
  Dy  Dy0  1  0.792220  0.083879  0.814445  1
  Dy  Dy1  1  0.977775  0.416121  0.185555  1
  Dy  Dy2  1  0.207715  0.915818  0.185521  1
  Dy  Dy3  1  0.022193  0.584182  0.814479  1
  Dy  Dy4  1  0.206797  0.185054  0.566705  1
  Dy  Dy5  1  0.640093  0.314946  0.433295  1
  Dy  Dy6  1  0.793159  0.814858  0.433140  1
  Dy  Dy7  1  0.360019  0.685142  0.566860  1
  Er  Er8  1  0.421753  0.250000  0.000000  1
  Tm  Tm9  1  0.577909  0.750000  0.000000  1
  Ru  Ru10  1  0.603422  0.424778  0.781273  1
  Ru  Ru11  1  0.822148  0.075222  0.218727  1
  Ru  Ru12  1  0.396778  0.575682  0.218761  1
  Ru  Ru13  1  0.178018  0.924318  0.781239  1
