# generated using pymatgen
data_Sr3Ca9(AlAs3)4
_symmetry_space_group_name_H-M   'P 1'
_cell_length_a   4.27633000
_cell_length_b   12.36441047
_cell_length_c   13.70027980
_cell_angle_alpha   90.10660736
_cell_angle_beta   90.00000000
_cell_angle_gamma   90.00000000
_symmetry_Int_Tables_number   1
_chemical_formula_structural   Sr3Ca9(AlAs3)4
_chemical_formula_sum   'Sr3 Ca9 Al4 As12'
_cell_volume   724.39144232
_cell_formula_units_Z   1
loop_
 _symmetry_equiv_pos_site_id
 _symmetry_equiv_pos_as_xyz
  1  'x, y, z'
loop_
 _atom_site_type_symbol
 _atom_site_label
 _atom_site_symmetry_multiplicity
 _atom_site_fract_x
 _atom_site_fract_y
 _atom_site_fract_z
 _atom_site_occupancy
  Sr  Sr0  1  0.250000  0.849978  0.496952  1
  Sr  Sr1  1  0.250000  0.352004  0.002664  1
  Sr  Sr2  1  0.750000  0.149741  0.503602  1
  Ca  Ca3  1  0.750000  0.226646  0.213356  1
  Ca  Ca4  1  0.750000  0.435165  0.392522  1
  Ca  Ca5  1  0.250000  0.565630  0.608655  1
  Ca  Ca6  1  0.750000  0.933969  0.106276  1
  Ca  Ca7  1  0.250000  0.064965  0.892293  1
  Ca  Ca8  1  0.250000  0.274368  0.714854  1
  Ca  Ca9  1  0.750000  0.725301  0.283386  1
  Ca  Ca10  1  0.250000  0.772666  0.788550  1
  Ca  Ca11  1  0.750000  0.648834  0.001436  1
  Al  Al12  1  0.750000  0.937385  0.705473  1
  Al  Al13  1  0.250000  0.061799  0.294567  1
  Al  Al14  1  0.250000  0.561543  0.203956  1
  Al  Al15  1  0.750000  0.439778  0.796959  1
  As  As16  1  0.750000  0.461888  0.152717  1
  As  As17  1  0.250000  0.542166  0.847986  1
  As  As18  1  0.750000  0.959323  0.343718  1
  As  As19  1  0.250000  0.039945  0.655859  1
  As  As20  1  0.750000  0.398229  0.615594  1
  As  As21  1  0.250000  0.603079  0.384224  1
  As  As22  1  0.750000  0.896768  0.886190  1
  As  As23  1  0.250000  0.102039  0.114578  1
  As  As24  1  0.750000  0.250678  0.869072  1
  As  As25  1  0.250000  0.745975  0.124648  1
  As  As26  1  0.750000  0.750064  0.631098  1
  As  As27  1  0.250000  0.250074  0.368815  1
