# generated using pymatgen
data_Dy9Si4TcB16
_symmetry_space_group_name_H-M   'P 1'
_cell_length_a   7.16285700
_cell_length_b   7.16285700
_cell_length_c   7.86202900
_cell_angle_alpha   90.00000000
_cell_angle_beta   90.00000000
_cell_angle_gamma   90.00000000
_symmetry_Int_Tables_number   1
_chemical_formula_structural   Dy9Si4TcB16
_chemical_formula_sum   'Dy9 Si4 Tc1 B16'
_cell_volume   403.37335129
_cell_formula_units_Z   1
loop_
 _symmetry_equiv_pos_site_id
 _symmetry_equiv_pos_as_xyz
  1  'x, y, z'
loop_
 _atom_site_type_symbol
 _atom_site_label
 _atom_site_symmetry_multiplicity
 _atom_site_fract_x
 _atom_site_fract_y
 _atom_site_fract_z
 _atom_site_occupancy
  Dy  Dy0  1  0.682659  0.178840  0.232099  1
  Dy  Dy1  1  0.317341  0.821160  0.767901  1
  Dy  Dy2  1  0.317341  0.821160  0.232099  1
  Dy  Dy3  1  0.821160  0.682659  0.232099  1
  Dy  Dy4  1  0.821160  0.682659  0.767901  1
  Dy  Dy5  1  0.682659  0.178840  0.767901  1
  Dy  Dy6  1  0.178840  0.317341  0.767901  1
  Dy  Dy7  1  0.178840  0.317341  0.232099  1
  Dy  Dy8  1  0.500000  0.500000  0.500000  1
  Si  Si9  1  0.106316  0.633952  0.500000  1
  Si  Si10  1  0.893684  0.366048  0.500000  1
  Si  Si11  1  0.366048  0.106316  0.500000  1
  Si  Si12  1  0.633952  0.893684  0.500000  1
  Tc  Tc13  1  0.000000  0.000000  0.500000  1
  B  B14  1  0.172888  0.039311  0.000000  1
  B  B15  1  0.827112  0.960689  0.000000  1
  B  B16  1  0.960689  0.172888  0.000000  1
  B  B17  1  0.327877  0.539527  0.000000  1
  B  B18  1  0.039311  0.827112  0.000000  1
  B  B19  1  0.672123  0.460473  0.000000  1
  B  B20  1  0.539527  0.672123  0.000000  1
  B  B21  1  0.460473  0.327877  0.000000  1
  B  B22  1  0.090383  0.589297  0.000000  1
  B  B23  1  0.909617  0.410703  0.000000  1
  B  B24  1  0.410703  0.090383  0.000000  1
  B  B25  1  0.589297  0.909617  0.000000  1
  B  B26  1  0.000000  0.000000  0.169410  1
  B  B27  1  0.000000  0.000000  0.830590  1
  B  B28  1  0.500000  0.500000  0.835156  1
  B  B29  1  0.500000  0.500000  0.164844  1
