# generated using pymatgen
data_Yb2TmCu12
_symmetry_space_group_name_H-M   'P 1'
_cell_length_a   4.92772596
_cell_length_b   4.92772572
_cell_length_c   10.55836592
_cell_angle_alpha   94.53233244
_cell_angle_beta   94.53233598
_cell_angle_gamma   119.58487332
_symmetry_Int_Tables_number   1
_chemical_formula_structural   Yb2TmCu12
_chemical_formula_sum   'Yb2 Tm1 Cu12'
_cell_volume   220.19035937
_cell_formula_units_Z   1
loop_
 _symmetry_equiv_pos_site_id
 _symmetry_equiv_pos_as_xyz
  1  'x, y, z'
loop_
 _atom_site_type_symbol
 _atom_site_label
 _atom_site_symmetry_multiplicity
 _atom_site_fract_x
 _atom_site_fract_y
 _atom_site_fract_z
 _atom_site_occupancy
  Yb  Yb0  1  0.999534  0.999534  0.000215  1
  Yb  Yb1  1  0.131821  0.131821  0.358143  1
  Tm  Tm2  1  0.869647  0.869647  0.639669  1
  Cu  Cu3  1  0.662779  0.336313  0.000402  1
  Cu  Cu4  1  0.336313  0.662779  0.000402  1
  Cu  Cu5  1  0.568914  0.068821  0.198013  1
  Cu  Cu6  1  0.068821  0.568914  0.198013  1
  Cu  Cu7  1  0.573100  0.573100  0.203251  1
  Cu  Cu8  1  0.806261  0.467599  0.406200  1
  Cu  Cu9  1  0.467599  0.806261  0.406200  1
  Cu  Cu10  1  0.530443  0.194170  0.592776  1
  Cu  Cu11  1  0.194170  0.530443  0.592776  1
  Cu  Cu12  1  0.428764  0.428764  0.797369  1
  Cu  Cu13  1  0.931428  0.430408  0.803288  1
  Cu  Cu14  1  0.430408  0.931428  0.803288  1
