# generated using pymatgen
data_Lu3Zn2(SiAg)2
_symmetry_space_group_name_H-M   'P 1'
_cell_length_a   7.00434400
_cell_length_b   7.00434503
_cell_length_c   4.08935800
_cell_angle_alpha   90.00000000
_cell_angle_beta   90.00000000
_cell_angle_gamma   119.97259755
_symmetry_Int_Tables_number   1
_chemical_formula_structural   Lu3Zn2(SiAg)2
_chemical_formula_sum   'Lu3 Zn2 Si2 Ag2'
_cell_volume   173.79633574
_cell_formula_units_Z   1
loop_
 _symmetry_equiv_pos_site_id
 _symmetry_equiv_pos_as_xyz
  1  'x, y, z'
loop_
 _atom_site_type_symbol
 _atom_site_label
 _atom_site_symmetry_multiplicity
 _atom_site_fract_x
 _atom_site_fract_y
 _atom_site_fract_z
 _atom_site_occupancy
  Lu  Lu0  1  0.423564  0.423564  0.500000  1
  Lu  Lu1  1  0.578592  0.999346  0.500000  1
  Lu  Lu2  1  0.999346  0.578592  0.500000  1
  Zn  Zn3  1  0.752184  0.752184  0.000000  1
  Zn  Zn4  1  0.991883  0.991883  0.500000  1
  Si  Si5  1  0.665681  0.339694  0.000000  1
  Si  Si6  1  0.339694  0.665681  0.000000  1
  Ag  Ag7  1  0.251211  0.997847  0.000000  1
  Ag  Ag8  1  0.997847  0.251211  0.000000  1
