# generated using pymatgen
data_Dy8Zr12Si15P
_symmetry_space_group_name_H-M   'P 1'
_cell_length_a   7.33902998
_cell_length_b   7.33985719
_cell_length_c   13.47769470
_cell_angle_alpha   90.00630457
_cell_angle_beta   89.87112487
_cell_angle_gamma   90.09764446
_symmetry_Int_Tables_number   1
_chemical_formula_structural   Dy8Zr12Si15P
_chemical_formula_sum   'Dy8 Zr12 Si15 P1'
_cell_volume   726.00590707
_cell_formula_units_Z   1
loop_
 _symmetry_equiv_pos_site_id
 _symmetry_equiv_pos_as_xyz
  1  'x, y, z'
loop_
 _atom_site_type_symbol
 _atom_site_label
 _atom_site_symmetry_multiplicity
 _atom_site_fract_x
 _atom_site_fract_y
 _atom_site_fract_z
 _atom_site_occupancy
  Dy  Dy0  1  0.996277  0.654015  0.036505  1
  Dy  Dy1  1  0.004870  0.349672  0.534601  1
  Dy  Dy2  1  0.654804  0.995918  0.964099  1
  Dy  Dy3  1  0.155156  0.504349  0.785256  1
  Dy  Dy4  1  0.845610  0.496564  0.286503  1
  Dy  Dy5  1  0.502856  0.155376  0.214756  1
  Dy  Dy6  1  0.498202  0.847135  0.714260  1
  Dy  Dy7  1  0.345173  0.001815  0.464713  1
  Zr  Zr8  1  0.347554  0.506533  0.377262  1
  Zr  Zr9  1  0.853123  0.994073  0.375174  1
  Zr  Zr10  1  0.003719  0.147183  0.125541  1
  Zr  Zr11  1  0.998539  0.850791  0.621603  1
  Zr  Zr12  1  0.505412  0.350785  0.624618  1
  Zr  Zr13  1  0.147585  0.003589  0.875067  1
  Zr  Zr14  1  0.675644  0.675007  0.499434  1
  Zr  Zr15  1  0.826030  0.175027  0.749462  1
  Zr  Zr16  1  0.173559  0.824063  0.251296  1
  Zr  Zr17  1  0.324761  0.324547  0.000206  1
  Zr  Zr18  1  0.495840  0.647087  0.125266  1
  Zr  Zr19  1  0.648191  0.496375  0.874890  1
  Si  Si20  1  0.949545  0.296056  0.937007  1
  Si  Si21  1  0.705155  0.050525  0.562609  1
  Si  Si22  1  0.203266  0.449484  0.187718  1
  Si  Si23  1  0.797746  0.550161  0.686608  1
  Si  Si24  1  0.449605  0.204277  0.813215  1
  Si  Si25  1  0.548481  0.796707  0.313127  1
  Si  Si26  1  0.296105  0.949138  0.063436  1
  Si  Si27  1  0.791766  0.861857  0.182918  1
  Si  Si28  1  0.299714  0.637834  0.571410  1
  Si  Si29  1  0.706398  0.360771  0.067066  1
  Si  Si30  1  0.637531  0.293440  0.432060  1
  Si  Si31  1  0.361284  0.706580  0.933184  1
  Si  Si32  1  0.138896  0.206424  0.317507  1
  Si  Si33  1  0.205799  0.139062  0.682351  1
  Si  Si34  1  0.862266  0.793814  0.815431  1
  P  P35  1  0.043535  0.703969  0.433845  1
