# generated using pymatgen
data_Nd3GdAu2
_symmetry_space_group_name_H-M   'P 1'
_cell_length_a   4.99844000
_cell_length_b   7.32765100
_cell_length_c   9.21049200
_cell_angle_alpha   90.00000000
_cell_angle_beta   90.00000000
_cell_angle_gamma   90.00000000
_symmetry_Int_Tables_number   1
_chemical_formula_structural   Nd3GdAu2
_chemical_formula_sum   'Nd6 Gd2 Au4'
_cell_volume   337.35106819
_cell_formula_units_Z   2
loop_
 _symmetry_equiv_pos_site_id
 _symmetry_equiv_pos_as_xyz
  1  'x, y, z'
loop_
 _atom_site_type_symbol
 _atom_site_label
 _atom_site_symmetry_multiplicity
 _atom_site_fract_x
 _atom_site_fract_y
 _atom_site_fract_z
 _atom_site_occupancy
  Nd  Nd0  1  0.750000  0.154689  0.084126  1
  Nd  Nd1  1  0.750000  0.654689  0.415874  1
  Nd  Nd2  1  0.250000  0.493011  0.174238  1
  Nd  Nd3  1  0.250000  0.993011  0.325762  1
  Nd  Nd4  1  0.750000  0.509557  0.820266  1
  Nd  Nd5  1  0.750000  0.009557  0.679734  1
  Gd  Gd6  1  0.250000  0.847971  0.919149  1
  Gd  Gd7  1  0.250000  0.347971  0.580851  1
  Au  Au8  1  0.250000  0.248649  0.894484  1
  Au  Au9  1  0.250000  0.748649  0.605516  1
  Au  Au10  1  0.750000  0.746122  0.091528  1
  Au  Au11  1  0.750000  0.246122  0.408472  1
