# generated using pymatgen
data_Cs4Ba(SbSe4)2
_symmetry_space_group_name_H-M   'P 1'
_cell_length_a   12.92354572
_cell_length_b   12.92354547
_cell_length_c   12.92354522
_cell_angle_alpha   133.48080933
_cell_angle_beta   128.67971562
_cell_angle_gamma   71.75517965
_symmetry_Int_Tables_number   1
_chemical_formula_structural   Cs4Ba(SbSe4)2
_chemical_formula_sum   'Cs8 Ba2 Sb4 Se16'
_cell_volume   1196.29982040
_cell_formula_units_Z   2
loop_
 _symmetry_equiv_pos_site_id
 _symmetry_equiv_pos_as_xyz
  1  'x, y, z'
loop_
 _atom_site_type_symbol
 _atom_site_label
 _atom_site_symmetry_multiplicity
 _atom_site_fract_x
 _atom_site_fract_y
 _atom_site_fract_z
 _atom_site_occupancy
  Cs  Cs0  1  0.415147  0.298389  0.883241  1
  Cs  Cs1  1  0.584853  0.701611  0.116759  1
  Cs  Cs2  1  0.915147  0.531906  0.616759  1
  Cs  Cs3  1  0.084853  0.468094  0.383241  1
  Cs  Cs4  1  0.486230  0.236230  0.250000  1
  Cs  Cs5  1  0.013770  0.763770  0.250000  1
  Cs  Cs6  1  0.513770  0.763770  0.750000  1
  Cs  Cs7  1  0.986230  0.236230  0.750000  1
  Ba  Ba8  1  0.250000  0.000000  0.250000  1
  Ba  Ba9  1  0.750000  0.000000  0.750000  1
  Sb  Sb10  1  0.874117  0.081034  0.206918  1
  Sb  Sb11  1  0.125883  0.918966  0.793082  1
  Sb  Sb12  1  0.374117  0.667198  0.293082  1
  Sb  Sb13  1  0.625883  0.332802  0.706918  1
  Se  Se14  1  0.242930  0.983796  0.740866  1
  Se  Se15  1  0.757070  0.016204  0.259134  1
  Se  Se16  1  0.742930  0.502065  0.759134  1
  Se  Se17  1  0.257070  0.497935  0.240866  1
  Se  Se18  1  0.251733  0.774512  0.885761  1
  Se  Se19  1  0.111250  0.225488  0.477221  1
  Se  Se20  1  0.388750  0.365971  0.614239  1
  Se  Se21  1  0.248267  0.634029  0.022779  1
  Se  Se22  1  0.748267  0.225488  0.114239  1
  Se  Se23  1  0.888750  0.774512  0.522779  1
  Se  Se24  1  0.611250  0.634029  0.385761  1
  Se  Se25  1  0.751733  0.365971  0.977221  1
  Se  Se26  1  0.396368  0.933305  0.536937  1
  Se  Se27  1  0.603632  0.066695  0.463063  1
  Se  Se28  1  0.896368  0.859430  0.963063  1
  Se  Se29  1  0.103632  0.140570  0.036937  1
