# generated using pymatgen
data_Hf18CrRe7Ir2
_symmetry_space_group_name_H-M   'P 1'
_cell_length_a   8.65576100
_cell_length_b   8.65576046
_cell_length_c   8.48652300
_cell_angle_alpha   90.00000000
_cell_angle_beta   90.00000000
_cell_angle_gamma   120.00000589
_symmetry_Int_Tables_number   1
_chemical_formula_structural   Hf18CrRe7Ir2
_chemical_formula_sum   'Hf18 Cr1 Re7 Ir2'
_cell_volume   550.64396520
_cell_formula_units_Z   1
loop_
 _symmetry_equiv_pos_site_id
 _symmetry_equiv_pos_as_xyz
  1  'x, y, z'
loop_
 _atom_site_type_symbol
 _atom_site_label
 _atom_site_symmetry_multiplicity
 _atom_site_fract_x
 _atom_site_fract_y
 _atom_site_fract_z
 _atom_site_occupancy
  Hf  Hf0  1  0.194494  0.805506  0.446476  1
  Hf  Hf1  1  0.194494  0.388986  0.446476  1
  Hf  Hf2  1  0.611014  0.805506  0.446476  1
  Hf  Hf3  1  0.805506  0.194494  0.553524  1
  Hf  Hf4  1  0.805506  0.611014  0.553524  1
  Hf  Hf5  1  0.388986  0.194494  0.553524  1
  Hf  Hf6  1  0.804217  0.195783  0.946524  1
  Hf  Hf7  1  0.804217  0.608436  0.946524  1
  Hf  Hf8  1  0.391564  0.195783  0.946524  1
  Hf  Hf9  1  0.195783  0.804217  0.053476  1
  Hf  Hf10  1  0.195783  0.391564  0.053476  1
  Hf  Hf11  1  0.608436  0.804217  0.053476  1
  Hf  Hf12  1  0.541241  0.458759  0.250448  1
  Hf  Hf13  1  0.541241  0.082482  0.250448  1
  Hf  Hf14  1  0.917518  0.458759  0.250448  1
  Hf  Hf15  1  0.458759  0.541241  0.749552  1
  Hf  Hf16  1  0.458759  0.917518  0.749552  1
  Hf  Hf17  1  0.082482  0.541241  0.749552  1
  Cr  Cr18  1  0.000000  0.000000  0.500000  1
  Re  Re19  1  0.890925  0.109075  0.253985  1
  Re  Re20  1  0.890925  0.781850  0.253985  1
  Re  Re21  1  0.218150  0.109075  0.253985  1
  Re  Re22  1  0.109075  0.890925  0.746015  1
  Re  Re23  1  0.109075  0.218150  0.746015  1
  Re  Re24  1  0.781850  0.890925  0.746015  1
  Re  Re25  1  0.000000  0.000000  0.000000  1
  Ir  Ir26  1  0.333333  0.666667  0.250358  1
  Ir  Ir27  1  0.666667  0.333333  0.749642  1
