# generated using pymatgen
data_Al6Te10Pb
_symmetry_space_group_name_H-M   'P 1'
_cell_length_a   10.54037703
_cell_length_b   10.54037744
_cell_length_c   10.50295114
_cell_angle_alpha   90.29964494
_cell_angle_beta   90.29964403
_cell_angle_gamma   89.62946686
_symmetry_Int_Tables_number   1
_chemical_formula_structural   Al6Te10Pb
_chemical_formula_sum   'Al12 Te20 Pb2'
_cell_volume   1166.81705926
_cell_formula_units_Z   2
loop_
 _symmetry_equiv_pos_site_id
 _symmetry_equiv_pos_as_xyz
  1  'x, y, z'
loop_
 _atom_site_type_symbol
 _atom_site_label
 _atom_site_symmetry_multiplicity
 _atom_site_fract_x
 _atom_site_fract_y
 _atom_site_fract_z
 _atom_site_occupancy
  Al  Al0  1  0.573881  0.839760  0.881893  1
  Al  Al1  1  0.874999  0.567888  0.837322  1
  Al  Al2  1  0.257477  0.648482  0.833971  1
  Al  Al3  1  0.164033  0.346015  0.743479  1
  Al  Al4  1  0.832894  0.258447  0.659408  1
  Al  Al5  1  0.837731  0.879899  0.574594  1
  Al  Al6  1  0.120101  0.162269  0.425406  1
  Al  Al7  1  0.741553  0.167106  0.340592  1
  Al  Al8  1  0.653985  0.835967  0.256521  1
  Al  Al9  1  0.351518  0.742523  0.166029  1
  Al  Al10  1  0.432112  0.125001  0.162678  1
  Al  Al11  1  0.160240  0.426119  0.118107  1
  Te  Te12  1  0.179825  0.820175  0.000000  1
  Te  Te13  1  0.328039  0.423023  0.927408  1
  Te  Te14  1  0.506763  0.079351  0.923512  1
  Te  Te15  1  0.825417  0.822427  0.826000  1
  Te  Te16  1  0.000311  0.184913  0.831538  1
  Te  Te17  1  0.688257  0.439203  0.742714  1
  Te  Te18  1  0.433142  0.751877  0.691411  1
  Te  Te19  1  0.071865  0.573781  0.675099  1
  Te  Te20  1  0.676848  0.073830  0.571907  1
  Te  Te21  1  0.310953  0.247794  0.565635  1
  Te  Te22  1  0.076067  0.923933  0.500000  1
  Te  Te23  1  0.752206  0.689047  0.434365  1
  Te  Te24  1  0.926170  0.323152  0.428093  1
  Te  Te25  1  0.426219  0.928135  0.324901  1
  Te  Te26  1  0.248123  0.566858  0.308589  1
  Te  Te27  1  0.560797  0.311743  0.257286  1
  Te  Te28  1  0.815087  0.999689  0.168462  1
  Te  Te29  1  0.177573  0.174583  0.174000  1
  Te  Te30  1  0.920649  0.493237  0.076488  1
  Te  Te31  1  0.576977  0.671961  0.072592  1
  Pb  Pb32  1  0.261198  0.006514  0.751331  1
  Pb  Pb33  1  0.993486  0.738802  0.248669  1
