# generated using pymatgen
data_Er4AgPt3
_symmetry_space_group_name_H-M   'P 1'
_cell_length_a   4.58991700
_cell_length_b   5.60115148
_cell_length_c   6.92318235
_cell_angle_alpha   89.77667277
_cell_angle_beta   90.00000000
_cell_angle_gamma   90.00000000
_symmetry_Int_Tables_number   1
_chemical_formula_structural   Er4AgPt3
_chemical_formula_sum   'Er4 Ag1 Pt3'
_cell_volume   177.98549939
_cell_formula_units_Z   1
loop_
 _symmetry_equiv_pos_site_id
 _symmetry_equiv_pos_as_xyz
  1  'x, y, z'
loop_
 _atom_site_type_symbol
 _atom_site_label
 _atom_site_symmetry_multiplicity
 _atom_site_fract_x
 _atom_site_fract_y
 _atom_site_fract_z
 _atom_site_occupancy
  Er  Er0  1  0.250000  0.647422  0.188649  1
  Er  Er1  1  0.750000  0.367912  0.805859  1
  Er  Er2  1  0.750000  0.137003  0.331100  1
  Er  Er3  1  0.250000  0.850558  0.677269  1
  Ag  Ag4  1  0.250000  0.153497  0.037593  1
  Pt  Pt5  1  0.750000  0.852924  0.963571  1
  Pt  Pt6  1  0.750000  0.654317  0.454264  1
  Pt  Pt7  1  0.250000  0.336368  0.541695  1
