# generated using pymatgen
data_Tb2Er3Pb4
_symmetry_space_group_name_H-M   'P 1'
_cell_length_a   8.18142700
_cell_length_b   8.26225500
_cell_length_c   15.59080600
_cell_angle_alpha   90.00000000
_cell_angle_beta   90.00000000
_cell_angle_gamma   90.00000000
_symmetry_Int_Tables_number   1
_chemical_formula_structural   Tb2Er3Pb4
_chemical_formula_sum   'Tb8 Er12 Pb16'
_cell_volume   1053.89227660
_cell_formula_units_Z   4
loop_
 _symmetry_equiv_pos_site_id
 _symmetry_equiv_pos_as_xyz
  1  'x, y, z'
loop_
 _atom_site_type_symbol
 _atom_site_label
 _atom_site_symmetry_multiplicity
 _atom_site_fract_x
 _atom_site_fract_y
 _atom_site_fract_z
 _atom_site_occupancy
  Tb  Tb0  1  0.534210  0.322738  0.899927  1
  Tb  Tb1  1  0.034210  0.177262  0.600073  1
  Tb  Tb2  1  0.465790  0.677262  0.399927  1
  Tb  Tb3  1  0.965790  0.822738  0.100073  1
  Tb  Tb4  1  0.465790  0.677262  0.100073  1
  Tb  Tb5  1  0.965790  0.822738  0.399927  1
  Tb  Tb6  1  0.534210  0.322738  0.600073  1
  Tb  Tb7  1  0.034210  0.177262  0.899927  1
  Er  Er8  1  0.376748  0.840621  0.879481  1
  Er  Er9  1  0.876748  0.659379  0.620519  1
  Er  Er10  1  0.623252  0.159379  0.379481  1
  Er  Er11  1  0.123252  0.340621  0.120519  1
  Er  Er12  1  0.623252  0.159379  0.120519  1
  Er  Er13  1  0.123252  0.340621  0.379481  1
  Er  Er14  1  0.376748  0.840621  0.620519  1
  Er  Er15  1  0.876748  0.659379  0.879481  1
  Er  Er16  1  0.208082  0.504389  0.750000  1
  Er  Er17  1  0.708082  0.995611  0.750000  1
  Er  Er18  1  0.791918  0.495611  0.250000  1
  Er  Er19  1  0.291918  0.004389  0.250000  1
  Pb  Pb20  1  0.282104  0.033600  0.042718  1
  Pb  Pb21  1  0.782104  0.466400  0.457282  1
  Pb  Pb22  1  0.717896  0.966400  0.542718  1
  Pb  Pb23  1  0.217896  0.533600  0.957282  1
  Pb  Pb24  1  0.717896  0.966400  0.957282  1
  Pb  Pb25  1  0.217896  0.533600  0.542718  1
  Pb  Pb26  1  0.282104  0.033600  0.457282  1
  Pb  Pb27  1  0.782104  0.466400  0.042718  1
  Pb  Pb28  1  0.571529  0.627748  0.750000  1
  Pb  Pb29  1  0.071529  0.872252  0.750000  1
  Pb  Pb30  1  0.428471  0.372252  0.250000  1
  Pb  Pb31  1  0.928471  0.127748  0.250000  1
  Pb  Pb32  1  0.345018  0.151461  0.750000  1
  Pb  Pb33  1  0.845018  0.348539  0.750000  1
  Pb  Pb34  1  0.654982  0.848539  0.250000  1
  Pb  Pb35  1  0.154982  0.651461  0.250000  1
