# generated using pymatgen
data_Tb8AlCdPd23
_symmetry_space_group_name_H-M   'P 1'
_cell_length_a   8.32329800
_cell_length_b   8.42366900
_cell_length_c   8.42508300
_cell_angle_alpha   90.00000000
_cell_angle_beta   90.00000000
_cell_angle_gamma   90.00000000
_symmetry_Int_Tables_number   1
_chemical_formula_structural   Tb8AlCdPd23
_chemical_formula_sum   'Tb8 Al1 Cd1 Pd23'
_cell_volume   590.70537870
_cell_formula_units_Z   1
loop_
 _symmetry_equiv_pos_site_id
 _symmetry_equiv_pos_as_xyz
  1  'x, y, z'
loop_
 _atom_site_type_symbol
 _atom_site_label
 _atom_site_symmetry_multiplicity
 _atom_site_fract_x
 _atom_site_fract_y
 _atom_site_fract_z
 _atom_site_occupancy
  Tb  Tb0  1  0.251584  0.243471  0.262462  1
  Tb  Tb1  1  0.747586  0.746752  0.747733  1
  Tb  Tb2  1  0.747586  0.746752  0.252267  1
  Tb  Tb3  1  0.747586  0.253248  0.747733  1
  Tb  Tb4  1  0.251584  0.243471  0.737538  1
  Tb  Tb5  1  0.251584  0.756529  0.262462  1
  Tb  Tb6  1  0.251584  0.756529  0.737538  1
  Tb  Tb7  1  0.747586  0.253248  0.252267  1
  Al  Al8  1  0.999667  0.000000  0.000000  1
  Cd  Cd9  1  0.264076  0.500000  0.000000  1
  Pd  Pd10  1  0.740729  0.500000  0.000000  1
  Pd  Pd11  1  0.998273  0.259427  0.500000  1
  Pd  Pd12  1  0.497298  0.258701  0.000000  1
  Pd  Pd13  1  0.998273  0.740573  0.500000  1
  Pd  Pd14  1  0.497298  0.741299  0.000000  1
  Pd  Pd15  1  0.501541  0.000000  0.259953  1
  Pd  Pd16  1  0.259578  0.000000  0.500000  1
  Pd  Pd17  1  0.501541  0.000000  0.740047  1
  Pd  Pd18  1  0.739775  0.000000  0.500000  1
  Pd  Pd19  1  0.002693  0.500000  0.259882  1
  Pd  Pd20  1  0.002693  0.500000  0.740118  1
  Pd  Pd21  1  0.252917  0.500000  0.500000  1
  Pd  Pd22  1  0.747600  0.500000  0.500000  1
  Pd  Pd23  1  0.501623  0.253709  0.500000  1
  Pd  Pd24  1  0.501623  0.746291  0.500000  1
  Pd  Pd25  1  0.497371  0.500000  0.255150  1
  Pd  Pd26  1  0.497371  0.500000  0.744850  1
  Pd  Pd27  1  0.289432  0.000000  0.000000  1
  Pd  Pd28  1  0.710136  0.000000  0.000000  1
  Pd  Pd29  1  0.003633  0.287604  0.000000  1
  Pd  Pd30  1  0.003633  0.712396  0.000000  1
  Pd  Pd31  1  0.997272  0.000000  0.288431  1
  Pd  Pd32  1  0.997272  0.000000  0.711569  1
