# generated using pymatgen
data_U3V(PO4)6
_symmetry_space_group_name_H-M   'P 1'
_cell_length_a   9.12121907
_cell_length_b   9.12121930
_cell_length_c   9.35580089
_cell_angle_alpha   60.82601321
_cell_angle_beta   60.82600750
_cell_angle_gamma   59.99999557
_symmetry_Int_Tables_number   1
_chemical_formula_structural   U3V(PO4)6
_chemical_formula_sum   'U3 V1 P6 O24'
_cell_volume   557.16344261
_cell_formula_units_Z   1
loop_
 _symmetry_equiv_pos_site_id
 _symmetry_equiv_pos_as_xyz
  1  'x, y, z'
loop_
 _atom_site_type_symbol
 _atom_site_label
 _atom_site_symmetry_multiplicity
 _atom_site_fract_x
 _atom_site_fract_y
 _atom_site_fract_z
 _atom_site_occupancy
  U  U0  1  0.141704  0.141704  0.574888  1
  U  U1  1  0.356342  0.356342  0.930973  1
  U  U2  1  0.641033  0.641033  0.076901  1
  V  V3  1  0.856481  0.856481  0.430556  1
  P  P4  1  0.747676  0.032703  0.739715  1
  P  P5  1  0.032703  0.479906  0.739715  1
  P  P6  1  0.479906  0.747676  0.739715  1
  P  P7  1  0.548874  0.232125  0.254819  1
  P  P8  1  0.964181  0.548874  0.254819  1
  P  P9  1  0.232125  0.964181  0.254819  1
  O  O10  1  0.268375  0.129370  0.092433  1
  O  O11  1  0.509822  0.268375  0.092433  1
  O  O12  1  0.909745  0.061491  0.725238  1
  O  O13  1  0.129370  0.509822  0.092433  1
  O  O14  1  0.580470  0.201695  0.769830  1
  O  O15  1  0.774732  0.001683  0.583430  1
  O  O16  1  0.061491  0.303525  0.725238  1
  O  O17  1  0.201695  0.448005  0.769830  1
  O  O18  1  0.448005  0.580470  0.769830  1
  O  O19  1  0.375877  0.214190  0.412720  1
  O  O20  1  0.711323  0.068944  0.278448  1
  O  O21  1  0.997214  0.375877  0.412720  1
  O  O22  1  0.001683  0.640155  0.583430  1
  O  O23  1  0.303525  0.909745  0.725238  1
  O  O24  1  0.640155  0.774732  0.583430  1
  O  O25  1  0.568860  0.403960  0.229501  1
  O  O26  1  0.797679  0.568860  0.229501  1
  O  O27  1  0.941285  0.711323  0.278448  1
  O  O28  1  0.214190  0.997214  0.412720  1
  O  O29  1  0.403960  0.797679  0.229501  1
  O  O30  1  0.872412  0.501289  0.909427  1
  O  O31  1  0.068944  0.941285  0.278448  1
  O  O32  1  0.501289  0.716872  0.909427  1
  O  O33  1  0.716872  0.872412  0.909427  1
