# generated using pymatgen
data_Er20Bi8Ir3Rh
_symmetry_space_group_name_H-M   'P 1'
_cell_length_a   7.93965838
_cell_length_b   8.97003100
_cell_length_c   12.41734539
_cell_angle_alpha   90.00000000
_cell_angle_beta   90.06078615
_cell_angle_gamma   90.00000000
_symmetry_Int_Tables_number   1
_chemical_formula_structural   Er20Bi8Ir3Rh
_chemical_formula_sum   'Er20 Bi8 Ir3 Rh1'
_cell_volume   884.35019746
_cell_formula_units_Z   1
loop_
 _symmetry_equiv_pos_site_id
 _symmetry_equiv_pos_as_xyz
  1  'x, y, z'
loop_
 _atom_site_type_symbol
 _atom_site_label
 _atom_site_symmetry_multiplicity
 _atom_site_fract_x
 _atom_site_fract_y
 _atom_site_fract_z
 _atom_site_occupancy
  Er  Er0  1  0.660620  0.750000  0.705560  1
  Er  Er1  1  0.338628  0.250000  0.293210  1
  Er  Er2  1  0.161427  0.250000  0.793250  1
  Er  Er3  1  0.839130  0.750000  0.206653  1
  Er  Er4  1  0.122576  0.750000  0.808293  1
  Er  Er5  1  0.876419  0.250000  0.191356  1
  Er  Er6  1  0.623027  0.250000  0.691295  1
  Er  Er7  1  0.376127  0.750000  0.309560  1
  Er  Er8  1  0.556575  0.750000  0.998280  1
  Er  Er9  1  0.445804  0.250000  0.001250  1
  Er  Er10  1  0.054435  0.250000  0.500989  1
  Er  Er11  1  0.950007  0.750000  0.498693  1
  Er  Er12  1  0.825787  0.457216  0.933485  1
  Er  Er13  1  0.175268  0.542512  0.066456  1
  Er  Er14  1  0.323528  0.541330  0.566657  1
  Er  Er15  1  0.175268  0.957488  0.066456  1
  Er  Er16  1  0.674774  0.456993  0.434382  1
  Er  Er17  1  0.825787  0.042784  0.933485  1
  Er  Er18  1  0.674774  0.043007  0.434382  1
  Er  Er19  1  0.323528  0.958670  0.566657  1
  Bi  Bi20  1  0.932451  0.009248  0.672363  1
  Bi  Bi21  1  0.066460  0.990917  0.327241  1
  Bi  Bi22  1  0.433339  0.990459  0.827054  1
  Bi  Bi23  1  0.066460  0.509083  0.327241  1
  Bi  Bi24  1  0.566349  0.008701  0.173189  1
  Bi  Bi25  1  0.932451  0.490752  0.672363  1
  Bi  Bi26  1  0.566349  0.491299  0.173189  1
  Bi  Bi27  1  0.433339  0.509541  0.827054  1
  Ir  Ir28  1  0.928312  0.750000  0.991505  1
  Ir  Ir29  1  0.072662  0.250000  0.008689  1
  Ir  Ir30  1  0.428222  0.250000  0.508614  1
  Rh  Rh31  1  0.570116  0.750000  0.491148  1
