# generated using pymatgen
data_TbY4Pt15
_symmetry_space_group_name_H-M   'P 1'
_cell_length_a   4.13085900
_cell_length_b   4.13085900
_cell_length_c   20.59747500
_cell_angle_alpha   90.00000000
_cell_angle_beta   90.00000000
_cell_angle_gamma   90.00000000
_symmetry_Int_Tables_number   1
_chemical_formula_structural   TbY4Pt15
_chemical_formula_sum   'Tb1 Y4 Pt15'
_cell_volume   351.47523261
_cell_formula_units_Z   1
loop_
 _symmetry_equiv_pos_site_id
 _symmetry_equiv_pos_as_xyz
  1  'x, y, z'
loop_
 _atom_site_type_symbol
 _atom_site_label
 _atom_site_symmetry_multiplicity
 _atom_site_fract_x
 _atom_site_fract_y
 _atom_site_fract_z
 _atom_site_occupancy
  Tb  Tb0  1  0.000000  0.000000  0.000000  1
  Y  Y1  1  0.000000  0.000000  0.199886  1
  Y  Y2  1  0.000000  0.000000  0.399977  1
  Y  Y3  1  0.000000  0.000000  0.600023  1
  Y  Y4  1  0.000000  0.000000  0.800114  1
  Pt  Pt5  1  0.500000  0.500000  0.000000  1
  Pt  Pt6  1  0.500000  0.500000  0.199923  1
  Pt  Pt7  1  0.500000  0.500000  0.399940  1
  Pt  Pt8  1  0.500000  0.500000  0.600060  1
  Pt  Pt9  1  0.500000  0.500000  0.800077  1
  Pt  Pt10  1  0.500000  0.000000  0.099925  1
  Pt  Pt11  1  0.500000  0.000000  0.299911  1
  Pt  Pt12  1  0.500000  0.000000  0.500000  1
  Pt  Pt13  1  0.500000  0.000000  0.700089  1
  Pt  Pt14  1  0.500000  0.000000  0.900075  1
  Pt  Pt15  1  0.000000  0.500000  0.099925  1
  Pt  Pt16  1  0.000000  0.500000  0.299911  1
  Pt  Pt17  1  0.000000  0.500000  0.500000  1
  Pt  Pt18  1  0.000000  0.500000  0.700089  1
  Pt  Pt19  1  0.000000  0.500000  0.900075  1
