# generated using pymatgen
data_ZnI13
_symmetry_space_group_name_H-M   'P 1'
_cell_length_a   13.20737321
_cell_length_b   12.14094574
_cell_length_c   18.06922797
_cell_angle_alpha   132.20738758
_cell_angle_beta   70.25047161
_cell_angle_gamma   113.96779434
_symmetry_Int_Tables_number   1
_chemical_formula_structural   ZnI13
_chemical_formula_sum   'Zn2 I26'
_cell_volume   1952.03770314
_cell_formula_units_Z   2
loop_
 _symmetry_equiv_pos_site_id
 _symmetry_equiv_pos_as_xyz
  1  'x, y, z'
loop_
 _atom_site_type_symbol
 _atom_site_label
 _atom_site_symmetry_multiplicity
 _atom_site_fract_x
 _atom_site_fract_y
 _atom_site_fract_z
 _atom_site_occupancy
  Zn  Zn0  1  0.378123  0.873902  0.994465  1
  Zn  Zn1  1  0.621877  0.126098  0.005535  1
  I  I2  1  0.397326  0.635627  0.964869  1
  I  I3  1  0.602674  0.364373  0.035131  1
  I  I4  1  0.600387  0.748978  0.370903  1
  I  I5  1  0.399613  0.251022  0.629097  1
  I  I6  1  0.753291  0.748164  0.039448  1
  I  I7  1  0.246709  0.251836  0.960552  1
  I  I8  1  0.745466  0.044953  0.212099  1
  I  I9  1  0.254534  0.955047  0.787901  1
  I  I10  1  0.473244  0.140798  0.154251  1
  I  I11  1  0.526756  0.859202  0.845749  1
  I  I12  1  0.182039  0.591115  0.632663  1
  I  I13  1  0.817961  0.408885  0.367337  1
  I  I14  1  0.173868  0.841113  0.986744  1
  I  I15  1  0.826132  0.158887  0.013256  1
  I  I16  1  0.118392  0.096882  0.207181  1
  I  I17  1  0.881608  0.903118  0.792819  1
  I  I18  1  0.275221  0.950857  0.470388  1
  I  I19  1  0.724779  0.049143  0.529612  1
  I  I20  1  0.294448  0.431171  0.633935  1
  I  I21  1  0.705552  0.568829  0.366065  1
  I  I22  1  0.856583  0.344266  0.689681  1
  I  I23  1  0.143417  0.655734  0.310319  1
  I  I24  1  0.947501  0.673296  0.590809  1
  I  I25  1  0.052499  0.326704  0.409191  1
  I  I26  1  0.266727  0.643885  0.136222  1
  I  I27  1  0.733273  0.356115  0.863778  1
