# generated using pymatgen
data_Dy4HoOsRu
_symmetry_space_group_name_H-M   'P 1'
_cell_length_a   6.36767861
_cell_length_b   7.31237064
_cell_length_c   8.44498621
_cell_angle_alpha   96.81760270
_cell_angle_beta   112.14857105
_cell_angle_gamma   89.99999758
_symmetry_Int_Tables_number   1
_chemical_formula_structural   Dy4HoOsRu
_chemical_formula_sum   'Dy8 Ho2 Os2 Ru2'
_cell_volume   361.20256003
_cell_formula_units_Z   2
loop_
 _symmetry_equiv_pos_site_id
 _symmetry_equiv_pos_as_xyz
  1  'x, y, z'
loop_
 _atom_site_type_symbol
 _atom_site_label
 _atom_site_symmetry_multiplicity
 _atom_site_fract_x
 _atom_site_fract_y
 _atom_site_fract_z
 _atom_site_occupancy
  Dy  Dy0  1  0.977740  0.916557  0.183739  1
  Dy  Dy1  1  0.794002  0.583443  0.816261  1
  Dy  Dy2  1  0.021700  0.084606  0.814145  1
  Dy  Dy3  1  0.207554  0.415394  0.185855  1
  Dy  Dy4  1  0.640094  0.814917  0.434859  1
  Dy  Dy5  1  0.205236  0.685083  0.565141  1
  Dy  Dy6  1  0.359902  0.185243  0.565636  1
  Dy  Dy7  1  0.794265  0.314757  0.434364  1
  Ho  Ho8  1  0.424394  0.750000  0.000000  1
  Ho  Ho9  1  0.577501  0.250000  0.000000  1
  Os  Os10  1  0.822471  0.575420  0.219058  1
  Os  Os11  1  0.603413  0.924580  0.780942  1
  Ru  Ru12  1  0.175948  0.424105  0.780168  1
  Ru  Ru13  1  0.395780  0.075895  0.219832  1
