# generated using pymatgen
data_Zr(ScRe6)4
_symmetry_space_group_name_H-M   'P 1'
_cell_length_a   8.46730564
_cell_length_b   8.46730532
_cell_length_c   8.46730505
_cell_angle_alpha   109.47760388
_cell_angle_beta   109.47760621
_cell_angle_gamma   109.47760338
_symmetry_Int_Tables_number   1
_chemical_formula_structural   Zr(ScRe6)4
_chemical_formula_sum   'Zr1 Sc4 Re24'
_cell_volume   467.20887237
_cell_formula_units_Z   1
loop_
 _symmetry_equiv_pos_site_id
 _symmetry_equiv_pos_as_xyz
  1  'x, y, z'
loop_
 _atom_site_type_symbol
 _atom_site_label
 _atom_site_symmetry_multiplicity
 _atom_site_fract_x
 _atom_site_fract_y
 _atom_site_fract_z
 _atom_site_occupancy
  Zr  Zr0  1  0.632988  0.632988  0.632988  1
  Sc  Sc1  1  0.002853  0.002853  0.002853  1
  Sc  Sc2  1  0.999652  0.367205  0.999652  1
  Sc  Sc3  1  0.367205  0.999652  0.999652  1
  Sc  Sc4  1  0.999652  0.999652  0.367205  1
  Re  Re5  1  0.001757  0.603475  0.323682  1
  Re  Re6  1  0.603475  0.001757  0.323682  1
  Re  Re7  1  0.323682  0.001757  0.603475  1
  Re  Re8  1  0.278663  0.676672  0.676672  1
  Re  Re9  1  0.676672  0.278663  0.676672  1
  Re  Re10  1  0.001757  0.323682  0.603475  1
  Re  Re11  1  0.396999  0.719762  0.396999  1
  Re  Re12  1  0.719762  0.396999  0.396999  1
  Re  Re13  1  0.323682  0.603475  0.001757  1
  Re  Re14  1  0.603475  0.323682  0.001757  1
  Re  Re15  1  0.676672  0.676672  0.278663  1
  Re  Re16  1  0.396999  0.396999  0.719762  1
  Re  Re17  1  0.622291  0.000920  0.807418  1
  Re  Re18  1  0.000920  0.622291  0.807418  1
  Re  Re19  1  0.807418  0.000920  0.622291  1
  Re  Re20  1  0.813858  0.190984  0.190984  1
  Re  Re21  1  0.190984  0.813858  0.190984  1
  Re  Re22  1  0.000920  0.807418  0.622291  1
  Re  Re23  1  0.376652  0.183660  0.376652  1
  Re  Re24  1  0.183660  0.376652  0.376652  1
  Re  Re25  1  0.807418  0.622291  0.000920  1
  Re  Re26  1  0.622291  0.807418  0.000920  1
  Re  Re27  1  0.190984  0.190984  0.813858  1
  Re  Re28  1  0.376652  0.376652  0.183660  1
