# generated using pymatgen
data_K2Mn3(AsO3)4
_symmetry_space_group_name_H-M   'P 1'
_cell_length_a   5.68275062
_cell_length_b   5.99771980
_cell_length_c   11.57392893
_cell_angle_alpha   105.79343080
_cell_angle_beta   104.21125794
_cell_angle_gamma   61.72248840
_symmetry_Int_Tables_number   1
_chemical_formula_structural   K2Mn3(AsO3)4
_chemical_formula_sum   'K2 Mn3 As4 O12'
_cell_volume   331.11243595
_cell_formula_units_Z   1
loop_
 _symmetry_equiv_pos_site_id
 _symmetry_equiv_pos_as_xyz
  1  'x, y, z'
loop_
 _atom_site_type_symbol
 _atom_site_label
 _atom_site_symmetry_multiplicity
 _atom_site_fract_x
 _atom_site_fract_y
 _atom_site_fract_z
 _atom_site_occupancy
  K  K0  1  0.628284  0.161763  0.418332  1
  K  K1  1  0.371715  0.838238  0.581668  1
  Mn  Mn2  1  0.000000  0.000000  0.000000  1
  Mn  Mn3  1  0.227650  0.792624  0.247926  1
  Mn  Mn4  1  0.772349  0.207376  0.752074  1
  As  As5  1  0.683282  0.682414  0.048978  1
  As  As6  1  0.920928  0.463731  0.305590  1
  As  As7  1  0.079071  0.536269  0.694410  1
  As  As8  1  0.316717  0.317587  0.951022  1
  O  O9  1  0.383276  0.862745  0.117059  1
  O  O10  1  0.871037  0.862745  0.117059  1
  O  O11  1  0.868752  0.404954  0.142457  1
  O  O12  1  0.109300  0.633764  0.354756  1
  O  O13  1  0.611691  0.633764  0.354756  1
  O  O14  1  0.089594  0.172478  0.351665  1
  O  O15  1  0.910405  0.827522  0.648335  1
  O  O16  1  0.388308  0.366236  0.645244  1
  O  O17  1  0.890699  0.366236  0.645244  1
  O  O18  1  0.131249  0.595045  0.857544  1
  O  O19  1  0.128963  0.137255  0.882940  1
  O  O20  1  0.616723  0.137255  0.882940  1
