# generated using pymatgen
data_Tb2Y6Hf11Si16Os
_symmetry_space_group_name_H-M   'P 1'
_cell_length_a   7.24313887
_cell_length_b   7.24353199
_cell_length_c   13.25093323
_cell_angle_alpha   89.88579698
_cell_angle_beta   90.11610463
_cell_angle_gamma   90.04742239
_symmetry_Int_Tables_number   1
_chemical_formula_structural   Tb2Y6Hf11Si16Os
_chemical_formula_sum   'Tb2 Y6 Hf11 Si16 Os1'
_cell_volume   695.21920104
_cell_formula_units_Z   1
loop_
 _symmetry_equiv_pos_site_id
 _symmetry_equiv_pos_as_xyz
  1  'x, y, z'
loop_
 _atom_site_type_symbol
 _atom_site_label
 _atom_site_symmetry_multiplicity
 _atom_site_fract_x
 _atom_site_fract_y
 _atom_site_fract_z
 _atom_site_occupancy
  Tb  Tb0  1  0.343631  0.998638  0.788221  1
  Tb  Tb1  1  0.654774  0.005129  0.282625  1
  Y  Y2  1  0.998636  0.343743  0.211840  1
  Y  Y3  1  0.005097  0.654716  0.717398  1
  Y  Y4  1  0.155798  0.494825  0.465206  1
  Y  Y5  1  0.501824  0.846483  0.032606  1
  Y  Y6  1  0.846496  0.501860  0.967326  1
  Y  Y7  1  0.494779  0.155820  0.534772  1
  Hf  Hf8  1  0.824772  0.824770  0.499964  1
  Hf  Hf9  1  0.324390  0.674863  0.247887  1
  Hf  Hf10  1  0.674870  0.324433  0.752127  1
  Hf  Hf11  1  0.147120  0.997553  0.371943  1
  Hf  Hf12  1  0.852730  0.004456  0.878472  1
  Hf  Hf13  1  0.502989  0.647239  0.625372  1
  Hf  Hf14  1  0.351497  0.496518  0.877180  1
  Hf  Hf15  1  0.496403  0.351544  0.122824  1
  Hf  Hf16  1  0.647328  0.503005  0.374686  1
  Hf  Hf17  1  0.997738  0.147009  0.628093  1
  Hf  Hf18  1  0.004398  0.852829  0.121536  1
  Si  Si19  1  0.360289  0.295367  0.315292  1
  Si  Si20  1  0.639111  0.704930  0.818361  1
  Si  Si21  1  0.205559  0.861595  0.566943  1
  Si  Si22  1  0.136605  0.794285  0.931267  1
  Si  Si23  1  0.794491  0.136633  0.068771  1
  Si  Si24  1  0.861589  0.205621  0.433108  1
  Si  Si25  1  0.295294  0.360464  0.684663  1
  Si  Si26  1  0.704961  0.638974  0.181627  1
  Si  Si27  1  0.292685  0.054205  0.180044  1
  Si  Si28  1  0.704063  0.950622  0.686075  1
  Si  Si29  1  0.449374  0.796338  0.434799  1
  Si  Si30  1  0.206420  0.547674  0.064344  1
  Si  Si31  1  0.547818  0.206408  0.935627  1
  Si  Si32  1  0.796352  0.449458  0.565176  1
  Si  Si33  1  0.054177  0.292820  0.819915  1
  Si  Si34  1  0.950689  0.703975  0.313870  1
  Os  Os35  1  0.175258  0.175202  0.000040  1
