# generated using pymatgen
data_Tb10Y6MgCd3Ir4
_symmetry_space_group_name_H-M   'P 1'
_cell_length_a   9.70659568
_cell_length_b   9.70659586
_cell_length_c   9.70659531
_cell_angle_alpha   59.90210265
_cell_angle_beta   59.90210415
_cell_angle_gamma   59.90210204
_symmetry_Int_Tables_number   1
_chemical_formula_structural   Tb10Y6MgCd3Ir4
_chemical_formula_sum   'Tb10 Y6 Mg1 Cd3 Ir4'
_cell_volume   645.23839353
_cell_formula_units_Z   1
loop_
 _symmetry_equiv_pos_site_id
 _symmetry_equiv_pos_as_xyz
  1  'x, y, z'
loop_
 _atom_site_type_symbol
 _atom_site_label
 _atom_site_symmetry_multiplicity
 _atom_site_fract_x
 _atom_site_fract_y
 _atom_site_fract_z
 _atom_site_occupancy
  Tb  Tb0  1  0.348541  0.348541  0.348541  1
  Tb  Tb1  1  0.348375  0.348375  0.956236  1
  Tb  Tb2  1  0.348375  0.956236  0.348375  1
  Tb  Tb3  1  0.956236  0.348375  0.348375  1
  Tb  Tb4  1  0.808517  0.190435  0.190435  1
  Tb  Tb5  1  0.187438  0.810715  0.810715  1
  Tb  Tb6  1  0.190435  0.808517  0.190435  1
  Tb  Tb7  1  0.810715  0.187438  0.810715  1
  Tb  Tb8  1  0.190435  0.190435  0.808517  1
  Tb  Tb9  1  0.810715  0.810715  0.187438  1
  Y  Y10  1  0.940037  0.562415  0.562415  1
  Y  Y11  1  0.561886  0.938180  0.938180  1
  Y  Y12  1  0.562415  0.940037  0.562415  1
  Y  Y13  1  0.938180  0.561886  0.938180  1
  Y  Y14  1  0.562415  0.562415  0.940037  1
  Y  Y15  1  0.938180  0.938180  0.561886  1
  Mg  Mg16  1  0.575522  0.575522  0.575522  1
  Cd  Cd17  1  0.581538  0.581538  0.254948  1
  Cd  Cd18  1  0.581538  0.254948  0.581538  1
  Cd  Cd19  1  0.254948  0.581538  0.581538  1
  Ir  Ir20  1  0.141761  0.141761  0.141761  1
  Ir  Ir21  1  0.142965  0.142965  0.575870  1
  Ir  Ir22  1  0.142965  0.575870  0.142965  1
  Ir  Ir23  1  0.575870  0.142965  0.142965  1
