# generated using pymatgen
data_CeThZnIr16
_symmetry_space_group_name_H-M   'P 1'
_cell_length_a   6.85425222
_cell_length_b   6.85425078
_cell_length_c   6.85425062
_cell_angle_alpha   83.29901543
_cell_angle_beta   83.29902397
_cell_angle_gamma   83.29901606
_symmetry_Int_Tables_number   1
_chemical_formula_structural   CeThZnIr16
_chemical_formula_sum   'Ce1 Th1 Zn1 Ir16'
_cell_volume   315.89442621
_cell_formula_units_Z   1
loop_
 _symmetry_equiv_pos_site_id
 _symmetry_equiv_pos_as_xyz
  1  'x, y, z'
loop_
 _atom_site_type_symbol
 _atom_site_label
 _atom_site_symmetry_multiplicity
 _atom_site_fract_x
 _atom_site_fract_y
 _atom_site_fract_z
 _atom_site_occupancy
  Ce  Ce0  1  0.659929  0.659929  0.659929  1
  Th  Th1  1  0.350410  0.350410  0.350410  1
  Zn  Zn2  1  0.111858  0.111858  0.111858  1
  Ir  Ir3  1  0.697371  0.292517  0.000207  1
  Ir  Ir4  1  0.000207  0.697371  0.292517  1
  Ir  Ir5  1  0.292517  0.000207  0.697371  1
  Ir  Ir6  1  0.000207  0.292517  0.697371  1
  Ir  Ir7  1  0.697371  0.000207  0.292517  1
  Ir  Ir8  1  0.292517  0.697371  0.000207  1
  Ir  Ir9  1  0.340485  0.868194  0.340485  1
  Ir  Ir10  1  0.340485  0.340485  0.868194  1
  Ir  Ir11  1  0.868194  0.340485  0.340485  1
  Ir  Ir12  1  0.640015  0.174951  0.640015  1
  Ir  Ir13  1  0.640015  0.640015  0.174951  1
  Ir  Ir14  1  0.174951  0.640015  0.640015  1
  Ir  Ir15  1  0.972234  0.972234  0.528765  1
  Ir  Ir16  1  0.528765  0.972234  0.972234  1
  Ir  Ir17  1  0.972234  0.528765  0.972234  1
  Ir  Ir18  1  0.920236  0.920236  0.920236  1
