# generated using pymatgen
data_HoTi4BiO12
_symmetry_space_group_name_H-M   'P 1'
_cell_length_a   5.31031698
_cell_length_b   6.62578377
_cell_length_c   7.47336987
_cell_angle_alpha   66.99995329
_cell_angle_beta   68.42894940
_cell_angle_gamma   81.11887571
_symmetry_Int_Tables_number   1
_chemical_formula_structural   HoTi4BiO12
_chemical_formula_sum   'Ho1 Ti4 Bi1 O12'
_cell_volume   225.07712768
_cell_formula_units_Z   1
loop_
 _symmetry_equiv_pos_site_id
 _symmetry_equiv_pos_as_xyz
  1  'x, y, z'
loop_
 _atom_site_type_symbol
 _atom_site_label
 _atom_site_symmetry_multiplicity
 _atom_site_fract_x
 _atom_site_fract_y
 _atom_site_fract_z
 _atom_site_occupancy
  Ho  Ho0  1  0.743475  0.492800  0.749972  1
  Ti  Ti1  1  0.292217  0.885605  0.467465  1
  Ti  Ti2  1  0.796417  0.894909  0.969242  1
  Ti  Ti3  1  0.705753  0.104736  0.530521  1
  Ti  Ti4  1  0.207721  0.113613  0.034161  1
  Bi  Bi5  1  0.252003  0.501013  0.250123  1
  O  O6  1  0.186195  0.603745  0.506583  1
  O  O7  1  0.848690  0.389252  0.458897  1
  O  O8  1  0.013846  0.067688  0.317210  1
  O  O9  1  0.959604  0.889064  0.693831  1
  O  O10  1  0.309793  0.394903  0.997815  1
  O  O11  1  0.652912  0.612559  0.035362  1
  O  O12  1  0.551107  0.808744  0.593472  1
  O  O13  1  0.421489  0.194969  0.416496  1
  O  O14  1  0.485653  0.928682  0.183765  1
  O  O15  1  0.543323  0.121493  0.804242  1
  O  O16  1  0.948310  0.191053  0.909397  1
  O  O17  1  0.081493  0.805173  0.081448  1
