# generated using pymatgen
data_Pr3TaNb(MoN4)3
_symmetry_space_group_name_H-M   'P 1'
_cell_length_a   11.34973965
_cell_length_b   11.34973902
_cell_length_c   11.34973900
_cell_angle_alpha   109.47122417
_cell_angle_beta   109.47122305
_cell_angle_gamma   109.47121681
_symmetry_Int_Tables_number   1
_chemical_formula_structural   Pr3TaNb(MoN4)3
_chemical_formula_sum   'Pr12 Ta4 Nb4 Mo12 N48'
_cell_volume   1125.47472679
_cell_formula_units_Z   4
loop_
 _symmetry_equiv_pos_site_id
 _symmetry_equiv_pos_as_xyz
  1  'x, y, z'
loop_
 _atom_site_type_symbol
 _atom_site_label
 _atom_site_symmetry_multiplicity
 _atom_site_fract_x
 _atom_site_fract_y
 _atom_site_fract_z
 _atom_site_occupancy
  Pr  Pr0  1  0.375439  0.750000  0.125440  1
  Pr  Pr1  1  0.250000  0.374561  0.124561  1
  Pr  Pr2  1  0.374561  0.124561  0.250000  1
  Pr  Pr3  1  0.874562  0.624561  0.250000  1
  Pr  Pr4  1  0.750000  0.125440  0.375439  1
  Pr  Pr5  1  0.124561  0.250000  0.374561  1
  Pr  Pr6  1  0.875439  0.750000  0.625439  1
  Pr  Pr7  1  0.250000  0.874562  0.624561  1
  Pr  Pr8  1  0.125440  0.375439  0.750000  1
  Pr  Pr9  1  0.625439  0.875439  0.750000  1
  Pr  Pr10  1  0.624561  0.250000  0.874562  1
  Pr  Pr11  1  0.750000  0.625439  0.875439  1
  Ta  Ta12  1  0.500001  0.000000  0.000000  1
  Ta  Ta13  1  0.000000  0.500001  0.000000  1
  Ta  Ta14  1  0.000000  0.000000  0.500001  1
  Ta  Ta15  1  0.500001  0.500001  0.500001  1
  Nb  Nb16  1  0.000000  0.000000  0.000000  1
  Nb  Nb17  1  0.500000  0.500000  0.000000  1
  Nb  Nb18  1  0.500000  0.000000  0.500000  1
  Nb  Nb19  1  0.000000  0.500000  0.500000  1
  Mo  Mo20  1  0.874521  0.250000  0.124521  1
  Mo  Mo21  1  0.750000  0.875479  0.125479  1
  Mo  Mo22  1  0.624521  0.374521  0.250000  1
  Mo  Mo23  1  0.124521  0.874521  0.250000  1
  Mo  Mo24  1  0.250000  0.624521  0.374521  1
  Mo  Mo25  1  0.625479  0.750000  0.375479  1
  Mo  Mo26  1  0.374521  0.250000  0.624521  1
  Mo  Mo27  1  0.750000  0.375479  0.625479  1
  Mo  Mo28  1  0.875479  0.125479  0.750000  1
  Mo  Mo29  1  0.375479  0.625479  0.750000  1
  Mo  Mo30  1  0.250000  0.124521  0.874521  1
  Mo  Mo31  1  0.125479  0.750000  0.875479  1
  N  N32  1  0.199618  0.115155  0.014021  1
  N  N33  1  0.316765  0.899588  0.014717  1
  N  N34  1  0.884871  0.399588  0.082823  1
  N  N35  1  0.699618  0.685597  0.084463  1
  N  N36  1  0.985283  0.683235  0.100412  1
  N  N37  1  0.615155  0.415537  0.101134  1
  N  N38  1  0.014021  0.199618  0.115155  1
  N  N39  1  0.600411  0.917177  0.115128  1
  N  N40  1  0.197951  0.582823  0.183235  1
  N  N41  1  0.485979  0.601134  0.185597  1
  N  N42  1  0.582823  0.183235  0.197951  1
  N  N43  1  0.115155  0.014021  0.199618  1
  N  N44  1  0.314403  0.915537  0.300382  1
  N  N45  1  0.485283  0.384872  0.302048  1
  N  N46  1  0.915537  0.300382  0.314403  1
  N  N47  1  0.899588  0.014717  0.316765  1
  N  N48  1  0.584463  0.898867  0.384846  1
  N  N49  1  0.302048  0.485283  0.384872  1
  N  N50  1  0.814404  0.514021  0.398867  1
  N  N51  1  0.082823  0.884871  0.399588  1
  N  N52  1  0.101134  0.615155  0.415537  1
  N  N53  1  0.816765  0.802048  0.417177  1
  N  N54  1  0.601134  0.185597  0.485979  1
  N  N55  1  0.384872  0.302048  0.485283  1
  N  N56  1  0.615128  0.697951  0.514716  1
  N  N57  1  0.398867  0.814404  0.514021  1
  N  N58  1  0.183235  0.197951  0.582823  1
  N  N59  1  0.898867  0.384846  0.584463  1
  N  N60  1  0.917177  0.115128  0.600411  1
  N  N61  1  0.185597  0.485979  0.601134  1
  N  N62  1  0.415537  0.101134  0.615155  1
  N  N63  1  0.697951  0.514716  0.615128  1
  N  N64  1  0.084463  0.699618  0.685597  1
  N  N65  1  0.100412  0.985283  0.683235  1
  N  N66  1  0.685597  0.084463  0.699618  1
  N  N67  1  0.514716  0.615128  0.697951  1
  N  N68  1  0.884846  0.985980  0.800383  1
  N  N69  1  0.417177  0.816765  0.802048  1
  N  N70  1  0.514021  0.398867  0.814404  1
  N  N71  1  0.802048  0.417177  0.816765  1
  N  N72  1  0.399588  0.082823  0.884871  1
  N  N73  1  0.985980  0.800383  0.884846  1
  N  N74  1  0.014717  0.316765  0.899588  1
  N  N75  1  0.384846  0.584463  0.898867  1
  N  N76  1  0.300382  0.314403  0.915537  1
  N  N77  1  0.115128  0.600411  0.917177  1
  N  N78  1  0.683235  0.100412  0.985283  1
  N  N79  1  0.800383  0.884846  0.985980  1
