# generated using pymatgen
data_Y18Tm2Cd6NiRh
_symmetry_space_group_name_H-M   'P 1'
_cell_length_a   9.65798100
_cell_length_b   9.65798171
_cell_length_c   9.80012100
_cell_angle_alpha   90.00000000
_cell_angle_beta   90.00000000
_cell_angle_gamma   119.99999415
_symmetry_Int_Tables_number   1
_chemical_formula_structural   Y18Tm2Cd6NiRh
_chemical_formula_sum   'Y18 Tm2 Cd6 Ni1 Rh1'
_cell_volume   791.65292419
_cell_formula_units_Z   1
loop_
 _symmetry_equiv_pos_site_id
 _symmetry_equiv_pos_as_xyz
  1  'x, y, z'
loop_
 _atom_site_type_symbol
 _atom_site_label
 _atom_site_symmetry_multiplicity
 _atom_site_fract_x
 _atom_site_fract_y
 _atom_site_fract_z
 _atom_site_occupancy
  Y  Y0  1  0.542962  0.457038  0.250000  1
  Y  Y1  1  0.542962  0.085924  0.250000  1
  Y  Y2  1  0.914076  0.457038  0.250000  1
  Y  Y3  1  0.456711  0.543289  0.750000  1
  Y  Y4  1  0.456711  0.913422  0.750000  1
  Y  Y5  1  0.086578  0.543289  0.750000  1
  Y  Y6  1  0.208389  0.791611  0.439939  1
  Y  Y7  1  0.208389  0.416780  0.439939  1
  Y  Y8  1  0.583220  0.791611  0.439939  1
  Y  Y9  1  0.789869  0.210131  0.562986  1
  Y  Y10  1  0.789869  0.579737  0.562986  1
  Y  Y11  1  0.420263  0.210131  0.562986  1
  Y  Y12  1  0.789869  0.210131  0.937014  1
  Y  Y13  1  0.789869  0.579737  0.937014  1
  Y  Y14  1  0.420263  0.210131  0.937014  1
  Y  Y15  1  0.208389  0.791611  0.060061  1
  Y  Y16  1  0.208389  0.416780  0.060061  1
  Y  Y17  1  0.583220  0.791611  0.060061  1
  Tm  Tm18  1  0.000000  0.000000  0.499674  1
  Tm  Tm19  1  0.000000  0.000000  0.000326  1
  Cd  Cd20  1  0.885287  0.114713  0.250000  1
  Cd  Cd21  1  0.885287  0.770573  0.250000  1
  Cd  Cd22  1  0.229427  0.114713  0.250000  1
  Cd  Cd23  1  0.114851  0.885149  0.750000  1
  Cd  Cd24  1  0.114851  0.229702  0.750000  1
  Cd  Cd25  1  0.770298  0.885149  0.750000  1
  Ni  Ni26  1  0.666667  0.333333  0.750000  1
  Rh  Rh27  1  0.333333  0.666667  0.250000  1
