# generated using pymatgen
data_Tb3CdHgRu
_symmetry_space_group_name_H-M   'P 1'
_cell_length_a   3.55326100
_cell_length_b   3.55326100
_cell_length_c   11.53644200
_cell_angle_alpha   90.00000000
_cell_angle_beta   90.00000000
_cell_angle_gamma   90.00000000
_symmetry_Int_Tables_number   1
_chemical_formula_structural   Tb3CdHgRu
_chemical_formula_sum   'Tb3 Cd1 Hg1 Ru1'
_cell_volume   145.65523738
_cell_formula_units_Z   1
loop_
 _symmetry_equiv_pos_site_id
 _symmetry_equiv_pos_as_xyz
  1  'x, y, z'
loop_
 _atom_site_type_symbol
 _atom_site_label
 _atom_site_symmetry_multiplicity
 _atom_site_fract_x
 _atom_site_fract_y
 _atom_site_fract_z
 _atom_site_occupancy
  Tb  Tb0  1  0.499999  0.499999  0.975028  1
  Tb  Tb1  1  0.499999  0.499999  0.330374  1
  Tb  Tb2  1  0.499999  0.499999  0.693117  1
  Cd  Cd3  1  0.000000  0.000000  0.507993  1
  Hg  Hg4  1  0.000000  0.000000  0.160053  1
  Ru  Ru5  1  0.000000  0.000000  0.833433  1
