# generated using pymatgen
data_TbTm6Cd(Co3Sn11)2
_symmetry_space_group_name_H-M   'P 1'
_cell_length_a   9.63485000
_cell_length_b   9.63484975
_cell_length_c   9.98071800
_cell_angle_alpha   90.00000000
_cell_angle_beta   90.00000000
_cell_angle_gamma   120.00000771
_symmetry_Int_Tables_number   1
_chemical_formula_structural   TbTm6Cd(Co3Sn11)2
_chemical_formula_sum   'Tb1 Tm6 Cd1 Co6 Sn22'
_cell_volume   802.38405045
_cell_formula_units_Z   1
loop_
 _symmetry_equiv_pos_site_id
 _symmetry_equiv_pos_as_xyz
  1  'x, y, z'
loop_
 _atom_site_type_symbol
 _atom_site_label
 _atom_site_symmetry_multiplicity
 _atom_site_fract_x
 _atom_site_fract_y
 _atom_site_fract_z
 _atom_site_occupancy
  Tb  Tb0  1  0.000000  0.000000  0.000000  1
  Tm  Tm1  1  0.479770  0.520230  0.306052  1
  Tm  Tm2  1  0.520230  0.479770  0.693948  1
  Tm  Tm3  1  0.479770  0.959541  0.306052  1
  Tm  Tm4  1  0.520230  0.040459  0.693948  1
  Tm  Tm5  1  0.040459  0.520230  0.306052  1
  Tm  Tm6  1  0.959541  0.479770  0.693948  1
  Cd  Cd7  1  0.000000  0.000000  0.500000  1
  Co  Co8  1  0.831578  0.168422  0.197619  1
  Co  Co9  1  0.168422  0.831578  0.802381  1
  Co  Co10  1  0.831578  0.663156  0.197619  1
  Co  Co11  1  0.168422  0.336844  0.802381  1
  Co  Co12  1  0.336844  0.168422  0.197619  1
  Co  Co13  1  0.663156  0.831578  0.802381  1
  Sn  Sn14  1  0.346409  0.000000  0.000000  1
  Sn  Sn15  1  0.653591  0.000000  0.000000  1
  Sn  Sn16  1  0.000000  0.346409  0.000000  1
  Sn  Sn17  1  0.000000  0.653591  0.000000  1
  Sn  Sn18  1  0.653591  0.653591  0.000000  1
  Sn  Sn19  1  0.346409  0.346409  0.000000  1
  Sn  Sn20  1  0.333333  0.666667  0.818964  1
  Sn  Sn21  1  0.666667  0.333333  0.181036  1
  Sn  Sn22  1  0.781552  0.218448  0.453386  1
  Sn  Sn23  1  0.218448  0.781552  0.546614  1
  Sn  Sn24  1  0.781552  0.563105  0.453386  1
  Sn  Sn25  1  0.218448  0.436895  0.546614  1
  Sn  Sn26  1  0.436895  0.218448  0.453386  1
  Sn  Sn27  1  0.563105  0.781552  0.546614  1
  Sn  Sn28  1  0.333333  0.666667  0.121863  1
  Sn  Sn29  1  0.666667  0.333333  0.878137  1
  Sn  Sn30  1  0.117485  0.882515  0.272394  1
  Sn  Sn31  1  0.882515  0.117485  0.727606  1
  Sn  Sn32  1  0.117485  0.234972  0.272394  1
  Sn  Sn33  1  0.882515  0.765028  0.727606  1
  Sn  Sn34  1  0.765028  0.882515  0.272394  1
  Sn  Sn35  1  0.234972  0.117485  0.727606  1
