# generated using pymatgen
data_Nd4Er3Au10
_symmetry_space_group_name_H-M   'P 1'
_cell_length_a   8.87412312
_cell_length_b   8.87412503
_cell_length_c   10.47902600
_cell_angle_alpha   90.00000000
_cell_angle_beta   90.00000000
_cell_angle_gamma   107.24468643
_symmetry_Int_Tables_number   1
_chemical_formula_structural   Nd4Er3Au10
_chemical_formula_sum   'Nd8 Er6 Au20'
_cell_volume   788.12818035
_cell_formula_units_Z   2
loop_
 _symmetry_equiv_pos_site_id
 _symmetry_equiv_pos_as_xyz
  1  'x, y, z'
loop_
 _atom_site_type_symbol
 _atom_site_label
 _atom_site_symmetry_multiplicity
 _atom_site_fract_x
 _atom_site_fract_y
 _atom_site_fract_z
 _atom_site_occupancy
  Nd  Nd0  1  0.696359  0.303641  0.000000  1
  Nd  Nd1  1  0.196359  0.803641  0.500000  1
  Nd  Nd2  1  0.807114  0.807114  0.303856  1
  Nd  Nd3  1  0.307114  0.307114  0.196144  1
  Nd  Nd4  1  0.803641  0.196359  0.500000  1
  Nd  Nd5  1  0.303641  0.696359  0.000000  1
  Nd  Nd6  1  0.692886  0.692886  0.803856  1
  Nd  Nd7  1  0.192886  0.192886  0.696144  1
  Er  Er8  1  0.506271  0.006271  0.250000  1
  Er  Er9  1  0.993729  0.493729  0.750000  1
  Er  Er10  1  0.000000  0.000000  0.000000  1
  Er  Er11  1  0.006271  0.506271  0.250000  1
  Er  Er12  1  0.493729  0.993729  0.750000  1
  Er  Er13  1  0.500000  0.500000  0.500000  1
  Au  Au14  1  0.147848  0.435250  0.493484  1
  Au  Au15  1  0.899464  0.899464  0.598157  1
  Au  Au16  1  0.564750  0.852152  0.506516  1
  Au  Au17  1  0.866697  0.154189  0.207677  1
  Au  Au18  1  0.366697  0.654189  0.292323  1
  Au  Au19  1  0.654189  0.366697  0.292323  1
  Au  Au20  1  0.399464  0.399464  0.901843  1
  Au  Au21  1  0.935250  0.647848  0.006516  1
  Au  Au22  1  0.345811  0.633303  0.707677  1
  Au  Au23  1  0.352152  0.064750  0.993484  1
  Au  Au24  1  0.600536  0.600536  0.098157  1
  Au  Au25  1  0.647848  0.935250  0.006516  1
  Au  Au26  1  0.100536  0.100536  0.401843  1
  Au  Au27  1  0.633303  0.345811  0.707677  1
  Au  Au28  1  0.133303  0.845811  0.792323  1
  Au  Au29  1  0.064750  0.352152  0.993484  1
  Au  Au30  1  0.852152  0.564750  0.506516  1
  Au  Au31  1  0.154189  0.866697  0.207677  1
  Au  Au32  1  0.435250  0.147848  0.493484  1
  Au  Au33  1  0.845811  0.133303  0.792323  1
