# generated using pymatgen
data_Zr3Sc(Mn3Os)2
_symmetry_space_group_name_H-M   'P 1'
_cell_length_a   4.99379100
_cell_length_b   4.99379050
_cell_length_c   8.38395100
_cell_angle_alpha   90.00000000
_cell_angle_beta   90.00000000
_cell_angle_gamma   120.00000994
_symmetry_Int_Tables_number   1
_chemical_formula_structural   Zr3Sc(Mn3Os)2
_chemical_formula_sum   'Zr3 Sc1 Mn6 Os2'
_cell_volume   181.06728959
_cell_formula_units_Z   1
loop_
 _symmetry_equiv_pos_site_id
 _symmetry_equiv_pos_as_xyz
  1  'x, y, z'
loop_
 _atom_site_type_symbol
 _atom_site_label
 _atom_site_symmetry_multiplicity
 _atom_site_fract_x
 _atom_site_fract_y
 _atom_site_fract_z
 _atom_site_occupancy
  Zr  Zr0  1  0.666667  0.333333  0.564318  1
  Zr  Zr1  1  0.666667  0.333333  0.939225  1
  Zr  Zr2  1  0.333333  0.666667  0.433105  1
  Sc  Sc3  1  0.333333  0.666667  0.063344  1
  Mn  Mn4  1  0.173441  0.346880  0.750035  1
  Mn  Mn5  1  0.827179  0.172821  0.249736  1
  Mn  Mn6  1  0.827179  0.654357  0.249736  1
  Mn  Mn7  1  0.173441  0.826559  0.750035  1
  Mn  Mn8  1  0.653120  0.826559  0.750035  1
  Mn  Mn9  1  0.345643  0.172821  0.249736  1
  Os  Os10  1  0.000000  0.000000  0.500149  1
  Os  Os11  1  0.000000  0.000000  0.000547  1
