# generated using pymatgen
data_Nd3Co(P3Ru4)2
_symmetry_space_group_name_H-M   'P 1'
_cell_length_a   3.96783900
_cell_length_b   11.21416200
_cell_length_c   12.73283500
_cell_angle_alpha   90.00000000
_cell_angle_beta   90.00000000
_cell_angle_gamma   90.00000000
_symmetry_Int_Tables_number   1
_chemical_formula_structural   Nd3Co(P3Ru4)2
_chemical_formula_sum   'Nd6 Co2 P12 Ru16'
_cell_volume   566.56009038
_cell_formula_units_Z   2
loop_
 _symmetry_equiv_pos_site_id
 _symmetry_equiv_pos_as_xyz
  1  'x, y, z'
loop_
 _atom_site_type_symbol
 _atom_site_label
 _atom_site_symmetry_multiplicity
 _atom_site_fract_x
 _atom_site_fract_y
 _atom_site_fract_z
 _atom_site_occupancy
  Nd  Nd0  1  0.000000  0.500000  0.525651  1
  Nd  Nd1  1  0.500000  0.000000  0.474349  1
  Nd  Nd2  1  0.500000  0.819698  0.204683  1
  Nd  Nd3  1  0.500000  0.180302  0.204683  1
  Nd  Nd4  1  0.000000  0.680302  0.795317  1
  Nd  Nd5  1  0.000000  0.319698  0.795317  1
  Co  Co6  1  0.000000  0.500000  0.988676  1
  Co  Co7  1  0.500000  0.000000  0.011324  1
  P  P8  1  0.500000  0.500000  0.886531  1
  P  P9  1  0.000000  0.000000  0.113469  1
  P  P10  1  0.500000  0.500000  0.335281  1
  P  P11  1  0.000000  0.000000  0.664719  1
  P  P12  1  0.500000  0.298958  0.616454  1
  P  P13  1  0.500000  0.701042  0.616454  1
  P  P14  1  0.000000  0.201042  0.383546  1
  P  P15  1  0.000000  0.798958  0.383546  1
  P  P16  1  0.500000  0.850237  0.899641  1
  P  P17  1  0.500000  0.149763  0.899641  1
  P  P18  1  0.000000  0.649763  0.100359  1
  P  P19  1  0.000000  0.350237  0.100359  1
  Ru  Ru20  1  0.500000  0.500000  0.153963  1
  Ru  Ru21  1  0.000000  0.000000  0.846037  1
  Ru  Ru22  1  0.500000  0.500000  0.695834  1
  Ru  Ru23  1  0.000000  0.000000  0.304166  1
  Ru  Ru24  1  0.500000  0.334382  0.991920  1
  Ru  Ru25  1  0.500000  0.665618  0.991920  1
  Ru  Ru26  1  0.000000  0.165618  0.008080  1
  Ru  Ru27  1  0.000000  0.834382  0.008080  1
  Ru  Ru28  1  0.500000  0.301934  0.429983  1
  Ru  Ru29  1  0.500000  0.698066  0.429983  1
  Ru  Ru30  1  0.000000  0.198066  0.570017  1
  Ru  Ru31  1  0.000000  0.801934  0.570017  1
  Ru  Ru32  1  0.500000  0.879807  0.716435  1
  Ru  Ru33  1  0.500000  0.120193  0.716435  1
  Ru  Ru34  1  0.000000  0.620193  0.283565  1
  Ru  Ru35  1  0.000000  0.379807  0.283565  1
