# generated using pymatgen
data_Tm6Lu4(InBi)3
_symmetry_space_group_name_H-M   'P 1'
_cell_length_a   6.45162300
_cell_length_b   8.92139835
_cell_length_c   8.92126800
_cell_angle_alpha   120.00048950
_cell_angle_beta   89.99924513
_cell_angle_gamma   90.00151418
_symmetry_Int_Tables_number   1
_chemical_formula_structural   Tm6Lu4(InBi)3
_chemical_formula_sum   'Tm6 Lu4 In3 Bi3'
_cell_volume   444.68961631
_cell_formula_units_Z   1
loop_
 _symmetry_equiv_pos_site_id
 _symmetry_equiv_pos_as_xyz
  1  'x, y, z'
loop_
 _atom_site_type_symbol
 _atom_site_label
 _atom_site_symmetry_multiplicity
 _atom_site_fract_x
 _atom_site_fract_y
 _atom_site_fract_z
 _atom_site_occupancy
  Tm  Tm0  1  0.749812  0.234698  0.000000  1
  Tm  Tm1  1  0.749919  0.765370  0.765325  1
  Tm  Tm2  1  0.749919  0.000046  0.234675  1
  Tm  Tm3  1  0.249897  0.763080  0.000000  1
  Tm  Tm4  1  0.249878  0.236972  0.236985  1
  Tm  Tm5  1  0.249878  0.999988  0.763015  1
  Lu  Lu6  1  0.491887  0.333371  0.666745  1
  Lu  Lu7  1  0.491887  0.666626  0.333255  1
  Lu  Lu8  1  0.008173  0.666717  0.333389  1
  Lu  Lu9  1  0.008173  0.333329  0.666611  1
  In  In10  1  0.249979  0.393133  0.000000  1
  In  In11  1  0.250315  0.606673  0.606696  1
  In  In12  1  0.250315  0.999977  0.393304  1
  Bi  Bi13  1  0.750030  0.602323  0.000000  1
  Bi  Bi14  1  0.749970  0.397694  0.397687  1
  Bi  Bi15  1  0.749970  0.000007  0.602313  1
