# generated using pymatgen
data_Cs5TiHSe5
_symmetry_space_group_name_H-M   'P 1'
_cell_length_a   8.45617750
_cell_length_b   8.45617626
_cell_length_c   15.45217333
_cell_angle_alpha   81.28962216
_cell_angle_beta   81.28962425
_cell_angle_gamma   110.39654522
_symmetry_Int_Tables_number   1
_chemical_formula_structural   Cs5TiHSe5
_chemical_formula_sum   'Cs10 Ti2 H2 Se10'
_cell_volume   998.53774185
_cell_formula_units_Z   2
loop_
 _symmetry_equiv_pos_site_id
 _symmetry_equiv_pos_as_xyz
  1  'x, y, z'
loop_
 _atom_site_type_symbol
 _atom_site_label
 _atom_site_symmetry_multiplicity
 _atom_site_fract_x
 _atom_site_fract_y
 _atom_site_fract_z
 _atom_site_occupancy
  Cs  Cs0  1  0.266922  0.266922  0.955449  1
  Cs  Cs1  1  0.602349  0.083758  0.802391  1
  Cs  Cs2  1  0.083758  0.602349  0.802391  1
  Cs  Cs3  1  0.807815  0.807815  0.601005  1
  Cs  Cs4  1  0.669544  0.330456  0.500000  1
  Cs  Cs5  1  0.330456  0.669544  0.500000  1
  Cs  Cs6  1  0.192185  0.192185  0.398995  1
  Cs  Cs7  1  0.916242  0.397651  0.197609  1
  Cs  Cs8  1  0.397651  0.916242  0.197609  1
  Cs  Cs9  1  0.733078  0.733078  0.044551  1
  Ti  Ti10  1  0.168234  0.168234  0.694643  1
  Ti  Ti11  1  0.831766  0.831766  0.305357  1
  H  H12  1  0.797626  0.202374  0.000000  1
  H  H13  1  0.202374  0.797626  0.000000  1
  Se  Se14  1  0.690842  0.309158  0.000000  1
  Se  Se15  1  0.309158  0.690842  0.000000  1
  Se  Se16  1  0.994866  0.994866  0.837538  1
  Se  Se17  1  0.413262  0.413262  0.707838  1
  Se  Se18  1  0.268046  0.984205  0.615660  1
  Se  Se19  1  0.984205  0.268046  0.615660  1
  Se  Se20  1  0.015795  0.731954  0.384340  1
  Se  Se21  1  0.731954  0.015795  0.384340  1
  Se  Se22  1  0.586738  0.586738  0.292162  1
  Se  Se23  1  0.005134  0.005134  0.162462  1
