# generated using pymatgen
data_Pr9NdBi6AsBr
_symmetry_space_group_name_H-M   'P 1'
_cell_length_a   9.65872661
_cell_length_b   9.66466762
_cell_length_c   6.89344343
_cell_angle_alpha   89.97969888
_cell_angle_beta   90.04062722
_cell_angle_gamma   119.97966748
_symmetry_Int_Tables_number   1
_chemical_formula_structural   Pr9NdBi6AsBr
_chemical_formula_sum   'Pr9 Nd1 Bi6 As1 Br1'
_cell_volume   557.39424244
_cell_formula_units_Z   1
loop_
 _symmetry_equiv_pos_site_id
 _symmetry_equiv_pos_as_xyz
  1  'x, y, z'
loop_
 _atom_site_type_symbol
 _atom_site_label
 _atom_site_symmetry_multiplicity
 _atom_site_fract_x
 _atom_site_fract_y
 _atom_site_fract_z
 _atom_site_occupancy
  Pr  Pr0  1  0.742614  0.000000  0.262562  1
  Pr  Pr1  1  0.000052  0.257471  0.737498  1
  Pr  Pr2  1  0.000153  0.742770  0.262625  1
  Pr  Pr3  1  0.742581  0.742529  0.737498  1
  Pr  Pr4  1  0.257383  0.257230  0.262625  1
  Pr  Pr5  1  0.333275  0.666717  0.500052  1
  Pr  Pr6  1  0.666559  0.333283  0.500052  1
  Pr  Pr7  1  0.666551  0.333253  0.999959  1
  Pr  Pr8  1  0.333297  0.666747  0.999959  1
  Nd  Nd9  1  0.256645  0.000000  0.736875  1
  Bi  Bi10  1  0.607601  0.000000  0.750762  1
  Bi  Bi11  1  0.391679  0.000000  0.249351  1
  Bi  Bi12  1  0.000488  0.608868  0.750782  1
  Bi  Bi13  1  0.999989  0.391796  0.249208  1
  Bi  Bi14  1  0.391620  0.391132  0.750782  1
  Bi  Bi15  1  0.608193  0.608204  0.249208  1
  As  As16  1  0.000799  0.000000  0.500741  1
  Br  Br17  1  0.000520  0.000000  0.999462  1
