# generated using pymatgen
data_Nd16Cd3Ni4Ag
_symmetry_space_group_name_H-M   'P 1'
_cell_length_a   9.80512416
_cell_length_b   9.80512482
_cell_length_c   9.80512308
_cell_angle_alpha   60.08851588
_cell_angle_beta   60.08851460
_cell_angle_gamma   60.08851946
_symmetry_Int_Tables_number   1
_chemical_formula_structural   Nd16Cd3Ni4Ag
_chemical_formula_sum   'Nd16 Cd3 Ni4 Ag1'
_cell_volume   667.90469918
_cell_formula_units_Z   1
loop_
 _symmetry_equiv_pos_site_id
 _symmetry_equiv_pos_as_xyz
  1  'x, y, z'
loop_
 _atom_site_type_symbol
 _atom_site_label
 _atom_site_symmetry_multiplicity
 _atom_site_fract_x
 _atom_site_fract_y
 _atom_site_fract_z
 _atom_site_occupancy
  Nd  Nd0  1  0.346812  0.346812  0.346812  1
  Nd  Nd1  1  0.349137  0.349137  0.952839  1
  Nd  Nd2  1  0.349137  0.952839  0.349137  1
  Nd  Nd3  1  0.952839  0.349137  0.349137  1
  Nd  Nd4  1  0.811864  0.190330  0.190330  1
  Nd  Nd5  1  0.189443  0.809901  0.809901  1
  Nd  Nd6  1  0.190330  0.811864  0.190330  1
  Nd  Nd7  1  0.809901  0.189443  0.809901  1
  Nd  Nd8  1  0.190330  0.190330  0.811864  1
  Nd  Nd9  1  0.809901  0.809901  0.189443  1
  Nd  Nd10  1  0.936177  0.562809  0.562809  1
  Nd  Nd11  1  0.561507  0.936646  0.936646  1
  Nd  Nd12  1  0.562809  0.936177  0.562809  1
  Nd  Nd13  1  0.936646  0.561507  0.936646  1
  Nd  Nd14  1  0.562809  0.562809  0.936177  1
  Nd  Nd15  1  0.936646  0.936646  0.561507  1
  Cd  Cd16  1  0.580510  0.580510  0.260824  1
  Cd  Cd17  1  0.580510  0.260824  0.580510  1
  Cd  Cd18  1  0.260824  0.580510  0.580510  1
  Ni  Ni19  1  0.143316  0.143316  0.143316  1
  Ni  Ni20  1  0.141919  0.141919  0.572809  1
  Ni  Ni21  1  0.141919  0.572809  0.141919  1
  Ni  Ni22  1  0.572809  0.141919  0.141919  1
  Ag  Ag23  1  0.581900  0.581900  0.581900  1
