# generated using pymatgen
data_Tl3Pd(SO4)6
_symmetry_space_group_name_H-M   'P 1'
_cell_length_a   8.67139033
_cell_length_b   8.67065480
_cell_length_c   9.36287300
_cell_angle_alpha   62.39810595
_cell_angle_beta   62.42953451
_cell_angle_gamma   60.04712107
_symmetry_Int_Tables_number   1
_chemical_formula_structural   Tl3Pd(SO4)6
_chemical_formula_sum   'Tl3 Pd1 S6 O24'
_cell_volume   515.36671138
_cell_formula_units_Z   1
loop_
 _symmetry_equiv_pos_site_id
 _symmetry_equiv_pos_as_xyz
  1  'x, y, z'
loop_
 _atom_site_type_symbol
 _atom_site_label
 _atom_site_symmetry_multiplicity
 _atom_site_fract_x
 _atom_site_fract_y
 _atom_site_fract_z
 _atom_site_occupancy
  Tl  Tl0  1  0.645708  0.641203  0.070708  1
  Tl  Tl1  1  0.351406  0.354339  0.941186  1
  Tl  Tl2  1  0.152283  0.153851  0.538711  1
  Pd  Pd3  1  0.843603  0.839554  0.475572  1
  S  S4  1  0.745854  0.459395  0.747489  1
  S  S5  1  0.050189  0.742576  0.751558  1
  S  S6  1  0.551601  0.958763  0.249761  1
  S  S7  1  0.956032  0.235296  0.251068  1
  S  S8  1  0.229724  0.563470  0.257790  1
  S  S9  1  0.467294  0.040975  0.741043  1
  O  O10  1  0.924341  0.684161  0.923847  1
  O  O11  1  0.483968  0.913649  0.910831  1
  O  O12  1  0.655063  0.993528  0.312545  1
  O  O13  1  0.357442  0.974097  0.365045  1
  O  O14  1  0.004521  0.946737  0.705868  1
  O  O15  1  0.703012  0.647925  0.617558  1
  O  O16  1  0.683366  0.475177  0.919050  1
  O  O17  1  0.650686  0.765859  0.232938  1
  O  O18  1  0.949176  0.345222  0.704726  1
  O  O19  1  0.247954  0.637358  0.757937  1
  O  O20  1  0.638273  0.365976  0.751487  1
  O  O21  1  0.035736  0.695716  0.625549  1
  O  O22  1  0.970619  0.300444  0.365420  1
  O  O23  1  0.343174  0.661717  0.235266  1
  O  O24  1  0.764077  0.345553  0.232602  1
  O  O25  1  0.024152  0.673920  0.318389  1
  O  O26  1  0.381903  0.237086  0.742690  1
  O  O27  1  0.255750  0.554417  0.092967  1
  O  O28  1  0.287410  0.373143  0.379118  1
  O  O29  1  0.989738  0.032616  0.316931  1
  O  O30  1  0.658512  0.024344  0.609464  1
  O  O31  1  0.352873  0.997210  0.696657  1
  O  O32  1  0.546875  0.097592  0.077573  1
  O  O33  1  0.097684  0.267128  0.080657  1
