# generated using pymatgen
data_La2Pr6Cd2RuPt
_symmetry_space_group_name_H-M   'P 1'
_cell_length_a   10.07095207
_cell_length_b   10.07095240
_cell_length_c   10.12603100
_cell_angle_alpha   59.81891628
_cell_angle_beta   59.81891520
_cell_angle_gamma   59.88311138
_symmetry_Int_Tables_number   1
_chemical_formula_structural   La2Pr6Cd2RuPt
_chemical_formula_sum   'La4 Pr12 Cd4 Ru2 Pt2'
_cell_volume   723.58270585
_cell_formula_units_Z   2
loop_
 _symmetry_equiv_pos_site_id
 _symmetry_equiv_pos_as_xyz
  1  'x, y, z'
loop_
 _atom_site_type_symbol
 _atom_site_label
 _atom_site_symmetry_multiplicity
 _atom_site_fract_x
 _atom_site_fract_y
 _atom_site_fract_z
 _atom_site_occupancy
  La  La0  1  0.346096  0.346096  0.355483  1
  La  La1  1  0.346096  0.346096  0.952325  1
  La  La2  1  0.342500  0.958330  0.349585  1
  La  La3  1  0.958330  0.342500  0.349585  1
  Pr  Pr4  1  0.815479  0.189676  0.190020  1
  Pr  Pr5  1  0.189676  0.815479  0.804824  1
  Pr  Pr6  1  0.189676  0.815479  0.190020  1
  Pr  Pr7  1  0.815479  0.189676  0.804824  1
  Pr  Pr8  1  0.188826  0.188826  0.811174  1
  Pr  Pr9  1  0.807104  0.807104  0.192896  1
  Pr  Pr10  1  0.936518  0.559635  0.565381  1
  Pr  Pr11  1  0.559635  0.936518  0.938466  1
  Pr  Pr12  1  0.559635  0.936518  0.565381  1
  Pr  Pr13  1  0.936518  0.559635  0.938466  1
  Pr  Pr14  1  0.562404  0.562404  0.937596  1
  Pr  Pr15  1  0.936818  0.936818  0.563182  1
  Cd  Cd16  1  0.579875  0.579875  0.580061  1
  Cd  Cd17  1  0.579875  0.579875  0.260187  1
  Cd  Cd18  1  0.580813  0.258679  0.580254  1
  Cd  Cd19  1  0.258679  0.580813  0.580254  1
  Ru  Ru20  1  0.145011  0.145011  0.138142  1
  Ru  Ru21  1  0.145011  0.145011  0.571835  1
  Pt  Pt22  1  0.146110  0.573834  0.140028  1
  Pt  Pt23  1  0.573834  0.146110  0.140028  1
