# generated using pymatgen
data_CaEu9(AlSb3)4
_symmetry_space_group_name_H-M   'P 1'
_cell_length_a   4.55750800
_cell_length_b   12.33745743
_cell_length_c   14.46184065
_cell_angle_alpha   89.88646921
_cell_angle_beta   90.00000000
_cell_angle_gamma   90.00000000
_symmetry_Int_Tables_number   1
_chemical_formula_structural   CaEu9(AlSb3)4
_chemical_formula_sum   'Ca1 Eu9 Al4 Sb12'
_cell_volume   813.15966097
_cell_formula_units_Z   1
loop_
 _symmetry_equiv_pos_site_id
 _symmetry_equiv_pos_as_xyz
  1  'x, y, z'
loop_
 _atom_site_type_symbol
 _atom_site_label
 _atom_site_symmetry_multiplicity
 _atom_site_fract_x
 _atom_site_fract_y
 _atom_site_fract_z
 _atom_site_occupancy
  Ca  Ca0  1  0.500000  0.000000  0.500000  1
  Eu  Eu1  1  0.500000  0.088833  0.747366  1
  Eu  Eu2  1  0.500000  0.409545  0.249504  1
  Eu  Eu3  1  0.500000  0.331689  0.519401  1
  Eu  Eu4  1  0.500000  0.911167  0.252634  1
  Eu  Eu5  1  0.500000  0.500000  0.000000  1
  Eu  Eu6  1  0.500000  0.167214  0.018749  1
  Eu  Eu7  1  0.500000  0.832786  0.981251  1
  Eu  Eu8  1  0.500000  0.668311  0.480599  1
  Eu  Eu9  1  0.500000  0.590455  0.750496  1
  Al  Al10  1  0.000000  0.168362  0.214068  1
  Al  Al11  1  0.000000  0.831638  0.785932  1
  Al  Al12  1  0.000000  0.672327  0.288521  1
  Al  Al13  1  0.000000  0.327673  0.711479  1
  Sb  Sb14  1  0.000000  0.844822  0.408110  1
  Sb  Sb15  1  0.000000  0.155178  0.591890  1
  Sb  Sb16  1  0.000000  0.658279  0.905432  1
  Sb  Sb17  1  0.000000  0.341721  0.094568  1
  Sb  Sb18  1  0.500000  0.336008  0.819998  1
  Sb  Sb19  1  0.500000  0.663992  0.180002  1
  Sb  Sb20  1  0.500000  0.837309  0.676702  1
  Sb  Sb21  1  0.500000  0.162691  0.323298  1
  Sb  Sb22  1  0.000000  0.519558  0.601884  1
  Sb  Sb23  1  0.000000  0.480442  0.398116  1
  Sb  Sb24  1  0.000000  0.021099  0.897599  1
  Sb  Sb25  1  0.000000  0.978901  0.102401  1
