# generated using pymatgen
data_Dy13Er3Tl3AgRh4
_symmetry_space_group_name_H-M   'P 1'
_cell_length_a   9.63331218
_cell_length_b   9.63495380
_cell_length_c   9.61863390
_cell_angle_alpha   59.97667645
_cell_angle_beta   59.96100366
_cell_angle_gamma   60.00093856
_symmetry_Int_Tables_number   1
_chemical_formula_structural   Dy13Er3Tl3AgRh4
_chemical_formula_sum   'Dy13 Er3 Tl3 Ag1 Rh4'
_cell_volume   630.98934227
_cell_formula_units_Z   1
loop_
 _symmetry_equiv_pos_site_id
 _symmetry_equiv_pos_as_xyz
  1  'x, y, z'
loop_
 _atom_site_type_symbol
 _atom_site_label
 _atom_site_symmetry_multiplicity
 _atom_site_fract_x
 _atom_site_fract_y
 _atom_site_fract_z
 _atom_site_occupancy
  Dy  Dy0  1  0.937577  0.937573  0.555902  1
  Dy  Dy1  1  0.149297  0.148847  0.551050  1
  Dy  Dy2  1  0.567580  0.938442  0.555658  1
  Dy  Dy3  1  0.151824  0.151236  0.150171  1
  Dy  Dy4  1  0.311212  0.311420  0.689505  1
  Dy  Dy5  1  0.938880  0.566881  0.555579  1
  Dy  Dy6  1  0.562627  0.562519  0.937111  1
  Dy  Dy7  1  0.563289  0.936662  0.935542  1
  Dy  Dy8  1  0.936934  0.562815  0.936087  1
  Dy  Dy9  1  0.148030  0.552080  0.148446  1
  Dy  Dy10  1  0.311964  0.689072  0.689397  1
  Dy  Dy11  1  0.688929  0.312276  0.689103  1
  Dy  Dy12  1  0.550897  0.148105  0.148937  1
  Er  Er13  1  0.688071  0.313153  0.311578  1
  Er  Er14  1  0.687340  0.687181  0.313868  1
  Er  Er15  1  0.312911  0.687920  0.312018  1
  Tl  Tl16  1  0.252681  0.914294  0.920789  1
  Tl  Tl17  1  0.913814  0.252567  0.921276  1
  Tl  Tl18  1  0.913577  0.914213  0.920196  1
  Ag  Ag19  1  0.914481  0.914066  0.255778  1
  Rh  Rh20  1  0.356903  0.357427  0.358066  1
  Rh  Rh21  1  0.926808  0.357732  0.357634  1
  Rh  Rh22  1  0.356740  0.357337  0.928240  1
  Rh  Rh23  1  0.357631  0.926183  0.358069  1
