# generated using pymatgen
data_Rb5Zr(MoH9)3
_symmetry_space_group_name_H-M   'P 1'
_cell_length_a   9.86709398
_cell_length_b   9.43171866
_cell_length_c   5.38827500
_cell_angle_alpha   90.00000000
_cell_angle_beta   90.00000000
_cell_angle_gamma   118.55083420
_symmetry_Int_Tables_number   1
_chemical_formula_structural   Rb5Zr(MoH9)3
_chemical_formula_sum   'Rb5 Zr1 Mo3 H27'
_cell_volume   440.47263142
_cell_formula_units_Z   1
loop_
 _symmetry_equiv_pos_site_id
 _symmetry_equiv_pos_as_xyz
  1  'x, y, z'
loop_
 _atom_site_type_symbol
 _atom_site_label
 _atom_site_symmetry_multiplicity
 _atom_site_fract_x
 _atom_site_fract_y
 _atom_site_fract_z
 _atom_site_occupancy
  Rb  Rb0  1  0.726511  0.744804  0.500000  1
  Rb  Rb1  1  0.273489  0.018294  0.500000  1
  Rb  Rb2  1  0.000000  0.626558  0.000000  1
  Rb  Rb3  1  0.430230  0.385929  0.000000  1
  Rb  Rb4  1  0.569770  0.955700  0.000000  1
  Zr  Zr5  1  0.000000  0.269876  0.500000  1
  Mo  Mo6  1  0.718208  0.323400  0.500000  1
  Mo  Mo7  1  0.281792  0.605193  0.500000  1
  Mo  Mo8  1  0.000000  0.065287  0.000000  1
  H  H9  1  0.875484  0.350445  0.703880  1
  H  H10  1  0.708087  0.410632  0.771807  1
  H  H11  1  0.570769  0.189611  0.696487  1
  H  H12  1  0.124516  0.474961  0.296120  1
  H  H13  1  0.570769  0.189611  0.303513  1
  H  H14  1  0.875484  0.350445  0.296120  1
  H  H15  1  0.708087  0.410632  0.228193  1
  H  H16  1  0.291913  0.702546  0.771807  1
  H  H17  1  0.429231  0.618843  0.696487  1
  H  H18  1  0.171912  0.059519  0.000000  1
  H  H19  1  0.828088  0.887607  0.000000  1
  H  H20  1  0.000000  0.253911  0.000000  1
  H  H21  1  0.877456  0.064317  0.245488  1
  H  H22  1  0.122544  0.186861  0.754512  1
  H  H23  1  0.000000  0.926320  0.785279  1
  H  H24  1  0.000000  0.926320  0.214721  1
  H  H25  1  0.122544  0.186861  0.245488  1
  H  H26  1  0.877456  0.064317  0.754512  1
  H  H27  1  0.165658  0.697081  0.500000  1
  H  H28  1  0.430484  0.805918  0.500000  1
  H  H29  1  0.250728  0.397861  0.500000  1
  H  H30  1  0.569516  0.375434  0.500000  1
  H  H31  1  0.834342  0.531423  0.500000  1
  H  H32  1  0.749272  0.147133  0.500000  1
  H  H33  1  0.124516  0.474961  0.703880  1
  H  H34  1  0.291913  0.702546  0.228193  1
  H  H35  1  0.429231  0.618843  0.303513  1
