# generated using pymatgen
data_Lu8AlZnNi2
_symmetry_space_group_name_H-M   'P 1'
_cell_length_a   9.22388420
_cell_length_b   9.22388374
_cell_length_c   9.21611000
_cell_angle_alpha   60.02788233
_cell_angle_beta   60.02788396
_cell_angle_gamma   60.25186066
_symmetry_Int_Tables_number   1
_chemical_formula_structural   Lu8AlZnNi2
_chemical_formula_sum   'Lu16 Al2 Zn2 Ni4'
_cell_volume   555.72989382
_cell_formula_units_Z   2
loop_
 _symmetry_equiv_pos_site_id
 _symmetry_equiv_pos_as_xyz
  1  'x, y, z'
loop_
 _atom_site_type_symbol
 _atom_site_label
 _atom_site_symmetry_multiplicity
 _atom_site_fract_x
 _atom_site_fract_y
 _atom_site_fract_z
 _atom_site_occupancy
  Lu  Lu0  1  0.599482  0.599482  0.601048  1
  Lu  Lu1  1  0.599482  0.599482  0.199988  1
  Lu  Lu2  1  0.604154  0.195448  0.600199  1
  Lu  Lu3  1  0.195448  0.604154  0.600199  1
  Lu  Lu4  1  0.058549  0.440848  0.441448  1
  Lu  Lu5  1  0.440848  0.058549  0.059156  1
  Lu  Lu6  1  0.440848  0.058549  0.441448  1
  Lu  Lu7  1  0.058549  0.440848  0.059156  1
  Lu  Lu8  1  0.438038  0.438038  0.061962  1
  Lu  Lu9  1  0.058724  0.058724  0.441276  1
  Lu  Lu10  1  0.187013  0.815230  0.813854  1
  Lu  Lu11  1  0.815230  0.187013  0.183903  1
  Lu  Lu12  1  0.815230  0.187013  0.813854  1
  Lu  Lu13  1  0.187013  0.815230  0.183903  1
  Lu  Lu14  1  0.813686  0.813686  0.186314  1
  Lu  Lu15  1  0.188085  0.188085  0.811915  1
  Al  Al16  1  0.828677  0.828677  0.827439  1
  Al  Al17  1  0.828677  0.828677  0.515208  1
  Zn  Zn18  1  0.828904  0.516665  0.827215  1
  Zn  Zn19  1  0.516665  0.828904  0.827215  1
  Ni  Ni20  1  0.390914  0.390914  0.397539  1
  Ni  Ni21  1  0.390914  0.390914  0.820632  1
  Ni  Ni22  1  0.391113  0.823758  0.392564  1
  Ni  Ni23  1  0.823758  0.391113  0.392564  1
