# generated using pymatgen
data_CaLa(GaPt)2
_symmetry_space_group_name_H-M   'P 1'
_cell_length_a   4.48658200
_cell_length_b   7.18228500
_cell_length_c   7.87170400
_cell_angle_alpha   90.00000000
_cell_angle_beta   90.00000000
_cell_angle_gamma   90.00000000
_symmetry_Int_Tables_number   1
_chemical_formula_structural   CaLa(GaPt)2
_chemical_formula_sum   'Ca2 La2 Ga4 Pt4'
_cell_volume   253.65708596
_cell_formula_units_Z   2
loop_
 _symmetry_equiv_pos_site_id
 _symmetry_equiv_pos_as_xyz
  1  'x, y, z'
loop_
 _atom_site_type_symbol
 _atom_site_label
 _atom_site_symmetry_multiplicity
 _atom_site_fract_x
 _atom_site_fract_y
 _atom_site_fract_z
 _atom_site_occupancy
  Ca  Ca0  1  0.250000  0.022928  0.693819  1
  Ca  Ca1  1  0.250000  0.522928  0.806181  1
  La  La2  1  0.750000  0.976362  0.317867  1
  La  La3  1  0.750000  0.476362  0.182133  1
  Ga  Ga4  1  0.250000  0.156063  0.062591  1
  Ga  Ga5  1  0.250000  0.656063  0.437409  1
  Ga  Ga6  1  0.750000  0.844296  0.923138  1
  Ga  Ga7  1  0.750000  0.344296  0.576862  1
  Pt  Pt8  1  0.250000  0.282830  0.388683  1
  Pt  Pt9  1  0.250000  0.782830  0.111317  1
  Pt  Pt10  1  0.750000  0.717521  0.610729  1
  Pt  Pt11  1  0.750000  0.217521  0.889271  1
