# generated using pymatgen
data_Nd3Y(As3Rh5)4
_symmetry_space_group_name_H-M   'P 1'
_cell_length_a   4.03872000
_cell_length_b   12.95166787
_cell_length_c   11.36504479
_cell_angle_alpha   90.04233579
_cell_angle_beta   90.00000000
_cell_angle_gamma   90.00000000
_symmetry_Int_Tables_number   1
_chemical_formula_structural   Nd3Y(As3Rh5)4
_chemical_formula_sum   'Nd3 Y1 As12 Rh20'
_cell_volume   594.48441957
_cell_formula_units_Z   1
loop_
 _symmetry_equiv_pos_site_id
 _symmetry_equiv_pos_as_xyz
  1  'x, y, z'
loop_
 _atom_site_type_symbol
 _atom_site_label
 _atom_site_symmetry_multiplicity
 _atom_site_fract_x
 _atom_site_fract_y
 _atom_site_fract_z
 _atom_site_occupancy
  Nd  Nd0  1  0.750000  0.701663  0.081403  1
  Nd  Nd1  1  0.250000  0.298286  0.918373  1
  Nd  Nd2  1  0.250000  0.797971  0.581337  1
  Y  Y3  1  0.750000  0.200830  0.419480  1
  As  As4  1  0.750000  0.612047  0.582544  1
  As  As5  1  0.250000  0.384303  0.417199  1
  As  As6  1  0.250000  0.887027  0.083242  1
  As  As7  1  0.750000  0.113256  0.917546  1
  As  As8  1  0.750000  0.890122  0.398181  1
  As  As9  1  0.250000  0.110301  0.600361  1
  As  As10  1  0.250000  0.609792  0.898156  1
  As  As11  1  0.750000  0.390185  0.101616  1
  As  As12  1  0.750000  0.870349  0.768406  1
  As  As13  1  0.250000  0.131774  0.233405  1
  As  As14  1  0.250000  0.630164  0.269060  1
  As  As15  1  0.750000  0.370175  0.730811  1
  Rh  Rh16  1  0.750000  0.700022  0.383630  1
  Rh  Rh17  1  0.250000  0.298190  0.614132  1
  Rh  Rh18  1  0.250000  0.799848  0.883287  1
  Rh  Rh19  1  0.750000  0.200593  0.117730  1
  Rh  Rh20  1  0.750000  0.996346  0.222053  1
  Rh  Rh21  1  0.250000  0.005174  0.778067  1
  Rh  Rh22  1  0.250000  0.503877  0.721563  1
  Rh  Rh23  1  0.750000  0.495893  0.278018  1
  Rh  Rh24  1  0.750000  0.675834  0.780324  1
  Rh  Rh25  1  0.250000  0.323912  0.220271  1
  Rh  Rh26  1  0.250000  0.824719  0.281808  1
  Rh  Rh27  1  0.750000  0.176166  0.719013  1
  Rh  Rh28  1  0.750000  0.929800  0.968545  1
  Rh  Rh29  1  0.250000  0.070793  0.033118  1
  Rh  Rh30  1  0.250000  0.569008  0.468100  1
  Rh  Rh31  1  0.750000  0.427475  0.530063  1
  Rh  Rh32  1  0.750000  0.982145  0.589901  1
  Rh  Rh33  1  0.250000  0.021890  0.409070  1
  Rh  Rh34  1  0.250000  0.518161  0.090775  1
  Rh  Rh35  1  0.750000  0.481909  0.909410  1
