# generated using pymatgen
data_Pr3Lu2Tl3Cl
_symmetry_space_group_name_H-M   'P 1'
_cell_length_a   9.47365100
_cell_length_b   9.47365088
_cell_length_c   6.69470200
_cell_angle_alpha   90.00000000
_cell_angle_beta   90.00000000
_cell_angle_gamma   120.00000393
_symmetry_Int_Tables_number   1
_chemical_formula_structural   Pr3Lu2Tl3Cl
_chemical_formula_sum   'Pr6 Lu4 Tl6 Cl2'
_cell_volume   520.35127414
_cell_formula_units_Z   2
loop_
 _symmetry_equiv_pos_site_id
 _symmetry_equiv_pos_as_xyz
  1  'x, y, z'
loop_
 _atom_site_type_symbol
 _atom_site_label
 _atom_site_symmetry_multiplicity
 _atom_site_fract_x
 _atom_site_fract_y
 _atom_site_fract_z
 _atom_site_occupancy
  Pr  Pr0  1  0.736783  0.736783  0.250000  1
  Pr  Pr1  1  0.000000  0.736783  0.750000  1
  Pr  Pr2  1  0.736783  0.000000  0.750000  1
  Pr  Pr3  1  0.263217  0.263217  0.750000  1
  Pr  Pr4  1  0.000000  0.263217  0.250000  1
  Pr  Pr5  1  0.263217  0.000000  0.250000  1
  Lu  Lu6  1  0.333333  0.666667  0.500000  1
  Lu  Lu7  1  0.666667  0.333333  0.500000  1
  Lu  Lu8  1  0.333333  0.666667  0.000000  1
  Lu  Lu9  1  0.666667  0.333333  0.000000  1
  Tl  Tl10  1  0.395813  0.000000  0.750000  1
  Tl  Tl11  1  0.000000  0.604187  0.250000  1
  Tl  Tl12  1  0.604187  0.000000  0.250000  1
  Tl  Tl13  1  0.000000  0.395813  0.750000  1
  Tl  Tl14  1  0.395813  0.395813  0.250000  1
  Tl  Tl15  1  0.604187  0.604187  0.750000  1
  Cl  Cl16  1  0.000000  0.000000  0.500000  1
  Cl  Cl17  1  0.000000  0.000000  0.000000  1
