# generated using pymatgen
data_Ti5As2P
_symmetry_space_group_name_H-M   'P 1'
_cell_length_a   6.63413200
_cell_length_b   7.64104400
_cell_length_c   9.87058400
_cell_angle_alpha   90.00000000
_cell_angle_beta   90.00000000
_cell_angle_gamma   90.00000000
_symmetry_Int_Tables_number   1
_chemical_formula_structural   Ti5As2P
_chemical_formula_sum   'Ti20 As8 P4'
_cell_volume   500.35662880
_cell_formula_units_Z   4
loop_
 _symmetry_equiv_pos_site_id
 _symmetry_equiv_pos_as_xyz
  1  'x, y, z'
loop_
 _atom_site_type_symbol
 _atom_site_label
 _atom_site_symmetry_multiplicity
 _atom_site_fract_x
 _atom_site_fract_y
 _atom_site_fract_z
 _atom_site_occupancy
  Ti  Ti0  1  0.810024  0.549607  0.062368  1
  Ti  Ti1  1  0.689976  0.950393  0.562368  1
  Ti  Ti2  1  0.189976  0.049607  0.937632  1
  Ti  Ti3  1  0.310024  0.450393  0.437632  1
  Ti  Ti4  1  0.189976  0.450393  0.937632  1
  Ti  Ti5  1  0.310024  0.049607  0.437632  1
  Ti  Ti6  1  0.810024  0.950393  0.062368  1
  Ti  Ti7  1  0.689976  0.549607  0.562368  1
  Ti  Ti8  1  0.163052  0.750000  0.222858  1
  Ti  Ti9  1  0.336948  0.750000  0.722858  1
  Ti  Ti10  1  0.836948  0.250000  0.777142  1
  Ti  Ti11  1  0.663052  0.250000  0.277142  1
  Ti  Ti12  1  0.468968  0.750000  0.000472  1
  Ti  Ti13  1  0.031032  0.750000  0.500472  1
  Ti  Ti14  1  0.531032  0.250000  0.999528  1
  Ti  Ti15  1  0.968968  0.250000  0.499528  1
  Ti  Ti16  1  0.644793  0.750000  0.293493  1
  Ti  Ti17  1  0.855207  0.750000  0.793493  1
  Ti  Ti18  1  0.355207  0.250000  0.706507  1
  Ti  Ti19  1  0.144793  0.250000  0.206507  1
  As  As20  1  0.928927  0.509913  0.324679  1
  As  As21  1  0.571073  0.990087  0.824679  1
  As  As22  1  0.071073  0.009913  0.675321  1
  As  As23  1  0.428927  0.490087  0.175321  1
  As  As24  1  0.071073  0.490087  0.675321  1
  As  As25  1  0.428927  0.009913  0.175321  1
  As  As26  1  0.928927  0.990087  0.324679  1
  As  As27  1  0.571073  0.509913  0.824679  1
  P  P28  1  0.414022  0.750000  0.482652  1
  P  P29  1  0.085978  0.750000  0.982652  1
  P  P30  1  0.585978  0.250000  0.517348  1
  P  P31  1  0.914022  0.250000  0.017348  1
