# generated using pymatgen
data_Tb2Er2LuSn4
_symmetry_space_group_name_H-M   'P 1'
_cell_length_a   7.98200100
_cell_length_b   8.12615500
_cell_length_c   15.37326400
_cell_angle_alpha   90.00000000
_cell_angle_beta   90.00000000
_cell_angle_gamma   90.00000000
_symmetry_Int_Tables_number   1
_chemical_formula_structural   Tb2Er2LuSn4
_chemical_formula_sum   'Tb8 Er8 Lu4 Sn16'
_cell_volume   997.15567441
_cell_formula_units_Z   4
loop_
 _symmetry_equiv_pos_site_id
 _symmetry_equiv_pos_as_xyz
  1  'x, y, z'
loop_
 _atom_site_type_symbol
 _atom_site_label
 _atom_site_symmetry_multiplicity
 _atom_site_fract_x
 _atom_site_fract_y
 _atom_site_fract_z
 _atom_site_occupancy
  Tb  Tb0  1  0.520712  0.320257  0.902822  1
  Tb  Tb1  1  0.020712  0.179743  0.597178  1
  Tb  Tb2  1  0.479288  0.679743  0.402822  1
  Tb  Tb3  1  0.979288  0.820257  0.097178  1
  Tb  Tb4  1  0.479288  0.679743  0.097178  1
  Tb  Tb5  1  0.979288  0.820257  0.402822  1
  Tb  Tb6  1  0.520712  0.320257  0.597178  1
  Tb  Tb7  1  0.020712  0.179743  0.902822  1
  Er  Er8  1  0.367122  0.836161  0.877628  1
  Er  Er9  1  0.867122  0.663839  0.622372  1
  Er  Er10  1  0.632878  0.163839  0.377628  1
  Er  Er11  1  0.132878  0.336161  0.122372  1
  Er  Er12  1  0.632878  0.163839  0.122372  1
  Er  Er13  1  0.132878  0.336161  0.377628  1
  Er  Er14  1  0.367122  0.836161  0.622372  1
  Er  Er15  1  0.867122  0.663839  0.877628  1
  Lu  Lu16  1  0.197803  0.503806  0.750000  1
  Lu  Lu17  1  0.697803  0.996194  0.750000  1
  Lu  Lu18  1  0.802197  0.496194  0.250000  1
  Lu  Lu19  1  0.302197  0.003806  0.250000  1
  Sn  Sn20  1  0.294469  0.036703  0.042012  1
  Sn  Sn21  1  0.794469  0.463297  0.457988  1
  Sn  Sn22  1  0.705531  0.963297  0.542012  1
  Sn  Sn23  1  0.205531  0.536703  0.957988  1
  Sn  Sn24  1  0.705531  0.963297  0.957988  1
  Sn  Sn25  1  0.205531  0.536703  0.542012  1
  Sn  Sn26  1  0.294469  0.036703  0.457988  1
  Sn  Sn27  1  0.794469  0.463297  0.042012  1
  Sn  Sn28  1  0.563836  0.620586  0.750000  1
  Sn  Sn29  1  0.063836  0.879414  0.750000  1
  Sn  Sn30  1  0.436164  0.379414  0.250000  1
  Sn  Sn31  1  0.936164  0.120586  0.250000  1
  Sn  Sn32  1  0.329327  0.147185  0.750000  1
  Sn  Sn33  1  0.829327  0.352815  0.750000  1
  Sn  Sn34  1  0.670673  0.852815  0.250000  1
  Sn  Sn35  1  0.170673  0.647185  0.250000  1
