# generated using pymatgen
data_MnSb12Os2Rh
_symmetry_space_group_name_H-M   'P 1'
_cell_length_a   8.15838518
_cell_length_b   8.13590632
_cell_length_c   9.40668516
_cell_angle_alpha   54.65682532
_cell_angle_beta   54.91270356
_cell_angle_gamma   70.48272337
_symmetry_Int_Tables_number   1
_chemical_formula_structural   MnSb12Os2Rh
_chemical_formula_sum   'Mn1 Sb12 Os2 Rh1'
_cell_volume   416.75179347
_cell_formula_units_Z   1
loop_
 _symmetry_equiv_pos_site_id
 _symmetry_equiv_pos_as_xyz
  1  'x, y, z'
loop_
 _atom_site_type_symbol
 _atom_site_label
 _atom_site_symmetry_multiplicity
 _atom_site_fract_x
 _atom_site_fract_y
 _atom_site_fract_z
 _atom_site_occupancy
  Mn  Mn0  1  0.000000  0.500000  0.500000  1
  Sb  Sb1  1  0.656960  0.659866  0.496147  1
  Sb  Sb2  1  0.343040  0.340134  0.503853  1
  Sb  Sb3  1  0.665642  0.664556  0.179583  1
  Sb  Sb4  1  0.334358  0.335444  0.820417  1
  Sb  Sb5  1  0.155010  0.844262  0.662398  1
  Sb  Sb6  1  0.844990  0.155738  0.337602  1
  Sb  Sb7  1  0.842279  0.152022  0.662542  1
  Sb  Sb8  1  0.157721  0.847978  0.337458  1
  Sb  Sb9  1  0.814839  0.493579  0.848006  1
  Sb  Sb10  1  0.185161  0.506421  0.151994  1
  Sb  Sb11  1  0.507752  0.182504  0.154057  1
  Sb  Sb12  1  0.492248  0.817496  0.845943  1
  Os  Os13  1  0.000000  0.500000  0.000000  1
  Os  Os14  1  0.500000  0.000000  0.000000  1
  Rh  Rh15  1  0.500000  0.000000  0.500000  1
