# generated using pymatgen
data_Ni5PtW2
_symmetry_space_group_name_H-M   'P 1'
_cell_length_a   4.30185200
_cell_length_b   4.56133419
_cell_length_c   5.14984506
_cell_angle_alpha   90.45782771
_cell_angle_beta   90.00000000
_cell_angle_gamma   90.00000000
_symmetry_Int_Tables_number   1
_chemical_formula_structural   Ni5PtW2
_chemical_formula_sum   'Ni5 Pt1 W2'
_cell_volume   101.04798432
_cell_formula_units_Z   1
loop_
 _symmetry_equiv_pos_site_id
 _symmetry_equiv_pos_as_xyz
  1  'x, y, z'
loop_
 _atom_site_type_symbol
 _atom_site_label
 _atom_site_symmetry_multiplicity
 _atom_site_fract_x
 _atom_site_fract_y
 _atom_site_fract_z
 _atom_site_occupancy
  Ni  Ni0  1  0.500000  0.158908  0.245790  1
  Ni  Ni1  1  0.000000  0.826555  0.751906  1
  Ni  Ni2  1  0.000000  0.840393  0.254785  1
  Ni  Ni3  1  0.000000  0.346265  0.493294  1
  Ni  Ni4  1  0.500000  0.663193  0.006131  1
  Pt  Pt5  1  0.500000  0.158204  0.749026  1
  W  W6  1  0.500000  0.656179  0.486595  1
  W  W7  1  0.000000  0.350302  0.012475  1
