# generated using pymatgen
data_Y16Cd4Os2PdPt
_symmetry_space_group_name_H-M   'P 1'
_cell_length_a   9.71370919
_cell_length_b   9.70104377
_cell_length_c   9.79180502
_cell_angle_alpha   59.69061180
_cell_angle_beta   59.73413184
_cell_angle_gamma   59.49493004
_symmetry_Int_Tables_number   1
_chemical_formula_structural   Y16Cd4Os2PdPt
_chemical_formula_sum   'Y16 Cd4 Os2 Pd1 Pt1'
_cell_volume   647.11072062
_cell_formula_units_Z   1
loop_
 _symmetry_equiv_pos_site_id
 _symmetry_equiv_pos_as_xyz
  1  'x, y, z'
loop_
 _atom_site_type_symbol
 _atom_site_label
 _atom_site_symmetry_multiplicity
 _atom_site_fract_x
 _atom_site_fract_y
 _atom_site_fract_z
 _atom_site_occupancy
  Y  Y0  1  0.351136  0.348665  0.353520  1
  Y  Y1  1  0.351124  0.348657  0.946697  1
  Y  Y2  1  0.346788  0.954795  0.349197  1
  Y  Y3  1  0.953038  0.345449  0.350746  1
  Y  Y4  1  0.813732  0.187800  0.191685  1
  Y  Y5  1  0.187975  0.815299  0.805438  1
  Y  Y6  1  0.187981  0.815303  0.191273  1
  Y  Y7  1  0.813727  0.187802  0.806775  1
  Y  Y8  1  0.188667  0.188130  0.811606  1
  Y  Y9  1  0.806737  0.809569  0.191838  1
  Y  Y10  1  0.937600  0.557354  0.567182  1
  Y  Y11  1  0.557267  0.937969  0.938297  1
  Y  Y12  1  0.557273  0.937970  0.566452  1
  Y  Y13  1  0.937598  0.557351  0.937862  1
  Y  Y14  1  0.564138  0.562934  0.936453  1
  Y  Y15  1  0.939769  0.939645  0.560285  1
  Cd  Cd16  1  0.580110  0.580104  0.581126  1
  Cd  Cd17  1  0.580093  0.580101  0.258677  1
  Cd  Cd18  1  0.581076  0.255400  0.581776  1
  Cd  Cd19  1  0.255578  0.580996  0.581727  1
  Os  Os20  1  0.144411  0.144595  0.137102  1
  Os  Os21  1  0.144410  0.144608  0.573889  1
  Pd  Pd22  1  0.145418  0.573345  0.140644  1
  Pt  Pt23  1  0.574355  0.146160  0.139757  1
