# generated using pymatgen
data_Ho6Al19Si5Os8
_symmetry_space_group_name_H-M   'P 1'
_cell_length_a   8.69795900
_cell_length_b   8.68392300
_cell_length_c   9.58535800
_cell_angle_alpha   90.00000000
_cell_angle_beta   90.00000000
_cell_angle_gamma   120.05347805
_symmetry_Int_Tables_number   1
_chemical_formula_structural   Ho6Al19Si5Os8
_chemical_formula_sum   'Ho6 Al19 Si5 Os8'
_cell_volume   626.66870134
_cell_formula_units_Z   1
loop_
 _symmetry_equiv_pos_site_id
 _symmetry_equiv_pos_as_xyz
  1  'x, y, z'
loop_
 _atom_site_type_symbol
 _atom_site_label
 _atom_site_symmetry_multiplicity
 _atom_site_fract_x
 _atom_site_fract_y
 _atom_site_fract_z
 _atom_site_occupancy
  Ho  Ho0  1  0.195014  0.390027  0.250000  1
  Ho  Ho1  1  0.805663  0.611326  0.750000  1
  Ho  Ho2  1  0.608105  0.806249  0.250000  1
  Ho  Ho3  1  0.389718  0.195069  0.750000  1
  Ho  Ho4  1  0.198144  0.806249  0.250000  1
  Ho  Ho5  1  0.805351  0.195069  0.750000  1
  Al  Al6  1  0.164545  0.329090  0.578404  1
  Al  Al7  1  0.834863  0.669726  0.421716  1
  Al  Al8  1  0.670094  0.835430  0.577114  1
  Al  Al9  1  0.834863  0.669726  0.078284  1
  Al  Al10  1  0.328880  0.165402  0.421901  1
  Al  Al11  1  0.164545  0.329090  0.921596  1
  Al  Al12  1  0.165336  0.835430  0.577114  1
  Al  Al13  1  0.328880  0.165402  0.078099  1
  Al  Al14  1  0.836522  0.165402  0.421901  1
  Al  Al15  1  0.670094  0.835430  0.922886  1
  Al  Al16  1  0.836522  0.165402  0.078099  1
  Al  Al17  1  0.165336  0.835430  0.922886  1
  Al  Al18  1  0.437130  0.874259  0.750000  1
  Al  Al19  1  0.873082  0.433802  0.250000  1
  Al  Al20  1  0.127345  0.564223  0.750000  1
  Al  Al21  1  0.560719  0.433802  0.250000  1
  Al  Al22  1  0.436879  0.564223  0.750000  1
  Al  Al23  1  0.000001  0.000003  0.250000  1
  Al  Al24  1  0.000423  0.000846  0.750000  1
  Si  Si25  1  0.332606  0.665212  0.037654  1
  Si  Si26  1  0.667164  0.334327  0.961005  1
  Si  Si27  1  0.667164  0.334327  0.538995  1
  Si  Si28  1  0.332606  0.665212  0.462346  1
  Si  Si29  1  0.563773  0.127547  0.250000  1
  Os  Os30  1  0.500720  0.001439  0.006209  1
  Os  Os31  1  0.999015  0.499005  0.000494  1
  Os  Os32  1  0.500720  0.001439  0.493791  1
  Os  Os33  1  0.499990  0.499005  0.000494  1
  Os  Os34  1  0.999015  0.499005  0.499506  1
  Os  Os35  1  0.499990  0.499005  0.499506  1
  Os  Os36  1  0.999592  0.999184  0.000007  1
  Os  Os37  1  0.999592  0.999184  0.499993  1
