# generated using pymatgen
data_TbYLu2(ReB6)2
_symmetry_space_group_name_H-M   'P 1'
_cell_length_a   3.64908000
_cell_length_b   9.11235303
_cell_length_c   11.50385200
_cell_angle_alpha   89.99702666
_cell_angle_beta   90.00000000
_cell_angle_gamma   90.00000000
_symmetry_Int_Tables_number   1
_chemical_formula_structural   TbYLu2(ReB6)2
_chemical_formula_sum   'Tb2 Y2 Lu4 Re4 B24'
_cell_volume   382.52269471
_cell_formula_units_Z   2
loop_
 _symmetry_equiv_pos_site_id
 _symmetry_equiv_pos_as_xyz
  1  'x, y, z'
loop_
 _atom_site_type_symbol
 _atom_site_label
 _atom_site_symmetry_multiplicity
 _atom_site_fract_x
 _atom_site_fract_y
 _atom_site_fract_z
 _atom_site_occupancy
  Tb  Tb0  1  0.000000  0.822918  0.085986  1
  Tb  Tb1  1  0.000000  0.177082  0.914014  1
  Y  Y2  1  0.000000  0.322811  0.414160  1
  Y  Y3  1  0.000000  0.677189  0.585840  1
  Lu  Lu4  1  0.000000  0.943428  0.370254  1
  Lu  Lu5  1  0.000000  0.056572  0.629746  1
  Lu  Lu6  1  0.000000  0.443428  0.129852  1
  Lu  Lu7  1  0.000000  0.556572  0.870148  1
  Re  Re8  1  0.000000  0.639452  0.319722  1
  Re  Re9  1  0.000000  0.360548  0.680278  1
  Re  Re10  1  0.000000  0.139594  0.180376  1
  Re  Re11  1  0.000000  0.860406  0.819624  1
  B  B12  1  0.500000  0.553680  0.432382  1
  B  B13  1  0.500000  0.446320  0.567618  1
  B  B14  1  0.500000  0.053944  0.067685  1
  B  B15  1  0.500000  0.946056  0.932315  1
  B  B16  1  0.500000  0.750947  0.418005  1
  B  B17  1  0.500000  0.249053  0.581995  1
  B  B18  1  0.500000  0.251090  0.081929  1
  B  B19  1  0.500000  0.748910  0.918071  1
  B  B20  1  0.500000  0.793022  0.265268  1
  B  B21  1  0.500000  0.206978  0.734732  1
  B  B22  1  0.500000  0.293157  0.234654  1
  B  B23  1  0.500000  0.706843  0.765346  1
  B  B24  1  0.500000  0.629878  0.184743  1
  B  B25  1  0.500000  0.370122  0.815257  1
  B  B26  1  0.500000  0.129991  0.315295  1
  B  B27  1  0.500000  0.870009  0.684705  1
  B  B28  1  0.500000  0.981975  0.212840  1
  B  B29  1  0.500000  0.018025  0.787160  1
  B  B30  1  0.500000  0.481798  0.287150  1
  B  B31  1  0.500000  0.518202  0.712850  1
  B  B32  1  0.500000  0.597456  0.026990  1
  B  B33  1  0.500000  0.402544  0.973010  1
  B  B34  1  0.500000  0.097781  0.472946  1
  B  B35  1  0.500000  0.902219  0.527054  1
