# generated using pymatgen
data_TbDy2Ag(Pt2O7)2
_symmetry_space_group_name_H-M   'P 1'
_cell_length_a   7.32974968
_cell_length_b   7.33126126
_cell_length_c   7.19533429
_cell_angle_alpha   59.36565162
_cell_angle_beta   59.38009772
_cell_angle_gamma   60.00682754
_symmetry_Int_Tables_number   1
_chemical_formula_structural   TbDy2Ag(Pt2O7)2
_chemical_formula_sum   'Tb1 Dy2 Ag1 Pt4 O14'
_cell_volume   270.79671466
_cell_formula_units_Z   1
loop_
 _symmetry_equiv_pos_site_id
 _symmetry_equiv_pos_as_xyz
  1  'x, y, z'
loop_
 _atom_site_type_symbol
 _atom_site_label
 _atom_site_symmetry_multiplicity
 _atom_site_fract_x
 _atom_site_fract_y
 _atom_site_fract_z
 _atom_site_occupancy
  Tb  Tb0  1  0.125000  0.625000  0.125000  1
  Dy  Dy1  1  0.625000  0.125000  0.125000  1
  Dy  Dy2  1  0.125000  0.125000  0.125000  1
  Ag  Ag3  1  0.125000  0.125000  0.625000  1
  Pt  Pt4  1  0.625000  0.625000  0.625000  1
  Pt  Pt5  1  0.125000  0.625000  0.625000  1
  Pt  Pt6  1  0.625000  0.125000  0.625000  1
  Pt  Pt7  1  0.625000  0.625000  0.125000  1
  O  O8  1  0.293479  0.694964  0.718080  1
  O  O9  1  0.532088  0.965084  0.970740  1
  O  O10  1  0.694797  0.293104  0.718851  1
  O  O11  1  0.293249  0.293104  0.718851  1
  O  O12  1  0.717305  0.718237  0.279338  1
  O  O13  1  0.004282  0.006090  0.985346  1
  O  O14  1  0.285120  0.718237  0.279338  1
  O  O15  1  0.964880  0.531763  0.970662  1
  O  O16  1  0.956751  0.956896  0.531149  1
  O  O17  1  0.532695  0.531763  0.970662  1
  O  O18  1  0.245718  0.243910  0.264654  1
  O  O19  1  0.555203  0.956896  0.531149  1
  O  O20  1  0.717912  0.284916  0.279260  1
  O  O21  1  0.956521  0.555036  0.531920  1
