# generated using pymatgen
data_LiHf2AlIr4
_symmetry_space_group_name_H-M   'P 1'
_cell_length_a   4.48292100
_cell_length_b   6.25294600
_cell_length_c   13.34558900
_cell_angle_alpha   90.00016403
_cell_angle_beta   89.99920452
_cell_angle_gamma   89.99860066
_symmetry_Int_Tables_number   1
_chemical_formula_structural   LiHf2AlIr4
_chemical_formula_sum   'Li3 Hf6 Al3 Ir12'
_cell_volume   374.09638333
_cell_formula_units_Z   3
loop_
 _symmetry_equiv_pos_site_id
 _symmetry_equiv_pos_as_xyz
  1  'x, y, z'
loop_
 _atom_site_type_symbol
 _atom_site_label
 _atom_site_symmetry_multiplicity
 _atom_site_fract_x
 _atom_site_fract_y
 _atom_site_fract_z
 _atom_site_occupancy
  Li  Li0  1  0.499994  0.999910  0.500513  1
  Li  Li1  1  0.000102  0.500091  0.666654  1
  Li  Li2  1  0.500130  0.999906  0.832852  1
  Hf  Hf3  1  0.999978  0.999969  0.994851  1
  Hf  Hf4  1  0.499911  0.500037  0.166666  1
  Hf  Hf5  1  0.999870  0.999970  0.338476  1
  Hf  Hf6  1  0.500011  0.500045  0.505378  1
  Hf  Hf7  1  0.000085  0.999962  0.666670  1
  Hf  Hf8  1  0.500123  0.500046  0.827951  1
  Al  Al9  1  0.999975  0.500057  0.997251  1
  Al  Al10  1  0.499916  0.999945  0.166668  1
  Al  Al11  1  0.999900  0.500054  0.336100  1
  Ir  Ir12  1  0.499974  0.251084  0.001533  1
  Ir  Ir13  1  0.499982  0.748904  0.001528  1
  Ir  Ir14  1  0.999931  0.248823  0.166666  1
  Ir  Ir15  1  0.999882  0.751203  0.166666  1
  Ir  Ir16  1  0.499876  0.251082  0.331796  1
  Ir  Ir17  1  0.499884  0.748906  0.331800  1
  Ir  Ir18  1  0.000015  0.252794  0.499200  1
  Ir  Ir19  1  0.000008  0.747197  0.499196  1
  Ir  Ir20  1  0.500098  0.246237  0.666664  1
  Ir  Ir21  1  0.500090  0.753794  0.666664  1
  Ir  Ir22  1  0.000133  0.252799  0.834124  1
  Ir  Ir23  1  0.000127  0.747192  0.834129  1
