# generated using pymatgen
data_ErMg3P7N12
_symmetry_space_group_name_H-M   'P 1'
_cell_length_a   7.31851702
_cell_length_b   7.31851782
_cell_length_c   7.31851809
_cell_angle_alpha   109.50247698
_cell_angle_beta   109.50247855
_cell_angle_gamma   109.50246199
_symmetry_Int_Tables_number   1
_chemical_formula_structural   ErMg3P7N12
_chemical_formula_sum   'Er1 Mg3 P7 N12'
_cell_volume   301.40048910
_cell_formula_units_Z   1
loop_
 _symmetry_equiv_pos_site_id
 _symmetry_equiv_pos_as_xyz
  1  'x, y, z'
loop_
 _atom_site_type_symbol
 _atom_site_label
 _atom_site_symmetry_multiplicity
 _atom_site_fract_x
 _atom_site_fract_y
 _atom_site_fract_z
 _atom_site_occupancy
  Er  Er0  1  0.334456  0.334456  0.334456  1
  Mg  Mg1  1  0.001015  0.655421  0.001015  1
  Mg  Mg2  1  0.655421  0.001015  0.001015  1
  Mg  Mg3  1  0.001015  0.001015  0.655421  1
  P  P4  1  0.503563  0.250860  0.755357  1
  P  P5  1  0.503563  0.755357  0.250860  1
  P  P6  1  0.755357  0.250860  0.503563  1
  P  P7  1  0.250860  0.503563  0.755357  1
  P  P8  1  0.755357  0.503563  0.250860  1
  P  P9  1  0.250860  0.755357  0.503563  1
  P  P10  1  0.976113  0.976113  0.976113  1
  N  N11  1  0.001922  0.725972  0.433087  1
  N  N12  1  0.280431  0.704552  0.280431  1
  N  N13  1  0.282018  0.571512  0.571512  1
  N  N14  1  0.571512  0.571512  0.282018  1
  N  N15  1  0.571512  0.282018  0.571512  1
  N  N16  1  0.725972  0.001922  0.433087  1
  N  N17  1  0.433087  0.001922  0.725972  1
  N  N18  1  0.725972  0.433087  0.001922  1
  N  N19  1  0.280431  0.280431  0.704552  1
  N  N20  1  0.704552  0.280431  0.280431  1
  N  N21  1  0.001922  0.433087  0.725972  1
  N  N22  1  0.433087  0.725972  0.001922  1
