# generated using pymatgen
data_CeZrCl8
_symmetry_space_group_name_H-M   'P 1'
_cell_length_a   7.94674900
_cell_length_b   6.61544851
_cell_length_c   6.91673873
_cell_angle_alpha   70.71981061
_cell_angle_beta   90.00000000
_cell_angle_gamma   90.00000000
_symmetry_Int_Tables_number   1
_chemical_formula_structural   CeZrCl8
_chemical_formula_sum   'Ce1 Zr1 Cl8'
_cell_volume   343.22833096
_cell_formula_units_Z   1
loop_
 _symmetry_equiv_pos_site_id
 _symmetry_equiv_pos_as_xyz
  1  'x, y, z'
loop_
 _atom_site_type_symbol
 _atom_site_label
 _atom_site_symmetry_multiplicity
 _atom_site_fract_x
 _atom_site_fract_y
 _atom_site_fract_z
 _atom_site_occupancy
  Ce  Ce0  1  0.157670  0.250000  0.000000  1
  Zr  Zr1  1  0.842027  0.750000  0.000000  1
  Cl  Cl2  1  0.651443  0.964946  0.761158  1
  Cl  Cl3  1  0.095712  0.514009  0.216631  1
  Cl  Cl4  1  0.891987  0.509463  0.787343  1
  Cl  Cl5  1  0.361008  0.021984  0.254398  1
  Cl  Cl6  1  0.095712  0.985991  0.783369  1
  Cl  Cl7  1  0.361008  0.478016  0.745602  1
  Cl  Cl8  1  0.651443  0.535054  0.238842  1
  Cl  Cl9  1  0.891987  0.990537  0.212657  1
