# generated using pymatgen
data_Tb12InCo2Ni2Os
_symmetry_space_group_name_H-M   'P 1'
_cell_length_a   8.34946488
_cell_length_b   8.35519431
_cell_length_c   8.34946366
_cell_angle_alpha   111.30137249
_cell_angle_beta   109.61292886
_cell_angle_gamma   107.49404991
_symmetry_Int_Tables_number   1
_chemical_formula_structural   Tb12InCo2Ni2Os
_chemical_formula_sum   'Tb12 In1 Co2 Ni2 Os1'
_cell_volume   448.04301182
_cell_formula_units_Z   1
loop_
 _symmetry_equiv_pos_site_id
 _symmetry_equiv_pos_as_xyz
  1  'x, y, z'
loop_
 _atom_site_type_symbol
 _atom_site_label
 _atom_site_symmetry_multiplicity
 _atom_site_fract_x
 _atom_site_fract_y
 _atom_site_fract_z
 _atom_site_occupancy
  Tb  Tb0  1  0.409433  0.218271  0.191108  1
  Tb  Tb1  1  0.590567  0.781729  0.808892  1
  Tb  Tb2  1  0.027163  0.218271  0.808837  1
  Tb  Tb3  1  0.972837  0.781729  0.191163  1
  Tb  Tb4  1  0.179261  0.285811  0.464925  1
  Tb  Tb5  1  0.820739  0.714189  0.535075  1
  Tb  Tb6  1  0.179114  0.714189  0.893451  1
  Tb  Tb7  1  0.820886  0.285811  0.106549  1
  Tb  Tb8  1  0.315770  0.620805  0.305033  1
  Tb  Tb9  1  0.684230  0.379195  0.694967  1
  Tb  Tb10  1  0.315655  0.010629  0.694973  1
  Tb  Tb11  1  0.684345  0.989371  0.305027  1
  In  In12  1  0.500000  0.500000  0.000000  1
  Co  Co13  1  0.112932  0.612923  0.499991  1
  Co  Co14  1  0.887068  0.387077  0.500009  1
  Ni  Ni15  1  0.369817  0.000000  0.369817  1
  Ni  Ni16  1  0.630183  0.000000  0.630183  1
  Os  Os17  1  0.000000  0.000000  0.000000  1
