# generated using pymatgen
data_Dy3Er5Lu8(Ga3Co)2
_symmetry_space_group_name_H-M   'P 1'
_cell_length_a   9.83376001
_cell_length_b   9.83552569
_cell_length_c   6.91390804
_cell_angle_alpha   89.98863768
_cell_angle_beta   90.00017057
_cell_angle_gamma   119.99932518
_symmetry_Int_Tables_number   1
_chemical_formula_structural   Dy3Er5Lu8(Ga3Co)2
_chemical_formula_sum   'Dy3 Er5 Lu8 Ga6 Co2'
_cell_volume   579.12772286
_cell_formula_units_Z   1
loop_
 _symmetry_equiv_pos_site_id
 _symmetry_equiv_pos_as_xyz
  1  'x, y, z'
loop_
 _atom_site_type_symbol
 _atom_site_label
 _atom_site_symmetry_multiplicity
 _atom_site_fract_x
 _atom_site_fract_y
 _atom_site_fract_z
 _atom_site_occupancy
  Dy  Dy0  1  0.535838  0.071665  0.708422  1
  Dy  Dy1  1  0.000020  0.000029  0.231562  1
  Dy  Dy2  1  0.999994  0.999983  0.731579  1
  Er  Er3  1  0.464002  0.536048  0.208357  1
  Er  Er4  1  0.072000  0.536011  0.208282  1
  Er  Er5  1  0.463928  0.927843  0.208363  1
  Er  Er6  1  0.536016  0.464155  0.708312  1
  Er  Er7  1  0.928140  0.464163  0.708335  1
  Lu  Lu8  1  0.173790  0.825869  0.512456  1
  Lu  Lu9  1  0.652074  0.825872  0.512449  1
  Lu  Lu10  1  0.173989  0.347988  0.512590  1
  Lu  Lu11  1  0.826187  0.174023  0.012747  1
  Lu  Lu12  1  0.347855  0.174037  0.012739  1
  Lu  Lu13  1  0.825966  0.651944  0.012593  1
  Lu  Lu14  1  0.333245  0.666490  0.826028  1
  Lu  Lu15  1  0.666780  0.333548  0.325828  1
  Ga  Ga16  1  0.163769  0.836164  0.956802  1
  Ga  Ga17  1  0.672388  0.836165  0.956799  1
  Ga  Ga18  1  0.163814  0.327621  0.956682  1
  Ga  Ga19  1  0.836360  0.163852  0.456586  1
  Ga  Ga20  1  0.327490  0.163852  0.456598  1
  Ga  Ga21  1  0.836188  0.672374  0.456761  1
  Co  Co22  1  0.333329  0.666644  0.446917  1
  Co  Co23  1  0.666838  0.333660  0.947046  1
