# generated using pymatgen
data_Tm4Co5Mo4P12Rh11
_symmetry_space_group_name_H-M   'P 1'
_cell_length_a   3.82577800
_cell_length_b   10.68131670
_cell_length_c   12.31637459
_cell_angle_alpha   89.84399362
_cell_angle_beta   90.00000000
_cell_angle_gamma   90.00000000
_symmetry_Int_Tables_number   1
_chemical_formula_structural   Tm4Co5Mo4P12Rh11
_chemical_formula_sum   'Tm4 Co5 Mo4 P12 Rh11'
_cell_volume   503.29873229
_cell_formula_units_Z   1
loop_
 _symmetry_equiv_pos_site_id
 _symmetry_equiv_pos_as_xyz
  1  'x, y, z'
loop_
 _atom_site_type_symbol
 _atom_site_label
 _atom_site_symmetry_multiplicity
 _atom_site_fract_x
 _atom_site_fract_y
 _atom_site_fract_z
 _atom_site_occupancy
  Tm  Tm0  1  0.250000  0.580495  0.710083  1
  Tm  Tm1  1  0.250000  0.915962  0.206972  1
  Tm  Tm2  1  0.750000  0.416747  0.291921  1
  Tm  Tm3  1  0.750000  0.086208  0.792755  1
  Co  Co4  1  0.750000  0.386125  0.802566  1
  Co  Co5  1  0.250000  0.464437  0.931997  1
  Co  Co6  1  0.250000  0.035959  0.436627  1
  Co  Co7  1  0.750000  0.535492  0.063426  1
  Co  Co8  1  0.750000  0.965196  0.564346  1
  Mo  Mo9  1  0.250000  0.706248  0.984489  1
  Mo  Mo10  1  0.250000  0.792696  0.486303  1
  Mo  Mo11  1  0.750000  0.294249  0.011224  1
  Mo  Mo12  1  0.750000  0.208365  0.515932  1
  P  P13  1  0.250000  0.423640  0.106474  1
  P  P14  1  0.250000  0.079732  0.609748  1
  P  P15  1  0.750000  0.568575  0.886809  1
  P  P16  1  0.750000  0.922356  0.391423  1
  P  P17  1  0.250000  0.273496  0.869102  1
  P  P18  1  0.250000  0.231973  0.371688  1
  P  P19  1  0.750000  0.730130  0.127294  1
  P  P20  1  0.750000  0.768700  0.629151  1
  P  P21  1  0.250000  0.597910  0.391258  1
  P  P22  1  0.250000  0.901794  0.890336  1
  P  P23  1  0.750000  0.400920  0.617565  1
  P  P24  1  0.750000  0.099604  0.108450  1
  Rh  Rh25  1  0.250000  0.405446  0.485488  1
  Rh  Rh26  1  0.250000  0.096417  0.983331  1
  Rh  Rh27  1  0.750000  0.593433  0.517593  1
  Rh  Rh28  1  0.750000  0.905580  0.014299  1
  Rh  Rh29  1  0.250000  0.229302  0.179765  1
  Rh  Rh30  1  0.250000  0.275681  0.682317  1
  Rh  Rh31  1  0.750000  0.768053  0.819191  1
  Rh  Rh32  1  0.750000  0.728542  0.319763  1
  Rh  Rh33  1  0.250000  0.891789  0.700132  1
  Rh  Rh34  1  0.250000  0.609256  0.199813  1
  Rh  Rh35  1  0.750000  0.109493  0.300371  1
