# generated using pymatgen
data_Lu20GaBi8Te3
_symmetry_space_group_name_H-M   'P 1'
_cell_length_a   7.99205413
_cell_length_b   9.22162300
_cell_length_c   11.75616200
_cell_angle_alpha   90.00000000
_cell_angle_beta   90.38575030
_cell_angle_gamma   90.00000000
_symmetry_Int_Tables_number   1
_chemical_formula_structural   Lu20GaBi8Te3
_chemical_formula_sum   'Lu20 Ga1 Bi8 Te3'
_cell_volume   866.40609579
_cell_formula_units_Z   1
loop_
 _symmetry_equiv_pos_site_id
 _symmetry_equiv_pos_as_xyz
  1  'x, y, z'
loop_
 _atom_site_type_symbol
 _atom_site_label
 _atom_site_symmetry_multiplicity
 _atom_site_fract_x
 _atom_site_fract_y
 _atom_site_fract_z
 _atom_site_occupancy
  Lu  Lu0  1  0.354827  0.750000  0.207471  1
  Lu  Lu1  1  0.855016  0.750000  0.284475  1
  Lu  Lu2  1  0.647668  0.250000  0.783586  1
  Lu  Lu3  1  0.144940  0.250000  0.716840  1
  Lu  Lu4  1  0.682998  0.571045  0.055601  1
  Lu  Lu5  1  0.190800  0.934268  0.440340  1
  Lu  Lu6  1  0.310919  0.053930  0.940388  1
  Lu  Lu7  1  0.810610  0.433871  0.559073  1
  Lu  Lu8  1  0.310919  0.446070  0.940388  1
  Lu  Lu9  1  0.810610  0.066129  0.559073  1
  Lu  Lu10  1  0.682998  0.928955  0.055601  1
  Lu  Lu11  1  0.190800  0.565732  0.440340  1
  Lu  Lu12  1  0.476824  0.250000  0.488067  1
  Lu  Lu13  1  0.980581  0.250000  0.009799  1
  Lu  Lu14  1  0.524464  0.750000  0.510656  1
  Lu  Lu15  1  0.034404  0.750000  0.991420  1
  Lu  Lu16  1  0.322179  0.250000  0.214786  1
  Lu  Lu17  1  0.820182  0.250000  0.285420  1
  Lu  Lu18  1  0.665677  0.750000  0.793338  1
  Lu  Lu19  1  0.183897  0.750000  0.720112  1
  Ga  Ga20  1  0.405316  0.750000  0.962648  1
  Bi  Bi21  1  0.568392  0.996361  0.324307  1
  Bi  Bi22  1  0.065954  0.501157  0.176847  1
  Bi  Bi23  1  0.431715  0.495678  0.673336  1
  Bi  Bi24  1  0.930596  0.000946  0.825012  1
  Bi  Bi25  1  0.431715  0.004322  0.673336  1
  Bi  Bi26  1  0.930596  0.499054  0.825012  1
  Bi  Bi27  1  0.568392  0.503639  0.324307  1
  Bi  Bi28  1  0.065954  0.998843  0.176847  1
  Te  Te29  1  0.905104  0.750000  0.541107  1
  Te  Te30  1  0.597754  0.250000  0.040186  1
  Te  Te31  1  0.097202  0.250000  0.460278  1
