# generated using pymatgen
data_Tm4MnAl(CrB8)2
_symmetry_space_group_name_H-M   'P 1'
_cell_length_a   3.42302000
_cell_length_b   5.89198526
_cell_length_c   11.38533533
_cell_angle_alpha   90.08449515
_cell_angle_beta   90.00000000
_cell_angle_gamma   90.00000000
_symmetry_Int_Tables_number   1
_chemical_formula_structural   Tm4MnAl(CrB8)2
_chemical_formula_sum   'Tm4 Mn1 Al1 Cr2 B16'
_cell_volume   229.62355803
_cell_formula_units_Z   1
loop_
 _symmetry_equiv_pos_site_id
 _symmetry_equiv_pos_as_xyz
  1  'x, y, z'
loop_
 _atom_site_type_symbol
 _atom_site_label
 _atom_site_symmetry_multiplicity
 _atom_site_fract_x
 _atom_site_fract_y
 _atom_site_fract_z
 _atom_site_occupancy
  Tm  Tm0  1  0.500000  0.376874  0.151772  1
  Tm  Tm1  1  0.500000  0.628011  0.851354  1
  Tm  Tm2  1  0.500000  0.123332  0.648579  1
  Tm  Tm3  1  0.500000  0.873831  0.346614  1
  Mn  Mn4  1  0.500000  0.872936  0.084754  1
  Al  Al5  1  0.500000  0.131380  0.914842  1
  Cr  Cr6  1  0.500000  0.374766  0.418181  1
  Cr  Cr7  1  0.500000  0.624812  0.580526  1
  B  B8  1  0.000000  0.111145  0.050298  1
  B  B9  1  0.000000  0.881591  0.955308  1
  B  B10  1  0.000000  0.385769  0.547294  1
  B  B11  1  0.000000  0.613982  0.452790  1
  B  B12  1  0.000000  0.135492  0.467369  1
  B  B13  1  0.000000  0.863881  0.532282  1
  B  B14  1  0.000000  0.366085  0.969121  1
  B  B15  1  0.000000  0.637210  0.032991  1
  B  B16  1  0.000000  0.021455  0.191695  1
  B  B17  1  0.000000  0.973686  0.806586  1
  B  B18  1  0.000000  0.476202  0.692541  1
  B  B19  1  0.000000  0.523561  0.307528  1
  B  B20  1  0.000000  0.215718  0.315125  1
  B  B21  1  0.000000  0.784368  0.685197  1
  B  B22  1  0.000000  0.286653  0.813658  1
  B  B23  1  0.000000  0.717260  0.183597  1
