# generated using pymatgen
data_DyHo19(OsPd2)4
_symmetry_space_group_name_H-M   'P 1'
_cell_length_a   10.82043800
_cell_length_b   10.81977511
_cell_length_c   6.39386000
_cell_angle_alpha   90.00322494
_cell_angle_beta   90.00153030
_cell_angle_gamma   90.00736062
_symmetry_Int_Tables_number   1
_chemical_formula_structural   DyHo19(OsPd2)4
_chemical_formula_sum   'Dy1 Ho19 Os4 Pd8'
_cell_volume   748.55927051
_cell_formula_units_Z   1
loop_
 _symmetry_equiv_pos_site_id
 _symmetry_equiv_pos_as_xyz
  1  'x, y, z'
loop_
 _atom_site_type_symbol
 _atom_site_label
 _atom_site_symmetry_multiplicity
 _atom_site_fract_x
 _atom_site_fract_y
 _atom_site_fract_z
 _atom_site_occupancy
  Dy  Dy0  1  0.296177  0.085606  0.366678  1
  Ho  Ho1  1  0.296644  0.914399  0.867484  1
  Ho  Ho2  1  0.703401  0.085447  0.867550  1
  Ho  Ho3  1  0.703382  0.914559  0.367621  1
  Ho  Ho4  1  0.585455  0.796533  0.867492  1
  Ho  Ho5  1  0.585649  0.203446  0.367594  1
  Ho  Ho6  1  0.414632  0.796441  0.367594  1
  Ho  Ho7  1  0.414704  0.203484  0.867447  1
  Ho  Ho8  1  0.203426  0.414647  0.632536  1
  Ho  Ho9  1  0.203487  0.585406  0.132396  1
  Ho  Ho10  1  0.796590  0.414611  0.132457  1
  Ho  Ho11  1  0.796640  0.585366  0.632459  1
  Ho  Ho12  1  0.914601  0.703363  0.132609  1
  Ho  Ho13  1  0.914597  0.296572  0.632500  1
  Ho  Ho14  1  0.085415  0.703404  0.632530  1
  Ho  Ho15  1  0.085231  0.296737  0.132335  1
  Ho  Ho16  1  0.999799  0.999913  0.500237  1
  Ho  Ho17  1  0.999910  0.999937  0.000126  1
  Ho  Ho18  1  0.500097  0.500037  0.999944  1
  Ho  Ho19  1  0.500071  0.500002  0.500067  1
  Os  Os20  1  0.500204  0.999915  0.120884  1
  Os  Os21  1  0.500138  0.999932  0.621146  1
  Os  Os22  1  0.999985  0.500015  0.878930  1
  Os  Os23  1  0.999992  0.500044  0.378962  1
  Pd  Pd24  1  0.846548  0.153632  0.250133  1
  Pd  Pd25  1  0.846420  0.846341  0.750029  1
  Pd  Pd26  1  0.153519  0.153628  0.750873  1
  Pd  Pd27  1  0.153425  0.846153  0.249782  1
  Pd  Pd28  1  0.653496  0.346351  0.749980  1
  Pd  Pd29  1  0.653597  0.653560  0.250015  1
  Pd  Pd30  1  0.346407  0.346935  0.249599  1
  Pd  Pd31  1  0.346360  0.653581  0.750012  1
