# generated using pymatgen
data_YZn3P7N12
_symmetry_space_group_name_H-M   'P 1'
_cell_length_a   7.26071412
_cell_length_b   7.27839201
_cell_length_c   7.26071569
_cell_angle_alpha   109.52054574
_cell_angle_beta   109.42185674
_cell_angle_gamma   109.52054231
_symmetry_Int_Tables_number   1
_chemical_formula_structural   YZn3P7N12
_chemical_formula_sum   'Y1 Zn3 P7 N12'
_cell_volume   295.19403130
_cell_formula_units_Z   1
loop_
 _symmetry_equiv_pos_site_id
 _symmetry_equiv_pos_as_xyz
  1  'x, y, z'
loop_
 _atom_site_type_symbol
 _atom_site_label
 _atom_site_symmetry_multiplicity
 _atom_site_fract_x
 _atom_site_fract_y
 _atom_site_fract_z
 _atom_site_occupancy
  Y  Y0  1  0.000000  0.323069  0.000000  1
  Zn  Zn1  1  0.668000  0.666373  0.668000  1
  Zn  Zn2  1  0.332000  0.998373  0.000000  1
  Zn  Zn3  1  0.000000  0.998373  0.332000  1
  P  P4  1  0.746237  0.252161  0.494046  1
  P  P5  1  0.252191  0.758115  0.505954  1
  P  P6  1  0.505954  0.758115  0.252191  1
  P  P7  1  0.494046  0.252161  0.746237  1
  P  P8  1  0.747809  0.505924  0.253763  1
  P  P9  1  0.253763  0.505924  0.747809  1
  P  P10  1  0.000000  0.955341  0.000000  1
  N  N11  1  0.569159  0.278046  0.000000  1
  N  N12  1  0.437451  0.440343  0.708505  1
  N  N13  1  0.000000  0.278046  0.569159  1
  N  N14  1  0.271054  0.002892  0.562549  1
  N  N15  1  0.708505  0.440343  0.437451  1
  N  N16  1  0.000000  0.566689  0.289117  1
  N  N17  1  0.562549  0.002892  0.271054  1
  N  N18  1  0.430841  0.708887  0.430841  1
  N  N19  1  0.289117  0.566689  0.000000  1
  N  N20  1  0.710883  0.277572  0.710883  1
  N  N21  1  0.728946  0.731838  0.291495  1
  N  N22  1  0.291495  0.731838  0.728946  1
