# generated using pymatgen
data_Li8TbHo7Sn7Bi
_symmetry_space_group_name_H-M   'P 1'
_cell_length_a   9.40783401
_cell_length_b   9.40788205
_cell_length_c   7.25386300
_cell_angle_alpha   90.08917698
_cell_angle_beta   89.99996908
_cell_angle_gamma   119.99408235
_symmetry_Int_Tables_number   1
_chemical_formula_structural   Li8TbHo7Sn7Bi
_chemical_formula_sum   'Li8 Tb1 Ho7 Sn7 Bi1'
_cell_volume   556.04083081
_cell_formula_units_Z   1
loop_
 _symmetry_equiv_pos_site_id
 _symmetry_equiv_pos_as_xyz
  1  'x, y, z'
loop_
 _atom_site_type_symbol
 _atom_site_label
 _atom_site_symmetry_multiplicity
 _atom_site_fract_x
 _atom_site_fract_y
 _atom_site_fract_z
 _atom_site_occupancy
  Li  Li0  1  0.166579  0.333243  0.284639  1
  Li  Li1  1  0.167886  0.833556  0.288342  1
  Li  Li2  1  0.665610  0.833596  0.288285  1
  Li  Li3  1  0.833420  0.666712  0.786970  1
  Li  Li4  1  0.829204  0.164843  0.791288  1
  Li  Li5  1  0.335685  0.164812  0.791242  1
  Li  Li6  1  0.335257  0.670523  0.669699  1
  Li  Li7  1  0.666039  0.332114  0.171799  1
  Tb  Tb8  1  0.512592  0.025085  0.493776  1
  Ho  Ho9  1  0.517191  0.490879  0.490912  1
  Ho  Ho10  1  0.973775  0.490875  0.490832  1
  Ho  Ho11  1  0.487389  0.974849  0.994605  1
  Ho  Ho12  1  0.493447  0.514493  0.996584  1
  Ho  Ho13  1  0.020945  0.514459  0.996521  1
  Ho  Ho14  1  0.997257  0.994557  0.497118  1
  Ho  Ho15  1  0.997731  0.995437  0.002478  1
  Sn  Sn16  1  0.166393  0.832799  0.730619  1
  Sn  Sn17  1  0.666466  0.832820  0.730519  1
  Sn  Sn18  1  0.833138  0.666374  0.231195  1
  Sn  Sn19  1  0.834182  0.167574  0.229937  1
  Sn  Sn20  1  0.333356  0.167539  0.229963  1
  Sn  Sn21  1  0.332488  0.665019  0.260482  1
  Sn  Sn22  1  0.667189  0.334354  0.761519  1
  Bi  Bi23  1  0.166782  0.333487  0.732646  1
