# generated using pymatgen
data_Nd7Sm(GaI6)2
_symmetry_space_group_name_H-M   'P 1'
_cell_length_a   4.40496500
_cell_length_b   14.54019242
_cell_length_c   15.30656500
_cell_angle_alpha   90.43983621
_cell_angle_beta   90.00000000
_cell_angle_gamma   90.00000000
_symmetry_Int_Tables_number   1
_chemical_formula_structural   Nd7Sm(GaI6)2
_chemical_formula_sum   'Nd7 Sm1 Ga2 I12'
_cell_volume   980.34188793
_cell_formula_units_Z   1
loop_
 _symmetry_equiv_pos_site_id
 _symmetry_equiv_pos_as_xyz
  1  'x, y, z'
loop_
 _atom_site_type_symbol
 _atom_site_label
 _atom_site_symmetry_multiplicity
 _atom_site_fract_x
 _atom_site_fract_y
 _atom_site_fract_z
 _atom_site_occupancy
  Nd  Nd0  1  0.500000  0.116015  0.344211  1
  Nd  Nd1  1  0.500000  0.885312  0.656601  1
  Nd  Nd2  1  0.500000  0.615474  0.156343  1
  Nd  Nd3  1  0.000000  0.117110  0.578663  1
  Nd  Nd4  1  0.000000  0.884413  0.422892  1
  Nd  Nd5  1  0.000000  0.615493  0.921863  1
  Nd  Nd6  1  0.000000  0.383232  0.076459  1
  Sm  Sm7  1  0.500000  0.384682  0.843780  1
  Ga  Ga8  1  0.500000  0.001035  0.500682  1
  Ga  Ga9  1  0.500000  0.499392  0.999112  1
  I  I10  1  0.500000  0.244831  0.162709  1
  I  I11  1  0.500000  0.753589  0.835499  1
  I  I12  1  0.500000  0.745364  0.336590  1
  I  I13  1  0.500000  0.255286  0.666428  1
  I  I14  1  0.000000  0.258139  0.415153  1
  I  I15  1  0.000000  0.743046  0.585854  1
  I  I16  1  0.000000  0.756900  0.086257  1
  I  I17  1  0.000000  0.244600  0.909971  1
  I  I18  1  0.000000  0.997678  0.241187  1
  I  I19  1  0.000000  0.002878  0.760158  1
  I  I20  1  0.000000  0.497988  0.258504  1
  I  I21  1  0.000000  0.497542  0.741087  1
