# generated using pymatgen
data_TmLu5Ru2
_symmetry_space_group_name_H-M   'P 1'
_cell_length_a   6.17182400
_cell_length_b   7.22506400
_cell_length_c   8.90527100
_cell_angle_alpha   90.00000000
_cell_angle_beta   90.00000000
_cell_angle_gamma   90.00000000
_symmetry_Int_Tables_number   1
_chemical_formula_structural   TmLu5Ru2
_chemical_formula_sum   'Tm2 Lu10 Ru4'
_cell_volume   397.10227173
_cell_formula_units_Z   2
loop_
 _symmetry_equiv_pos_site_id
 _symmetry_equiv_pos_as_xyz
  1  'x, y, z'
loop_
 _atom_site_type_symbol
 _atom_site_label
 _atom_site_symmetry_multiplicity
 _atom_site_fract_x
 _atom_site_fract_y
 _atom_site_fract_z
 _atom_site_occupancy
  Tm  Tm0  1  0.869768  0.540861  0.250000  1
  Tm  Tm1  1  0.630232  0.040861  0.250000  1
  Lu  Lu2  1  0.332243  0.676098  0.062833  1
  Lu  Lu3  1  0.167757  0.176098  0.437167  1
  Lu  Lu4  1  0.667763  0.323741  0.563658  1
  Lu  Lu5  1  0.832237  0.823741  0.936342  1
  Lu  Lu6  1  0.667763  0.323741  0.936342  1
  Lu  Lu7  1  0.832237  0.823741  0.563658  1
  Lu  Lu8  1  0.332243  0.676098  0.437167  1
  Lu  Lu9  1  0.167757  0.176098  0.062833  1
  Lu  Lu10  1  0.130231  0.459028  0.750000  1
  Lu  Lu11  1  0.369769  0.959028  0.750000  1
  Ru  Ru12  1  0.038544  0.885894  0.250000  1
  Ru  Ru13  1  0.461456  0.385894  0.250000  1
  Ru  Ru14  1  0.963548  0.114538  0.750000  1
  Ru  Ru15  1  0.536452  0.614538  0.750000  1
