# generated using pymatgen
data_NdDy(Cu3Ni2)2
_symmetry_space_group_name_H-M   'P 1'
_cell_length_a   4.04649000
_cell_length_b   4.96081400
_cell_length_c   8.63505100
_cell_angle_alpha   90.00000000
_cell_angle_beta   90.00000000
_cell_angle_gamma   90.00000000
_symmetry_Int_Tables_number   1
_chemical_formula_structural   NdDy(Cu3Ni2)2
_chemical_formula_sum   'Nd1 Dy1 Cu6 Ni4'
_cell_volume   173.33901421
_cell_formula_units_Z   1
loop_
 _symmetry_equiv_pos_site_id
 _symmetry_equiv_pos_as_xyz
  1  'x, y, z'
loop_
 _atom_site_type_symbol
 _atom_site_label
 _atom_site_symmetry_multiplicity
 _atom_site_fract_x
 _atom_site_fract_y
 _atom_site_fract_z
 _atom_site_occupancy
  Nd  Nd0  1  0.000000  0.500000  0.505703  1
  Dy  Dy1  1  0.000000  0.000000  0.994123  1
  Cu  Cu2  1  0.000000  0.000000  0.327228  1
  Cu  Cu3  1  0.500000  0.000000  0.500893  1
  Cu  Cu4  1  0.500000  0.250068  0.244338  1
  Cu  Cu5  1  0.500000  0.751155  0.755616  1
  Cu  Cu6  1  0.500000  0.749932  0.244338  1
  Cu  Cu7  1  0.500000  0.248845  0.755616  1
  Ni  Ni8  1  0.000000  0.500000  0.841694  1
  Ni  Ni9  1  0.000000  0.500000  0.160421  1
  Ni  Ni10  1  0.000000  0.000000  0.669621  1
  Ni  Ni11  1  0.500000  0.500000  0.000407  1
