# generated using pymatgen
data_Nd6P13IrRh19
_symmetry_space_group_name_H-M   'P 1'
_cell_length_a   13.45131700
_cell_length_b   13.45131741
_cell_length_c   3.98057100
_cell_angle_alpha   90.00000000
_cell_angle_beta   90.00000000
_cell_angle_gamma   119.99999653
_symmetry_Int_Tables_number   1
_chemical_formula_structural   Nd6P13IrRh19
_chemical_formula_sum   'Nd6 P13 Ir1 Rh19'
_cell_volume   623.74295013
_cell_formula_units_Z   1
loop_
 _symmetry_equiv_pos_site_id
 _symmetry_equiv_pos_as_xyz
  1  'x, y, z'
loop_
 _atom_site_type_symbol
 _atom_site_label
 _atom_site_symmetry_multiplicity
 _atom_site_fract_x
 _atom_site_fract_y
 _atom_site_fract_z
 _atom_site_occupancy
  Nd  Nd0  1  0.530532  0.717377  0.247341  1
  Nd  Nd1  1  0.282623  0.813154  0.247341  1
  Nd  Nd2  1  0.186846  0.469468  0.247341  1
  Nd  Nd3  1  0.469817  0.282456  0.752831  1
  Nd  Nd4  1  0.717544  0.187361  0.752831  1
  Nd  Nd5  1  0.812639  0.530183  0.752831  1
  P  P6  1  0.522218  0.135788  0.250743  1
  P  P7  1  0.864212  0.386431  0.250743  1
  P  P8  1  0.613569  0.477782  0.250743  1
  P  P9  1  0.947628  0.718303  0.255245  1
  P  P10  1  0.281697  0.229324  0.255245  1
  P  P11  1  0.770676  0.052372  0.255245  1
  P  P12  1  0.385634  0.522808  0.748971  1
  P  P13  1  0.477192  0.862825  0.748971  1
  P  P14  1  0.137175  0.614366  0.748971  1
  P  P15  1  0.718827  0.771277  0.744732  1
  P  P16  1  0.228723  0.947549  0.744732  1
  P  P17  1  0.052451  0.281173  0.744732  1
  P  P18  1  0.000000  0.000000  0.001964  1
  Ir  Ir19  1  0.333333  0.666667  0.750849  1
  Rh  Rh20  1  0.923562  0.249177  0.255884  1
  Rh  Rh21  1  0.750823  0.674386  0.255884  1
  Rh  Rh22  1  0.325614  0.076438  0.255884  1
  Rh  Rh23  1  0.439266  0.024463  0.751865  1
  Rh  Rh24  1  0.975537  0.414804  0.751865  1
  Rh  Rh25  1  0.585196  0.560734  0.751865  1
  Rh  Rh26  1  0.666667  0.333333  0.248369  1
  Rh  Rh27  1  0.093414  0.185102  0.245748  1
  Rh  Rh28  1  0.814898  0.908313  0.245748  1
  Rh  Rh29  1  0.091687  0.906586  0.245748  1
  Rh  Rh30  1  0.024507  0.585061  0.247969  1
  Rh  Rh31  1  0.414939  0.439446  0.247969  1
  Rh  Rh32  1  0.560554  0.975493  0.247969  1
  Rh  Rh33  1  0.674117  0.923719  0.743967  1
  Rh  Rh34  1  0.076281  0.750398  0.743967  1
  Rh  Rh35  1  0.249602  0.325883  0.743967  1
  Rh  Rh36  1  0.906959  0.815390  0.754312  1
  Rh  Rh37  1  0.184610  0.091568  0.754312  1
  Rh  Rh38  1  0.908432  0.093041  0.754312  1
