# generated using pymatgen
data_NdGd5PdI10
_symmetry_space_group_name_H-M   'P 1'
_cell_length_a   7.77153714
_cell_length_b   9.75319366
_cell_length_c   9.79444100
_cell_angle_alpha   107.81664409
_cell_angle_beta   97.31168204
_cell_angle_gamma   105.19101765
_symmetry_Int_Tables_number   1
_chemical_formula_structural   NdGd5PdI10
_chemical_formula_sum   'Nd1 Gd5 Pd1 I10'
_cell_volume   664.47754009
_cell_formula_units_Z   1
loop_
 _symmetry_equiv_pos_site_id
 _symmetry_equiv_pos_as_xyz
  1  'x, y, z'
loop_
 _atom_site_type_symbol
 _atom_site_label
 _atom_site_symmetry_multiplicity
 _atom_site_fract_x
 _atom_site_fract_y
 _atom_site_fract_z
 _atom_site_occupancy
  Nd  Nd0  1  0.361637  0.133196  0.175255  1
  Gd  Gd1  1  0.642074  0.868208  0.826266  1
  Gd  Gd2  1  0.878982  0.958148  0.245027  1
  Gd  Gd3  1  0.117408  0.040669  0.754507  1
  Gd  Gd4  1  0.027485  0.704268  0.908174  1
  Gd  Gd5  1  0.969604  0.294465  0.090595  1
  Pd  Pd6  1  0.999612  0.999434  0.999795  1
  I  I7  1  0.911268  0.626937  0.180503  1
  I  I8  1  0.088354  0.372842  0.819192  1
  I  I9  1  0.261493  0.086342  0.468622  1
  I  I10  1  0.734855  0.911697  0.533382  1
  I  I11  1  0.451742  0.810098  0.087954  1
  I  I12  1  0.549116  0.185743  0.906529  1
  I  I13  1  0.360034  0.467667  0.277857  1
  I  I14  1  0.636388  0.536858  0.721652  1
  I  I15  1  0.795775  0.268226  0.360113  1
  I  I16  1  0.214174  0.735201  0.644577  1
