# generated using pymatgen
data_Tb5InAu4
_symmetry_space_group_name_H-M   'P 1'
_cell_length_a   8.12476900
_cell_length_b   8.12476900
_cell_length_c   3.77370600
_cell_angle_alpha   90.00000000
_cell_angle_beta   90.00000000
_cell_angle_gamma   90.00000000
_symmetry_Int_Tables_number   1
_chemical_formula_structural   Tb5InAu4
_chemical_formula_sum   'Tb5 In1 Au4'
_cell_volume   249.10939481
_cell_formula_units_Z   1
loop_
 _symmetry_equiv_pos_site_id
 _symmetry_equiv_pos_as_xyz
  1  'x, y, z'
loop_
 _atom_site_type_symbol
 _atom_site_label
 _atom_site_symmetry_multiplicity
 _atom_site_fract_x
 _atom_site_fract_y
 _atom_site_fract_z
 _atom_site_occupancy
  Tb  Tb0  1  0.685951  0.141529  0.500000  1
  Tb  Tb1  1  0.314049  0.858471  0.500000  1
  Tb  Tb2  1  0.141529  0.314049  0.500000  1
  Tb  Tb3  1  0.858471  0.685951  0.500000  1
  Tb  Tb4  1  0.500000  0.500000  0.000000  1
  In  In5  1  0.000000  0.000000  0.000000  1
  Au  Au6  1  0.144283  0.618645  0.000000  1
  Au  Au7  1  0.855717  0.381355  0.000000  1
  Au  Au8  1  0.618645  0.855717  0.000000  1
  Au  Au9  1  0.381355  0.144283  0.000000  1
