# generated using pymatgen
data_ScV2B2Ru5
_symmetry_space_group_name_H-M   'P 1'
_cell_length_a   9.27193101
_cell_length_b   9.27193064
_cell_length_c   2.97992000
_cell_angle_alpha   90.00000000
_cell_angle_beta   90.00000000
_cell_angle_gamma   90.02431628
_symmetry_Int_Tables_number   1
_chemical_formula_structural   ScV2B2Ru5
_chemical_formula_sum   'Sc2 V4 B4 Ru10'
_cell_volume   256.17982924
_cell_formula_units_Z   2
loop_
 _symmetry_equiv_pos_site_id
 _symmetry_equiv_pos_as_xyz
  1  'x, y, z'
loop_
 _atom_site_type_symbol
 _atom_site_label
 _atom_site_symmetry_multiplicity
 _atom_site_fract_x
 _atom_site_fract_y
 _atom_site_fract_z
 _atom_site_occupancy
  Sc  Sc0  1  0.175504  0.175504  0.000000  1
  Sc  Sc1  1  0.824496  0.824496  0.000000  1
  V  V2  1  0.500000  0.000000  0.000000  1
  V  V3  1  0.000000  0.500000  0.000000  1
  V  V4  1  0.676102  0.323898  0.000000  1
  V  V5  1  0.323898  0.676102  0.000000  1
  B  B6  1  0.375837  0.375837  0.000000  1
  B  B7  1  0.624163  0.624163  0.000000  1
  B  B8  1  0.876683  0.123317  0.000000  1
  B  B9  1  0.123317  0.876683  0.000000  1
  Ru  Ru10  1  0.500000  0.500000  0.500000  1
  Ru  Ru11  1  0.000000  0.000000  0.500000  1
  Ru  Ru12  1  0.438727  0.216089  0.500000  1
  Ru  Ru13  1  0.561273  0.783911  0.500000  1
  Ru  Ru14  1  0.920512  0.290483  0.500000  1
  Ru  Ru15  1  0.079488  0.709517  0.500000  1
  Ru  Ru16  1  0.709517  0.079488  0.500000  1
  Ru  Ru17  1  0.290483  0.920512  0.500000  1
  Ru  Ru18  1  0.783911  0.561273  0.500000  1
  Ru  Ru19  1  0.216089  0.438727  0.500000  1
