# generated using pymatgen
data_Pr4Cr3GeF28
_symmetry_space_group_name_H-M   'P 1'
_cell_length_a   5.60041813
_cell_length_b   9.08327994
_cell_length_c   12.11216685
_cell_angle_alpha   62.16825794
_cell_angle_beta   90.02484479
_cell_angle_gamma   90.01548469
_symmetry_Int_Tables_number   1
_chemical_formula_structural   Pr4Cr3GeF28
_chemical_formula_sum   'Pr4 Cr3 Ge1 F28'
_cell_volume   544.87340423
_cell_formula_units_Z   1
loop_
 _symmetry_equiv_pos_site_id
 _symmetry_equiv_pos_as_xyz
  1  'x, y, z'
loop_
 _atom_site_type_symbol
 _atom_site_label
 _atom_site_symmetry_multiplicity
 _atom_site_fract_x
 _atom_site_fract_y
 _atom_site_fract_z
 _atom_site_occupancy
  Pr  Pr0  1  0.760401  0.804930  0.766372  1
  Pr  Pr1  1  0.259338  0.193103  0.734760  1
  Pr  Pr2  1  0.240757  0.193622  0.233917  1
  Pr  Pr3  1  0.740094  0.808164  0.264363  1
  Cr  Cr4  1  0.255323  0.726697  0.542204  1
  Cr  Cr5  1  0.244676  0.726449  0.042621  1
  Cr  Cr6  1  0.744617  0.273475  0.457486  1
  Ge  Ge7  1  0.755767  0.273280  0.957577  1
  F  F8  1  0.428110  0.709025  0.922091  1
  F  F9  1  0.930203  0.291108  0.578550  1
  F  F10  1  0.574000  0.291623  0.075771  1
  F  F11  1  0.070210  0.708554  0.421966  1
  F  F12  1  0.462117  0.281205  0.538524  1
  F  F13  1  0.960743  0.718453  0.961686  1
  F  F14  1  0.537890  0.718747  0.461656  1
  F  F15  1  0.033137  0.282230  0.036241  1
  F  F16  1  0.767037  0.500465  0.866815  1
  F  F17  1  0.267987  0.496617  0.634535  1
  F  F18  1  0.231883  0.496953  0.134100  1
  F  F19  1  0.732011  0.502889  0.365883  1
  F  F20  1  0.759007  0.046753  0.045094  1
  F  F21  1  0.259067  0.955039  0.454601  1
  F  F22  1  0.241720  0.954741  0.954750  1
  F  F23  1  0.741163  0.045357  0.545255  1
  F  F24  1  0.978556  0.729388  0.627373  1
  F  F25  1  0.484838  0.270893  0.873215  1
  F  F26  1  0.021477  0.270729  0.372390  1
  F  F27  1  0.522599  0.728911  0.127834  1
  F  F28  1  0.063323  0.740546  0.166861  1
  F  F29  1  0.561580  0.258753  0.332789  1
  F  F30  1  0.935489  0.259709  0.835279  1
  F  F31  1  0.437885  0.741294  0.667021  1
  F  F32  1  0.399473  0.966522  0.227607  1
  F  F33  1  0.901663  0.033966  0.273106  1
  F  F34  1  0.597624  0.032570  0.772753  1
  F  F35  1  0.098234  0.967240  0.726953  1
