# generated using pymatgen
data_Dy3HoTc8
_symmetry_space_group_name_H-M   'P 1'
_cell_length_a   5.37360100
_cell_length_b   5.37359990
_cell_length_c   8.89764700
_cell_angle_alpha   90.00000000
_cell_angle_beta   90.00000000
_cell_angle_gamma   120.00000059
_symmetry_Int_Tables_number   1
_chemical_formula_structural   Dy3HoTc8
_chemical_formula_sum   'Dy3 Ho1 Tc8'
_cell_volume   222.50334517
_cell_formula_units_Z   1
loop_
 _symmetry_equiv_pos_site_id
 _symmetry_equiv_pos_as_xyz
  1  'x, y, z'
loop_
 _atom_site_type_symbol
 _atom_site_label
 _atom_site_symmetry_multiplicity
 _atom_site_fract_x
 _atom_site_fract_y
 _atom_site_fract_z
 _atom_site_occupancy
  Dy  Dy0  1  0.333333  0.666667  0.436258  1
  Dy  Dy1  1  0.666667  0.333333  0.563723  1
  Dy  Dy2  1  0.666667  0.333333  0.936310  1
  Ho  Ho3  1  0.333333  0.666667  0.063758  1
  Tc  Tc4  1  0.000000  0.000000  0.499952  1
  Tc  Tc5  1  0.000000  0.000000  0.000015  1
  Tc  Tc6  1  0.828444  0.171556  0.249908  1
  Tc  Tc7  1  0.828444  0.656887  0.249908  1
  Tc  Tc8  1  0.343113  0.171556  0.249908  1
  Tc  Tc9  1  0.171563  0.828437  0.750087  1
  Tc  Tc10  1  0.171563  0.343127  0.750087  1
  Tc  Tc11  1  0.656873  0.828437  0.750087  1
