# generated using pymatgen
data_NdY2ZnGa7Ag3
_symmetry_space_group_name_H-M   'P 1'
_cell_length_a   4.34795458
_cell_length_b   8.39853696
_cell_length_c   8.39475663
_cell_angle_alpha   70.12923950
_cell_angle_beta   74.99112523
_cell_angle_gamma   74.99805592
_symmetry_Int_Tables_number   1
_chemical_formula_structural   NdY2ZnGa7Ag3
_chemical_formula_sum   'Nd1 Y2 Zn1 Ga7 Ag3'
_cell_volume   273.49215920
_cell_formula_units_Z   1
loop_
 _symmetry_equiv_pos_site_id
 _symmetry_equiv_pos_as_xyz
  1  'x, y, z'
loop_
 _atom_site_type_symbol
 _atom_site_label
 _atom_site_symmetry_multiplicity
 _atom_site_fract_x
 _atom_site_fract_y
 _atom_site_fract_z
 _atom_site_occupancy
  Nd  Nd0  1  0.999441  0.000126  0.000992  1
  Y  Y1  1  0.300805  0.697092  0.701300  1
  Y  Y2  1  0.700102  0.300453  0.299342  1
  Zn  Zn3  1  0.338249  0.295458  0.028043  1
  Ga  Ga4  1  0.660983  0.706996  0.971038  1
  Ga  Ga5  1  0.340264  0.033288  0.286185  1
  Ga  Ga6  1  0.660083  0.971245  0.708588  1
  Ga  Ga7  1  0.145130  0.572288  0.137452  1
  Ga  Ga8  1  0.857106  0.419718  0.866068  1
  Ga  Ga9  1  0.143908  0.138272  0.573913  1
  Ga  Ga10  1  0.856007  0.862419  0.425565  1
  Ag  Ag11  1  0.499467  0.305095  0.695971  1
  Ag  Ag12  1  0.499348  0.696614  0.304690  1
  Ag  Ag13  1  0.999106  0.500936  0.500852  1
