# generated using pymatgen
data_LiInPbO4
_symmetry_space_group_name_H-M   'P 1'
_cell_length_a   6.47163567
_cell_length_b   6.52877043
_cell_length_c   6.52905317
_cell_angle_alpha   90.19311813
_cell_angle_beta   60.28760145
_cell_angle_gamma   119.70806764
_symmetry_Int_Tables_number   1
_chemical_formula_structural   LiInPbO4
_chemical_formula_sum   'Li2 In2 Pb2 O8'
_cell_volume   197.07965960
_cell_formula_units_Z   2
loop_
 _symmetry_equiv_pos_site_id
 _symmetry_equiv_pos_as_xyz
  1  'x, y, z'
loop_
 _atom_site_type_symbol
 _atom_site_label
 _atom_site_symmetry_multiplicity
 _atom_site_fract_x
 _atom_site_fract_y
 _atom_site_fract_z
 _atom_site_occupancy
  Li  Li0  1  0.249982  0.114909  0.114909  1
  Li  Li1  1  0.750018  0.885091  0.885091  1
  In  In2  1  0.000000  0.500000  0.500000  1
  In  In3  1  0.500000  0.500000  0.500000  1
  Pb  Pb4  1  0.500000  0.000000  0.500000  1
  Pb  Pb5  1  0.000000  0.500000  0.000000  1
  O  O6  1  0.515496  0.257667  0.257666  1
  O  O7  1  0.984513  0.257662  0.257662  1
  O  O8  1  0.015487  0.742338  0.742338  1
  O  O9  1  0.484504  0.742333  0.742334  1
  O  O10  1  0.521503  0.259720  0.716709  1
  O  O11  1  0.978494  0.716708  0.259718  1
  O  O12  1  0.478497  0.740280  0.283291  1
  O  O13  1  0.021506  0.283292  0.740282  1
