# generated using pymatgen
data_Y3Mg2ZnGe2Au
_symmetry_space_group_name_H-M   'P 1'
_cell_length_a   7.12868500
_cell_length_b   7.16858371
_cell_length_c   4.35804500
_cell_angle_alpha   90.00000000
_cell_angle_beta   90.00000000
_cell_angle_gamma   119.81605125
_symmetry_Int_Tables_number   1
_chemical_formula_structural   Y3Mg2ZnGe2Au
_chemical_formula_sum   'Y3 Mg2 Zn1 Ge2 Au1'
_cell_volume   193.22670630
_cell_formula_units_Z   1
loop_
 _symmetry_equiv_pos_site_id
 _symmetry_equiv_pos_as_xyz
  1  'x, y, z'
loop_
 _atom_site_type_symbol
 _atom_site_label
 _atom_site_symmetry_multiplicity
 _atom_site_fract_x
 _atom_site_fract_y
 _atom_site_fract_z
 _atom_site_occupancy
  Y  Y0  1  0.574098  0.000000  0.000000  1
  Y  Y1  1  0.002943  0.585570  0.000000  1
  Y  Y2  1  0.417373  0.414430  0.000000  1
  Mg  Mg3  1  0.002657  0.240696  0.500000  1
  Mg  Mg4  1  0.761961  0.759304  0.500000  1
  Zn  Zn5  1  0.246887  0.000000  0.500000  1
  Ge  Ge6  1  0.332037  0.670023  0.500000  1
  Ge  Ge7  1  0.662015  0.329977  0.500000  1
  Au  Au8  1  0.000029  0.000000  0.000000  1
