# generated using pymatgen
data_La2AgC2
_symmetry_space_group_name_H-M   'P 1'
_cell_length_a   7.79320639
_cell_length_b   7.79320689
_cell_length_c   7.07515833
_cell_angle_alpha   100.60522684
_cell_angle_beta   100.60522718
_cell_angle_gamma   32.47625718
_symmetry_Int_Tables_number   1
_chemical_formula_structural   La2AgC2
_chemical_formula_sum   'La4 Ag2 C4'
_cell_volume   226.45048590
_cell_formula_units_Z   2
loop_
 _symmetry_equiv_pos_site_id
 _symmetry_equiv_pos_as_xyz
  1  'x, y, z'
loop_
 _atom_site_type_symbol
 _atom_site_label
 _atom_site_symmetry_multiplicity
 _atom_site_fract_x
 _atom_site_fract_y
 _atom_site_fract_z
 _atom_site_occupancy
  La  La0  1  0.833493  0.469779  0.143151  1
  La  La1  1  0.530221  0.166507  0.356850  1
  La  La2  1  0.469779  0.833493  0.643151  1
  La  La3  1  0.166507  0.530221  0.856850  1
  Ag  Ag4  1  0.169980  0.830021  0.250000  1
  Ag  Ag5  1  0.830021  0.169980  0.750000  1
  C  C6  1  0.358127  0.093788  0.025779  1
  C  C7  1  0.906212  0.641872  0.474221  1
  C  C8  1  0.093788  0.358127  0.525779  1
  C  C9  1  0.641873  0.906212  0.974221  1
