# generated using pymatgen
data_HoCr(ReO4)6
_symmetry_space_group_name_H-M   'P 1'
_cell_length_a   10.59388400
_cell_length_b   10.59388292
_cell_length_c   5.75105000
_cell_angle_alpha   90.00000000
_cell_angle_beta   90.00000000
_cell_angle_gamma   119.99999172
_symmetry_Int_Tables_number   1
_chemical_formula_structural   HoCr(ReO4)6
_chemical_formula_sum   'Ho1 Cr1 Re6 O24'
_cell_volume   558.96960576
_cell_formula_units_Z   1
loop_
 _symmetry_equiv_pos_site_id
 _symmetry_equiv_pos_as_xyz
  1  'x, y, z'
loop_
 _atom_site_type_symbol
 _atom_site_label
 _atom_site_symmetry_multiplicity
 _atom_site_fract_x
 _atom_site_fract_y
 _atom_site_fract_z
 _atom_site_occupancy
  Ho  Ho0  1  0.666667  0.333333  0.750000  1
  Cr  Cr1  1  0.333333  0.666667  0.250000  1
  Re  Re2  1  0.115375  0.419246  0.750000  1
  Re  Re3  1  0.391119  0.287962  0.250000  1
  Re  Re4  1  0.580754  0.696128  0.750000  1
  Re  Re5  1  0.896842  0.608881  0.250000  1
  Re  Re6  1  0.303872  0.884625  0.750000  1
  Re  Re7  1  0.712038  0.103158  0.250000  1
  O  O8  1  0.468500  0.646839  0.496272  1
  O  O9  1  0.353161  0.821660  0.496272  1
  O  O10  1  0.827119  0.725388  0.250000  1
  O  O11  1  0.118704  0.820059  0.750000  1
  O  O12  1  0.274612  0.101731  0.250000  1
  O  O13  1  0.179941  0.298645  0.750000  1
  O  O14  1  0.506049  0.341568  0.002259  1
  O  O15  1  0.898269  0.172881  0.250000  1
  O  O16  1  0.085627  0.711194  0.250000  1
  O  O17  1  0.178340  0.531500  0.003728  1
  O  O18  1  0.178340  0.531500  0.496272  1
  O  O19  1  0.925944  0.320190  0.750000  1
  O  O20  1  0.288806  0.374434  0.250000  1
  O  O21  1  0.679810  0.605753  0.750000  1
  O  O22  1  0.835519  0.493951  0.497741  1
  O  O23  1  0.394247  0.074056  0.750000  1
  O  O24  1  0.658432  0.164481  0.002259  1
  O  O25  1  0.468500  0.646839  0.003728  1
  O  O26  1  0.353161  0.821660  0.003728  1
  O  O27  1  0.658432  0.164481  0.497741  1
  O  O28  1  0.506049  0.341568  0.497741  1
  O  O29  1  0.835519  0.493951  0.002259  1
  O  O30  1  0.701355  0.881296  0.750000  1
  O  O31  1  0.625566  0.914373  0.250000  1
