# generated using pymatgen
data_Tb6Al23V(CoOs3)2
_symmetry_space_group_name_H-M   'P 1'
_cell_length_a   8.82023400
_cell_length_b   8.82023375
_cell_length_c   9.44596300
_cell_angle_alpha   90.00000000
_cell_angle_beta   90.00000000
_cell_angle_gamma   119.99999344
_symmetry_Int_Tables_number   1
_chemical_formula_structural   Tb6Al23V(CoOs3)2
_chemical_formula_sum   'Tb6 Al23 V1 Co2 Os6'
_cell_volume   636.41015710
_cell_formula_units_Z   1
loop_
 _symmetry_equiv_pos_site_id
 _symmetry_equiv_pos_as_xyz
  1  'x, y, z'
loop_
 _atom_site_type_symbol
 _atom_site_label
 _atom_site_symmetry_multiplicity
 _atom_site_fract_x
 _atom_site_fract_y
 _atom_site_fract_z
 _atom_site_occupancy
  Tb  Tb0  1  0.195564  0.391127  0.248814  1
  Tb  Tb1  1  0.806189  0.612378  0.749070  1
  Tb  Tb2  1  0.608873  0.804436  0.248814  1
  Tb  Tb3  1  0.387622  0.193811  0.749070  1
  Tb  Tb4  1  0.195564  0.804436  0.248814  1
  Tb  Tb5  1  0.806189  0.193811  0.749070  1
  Al  Al6  1  0.666667  0.333333  0.984145  1
  Al  Al7  1  0.666667  0.333333  0.516631  1
  Al  Al8  1  0.333333  0.666667  0.485147  1
  Al  Al9  1  0.159013  0.318025  0.575329  1
  Al  Al10  1  0.840650  0.681299  0.424782  1
  Al  Al11  1  0.681975  0.840987  0.575329  1
  Al  Al12  1  0.840075  0.680150  0.075877  1
  Al  Al13  1  0.318701  0.159350  0.424782  1
  Al  Al14  1  0.157109  0.314217  0.925990  1
  Al  Al15  1  0.159013  0.840987  0.575329  1
  Al  Al16  1  0.319850  0.159925  0.075877  1
  Al  Al17  1  0.840650  0.159350  0.424782  1
  Al  Al18  1  0.685783  0.842891  0.925990  1
  Al  Al19  1  0.840075  0.159925  0.075877  1
  Al  Al20  1  0.157109  0.842891  0.925990  1
  Al  Al21  1  0.561244  0.122488  0.252643  1
  Al  Al22  1  0.440735  0.881471  0.750096  1
  Al  Al23  1  0.877512  0.438756  0.252643  1
  Al  Al24  1  0.118529  0.559265  0.750096  1
  Al  Al25  1  0.561244  0.438756  0.252643  1
  Al  Al26  1  0.440735  0.559265  0.750096  1
  Al  Al27  1  0.000000  0.000000  0.250289  1
  Al  Al28  1  0.000000  0.000000  0.749089  1
  V  V29  1  0.333333  0.666667  0.983517  1
  Co  Co30  1  0.000000  0.000000  0.000616  1
  Co  Co31  1  0.000000  0.000000  0.499103  1
  Os  Os32  1  0.494925  0.989850  0.005449  1
  Os  Os33  1  0.010150  0.505075  0.005449  1
  Os  Os34  1  0.499731  0.999463  0.502435  1
  Os  Os35  1  0.494925  0.505075  0.005449  1
  Os  Os36  1  0.000537  0.500269  0.502435  1
  Os  Os37  1  0.499731  0.500269  0.502435  1
