# generated using pymatgen
data_Sr12Mn5Co(PO4)12
_symmetry_space_group_name_H-M   'P 1'
_cell_length_a   10.20295212
_cell_length_b   9.26158147
_cell_length_c   11.97634589
_cell_angle_alpha   82.19467020
_cell_angle_beta   89.84961057
_cell_angle_gamma   89.96703852
_symmetry_Int_Tables_number   1
_chemical_formula_structural   Sr12Mn5Co(PO4)12
_chemical_formula_sum   'Sr12 Mn5 Co1 P12 O48'
_cell_volume   1121.22151261
_cell_formula_units_Z   1
loop_
 _symmetry_equiv_pos_site_id
 _symmetry_equiv_pos_as_xyz
  1  'x, y, z'
loop_
 _atom_site_type_symbol
 _atom_site_label
 _atom_site_symmetry_multiplicity
 _atom_site_fract_x
 _atom_site_fract_y
 _atom_site_fract_z
 _atom_site_occupancy
  Sr  Sr0  1  0.646937  0.667633  0.847596  1
  Sr  Sr1  1  0.228989  0.330345  0.810066  1
  Sr  Sr2  1  0.354771  0.333179  0.150693  1
  Sr  Sr3  1  0.854713  0.165767  0.847800  1
  Sr  Sr4  1  0.109489  0.698447  0.503176  1
  Sr  Sr5  1  0.729666  0.169338  0.189816  1
  Sr  Sr6  1  0.270195  0.829682  0.810769  1
  Sr  Sr7  1  0.888344  0.301767  0.498184  1
  Sr  Sr8  1  0.769798  0.670265  0.189051  1
  Sr  Sr9  1  0.613877  0.802350  0.497489  1
  Sr  Sr10  1  0.388636  0.196471  0.503036  1
  Sr  Sr11  1  0.144272  0.832975  0.149905  1
  Mn  Mn12  1  0.611056  0.371354  0.676090  1
  Mn  Mn13  1  0.388305  0.629475  0.324262  1
  Mn  Mn14  1  0.110444  0.129465  0.323667  1
  Mn  Mn15  1  0.500551  0.999890  0.999790  1
  Mn  Mn16  1  0.999798  0.499921  0.000729  1
  Co  Co17  1  0.890042  0.870694  0.675440  1
  P  P18  1  0.391864  0.563758  0.627451  1
  P  P19  1  0.927867  0.795191  0.956081  1
  P  P20  1  0.072717  0.205568  0.041040  1
  P  P21  1  0.573108  0.294816  0.958772  1
  P  P22  1  0.892928  0.936486  0.374886  1
  P  P23  1  0.103388  0.060063  0.628686  1
  P  P24  1  0.427450  0.705243  0.041024  1
  P  P25  1  0.070016  0.512620  0.288253  1
  P  P26  1  0.428920  0.011941  0.287918  1
  P  P27  1  0.575374  0.987878  0.711884  1
  P  P28  1  0.607473  0.436123  0.372360  1
  P  P29  1  0.929407  0.491211  0.711898  1
  O  O30  1  0.318723  0.120348  0.315343  1
  O  O31  1  0.083643  0.131484  0.933869  1
  O  O32  1  0.129323  0.359185  0.289949  1
  O  O33  1  0.862829  0.862725  0.497267  1
  O  O34  1  0.840328  0.651901  0.977879  1
  O  O35  1  0.958787  0.099871  0.657497  1
  O  O36  1  0.570471  0.759101  0.058837  1
  O  O37  1  0.686776  0.880966  0.683882  1
  O  O38  1  0.961985  0.521702  0.377654  1
  O  O39  1  0.583871  0.369100  0.065849  1
  O  O40  1  0.818508  0.383981  0.684734  1
  O  O41  1  0.160012  0.349115  0.020652  1
  O  O42  1  0.878032  0.892051  0.849095  1
  O  O43  1  0.536724  0.021054  0.377025  1
  O  O44  1  0.374231  0.606843  0.146048  1
  O  O45  1  0.929580  0.259225  0.059068  1
  O  O46  1  0.180325  0.620616  0.314901  1
  O  O47  1  0.206589  0.105971  0.710700  1
  O  O48  1  0.037951  0.478904  0.623311  1
  O  O49  1  0.914732  0.872264  0.061714  1
  O  O50  1  0.102444  0.888480  0.639370  1
  O  O51  1  0.467390  0.978202  0.622821  1
  O  O52  1  0.608337  0.607559  0.363087  1
  O  O53  1  0.890693  0.107841  0.363604  1
  O  O54  1  0.429879  0.240980  0.941381  1
  O  O55  1  0.417136  0.630741  0.934169  1
  O  O56  1  0.463560  0.395296  0.343335  1
  O  O57  1  0.625542  0.393610  0.853864  1
  O  O58  1  0.136669  0.134822  0.507484  1
  O  O59  1  0.071600  0.740538  0.941761  1
  O  O60  1  0.036474  0.896254  0.343673  1
  O  O61  1  0.125380  0.106538  0.145762  1
  O  O62  1  0.639246  0.360854  0.493620  1
  O  O63  1  0.359583  0.638706  0.506384  1
  O  O64  1  0.013318  0.572346  0.169612  1
  O  O65  1  0.369167  0.858940  0.289519  1
  O  O66  1  0.710581  0.390634  0.289692  1
  O  O67  1  0.632892  0.141862  0.710578  1
  O  O68  1  0.985040  0.431128  0.830713  1
  O  O69  1  0.535860  0.604616  0.656411  1
  O  O70  1  0.789325  0.887859  0.294374  1
  O  O71  1  0.518221  0.927213  0.830313  1
  O  O72  1  0.340246  0.849033  0.020289  1
  O  O73  1  0.660401  0.151187  0.978999  1
  O  O74  1  0.391096  0.392097  0.636869  1
  O  O75  1  0.485795  0.071626  0.169313  1
  O  O76  1  0.289168  0.609141  0.710467  1
  O  O77  1  0.871137  0.645575  0.709452  1
