# generated using pymatgen
data_Yb2HoPa(Al8Pt3)3
_symmetry_space_group_name_H-M   'P 1'
_cell_length_a   7.54143708
_cell_length_b   7.55717388
_cell_length_c   13.18857686
_cell_angle_alpha   84.55904455
_cell_angle_beta   79.07094163
_cell_angle_gamma   59.95825072
_symmetry_Int_Tables_number   1
_chemical_formula_structural   Yb2HoPa(Al8Pt3)3
_chemical_formula_sum   'Yb2 Ho1 Pa1 Al24 Pt9'
_cell_volume   638.86631068
_cell_formula_units_Z   1
loop_
 _symmetry_equiv_pos_site_id
 _symmetry_equiv_pos_as_xyz
  1  'x, y, z'
loop_
 _atom_site_type_symbol
 _atom_site_label
 _atom_site_symmetry_multiplicity
 _atom_site_fract_x
 _atom_site_fract_y
 _atom_site_fract_z
 _atom_site_occupancy
  Yb  Yb0  1  0.606000  0.831359  0.192527  1
  Yb  Yb1  1  0.733777  0.499130  0.807747  1
  Ho  Ho2  1  0.266571  0.501087  0.192423  1
  Pa  Pa3  1  0.395377  0.167714  0.804958  1
  Al  Al4  1  0.684293  0.833114  0.945235  1
  Al  Al5  1  0.315517  0.166249  0.055331  1
  Al  Al6  1  0.146928  0.832302  0.560860  1
  Al  Al7  1  0.854152  0.167637  0.438700  1
  Al  Al8  1  0.480131  0.166523  0.557932  1
  Al  Al9  1  0.520639  0.831867  0.441095  1
  Al  Al10  1  0.217656  0.164799  0.330041  1
  Al  Al11  1  0.785742  0.831283  0.670092  1
  Al  Al12  1  0.438047  0.509456  0.670177  1
  Al  Al13  1  0.562752  0.494144  0.329229  1
  Al  Al14  1  0.106430  0.160294  0.668646  1
  Al  Al15  1  0.889848  0.839918  0.330638  1
  Al  Al16  1  0.353072  0.499637  0.944485  1
  Al  Al17  1  0.647535  0.500533  0.055035  1
  Al  Al18  1  0.014933  0.168074  0.953519  1
  Al  Al19  1  0.984179  0.832490  0.047008  1
  Al  Al20  1  0.185664  0.500255  0.441643  1
  Al  Al21  1  0.813174  0.500983  0.558805  1
  Al  Al22  1  0.733413  0.165587  0.183208  1
  Al  Al23  1  0.262199  0.839509  0.817587  1
  Al  Al24  1  0.064059  0.630922  0.816270  1
  Al  Al25  1  0.939830  0.368768  0.184133  1
  Al  Al26  1  0.854581  0.039130  0.817037  1
  Al  Al27  1  0.144006  0.957569  0.183409  1
  Pt  Pt28  1  0.121175  0.490862  0.639783  1
  Pt  Pt29  1  0.880771  0.507240  0.361665  1
  Pt  Pt30  1  0.657085  0.171810  0.999231  1
  Pt  Pt31  1  0.342948  0.828239  0.999275  1
  Pt  Pt32  1  0.537485  0.166969  0.362209  1
  Pt  Pt33  1  0.461585  0.834560  0.639593  1
  Pt  Pt34  1  0.777473  0.174824  0.638231  1
  Pt  Pt35  1  0.220437  0.825260  0.363107  1
  Pt  Pt36  1  0.000538  0.499905  0.999139  1
