# generated using pymatgen
data_NaNp7H24
_symmetry_space_group_name_H-M   'P 1'
_cell_length_a   6.64580700
_cell_length_b   6.58888400
_cell_length_c   6.58888400
_cell_angle_alpha   90.00000000
_cell_angle_beta   90.00000000
_cell_angle_gamma   90.00000000
_symmetry_Int_Tables_number   1
_chemical_formula_structural   NaNp7H24
_chemical_formula_sum   'Na1 Np7 H24'
_cell_volume   288.51702688
_cell_formula_units_Z   1
loop_
 _symmetry_equiv_pos_site_id
 _symmetry_equiv_pos_as_xyz
  1  'x, y, z'
loop_
 _atom_site_type_symbol
 _atom_site_label
 _atom_site_symmetry_multiplicity
 _atom_site_fract_x
 _atom_site_fract_y
 _atom_site_fract_z
 _atom_site_occupancy
  Na  Na0  1  0.250000  0.000000  0.500000  1
  Np  Np1  1  0.999426  0.000000  0.000000  1
  Np  Np2  1  0.500574  0.500000  0.500000  1
  Np  Np3  1  0.750000  0.000000  0.500000  1
  Np  Np4  1  0.000142  0.500000  0.253190  1
  Np  Np5  1  0.000142  0.500000  0.746810  1
  Np  Np6  1  0.499858  0.753190  0.000000  1
  Np  Np7  1  0.499858  0.246810  0.000000  1
  H  H8  1  0.982072  0.158847  0.295398  1
  H  H9  1  0.517928  0.204602  0.658847  1
  H  H10  1  0.517928  0.795398  0.341153  1
  H  H11  1  0.805470  0.654002  0.500000  1
  H  H12  1  0.191122  0.646515  0.500000  1
  H  H13  1  0.343370  0.500000  0.803360  1
  H  H14  1  0.654361  0.500000  0.805267  1
  H  H15  1  0.308878  0.000000  0.146515  1
  H  H16  1  0.156630  0.303360  0.000000  1
  H  H17  1  0.845639  0.694733  0.000000  1
  H  H18  1  0.308878  0.000000  0.853485  1
  H  H19  1  0.845639  0.305267  0.000000  1
  H  H20  1  0.694530  0.000000  0.154002  1
  H  H21  1  0.694530  0.000000  0.845998  1
  H  H22  1  0.156630  0.696640  0.000000  1
  H  H23  1  0.982072  0.841153  0.704602  1
  H  H24  1  0.982072  0.158847  0.704602  1
  H  H25  1  0.982072  0.841153  0.295398  1
  H  H26  1  0.654361  0.500000  0.194733  1
  H  H27  1  0.343370  0.500000  0.196640  1
  H  H28  1  0.805470  0.345998  0.500000  1
  H  H29  1  0.191122  0.353485  0.500000  1
  H  H30  1  0.517928  0.795398  0.658847  1
  H  H31  1  0.517928  0.204602  0.341153  1
