# generated using pymatgen
data_La17Nd3(IrRh)6
_symmetry_space_group_name_H-M   'P 1'
_cell_length_a   11.41542383
_cell_length_b   11.41109120
_cell_length_c   6.69399691
_cell_angle_alpha   90.01451463
_cell_angle_beta   89.84950553
_cell_angle_gamma   90.01625942
_symmetry_Int_Tables_number   1
_chemical_formula_structural   La17Nd3(IrRh)6
_chemical_formula_sum   'La17 Nd3 Ir6 Rh6'
_cell_volume   871.97331564
_cell_formula_units_Z   1
loop_
 _symmetry_equiv_pos_site_id
 _symmetry_equiv_pos_as_xyz
  1  'x, y, z'
loop_
 _atom_site_type_symbol
 _atom_site_label
 _atom_site_symmetry_multiplicity
 _atom_site_fract_x
 _atom_site_fract_y
 _atom_site_fract_z
 _atom_site_occupancy
  La  La0  1  0.089424  0.290119  0.109296  1
  La  La1  1  0.789578  0.408480  0.107261  1
  La  La2  1  0.209506  0.591751  0.107686  1
  La  La3  1  0.906255  0.708402  0.108609  1
  La  La4  1  0.410068  0.789459  0.391330  1
  La  La5  1  0.594235  0.209088  0.392029  1
  La  La6  1  0.290739  0.092506  0.392279  1
  La  La7  1  0.710080  0.907686  0.392776  1
  La  La8  1  0.409172  0.209422  0.890822  1
  La  La9  1  0.709381  0.091466  0.890944  1
  La  La10  1  0.292019  0.908832  0.888819  1
  La  La11  1  0.591618  0.790512  0.891969  1
  La  La12  1  0.091616  0.709115  0.609117  1
  La  La13  1  0.907535  0.290638  0.607952  1
  La  La14  1  0.208745  0.408317  0.610397  1
  La  La15  1  0.789979  0.592163  0.608530  1
  La  La16  1  0.999972  0.999516  0.000133  1
  Nd  Nd17  1  0.499980  0.500543  0.000229  1
  Nd  Nd18  1  0.500155  0.499623  0.500024  1
  Nd  Nd19  1  0.000022  0.000567  0.499597  1
  Ir  Ir20  1  0.653950  0.654481  0.250223  1
  Ir  Ir21  1  0.845782  0.154791  0.249679  1
  Ir  Ir22  1  0.345625  0.653738  0.749943  1
  Ir  Ir23  1  0.154622  0.153892  0.750258  1
  Ir  Ir24  1  0.846529  0.846236  0.750512  1
  Ir  Ir25  1  0.653276  0.346265  0.749734  1
  Rh  Rh26  1  0.154745  0.845599  0.249372  1
  Rh  Rh27  1  0.345499  0.345393  0.250356  1
  Rh  Rh28  1  0.001660  0.500672  0.380111  1
  Rh  Rh29  1  0.498309  0.000666  0.120334  1
  Rh  Rh30  1  0.499190  0.000047  0.619500  1
  Rh  Rh31  1  0.000732  0.500014  0.880178  1
