# generated using pymatgen
data_Nd8Hg4Pd7Au
_symmetry_space_group_name_H-M   'P 1'
_cell_length_a   7.93944010
_cell_length_b   7.93944025
_cell_length_c   7.76219100
_cell_angle_alpha   90.00925890
_cell_angle_beta   90.00925890
_cell_angle_gamma   89.80253745
_symmetry_Int_Tables_number   1
_chemical_formula_structural   Nd8Hg4Pd7Au
_chemical_formula_sum   'Nd8 Hg4 Pd7 Au1'
_cell_volume   489.28454286
_cell_formula_units_Z   1
loop_
 _symmetry_equiv_pos_site_id
 _symmetry_equiv_pos_as_xyz
  1  'x, y, z'
loop_
 _atom_site_type_symbol
 _atom_site_label
 _atom_site_symmetry_multiplicity
 _atom_site_fract_x
 _atom_site_fract_y
 _atom_site_fract_z
 _atom_site_occupancy
  Nd  Nd0  1  0.820918  0.173676  0.502234  1
  Nd  Nd1  1  0.173676  0.820918  0.502234  1
  Nd  Nd2  1  0.328763  0.328763  0.996375  1
  Nd  Nd3  1  0.675955  0.675955  0.999829  1
  Nd  Nd4  1  0.677074  0.677074  0.500159  1
  Nd  Nd5  1  0.327246  0.327246  0.503256  1
  Nd  Nd6  1  0.174838  0.819240  0.997782  1
  Nd  Nd7  1  0.819240  0.174838  0.997782  1
  Hg  Hg8  1  0.504933  0.997604  0.250144  1
  Hg  Hg9  1  0.000232  0.497357  0.750327  1
  Hg  Hg10  1  0.497357  0.000232  0.750327  1
  Hg  Hg11  1  0.997604  0.504933  0.250144  1
  Pd  Pd12  1  0.626581  0.375146  0.251391  1
  Pd  Pd13  1  0.375146  0.626581  0.251391  1
  Pd  Pd14  1  0.126243  0.126243  0.751724  1
  Pd  Pd15  1  0.874776  0.874776  0.751274  1
  Pd  Pd16  1  0.376411  0.626885  0.748386  1
  Pd  Pd17  1  0.626885  0.376411  0.748386  1
  Pd  Pd18  1  0.872958  0.872958  0.248706  1
  Au  Au19  1  0.123159  0.123159  0.248145  1
