# generated using pymatgen
data_PrY2Tm2Bi3
_symmetry_space_group_name_H-M   'P 1'
_cell_length_a   8.32089400
_cell_length_b   9.51637400
_cell_length_c   12.18256400
_cell_angle_alpha   90.00000000
_cell_angle_beta   90.00000000
_cell_angle_gamma   90.00000000
_symmetry_Int_Tables_number   1
_chemical_formula_structural   PrY2Tm2Bi3
_chemical_formula_sum   'Pr4 Y8 Tm8 Bi12'
_cell_volume   964.67315457
_cell_formula_units_Z   4
loop_
 _symmetry_equiv_pos_site_id
 _symmetry_equiv_pos_as_xyz
  1  'x, y, z'
loop_
 _atom_site_type_symbol
 _atom_site_label
 _atom_site_symmetry_multiplicity
 _atom_site_fract_x
 _atom_site_fract_y
 _atom_site_fract_z
 _atom_site_occupancy
  Pr  Pr0  1  0.182853  0.749710  0.720278  1
  Pr  Pr1  1  0.682853  0.750290  0.779722  1
  Pr  Pr2  1  0.817147  0.249710  0.279722  1
  Pr  Pr3  1  0.317147  0.250290  0.220278  1
  Y  Y4  1  0.692337  0.561423  0.060910  1
  Y  Y5  1  0.192337  0.938577  0.439090  1
  Y  Y6  1  0.307663  0.061423  0.939090  1
  Y  Y7  1  0.807663  0.438577  0.560910  1
  Y  Y8  1  0.352543  0.749978  0.217541  1
  Y  Y9  1  0.852543  0.750022  0.282459  1
  Y  Y10  1  0.647457  0.249978  0.782459  1
  Y  Y11  1  0.147457  0.250022  0.717541  1
  Tm  Tm12  1  0.023520  0.750033  0.987848  1
  Tm  Tm13  1  0.523520  0.749967  0.512152  1
  Tm  Tm14  1  0.976480  0.250033  0.012152  1
  Tm  Tm15  1  0.476480  0.249967  0.487848  1
  Tm  Tm16  1  0.308173  0.433202  0.939574  1
  Tm  Tm17  1  0.808173  0.066798  0.560426  1
  Tm  Tm18  1  0.691827  0.933202  0.060426  1
  Tm  Tm19  1  0.191827  0.566798  0.439574  1
  Bi  Bi20  1  0.434691  0.008880  0.669806  1
  Bi  Bi21  1  0.934691  0.491120  0.830194  1
  Bi  Bi22  1  0.565309  0.508880  0.330194  1
  Bi  Bi23  1  0.065309  0.991120  0.169806  1
  Bi  Bi24  1  0.566202  0.990965  0.330515  1
  Bi  Bi25  1  0.066202  0.509035  0.169485  1
  Bi  Bi26  1  0.433798  0.490965  0.669485  1
  Bi  Bi27  1  0.933798  0.009035  0.830515  1
  Bi  Bi28  1  0.405002  0.746616  0.963652  1
  Bi  Bi29  1  0.905002  0.753384  0.536348  1
  Bi  Bi30  1  0.594998  0.246616  0.036348  1
  Bi  Bi31  1  0.094998  0.253384  0.463652  1
