# generated using pymatgen
data_Ti5Al16GaRh7
_symmetry_space_group_name_H-M   'P 1'
_cell_length_a   8.51479589
_cell_length_b   8.62002038
_cell_length_c   8.62002033
_cell_angle_alpha   59.19402143
_cell_angle_beta   60.40298505
_cell_angle_gamma   60.40298820
_symmetry_Int_Tables_number   1
_chemical_formula_structural   Ti5Al16GaRh7
_chemical_formula_sum   'Ti5 Al16 Ga1 Rh7'
_cell_volume   447.24749642
_cell_formula_units_Z   1
loop_
 _symmetry_equiv_pos_site_id
 _symmetry_equiv_pos_as_xyz
  1  'x, y, z'
loop_
 _atom_site_type_symbol
 _atom_site_label
 _atom_site_symmetry_multiplicity
 _atom_site_fract_x
 _atom_site_fract_y
 _atom_site_fract_z
 _atom_site_occupancy
  Ti  Ti0  1  0.806326  0.193674  0.193674  1
  Ti  Ti1  1  0.783007  0.216993  0.782748  1
  Ti  Ti2  1  0.783007  0.782748  0.216993  1
  Ti  Ti3  1  0.217252  0.782748  0.216993  1
  Ti  Ti4  1  0.217252  0.216993  0.782748  1
  Al  Al5  1  0.885720  0.842101  0.842101  1
  Al  Al6  1  0.854159  0.831155  0.460528  1
  Al  Al7  1  0.430079  0.842101  0.842101  1
  Al  Al8  1  0.854159  0.460528  0.831155  1
  Al  Al9  1  0.168845  0.145841  0.145841  1
  Al  Al10  1  0.157899  0.114280  0.569921  1
  Al  Al11  1  0.157899  0.569921  0.114280  1
  Al  Al12  1  0.539472  0.145841  0.145841  1
  Al  Al13  1  0.617895  0.617319  0.617319  1
  Al  Al14  1  0.630313  0.617905  0.121470  1
  Al  Al15  1  0.147468  0.617319  0.617319  1
  Al  Al16  1  0.630313  0.121470  0.617905  1
  Al  Al17  1  0.382095  0.369687  0.369687  1
  Al  Al18  1  0.382681  0.382105  0.852532  1
  Al  Al19  1  0.382681  0.852532  0.382105  1
  Al  Al20  1  0.878530  0.369687  0.369687  1
  Ga  Ga21  1  0.025607  0.974393  0.974393  1
  Rh  Rh22  1  0.011520  0.488480  0.488480  1
  Rh  Rh23  1  0.511520  0.988480  0.988480  1
  Rh  Rh24  1  0.510936  0.995522  0.489064  1
  Rh  Rh25  1  0.510936  0.489064  0.995522  1
  Rh  Rh26  1  0.004478  0.489064  0.995522  1
  Rh  Rh27  1  0.004478  0.995522  0.489064  1
  Rh  Rh28  1  0.513473  0.486527  0.486527  1
