# generated using pymatgen
data_Tb4Lu16GaSb11
_symmetry_space_group_name_H-M   'P 1'
_cell_length_a   8.01703862
_cell_length_b   9.19335725
_cell_length_c   11.69715000
_cell_angle_alpha   90.04598816
_cell_angle_beta   89.91598276
_cell_angle_gamma   90.01451390
_symmetry_Int_Tables_number   1
_chemical_formula_structural   Tb4Lu16GaSb11
_chemical_formula_sum   'Tb4 Lu16 Ga1 Sb11'
_cell_volume   862.11966470
_cell_formula_units_Z   1
loop_
 _symmetry_equiv_pos_site_id
 _symmetry_equiv_pos_as_xyz
  1  'x, y, z'
loop_
 _atom_site_type_symbol
 _atom_site_label
 _atom_site_symmetry_multiplicity
 _atom_site_fract_x
 _atom_site_fract_y
 _atom_site_fract_z
 _atom_site_occupancy
  Tb  Tb0  1  0.308277  0.242334  0.218572  1
  Tb  Tb1  1  0.817147  0.247180  0.279993  1
  Tb  Tb2  1  0.686010  0.750312  0.780357  1
  Tb  Tb3  1  0.184741  0.749937  0.718861  1
  Lu  Lu4  1  0.342767  0.753915  0.215639  1
  Lu  Lu5  1  0.861309  0.757972  0.280266  1
  Lu  Lu6  1  0.648655  0.249702  0.783559  1
  Lu  Lu7  1  0.148849  0.250318  0.716258  1
  Lu  Lu8  1  0.695529  0.561875  0.061765  1
  Lu  Lu9  1  0.191641  0.937684  0.434359  1
  Lu  Lu10  1  0.306104  0.061892  0.938420  1
  Lu  Lu11  1  0.807289  0.437162  0.562140  1
  Lu  Lu12  1  0.306130  0.437764  0.938606  1
  Lu  Lu13  1  0.806811  0.062622  0.560904  1
  Lu  Lu14  1  0.698618  0.940317  0.063650  1
  Lu  Lu15  1  0.193202  0.561848  0.438057  1
  Lu  Lu16  1  0.473903  0.250348  0.489691  1
  Lu  Lu17  1  0.976424  0.241872  0.014188  1
  Lu  Lu18  1  0.526602  0.749506  0.509407  1
  Lu  Lu19  1  0.028647  0.757072  0.996175  1
  Ga  Ga20  1  0.058237  0.996121  0.171620  1
  Sb  Sb21  1  0.411872  0.749695  0.962351  1
  Sb  Sb22  1  0.907279  0.749575  0.537077  1
  Sb  Sb23  1  0.589741  0.250970  0.038361  1
  Sb  Sb24  1  0.091952  0.250023  0.462963  1
  Sb  Sb25  1  0.562354  0.993485  0.327623  1
  Sb  Sb26  1  0.063602  0.503250  0.171987  1
  Sb  Sb27  1  0.434634  0.494106  0.672521  1
  Sb  Sb28  1  0.936816  0.005654  0.825913  1
  Sb  Sb29  1  0.435573  0.005782  0.672391  1
  Sb  Sb30  1  0.935924  0.493830  0.830292  1
  Sb  Sb31  1  0.563361  0.505873  0.326032  1
