# generated using pymatgen
data_Yb3ErAl13Si5Ir6
_symmetry_space_group_name_H-M   'P 1'
_cell_length_a   7.47916143
_cell_length_b   7.44642072
_cell_length_c   9.42047334
_cell_angle_alpha   89.97519534
_cell_angle_beta   90.05669050
_cell_angle_gamma   119.86084517
_symmetry_Int_Tables_number   1
_chemical_formula_structural   Yb3ErAl13Si5Ir6
_chemical_formula_sum   'Yb3 Er1 Al13 Si5 Ir6'
_cell_volume   454.99946787
_cell_formula_units_Z   1
loop_
 _symmetry_equiv_pos_site_id
 _symmetry_equiv_pos_as_xyz
  1  'x, y, z'
loop_
 _atom_site_type_symbol
 _atom_site_label
 _atom_site_symmetry_multiplicity
 _atom_site_fract_x
 _atom_site_fract_y
 _atom_site_fract_z
 _atom_site_occupancy
  Yb  Yb0  1  0.005296  0.341747  0.749259  1
  Yb  Yb1  1  0.674879  0.007579  0.252437  1
  Yb  Yb2  1  0.319725  0.991436  0.745222  1
  Er  Er3  1  0.000127  0.662369  0.253574  1
  Al  Al4  1  0.129337  0.127317  0.250369  1
  Al  Al5  1  0.871209  0.872291  0.750549  1
  Al  Al6  1  0.665014  0.997144  0.578251  1
  Al  Al7  1  0.662293  0.997930  0.923659  1
  Al  Al8  1  0.339101  0.003131  0.071895  1
  Al  Al9  1  0.336417  0.334562  0.559363  1
  Al  Al10  1  0.664319  0.669228  0.439251  1
  Al  Al11  1  0.663707  0.669179  0.059499  1
  Al  Al12  1  0.336286  0.331547  0.940423  1
  Al  Al13  1  0.336953  0.546376  0.250351  1
  Al  Al14  1  0.660316  0.449646  0.750568  1
  Al  Al15  1  0.546730  0.344412  0.250108  1
  Al  Al16  1  0.453552  0.658086  0.749400  1
  Si  Si17  1  0.001019  0.326787  0.067993  1
  Si  Si18  1  0.998116  0.671113  0.932148  1
  Si  Si19  1  0.991280  0.665749  0.572596  1
  Si  Si20  1  0.340154  0.006205  0.422459  1
  Si  Si21  1  0.002938  0.327689  0.429470  1
  Ir  Ir22  1  0.689121  0.338833  0.004415  1
  Ir  Ir23  1  0.310915  0.661187  0.000046  1
  Ir  Ir24  1  0.311080  0.670692  0.498776  1
  Ir  Ir25  1  0.682706  0.332095  0.496921  1
  Ir  Ir26  1  0.000581  0.998360  0.002176  1
  Ir  Ir27  1  0.006831  0.997312  0.498825  1
