# generated using pymatgen
data_TbEr2ZnAg3Ge2
_symmetry_space_group_name_H-M   'P 1'
_cell_length_a   7.20533000
_cell_length_b   7.20590447
_cell_length_c   4.14613900
_cell_angle_alpha   90.00000000
_cell_angle_beta   90.00000000
_cell_angle_gamma   119.99738121
_symmetry_Int_Tables_number   1
_chemical_formula_structural   TbEr2ZnAg3Ge2
_chemical_formula_sum   'Tb1 Er2 Zn1 Ag3 Ge2'
_cell_volume   186.43537717
_cell_formula_units_Z   1
loop_
 _symmetry_equiv_pos_site_id
 _symmetry_equiv_pos_as_xyz
  1  'x, y, z'
loop_
 _atom_site_type_symbol
 _atom_site_label
 _atom_site_symmetry_multiplicity
 _atom_site_fract_x
 _atom_site_fract_y
 _atom_site_fract_z
 _atom_site_occupancy
  Tb  Tb0  1  0.580910  0.000000  0.000000  1
  Er  Er1  1  0.418845  0.419078  0.000000  1
  Er  Er2  1  0.999767  0.580922  0.000000  1
  Zn  Zn3  1  0.000873  0.000000  0.000000  1
  Ag  Ag4  1  0.752566  0.751682  0.500000  1
  Ag  Ag5  1  0.246350  0.000000  0.500000  1
  Ag  Ag6  1  0.000884  0.248318  0.500000  1
  Ge  Ge7  1  0.667794  0.335782  0.500000  1
  Ge  Ge8  1  0.332011  0.664218  0.500000  1
