# generated using pymatgen
data_HfZr8Ta11Ge16
_symmetry_space_group_name_H-M   'P 1'
_cell_length_a   6.85950567
_cell_length_b   6.96699958
_cell_length_c   13.35729491
_cell_angle_alpha   89.94899316
_cell_angle_beta   89.94403221
_cell_angle_gamma   89.89557761
_symmetry_Int_Tables_number   1
_chemical_formula_structural   HfZr8Ta11Ge16
_chemical_formula_sum   'Hf1 Zr8 Ta11 Ge16'
_cell_volume   638.34581938
_cell_formula_units_Z   1
loop_
 _symmetry_equiv_pos_site_id
 _symmetry_equiv_pos_as_xyz
  1  'x, y, z'
loop_
 _atom_site_type_symbol
 _atom_site_label
 _atom_site_symmetry_multiplicity
 _atom_site_fract_x
 _atom_site_fract_y
 _atom_site_fract_z
 _atom_site_occupancy
  Hf  Hf0  1  0.659872  0.167207  0.623898  1
  Zr  Zr1  1  0.488330  0.674274  0.591345  1
  Zr  Zr2  1  0.989091  0.825183  0.908619  1
  Zr  Zr3  1  0.511675  0.325484  0.091332  1
  Zr  Zr4  1  0.011107  0.174297  0.408526  1
  Zr  Zr5  1  0.510838  0.326907  0.407473  1
  Zr  Zr6  1  0.011432  0.174082  0.091165  1
  Zr  Zr7  1  0.488153  0.673951  0.909136  1
  Zr  Zr8  1  0.989868  0.824065  0.591019  1
  Ta  Ta9  1  0.158683  0.334468  0.876115  1
  Ta  Ta10  1  0.340850  0.833904  0.124663  1
  Ta  Ta11  1  0.841317  0.665548  0.373998  1
  Ta  Ta12  1  0.339829  0.833872  0.374931  1
  Ta  Ta13  1  0.841141  0.665446  0.124798  1
  Ta  Ta14  1  0.658355  0.166863  0.875819  1
  Ta  Ta15  1  0.159700  0.333852  0.625004  1
  Ta  Ta16  1  0.837126  0.490973  0.751686  1
  Ta  Ta17  1  0.334853  0.009049  0.751749  1
  Ta  Ta18  1  0.164044  0.510521  0.249991  1
  Ta  Ta19  1  0.664228  0.988972  0.249436  1
  Ge  Ge20  1  0.682585  0.959692  0.458493  1
  Ge  Ge21  1  0.182239  0.539526  0.040094  1
  Ge  Ge22  1  0.317812  0.039341  0.960369  1
  Ge  Ge23  1  0.819153  0.464043  0.538806  1
  Ge  Ge24  1  0.314964  0.038069  0.539367  1
  Ge  Ge25  1  0.818228  0.460800  0.960397  1
  Ge  Ge26  1  0.681981  0.960792  0.039836  1
  Ge  Ge27  1  0.181837  0.538998  0.460143  1
  Ge  Ge28  1  0.460440  0.388141  0.750887  1
  Ge  Ge29  1  0.962769  0.112458  0.750851  1
  Ge  Ge30  1  0.538422  0.612653  0.249883  1
  Ge  Ge31  1  0.038463  0.887713  0.249790  1
  Ge  Ge32  1  0.692936  0.848607  0.750238  1
  Ge  Ge33  1  0.193037  0.650486  0.750014  1
  Ge  Ge34  1  0.307246  0.150519  0.250094  1
  Ge  Ge35  1  0.807394  0.349244  0.250036  1
