# generated using pymatgen
data_Zr5Bi2BPb
_symmetry_space_group_name_H-M   'P 1'
_cell_length_a   8.71981377
_cell_length_b   8.71981432
_cell_length_c   5.88472200
_cell_angle_alpha   90.00000000
_cell_angle_beta   90.00000000
_cell_angle_gamma   119.84605081
_symmetry_Int_Tables_number   1
_chemical_formula_structural   Zr5Bi2BPb
_chemical_formula_sum   'Zr10 Bi4 B2 Pb2'
_cell_volume   388.09912189
_cell_formula_units_Z   2
loop_
 _symmetry_equiv_pos_site_id
 _symmetry_equiv_pos_as_xyz
  1  'x, y, z'
loop_
 _atom_site_type_symbol
 _atom_site_label
 _atom_site_symmetry_multiplicity
 _atom_site_fract_x
 _atom_site_fract_y
 _atom_site_fract_z
 _atom_site_occupancy
  Zr  Zr0  1  0.666854  0.333633  0.001115  1
  Zr  Zr1  1  0.333633  0.666854  0.001115  1
  Zr  Zr2  1  0.333633  0.666854  0.498885  1
  Zr  Zr3  1  0.666854  0.333633  0.498885  1
  Zr  Zr4  1  0.774488  0.774488  0.750000  1
  Zr  Zr5  1  0.224219  0.998977  0.750000  1
  Zr  Zr6  1  0.998977  0.224219  0.750000  1
  Zr  Zr7  1  0.225575  0.225575  0.250000  1
  Zr  Zr8  1  0.773549  0.001985  0.250000  1
  Zr  Zr9  1  0.001985  0.773549  0.250000  1
  Bi  Bi10  1  0.397554  0.397554  0.750000  1
  Bi  Bi11  1  0.599150  0.000187  0.750000  1
  Bi  Bi12  1  0.000187  0.599150  0.750000  1
  Bi  Bi13  1  0.603699  0.603699  0.250000  1
  B  B14  1  0.999983  0.999983  0.001136  1
  B  B15  1  0.999983  0.999983  0.498864  1
  Pb  Pb16  1  0.398901  0.000775  0.250000  1
  Pb  Pb17  1  0.000775  0.398901  0.250000  1
