# generated using pymatgen
data_NdTm(ScIr)2
_symmetry_space_group_name_H-M   'P 1'
_cell_length_a   7.13949400
_cell_length_b   4.26223500
_cell_length_c   8.86099400
_cell_angle_alpha   90.00000000
_cell_angle_beta   90.00000000
_cell_angle_gamma   90.00000000
_symmetry_Int_Tables_number   1
_chemical_formula_structural   NdTm(ScIr)2
_chemical_formula_sum   'Nd2 Tm2 Sc4 Ir4'
_cell_volume   269.64183033
_cell_formula_units_Z   2
loop_
 _symmetry_equiv_pos_site_id
 _symmetry_equiv_pos_as_xyz
  1  'x, y, z'
loop_
 _atom_site_type_symbol
 _atom_site_label
 _atom_site_symmetry_multiplicity
 _atom_site_fract_x
 _atom_site_fract_y
 _atom_site_fract_z
 _atom_site_occupancy
  Nd  Nd0  1  0.013887  0.750000  0.825853  1
  Nd  Nd1  1  0.513887  0.750000  0.674147  1
  Tm  Tm2  1  0.979460  0.250000  0.175819  1
  Tm  Tm3  1  0.479460  0.250000  0.324181  1
  Sc  Sc4  1  0.862649  0.250000  0.554854  1
  Sc  Sc5  1  0.362649  0.250000  0.945146  1
  Sc  Sc6  1  0.142364  0.750000  0.426392  1
  Sc  Sc7  1  0.642364  0.750000  0.073608  1
  Ir  Ir8  1  0.736601  0.250000  0.904699  1
  Ir  Ir9  1  0.236601  0.250000  0.595301  1
  Ir  Ir10  1  0.265040  0.750000  0.113541  1
  Ir  Ir11  1  0.765040  0.750000  0.386459  1
