# generated using pymatgen
data_Y4PdRh3O14
_symmetry_space_group_name_H-M   'P 1'
_cell_length_a   7.23212714
_cell_length_b   7.25858197
_cell_length_c   7.25858300
_cell_angle_alpha   59.99999987
_cell_angle_beta   59.87892159
_cell_angle_gamma   59.87891814
_symmetry_Int_Tables_number   1
_chemical_formula_structural   Y4PdRh3O14
_chemical_formula_sum   'Y4 Pd1 Rh3 O14'
_cell_volume   268.94126590
_cell_formula_units_Z   1
loop_
 _symmetry_equiv_pos_site_id
 _symmetry_equiv_pos_as_xyz
  1  'x, y, z'
loop_
 _atom_site_type_symbol
 _atom_site_label
 _atom_site_symmetry_multiplicity
 _atom_site_fract_x
 _atom_site_fract_y
 _atom_site_fract_z
 _atom_site_occupancy
  Y  Y0  1  0.125000  0.625000  0.125000  1
  Y  Y1  1  0.125000  0.125000  0.625000  1
  Y  Y2  1  0.625000  0.125000  0.125000  1
  Y  Y3  1  0.125000  0.125000  0.125000  1
  Pd  Pd4  1  0.125000  0.625000  0.625000  1
  Rh  Rh5  1  0.625000  0.625000  0.625000  1
  Rh  Rh6  1  0.625000  0.625000  0.125000  1
  Rh  Rh7  1  0.625000  0.125000  0.625000  1
  O  O8  1  0.287063  0.714212  0.714212  1
  O  O9  1  0.541174  0.960409  0.960409  1
  O  O10  1  0.708826  0.711992  0.289591  1
  O  O11  1  0.287063  0.284514  0.714212  1
  O  O12  1  0.999683  0.000106  0.000106  1
  O  O13  1  0.287063  0.714212  0.284514  1
  O  O14  1  0.708826  0.289591  0.711992  1
  O  O15  1  0.962937  0.535788  0.965486  1
  O  O16  1  0.541174  0.538008  0.960409  1
  O  O17  1  0.962937  0.965486  0.535788  1
  O  O18  1  0.250317  0.249894  0.249894  1
  O  O19  1  0.541174  0.960409  0.538008  1
  O  O20  1  0.708826  0.289591  0.289591  1
  O  O21  1  0.962937  0.535788  0.535788  1
