# generated using pymatgen
data_Pr7NdSc11Si16Tc
_symmetry_space_group_name_H-M   'P 1'
_cell_length_a   7.20270385
_cell_length_b   7.53351388
_cell_length_c   14.13244592
_cell_angle_alpha   90.03764425
_cell_angle_beta   90.01741555
_cell_angle_gamma   90.01222091
_symmetry_Int_Tables_number   1
_chemical_formula_structural   Pr7NdSc11Si16Tc
_chemical_formula_sum   'Pr7 Nd1 Sc11 Si16 Tc1'
_cell_volume   766.84988979
_cell_formula_units_Z   1
loop_
 _symmetry_equiv_pos_site_id
 _symmetry_equiv_pos_as_xyz
  1  'x, y, z'
loop_
 _atom_site_type_symbol
 _atom_site_label
 _atom_site_symmetry_multiplicity
 _atom_site_fract_x
 _atom_site_fract_y
 _atom_site_fract_z
 _atom_site_occupancy
  Pr  Pr0  1  0.512710  0.326474  0.404773  1
  Pr  Pr1  1  0.492938  0.677366  0.899004  1
  Pr  Pr2  1  0.492910  0.677314  0.600953  1
  Pr  Pr3  1  0.985230  0.830332  0.601112  1
  Pr  Pr4  1  0.985216  0.830320  0.898808  1
  Pr  Pr5  1  0.512613  0.326545  0.095204  1
  Pr  Pr6  1  0.011839  0.172901  0.096312  1
  Nd  Nd7  1  0.011969  0.173337  0.403385  1
  Sc  Sc8  1  0.328532  0.169983  0.627630  1
  Sc  Sc9  1  0.672974  0.825391  0.376677  1
  Sc  Sc10  1  0.172601  0.675740  0.375189  1
  Sc  Sc11  1  0.825684  0.320975  0.873054  1
  Sc  Sc12  1  0.825754  0.320931  0.626855  1
  Sc  Sc13  1  0.842383  0.500778  0.250083  1
  Sc  Sc14  1  0.342276  0.999362  0.250037  1
  Sc  Sc15  1  0.328695  0.169948  0.872251  1
  Sc  Sc16  1  0.172570  0.675600  0.124853  1
  Sc  Sc17  1  0.672857  0.825230  0.123450  1
  Sc  Sc18  1  0.158515  0.496249  0.750033  1
  Si  Si19  1  0.297283  0.884399  0.750007  1
  Si  Si20  1  0.469999  0.624592  0.250020  1
  Si  Si21  1  0.022750  0.118488  0.749990  1
  Si  Si22  1  0.532190  0.367002  0.749998  1
  Si  Si23  1  0.151678  0.464352  0.540412  1
  Si  Si24  1  0.968245  0.874893  0.250219  1
  Si  Si25  1  0.711902  0.117650  0.250333  1
  Si  Si26  1  0.851369  0.537109  0.037381  1
  Si  Si27  1  0.348840  0.962946  0.037496  1
  Si  Si28  1  0.151859  0.464899  0.959396  1
  Si  Si29  1  0.649567  0.037028  0.548661  1
  Si  Si30  1  0.347993  0.963350  0.462353  1
  Si  Si31  1  0.851562  0.536482  0.462503  1
  Si  Si32  1  0.790857  0.611426  0.750003  1
  Si  Si33  1  0.212777  0.381928  0.250283  1
  Si  Si34  1  0.649275  0.036905  0.951303  1
  Tc  Tc35  1  0.643592  0.021776  0.749980  1
