# generated using pymatgen
data_BaMgMn3O8
_symmetry_space_group_name_H-M   'P 1'
_cell_length_a   5.88770676
_cell_length_b   5.88750978
_cell_length_c   13.28056702
_cell_angle_alpha   90.00068480
_cell_angle_beta   77.19382037
_cell_angle_gamma   120.00036372
_symmetry_Int_Tables_number   1
_chemical_formula_structural   BaMgMn3O8
_chemical_formula_sum   'Ba2 Mg2 Mn6 O16'
_cell_volume   385.40041250
_cell_formula_units_Z   2
loop_
 _symmetry_equiv_pos_site_id
 _symmetry_equiv_pos_as_xyz
  1  'x, y, z'
loop_
 _atom_site_type_symbol
 _atom_site_label
 _atom_site_symmetry_multiplicity
 _atom_site_fract_x
 _atom_site_fract_y
 _atom_site_fract_z
 _atom_site_occupancy
  Ba  Ba0  1  0.500004  0.750009  0.749980  1
  Ba  Ba1  1  0.499999  0.249996  0.250031  1
  Mg  Mg2  1  0.000016  0.500016  0.499992  1
  Mg  Mg3  1  0.000010  0.000008  0.999989  1
  Mn  Mn4  1  0.499966  0.000007  0.499991  1
  Mn  Mn5  1  0.499988  0.500009  0.999989  1
  Mn  Mn6  1  0.499985  0.499980  0.499998  1
  Mn  Mn7  1  0.499991  0.999973  0.999992  1
  Mn  Mn8  1  0.000047  0.000006  0.499991  1
  Mn  Mn9  1  0.000039  0.500014  0.999987  1
  O  O10  1  0.718929  0.859466  0.421620  1
  O  O11  1  0.718920  0.359454  0.921639  1
  O  O12  1  0.281062  0.640525  0.078372  1
  O  O13  1  0.281071  0.140533  0.578379  1
  O  O14  1  0.228648  0.849976  0.921375  1
  O  O15  1  0.228661  0.349989  0.421335  1
  O  O16  1  0.771343  0.121335  0.578667  1
  O  O17  1  0.771351  0.621330  0.078634  1
  O  O18  1  0.771334  0.650009  0.578670  1
  O  O19  1  0.771346  0.150009  0.078637  1
  O  O20  1  0.300018  0.650011  0.578667  1
  O  O21  1  0.300047  0.150013  0.078636  1
  O  O22  1  0.228646  0.378676  0.921378  1
  O  O23  1  0.228665  0.878686  0.421337  1
  O  O24  1  0.699931  0.849964  0.921378  1
  O  O25  1  0.699990  0.350004  0.421336  1
