# generated using pymatgen
data_Hf5Nb3(Co4P3)4
_symmetry_space_group_name_H-M   'P 1'
_cell_length_a   11.99233200
_cell_length_b   11.99233186
_cell_length_c   3.64367600
_cell_angle_alpha   90.00000000
_cell_angle_beta   90.00000000
_cell_angle_gamma   120.00000039
_symmetry_Int_Tables_number   1
_chemical_formula_structural   Hf5Nb3(Co4P3)4
_chemical_formula_sum   'Hf5 Nb3 Co16 P12'
_cell_volume   453.81376352
_cell_formula_units_Z   1
loop_
 _symmetry_equiv_pos_site_id
 _symmetry_equiv_pos_as_xyz
  1  'x, y, z'
loop_
 _atom_site_type_symbol
 _atom_site_label
 _atom_site_symmetry_multiplicity
 _atom_site_fract_x
 _atom_site_fract_y
 _atom_site_fract_z
 _atom_site_occupancy
  Hf  Hf0  1  0.821885  0.000000  0.500000  1
  Hf  Hf1  1  0.000000  0.821885  0.500000  1
  Hf  Hf2  1  0.178115  0.178115  0.500000  1
  Hf  Hf3  1  0.333333  0.666667  0.000000  1
  Hf  Hf4  1  0.666667  0.333333  0.000000  1
  Nb  Nb5  1  0.447068  0.000000  0.000000  1
  Nb  Nb6  1  0.000000  0.447068  0.000000  1
  Nb  Nb7  1  0.552932  0.552932  0.000000  1
  Co  Co8  1  0.278056  0.000000  0.500000  1
  Co  Co9  1  0.000000  0.278056  0.500000  1
  Co  Co10  1  0.721944  0.721944  0.500000  1
  Co  Co11  1  0.628114  0.806457  0.000000  1
  Co  Co12  1  0.193543  0.821657  0.000000  1
  Co  Co13  1  0.178343  0.371886  0.000000  1
  Co  Co14  1  0.371886  0.178343  0.000000  1
  Co  Co15  1  0.806457  0.628114  0.000000  1
  Co  Co16  1  0.821657  0.193543  0.000000  1
  Co  Co17  1  0.516306  0.870120  0.500000  1
  Co  Co18  1  0.129880  0.646186  0.500000  1
  Co  Co19  1  0.353814  0.483694  0.500000  1
  Co  Co20  1  0.483694  0.353814  0.500000  1
  Co  Co21  1  0.870120  0.516306  0.500000  1
  Co  Co22  1  0.646186  0.129880  0.500000  1
  Co  Co23  1  0.000000  0.000000  0.000000  1
  P  P24  1  0.175406  0.000000  0.000000  1
  P  P25  1  0.000000  0.175406  0.000000  1
  P  P26  1  0.824594  0.824594  0.000000  1
  P  P27  1  0.517975  0.687930  0.500000  1
  P  P28  1  0.312070  0.830045  0.500000  1
  P  P29  1  0.169955  0.482025  0.500000  1
  P  P30  1  0.482025  0.169955  0.500000  1
  P  P31  1  0.687930  0.517975  0.500000  1
  P  P32  1  0.830045  0.312070  0.500000  1
  P  P33  1  0.649675  0.000000  0.000000  1
  P  P34  1  0.000000  0.649675  0.000000  1
  P  P35  1  0.350325  0.350325  0.000000  1
