# generated using pymatgen
data_HfSc2TaRu4
_symmetry_space_group_name_H-M   'P 1'
_cell_length_a   6.38100500
_cell_length_b   4.54144100
_cell_length_c   9.09619900
_cell_angle_alpha   90.00000000
_cell_angle_beta   89.99724312
_cell_angle_gamma   90.00000000
_symmetry_Int_Tables_number   1
_chemical_formula_structural   HfSc2TaRu4
_chemical_formula_sum   'Hf2 Sc4 Ta2 Ru8'
_cell_volume   263.59836616
_cell_formula_units_Z   2
loop_
 _symmetry_equiv_pos_site_id
 _symmetry_equiv_pos_as_xyz
  1  'x, y, z'
loop_
 _atom_site_type_symbol
 _atom_site_label
 _atom_site_symmetry_multiplicity
 _atom_site_fract_x
 _atom_site_fract_y
 _atom_site_fract_z
 _atom_site_occupancy
  Hf  Hf0  1  0.250024  0.250000  0.124952  1
  Hf  Hf1  1  0.750025  0.750000  0.375050  1
  Sc  Sc2  1  0.750047  0.250000  0.124358  1
  Sc  Sc3  1  0.250048  0.750000  0.375654  1
  Sc  Sc4  1  0.749964  0.250000  0.625345  1
  Sc  Sc5  1  0.249950  0.750000  0.874646  1
  Ta  Ta6  1  0.249958  0.250000  0.624810  1
  Ta  Ta7  1  0.749964  0.750000  0.875193  1
  Ru  Ru8  1  0.503295  0.750000  0.120798  1
  Ru  Ru9  1  0.996760  0.750000  0.120804  1
  Ru  Ru10  1  0.496762  0.250000  0.379199  1
  Ru  Ru11  1  0.003298  0.250000  0.379202  1
  Ru  Ru12  1  0.002861  0.750000  0.628960  1
  Ru  Ru13  1  0.497101  0.750000  0.628956  1
  Ru  Ru14  1  0.997095  0.250000  0.871040  1
  Ru  Ru15  1  0.502849  0.250000  0.871033  1
