# generated using pymatgen
data_Tb4AlZn4In3
_symmetry_space_group_name_H-M   'P 1'
_cell_length_a   4.63395700
_cell_length_b   4.63395683
_cell_length_c   14.64233400
_cell_angle_alpha   90.00000000
_cell_angle_beta   90.00000000
_cell_angle_gamma   120.00000833
_symmetry_Int_Tables_number   1
_chemical_formula_structural   Tb4AlZn4In3
_chemical_formula_sum   'Tb4 Al1 Zn4 In3'
_cell_volume   272.29827348
_cell_formula_units_Z   1
loop_
 _symmetry_equiv_pos_site_id
 _symmetry_equiv_pos_as_xyz
  1  'x, y, z'
loop_
 _atom_site_type_symbol
 _atom_site_label
 _atom_site_symmetry_multiplicity
 _atom_site_fract_x
 _atom_site_fract_y
 _atom_site_fract_z
 _atom_site_occupancy
  Tb  Tb0  1  0.000000  0.000000  0.503509  1
  Tb  Tb1  1  0.000000  0.000000  0.999354  1
  Tb  Tb2  1  0.000000  0.000000  0.252073  1
  Tb  Tb3  1  0.000000  0.000000  0.746402  1
  Al  Al4  1  0.333333  0.666667  0.611537  1
  Zn  Zn5  1  0.333333  0.666667  0.408109  1
  Zn  Zn6  1  0.666667  0.333333  0.646165  1
  Zn  Zn7  1  0.666667  0.333333  0.844533  1
  Zn  Zn8  1  0.333333  0.666667  0.098091  1
  In  In9  1  0.333333  0.666667  0.886568  1
  In  In10  1  0.666667  0.333333  0.139127  1
  In  In11  1  0.666667  0.333333  0.364533  1
