# generated using pymatgen
data_NiP6PbO18
_symmetry_space_group_name_H-M   'P 1'
_cell_length_a   6.78270700
_cell_length_b   6.78270676
_cell_length_c   9.88751800
_cell_angle_alpha   90.00000000
_cell_angle_beta   90.00000000
_cell_angle_gamma   120.00000606
_symmetry_Int_Tables_number   1
_chemical_formula_structural   NiP6PbO18
_chemical_formula_sum   'Ni1 P6 Pb1 O18'
_cell_volume   393.93447572
_cell_formula_units_Z   1
loop_
 _symmetry_equiv_pos_site_id
 _symmetry_equiv_pos_as_xyz
  1  'x, y, z'
loop_
 _atom_site_type_symbol
 _atom_site_label
 _atom_site_symmetry_multiplicity
 _atom_site_fract_x
 _atom_site_fract_y
 _atom_site_fract_z
 _atom_site_occupancy
  Ni  Ni0  1  0.000000  0.000000  0.000000  1
  P  P1  1  0.726093  0.114365  0.756800  1
  P  P2  1  0.885635  0.273907  0.243200  1
  P  P3  1  0.726093  0.611727  0.243200  1
  P  P4  1  0.885635  0.611727  0.756800  1
  P  P5  1  0.388273  0.273907  0.756800  1
  P  P6  1  0.388273  0.114365  0.243200  1
  Pb  Pb7  1  0.000000  0.000000  0.500000  1
  O  O8  1  0.902969  0.518179  0.242819  1
  O  O9  1  0.902969  0.384790  0.757181  1
  O  O10  1  0.481821  0.097031  0.757181  1
  O  O11  1  0.615210  0.097031  0.242819  1
  O  O12  1  0.738832  0.020387  0.618065  1
  O  O13  1  0.753721  0.005097  0.878876  1
  O  O14  1  0.481821  0.384790  0.242819  1
  O  O15  1  0.738832  0.718446  0.381935  1
  O  O16  1  0.753721  0.748625  0.121124  1
  O  O17  1  0.615210  0.518179  0.757181  1
  O  O18  1  0.979613  0.261168  0.381935  1
  O  O19  1  0.994903  0.246279  0.121124  1
  O  O20  1  0.251375  0.246279  0.878876  1
  O  O21  1  0.281554  0.261168  0.618065  1
  O  O22  1  0.994903  0.748625  0.878876  1
  O  O23  1  0.979613  0.718446  0.618065  1
  O  O24  1  0.251375  0.005097  0.121124  1
  O  O25  1  0.281554  0.020387  0.381935  1
