# generated using pymatgen
data_Dy3HoAl2(HgPt2)2
_symmetry_space_group_name_H-M   'P 1'
_cell_length_a   4.21810400
_cell_length_b   7.11438324
_cell_length_c   8.37567394
_cell_angle_alpha   93.53280439
_cell_angle_beta   90.00000000
_cell_angle_gamma   90.00000000
_symmetry_Int_Tables_number   1
_chemical_formula_structural   Dy3HoAl2(HgPt2)2
_chemical_formula_sum   'Dy3 Ho1 Al2 Hg2 Pt4'
_cell_volume   250.86970477
_cell_formula_units_Z   1
loop_
 _symmetry_equiv_pos_site_id
 _symmetry_equiv_pos_as_xyz
  1  'x, y, z'
loop_
 _atom_site_type_symbol
 _atom_site_label
 _atom_site_symmetry_multiplicity
 _atom_site_fract_x
 _atom_site_fract_y
 _atom_site_fract_z
 _atom_site_occupancy
  Dy  Dy0  1  0.750000  0.539162  0.813374  1
  Dy  Dy1  1  0.750000  0.036049  0.685689  1
  Dy  Dy2  1  0.250000  0.964190  0.313939  1
  Ho  Ho3  1  0.250000  0.460645  0.186906  1
  Al  Al4  1  0.750000  0.638869  0.439156  1
  Al  Al5  1  0.250000  0.361033  0.560757  1
  Hg  Hg6  1  0.250000  0.852360  0.932926  1
  Hg  Hg7  1  0.750000  0.148347  0.067615  1
  Pt  Pt8  1  0.250000  0.732870  0.594862  1
  Pt  Pt9  1  0.750000  0.268007  0.404513  1
  Pt  Pt10  1  0.750000  0.730638  0.147947  1
  Pt  Pt11  1  0.250000  0.267831  0.852315  1
