# generated using pymatgen
data_Ho4Lu4B24MoOs3
_symmetry_space_group_name_H-M   'P 1'
_cell_length_a   3.61789400
_cell_length_b   9.09955645
_cell_length_c   11.49137700
_cell_angle_alpha   89.90842860
_cell_angle_beta   90.00000000
_cell_angle_gamma   90.00000000
_symmetry_Int_Tables_number   1
_chemical_formula_structural   Ho4Lu4B24MoOs3
_chemical_formula_sum   'Ho4 Lu4 B24 Mo1 Os3'
_cell_volume   378.30979006
_cell_formula_units_Z   1
loop_
 _symmetry_equiv_pos_site_id
 _symmetry_equiv_pos_as_xyz
  1  'x, y, z'
loop_
 _atom_site_type_symbol
 _atom_site_label
 _atom_site_symmetry_multiplicity
 _atom_site_fract_x
 _atom_site_fract_y
 _atom_site_fract_z
 _atom_site_occupancy
  Ho  Ho0  1  0.000000  0.321555  0.413189  1
  Ho  Ho1  1  0.000000  0.678007  0.584858  1
  Ho  Ho2  1  0.000000  0.819965  0.087253  1
  Ho  Ho3  1  0.000000  0.178157  0.914542  1
  Lu  Lu4  1  0.000000  0.945067  0.372858  1
  Lu  Lu5  1  0.000000  0.057340  0.628115  1
  Lu  Lu6  1  0.000000  0.443559  0.126855  1
  Lu  Lu7  1  0.000000  0.556576  0.871598  1
  B  B8  1  0.500000  0.551374  0.435372  1
  B  B9  1  0.500000  0.445919  0.568091  1
  B  B10  1  0.500000  0.053797  0.067048  1
  B  B11  1  0.500000  0.945995  0.933055  1
  B  B12  1  0.500000  0.752127  0.421325  1
  B  B13  1  0.500000  0.250818  0.581315  1
  B  B14  1  0.500000  0.249617  0.080494  1
  B  B15  1  0.500000  0.750144  0.918802  1
  B  B16  1  0.500000  0.794954  0.264723  1
  B  B17  1  0.500000  0.207949  0.734505  1
  B  B18  1  0.500000  0.291360  0.233037  1
  B  B19  1  0.500000  0.708589  0.765721  1
  B  B20  1  0.500000  0.630786  0.182723  1
  B  B21  1  0.500000  0.369003  0.815489  1
  B  B22  1  0.500000  0.130536  0.314352  1
  B  B23  1  0.500000  0.870158  0.685099  1
  B  B24  1  0.500000  0.982688  0.213150  1
  B  B25  1  0.500000  0.017845  0.787494  1
  B  B26  1  0.500000  0.478066  0.285971  1
  B  B27  1  0.500000  0.517132  0.713522  1
  B  B28  1  0.500000  0.602975  0.027050  1
  B  B29  1  0.500000  0.396517  0.970746  1
  B  B30  1  0.500000  0.104022  0.471833  1
  B  B31  1  0.500000  0.898783  0.529497  1
  Mo  Mo32  1  0.000000  0.637949  0.320803  1
  Os  Os33  1  0.000000  0.360621  0.681041  1
  Os  Os34  1  0.000000  0.138029  0.178176  1
  Os  Os35  1  0.000000  0.862024  0.820298  1
