# generated using pymatgen
data_Tb7HoNp4O24
_symmetry_space_group_name_H-M   'P 1'
_cell_length_a   5.54835616
_cell_length_b   7.86127240
_cell_length_c   11.88746344
_cell_angle_alpha   73.82266997
_cell_angle_beta   89.98436879
_cell_angle_gamma   89.97346335
_symmetry_Int_Tables_number   1
_chemical_formula_structural   Tb7HoNp4O24
_chemical_formula_sum   'Tb7 Ho1 Np4 O24'
_cell_volume   497.96667451
_cell_formula_units_Z   1
loop_
 _symmetry_equiv_pos_site_id
 _symmetry_equiv_pos_as_xyz
  1  'x, y, z'
loop_
 _atom_site_type_symbol
 _atom_site_label
 _atom_site_symmetry_multiplicity
 _atom_site_fract_x
 _atom_site_fract_y
 _atom_site_fract_z
 _atom_site_occupancy
  Tb  Tb0  1  0.744235  0.000253  0.749610  1
  Tb  Tb1  1  0.255747  0.000319  0.250438  1
  Tb  Tb2  1  0.186520  0.795344  0.579187  1
  Tb  Tb3  1  0.813153  0.794990  0.079297  1
  Tb  Tb4  1  0.698634  0.499872  0.749945  1
  Tb  Tb5  1  0.301536  0.499580  0.250420  1
  Tb  Tb6  1  0.186863  0.205064  0.920608  1
  Ho  Ho7  1  0.813184  0.205654  0.420310  1
  Np  Np8  1  0.255376  0.719956  0.886810  1
  Np  Np9  1  0.744541  0.719981  0.386815  1
  Np  Np10  1  0.255520  0.279876  0.612559  1
  Np  Np11  1  0.744895  0.279904  0.113677  1
  O  O12  1  0.044680  0.942178  0.896954  1
  O  O13  1  0.550852  0.848884  0.931381  1
  O  O14  1  0.953814  0.943916  0.397226  1
  O  O15  1  0.449046  0.800187  0.727393  1
  O  O16  1  0.448627  0.848318  0.431373  1
  O  O17  1  0.964902  0.713812  0.766575  1
  O  O18  1  0.550859  0.799899  0.227618  1
  O  O19  1  0.874182  0.626483  0.554372  1
  O  O20  1  0.388443  0.481560  0.883563  1
  O  O21  1  0.035211  0.714044  0.266851  1
  O  O22  1  0.388135  0.518159  0.616227  1
  O  O23  1  0.874024  0.373605  0.945676  1
  O  O24  1  0.125867  0.626205  0.054575  1
  O  O25  1  0.612959  0.480496  0.383655  1
  O  O26  1  0.965220  0.286125  0.733316  1
  O  O27  1  0.611415  0.518272  0.116458  1
  O  O28  1  0.123317  0.372492  0.445301  1
  O  O29  1  0.449117  0.199793  0.772151  1
  O  O30  1  0.034729  0.286012  0.234110  1
  O  O31  1  0.552907  0.151838  0.567193  1
  O  O32  1  0.552307  0.199672  0.273614  1
  O  O33  1  0.044597  0.058096  0.602663  1
  O  O34  1  0.449158  0.151313  0.068949  1
  O  O35  1  0.955429  0.057850  0.103129  1
