# generated using pymatgen
data_Y12Ga4Si4Ir5Rh3
_symmetry_space_group_name_H-M   'P 1'
_cell_length_a   5.54278508
_cell_length_b   8.01090950
_cell_length_c   13.20469879
_cell_angle_alpha   89.96236314
_cell_angle_beta   90.01154859
_cell_angle_gamma   90.01561575
_symmetry_Int_Tables_number   1
_chemical_formula_structural   Y12Ga4Si4Ir5Rh3
_chemical_formula_sum   'Y12 Ga4 Si4 Ir5 Rh3'
_cell_volume   586.32477441
_cell_formula_units_Z   1
loop_
 _symmetry_equiv_pos_site_id
 _symmetry_equiv_pos_as_xyz
  1  'x, y, z'
loop_
 _atom_site_type_symbol
 _atom_site_label
 _atom_site_symmetry_multiplicity
 _atom_site_fract_x
 _atom_site_fract_y
 _atom_site_fract_z
 _atom_site_occupancy
  Y  Y0  1  0.147626  0.600962  0.102649  1
  Y  Y1  1  0.149684  0.897165  0.897251  1
  Y  Y2  1  0.851590  0.101154  0.397328  1
  Y  Y3  1  0.851381  0.399447  0.602724  1
  Y  Y4  1  0.852303  0.396674  0.897688  1
  Y  Y5  1  0.850690  0.104012  0.102164  1
  Y  Y6  1  0.148861  0.895921  0.602087  1
  Y  Y7  1  0.148540  0.603441  0.397926  1
  Y  Y8  1  0.365656  0.242453  0.249918  1
  Y  Y9  1  0.366471  0.258007  0.750994  1
  Y  Y10  1  0.634623  0.742791  0.249991  1
  Y  Y11  1  0.633806  0.755935  0.750454  1
  Ga  Ga12  1  0.370573  0.250178  0.999340  1
  Ga  Ga13  1  0.630098  0.750068  0.500243  1
  Ga  Ga14  1  0.630921  0.750413  0.000452  1
  Ga  Ga15  1  0.368471  0.249840  0.499995  1
  Si  Si16  1  0.863282  0.388887  0.250367  1
  Si  Si17  1  0.863266  0.110675  0.749518  1
  Si  Si18  1  0.136593  0.889303  0.249605  1
  Si  Si19  1  0.136365  0.610269  0.749739  1
  Ir  Ir20  1  0.648589  0.468756  0.095264  1
  Ir  Ir21  1  0.650261  0.029897  0.904941  1
  Ir  Ir22  1  0.350612  0.969710  0.405017  1
  Ir  Ir23  1  0.350450  0.530718  0.594788  1
  Ir  Ir24  1  0.349906  0.533417  0.905191  1
  Rh  Rh25  1  0.351423  0.969935  0.094741  1
  Rh  Rh26  1  0.649279  0.031478  0.594227  1
  Rh  Rh27  1  0.648680  0.468494  0.405399  1
