# generated using pymatgen
data_CeY(BeGe)2
_symmetry_space_group_name_H-M   'P 1'
_cell_length_a   3.93802200
_cell_length_b   3.93802142
_cell_length_c   8.30513500
_cell_angle_alpha   90.00000000
_cell_angle_beta   90.00000000
_cell_angle_gamma   119.99998807
_symmetry_Int_Tables_number   1
_chemical_formula_structural   CeY(BeGe)2
_chemical_formula_sum   'Ce1 Y1 Be2 Ge2'
_cell_volume   111.54075819
_cell_formula_units_Z   1
loop_
 _symmetry_equiv_pos_site_id
 _symmetry_equiv_pos_as_xyz
  1  'x, y, z'
loop_
 _atom_site_type_symbol
 _atom_site_label
 _atom_site_symmetry_multiplicity
 _atom_site_fract_x
 _atom_site_fract_y
 _atom_site_fract_z
 _atom_site_occupancy
  Ce  Ce0  1  0.000000  0.000000  0.000000  1
  Y  Y1  1  0.000000  0.000000  0.500000  1
  Be  Be2  1  0.666667  0.333333  0.251169  1
  Be  Be3  1  0.333333  0.666666  0.748832  1
  Ge  Ge4  1  0.333333  0.666666  0.253595  1
  Ge  Ge5  1  0.666667  0.333333  0.746406  1
