# generated using pymatgen
data_Rb8Tm5LuBBr20
_symmetry_space_group_name_H-M   'P 1'
_cell_length_a   12.24063422
_cell_length_b   12.24063399
_cell_length_c   12.24804600
_cell_angle_alpha   59.97996738
_cell_angle_beta   59.97996799
_cell_angle_gamma   60.04006712
_symmetry_Int_Tables_number   1
_chemical_formula_structural   Rb8Tm5LuBBr20
_chemical_formula_sum   'Rb8 Tm5 Lu1 B1 Br20'
_cell_volume   1297.65526431
_cell_formula_units_Z   1
loop_
 _symmetry_equiv_pos_site_id
 _symmetry_equiv_pos_as_xyz
  1  'x, y, z'
loop_
 _atom_site_type_symbol
 _atom_site_label
 _atom_site_symmetry_multiplicity
 _atom_site_fract_x
 _atom_site_fract_y
 _atom_site_fract_z
 _atom_site_occupancy
  Rb  Rb0  1  0.359850  0.359850  0.359477  1
  Rb  Rb1  1  0.640198  0.640198  0.640449  1
  Rb  Rb2  1  0.359850  0.359850  0.920824  1
  Rb  Rb3  1  0.359551  0.920846  0.359802  1
  Rb  Rb4  1  0.640198  0.640198  0.079154  1
  Rb  Rb5  1  0.640523  0.079176  0.640150  1
  Rb  Rb6  1  0.920846  0.359551  0.359802  1
  Rb  Rb7  1  0.079176  0.640523  0.640150  1
  Tm  Tm8  1  0.851148  0.148491  0.148852  1
  Tm  Tm9  1  0.148491  0.851148  0.851509  1
  Tm  Tm10  1  0.148491  0.851148  0.148852  1
  Tm  Tm11  1  0.851148  0.148491  0.851509  1
  Tm  Tm12  1  0.148616  0.148616  0.851384  1
  Lu  Lu13  1  0.852098  0.852098  0.147902  1
  B  B14  1  0.999761  0.999761  0.000239  1
  Br  Br15  1  0.325776  0.000172  0.999828  1
  Br  Br16  1  0.675216  0.998394  0.001606  1
  Br  Br17  1  0.000172  0.325776  0.674224  1
  Br  Br18  1  0.998394  0.675216  0.324784  1
  Br  Br19  1  0.000172  0.325776  0.999828  1
  Br  Br20  1  0.675216  0.998394  0.324784  1
  Br  Br21  1  0.998394  0.675216  0.001606  1
  Br  Br22  1  0.325776  0.000172  0.674224  1
  Br  Br23  1  0.999961  0.999961  0.326086  1
  Br  Br24  1  0.999961  0.999961  0.673992  1
  Br  Br25  1  0.673914  0.326008  0.000039  1
  Br  Br26  1  0.326008  0.673914  0.000039  1
  Br  Br27  1  0.684478  0.315046  0.315522  1
  Br  Br28  1  0.315046  0.684478  0.684954  1
  Br  Br29  1  0.315046  0.684478  0.315522  1
  Br  Br30  1  0.684478  0.315046  0.684954  1
  Br  Br31  1  0.315263  0.315263  0.684737  1
  Br  Br32  1  0.686740  0.686740  0.313260  1
  Br  Br33  1  0.250021  0.250021  0.249979  1
  Br  Br34  1  0.750021  0.750021  0.749979  1
