# generated using pymatgen
data_Tb4CuTc2Ru5
_symmetry_space_group_name_H-M   'P 1'
_cell_length_a   5.30787700
_cell_length_b   5.30787768
_cell_length_c   8.97474100
_cell_angle_alpha   90.00000000
_cell_angle_beta   90.00000000
_cell_angle_gamma   122.31238950
_symmetry_Int_Tables_number   1
_chemical_formula_structural   Tb4CuTc2Ru5
_chemical_formula_sum   'Tb4 Cu1 Tc2 Ru5'
_cell_volume   213.69558884
_cell_formula_units_Z   1
loop_
 _symmetry_equiv_pos_site_id
 _symmetry_equiv_pos_as_xyz
  1  'x, y, z'
loop_
 _atom_site_type_symbol
 _atom_site_label
 _atom_site_symmetry_multiplicity
 _atom_site_fract_x
 _atom_site_fract_y
 _atom_site_fract_z
 _atom_site_occupancy
  Tb  Tb0  1  0.334679  0.665321  0.433597  1
  Tb  Tb1  1  0.665247  0.334753  0.562000  1
  Tb  Tb2  1  0.665247  0.334753  0.938000  1
  Tb  Tb3  1  0.334679  0.665321  0.066403  1
  Cu  Cu4  1  0.831150  0.168850  0.250000  1
  Tc  Tc5  1  0.173542  0.338483  0.750000  1
  Tc  Tc6  1  0.661517  0.826458  0.750000  1
  Ru  Ru7  1  0.999858  0.000142  0.498178  1
  Ru  Ru8  1  0.999858  0.000142  0.001822  1
  Ru  Ru9  1  0.822687  0.662521  0.250000  1
  Ru  Ru10  1  0.337479  0.177313  0.250000  1
  Ru  Ru11  1  0.174060  0.825940  0.750000  1
