# generated using pymatgen
data_Ca12TbYb(InN4)2
_symmetry_space_group_name_H-M   'P 1'
_cell_length_a   3.57286000
_cell_length_b   12.06308520
_cell_length_c   11.61249220
_cell_angle_alpha   90.02097969
_cell_angle_beta   90.00000000
_cell_angle_gamma   90.00000000
_symmetry_Int_Tables_number   1
_chemical_formula_structural   Ca12TbYb(InN4)2
_chemical_formula_sum   'Ca12 Tb1 Yb1 In2 N8'
_cell_volume   500.49506578
_cell_formula_units_Z   1
loop_
 _symmetry_equiv_pos_site_id
 _symmetry_equiv_pos_as_xyz
  1  'x, y, z'
loop_
 _atom_site_type_symbol
 _atom_site_label
 _atom_site_symmetry_multiplicity
 _atom_site_fract_x
 _atom_site_fract_y
 _atom_site_fract_z
 _atom_site_occupancy
  Ca  Ca0  1  0.498977  0.670952  0.237553  1
  Ca  Ca1  1  0.498977  0.329048  0.762447  1
  Ca  Ca2  1  0.501025  0.170125  0.265030  1
  Ca  Ca3  1  0.501025  0.829875  0.734970  1
  Ca  Ca4  1  0.000705  0.929517  0.266176  1
  Ca  Ca5  1  0.000705  0.070483  0.733824  1
  Ca  Ca6  1  0.999408  0.426815  0.239275  1
  Ca  Ca7  1  0.999408  0.573185  0.760725  1
  Ca  Ca8  1  0.001553  0.765246  0.479079  1
  Ca  Ca9  1  0.001553  0.234754  0.520921  1
  Ca  Ca10  1  0.998428  0.260085  0.022232  1
  Ca  Ca11  1  0.998428  0.739915  0.977768  1
  Tb  Tb12  1  0.498963  0.500000  0.000000  1
  Yb  Yb13  1  0.501200  0.000000  0.500000  1
  In  In14  1  0.510502  0.500000  0.500000  1
  In  In15  1  0.489068  0.000000  0.000000  1
  N  N16  1  0.998538  0.594211  0.120176  1
  N  N17  1  0.998538  0.405789  0.879824  1
  N  N18  1  0.001408  0.100344  0.372250  1
  N  N19  1  0.001408  0.899656  0.627750  1
  N  N20  1  0.501132  0.831105  0.357311  1
  N  N21  1  0.501132  0.168895  0.642689  1
  N  N22  1  0.498959  0.338007  0.136197  1
  N  N23  1  0.498959  0.661993  0.863803  1
