# generated using pymatgen
data_Dy7Y6Ho7(Cd3Ru)2
_symmetry_space_group_name_H-M   'P 1'
_cell_length_a   9.60096001
_cell_length_b   9.60096061
_cell_length_c   9.83224900
_cell_angle_alpha   90.00112330
_cell_angle_beta   89.99887960
_cell_angle_gamma   120.00355416
_symmetry_Int_Tables_number   1
_chemical_formula_structural   Dy7Y6Ho7(Cd3Ru)2
_chemical_formula_sum   'Dy7 Y6 Ho7 Cd6 Ru2'
_cell_volume   784.86921207
_cell_formula_units_Z   1
loop_
 _symmetry_equiv_pos_site_id
 _symmetry_equiv_pos_as_xyz
  1  'x, y, z'
loop_
 _atom_site_type_symbol
 _atom_site_label
 _atom_site_symmetry_multiplicity
 _atom_site_fract_x
 _atom_site_fract_y
 _atom_site_fract_z
 _atom_site_occupancy
  Dy  Dy0  1  0.209856  0.790144  0.439759  1
  Dy  Dy1  1  0.209854  0.419712  0.439766  1
  Dy  Dy2  1  0.580288  0.790146  0.439766  1
  Dy  Dy3  1  0.790159  0.209841  0.560195  1
  Dy  Dy4  1  0.790136  0.580291  0.560232  1
  Dy  Dy5  1  0.419709  0.209864  0.560232  1
  Dy  Dy6  1  0.790106  0.209894  0.939815  1
  Y  Y7  1  0.541165  0.458835  0.249902  1
  Y  Y8  1  0.541134  0.082313  0.249930  1
  Y  Y9  1  0.917687  0.458866  0.249930  1
  Y  Y10  1  0.458839  0.541161  0.750102  1
  Y  Y11  1  0.458795  0.917633  0.750079  1
  Y  Y12  1  0.082367  0.541205  0.750079  1
  Ho  Ho13  1  0.999996  0.000004  0.500008  1
  Ho  Ho14  1  0.000024  0.999976  0.000005  1
  Ho  Ho15  1  0.790092  0.580231  0.939831  1
  Ho  Ho16  1  0.419769  0.209908  0.939831  1
  Ho  Ho17  1  0.209917  0.790083  0.060184  1
  Ho  Ho18  1  0.209945  0.419844  0.060197  1
  Ho  Ho19  1  0.580156  0.790055  0.060197  1
  Cd  Cd20  1  0.885483  0.114517  0.249967  1
  Cd  Cd21  1  0.885475  0.770945  0.249949  1
  Cd  Cd22  1  0.229055  0.114525  0.249949  1
  Cd  Cd23  1  0.114527  0.885473  0.750052  1
  Cd  Cd24  1  0.114539  0.229051  0.750043  1
  Cd  Cd25  1  0.770949  0.885461  0.750043  1
  Ru  Ru26  1  0.333332  0.666668  0.249899  1
  Ru  Ru27  1  0.666647  0.333353  0.750057  1
