# generated using pymatgen
data_TbEr9In8(IrPd)2
_symmetry_space_group_name_H-M   'P 1'
_cell_length_a   3.60008100
_cell_length_b   8.09973006
_cell_length_c   18.18161963
_cell_angle_alpha   90.09589228
_cell_angle_beta   90.00000000
_cell_angle_gamma   90.00000000
_symmetry_Int_Tables_number   1
_chemical_formula_structural   TbEr9In8(IrPd)2
_chemical_formula_sum   'Tb1 Er9 In8 Ir2 Pd2'
_cell_volume   530.16954583
_cell_formula_units_Z   1
loop_
 _symmetry_equiv_pos_site_id
 _symmetry_equiv_pos_as_xyz
  1  'x, y, z'
loop_
 _atom_site_type_symbol
 _atom_site_label
 _atom_site_symmetry_multiplicity
 _atom_site_fract_x
 _atom_site_fract_y
 _atom_site_fract_z
 _atom_site_occupancy
  Tb  Tb0  1  0.000000  0.000000  0.000000  1
  Er  Er1  1  0.000000  0.500000  0.500000  1
  Er  Er2  1  0.000000  0.728102  0.277504  1
  Er  Er3  1  0.000000  0.271898  0.722496  1
  Er  Er4  1  0.000000  0.747161  0.779873  1
  Er  Er5  1  0.000000  0.252839  0.220127  1
  Er  Er6  1  0.000000  0.613467  0.087262  1
  Er  Er7  1  0.000000  0.386533  0.912738  1
  Er  Er8  1  0.000000  0.884936  0.584604  1
  Er  Er9  1  0.000000  0.115064  0.415396  1
  In  In10  1  0.500000  0.708640  0.931969  1
  In  In11  1  0.500000  0.291360  0.068031  1
  In  In12  1  0.500000  0.790742  0.432165  1
  In  In13  1  0.500000  0.209258  0.567835  1
  In  In14  1  0.500000  0.579113  0.648101  1
  In  In15  1  0.500000  0.420887  0.351899  1
  In  In16  1  0.500000  0.922052  0.150132  1
  In  In17  1  0.500000  0.077948  0.849868  1
  Ir  Ir18  1  0.500000  0.519281  0.195875  1
  Ir  Ir19  1  0.500000  0.480719  0.804125  1
  Pd  Pd20  1  0.500000  0.980734  0.696098  1
  Pd  Pd21  1  0.500000  0.019266  0.303902  1
