# generated using pymatgen
data_Mg4GaP5Ir7
_symmetry_space_group_name_H-M   'P 1'
_cell_length_a   6.88450631
_cell_length_b   6.88450605
_cell_length_c   6.88450600
_cell_angle_alpha   109.78386458
_cell_angle_beta   108.84791839
_cell_angle_gamma   109.78385066
_symmetry_Int_Tables_number   1
_chemical_formula_structural   Mg4GaP5Ir7
_chemical_formula_sum   'Mg4 Ga1 P5 Ir7'
_cell_volume   251.16378160
_cell_formula_units_Z   1
loop_
 _symmetry_equiv_pos_site_id
 _symmetry_equiv_pos_as_xyz
  1  'x, y, z'
loop_
 _atom_site_type_symbol
 _atom_site_label
 _atom_site_symmetry_multiplicity
 _atom_site_fract_x
 _atom_site_fract_y
 _atom_site_fract_z
 _atom_site_occupancy
  Mg  Mg0  1  0.504469  0.502004  0.504469  1
  Mg  Mg1  1  0.002431  0.000006  0.504450  1
  Mg  Mg2  1  0.504450  0.000006  0.002431  1
  Mg  Mg3  1  0.002382  0.497978  0.002382  1
  Ga  Ga4  1  0.298877  0.000270  0.298877  1
  P  P5  1  0.673600  0.999910  0.673600  1
  P  P6  1  0.999544  0.684384  0.683725  1
  P  P7  1  0.999621  0.315597  0.315378  1
  P  P8  1  0.683725  0.684384  0.999544  1
  P  P9  1  0.315378  0.315597  0.999621  1
  Ir  Ir10  1  0.983683  0.999886  0.983683  1
  Ir  Ir11  1  0.252853  0.746689  0.506151  1
  Ir  Ir12  1  0.253528  0.500007  0.753465  1
  Ir  Ir13  1  0.506151  0.746689  0.252853  1
  Ir  Ir14  1  0.506229  0.253294  0.759615  1
  Ir  Ir15  1  0.759615  0.253294  0.506229  1
  Ir  Ir16  1  0.753465  0.500007  0.253528  1
