# generated using pymatgen
data_CoBr13
_symmetry_space_group_name_H-M   'P 1'
_cell_length_a   11.25713439
_cell_length_b   9.63609764
_cell_length_c   12.86133438
_cell_angle_alpha   117.67884549
_cell_angle_beta   91.28935230
_cell_angle_gamma   104.76770050
_symmetry_Int_Tables_number   1
_chemical_formula_structural   CoBr13
_chemical_formula_sum   'Co2 Br26'
_cell_volume   1178.38342588
_cell_formula_units_Z   2
loop_
 _symmetry_equiv_pos_site_id
 _symmetry_equiv_pos_as_xyz
  1  'x, y, z'
loop_
 _atom_site_type_symbol
 _atom_site_label
 _atom_site_symmetry_multiplicity
 _atom_site_fract_x
 _atom_site_fract_y
 _atom_site_fract_z
 _atom_site_occupancy
  Co  Co0  1  0.342241  0.878012  0.930964  1
  Co  Co1  1  0.657759  0.121988  0.069036  1
  Br  Br2  1  0.372401  0.672056  0.972130  1
  Br  Br3  1  0.627599  0.327944  0.027870  1
  Br  Br4  1  0.581766  0.809107  0.389512  1
  Br  Br5  1  0.418234  0.190893  0.610488  1
  Br  Br6  1  0.723952  0.686675  0.001465  1
  Br  Br7  1  0.276048  0.313325  0.998535  1
  Br  Br8  1  0.698026  0.946687  0.145038  1
  Br  Br9  1  0.301974  0.053313  0.854962  1
  Br  Br10  1  0.448741  0.093136  0.123740  1
  Br  Br11  1  0.551259  0.906864  0.876260  1
  Br  Br12  1  0.246316  0.677322  0.725487  1
  Br  Br13  1  0.753684  0.322678  0.274513  1
  Br  Br14  1  0.141536  0.849519  0.988695  1
  Br  Br15  1  0.858464  0.150481  0.011305  1
  Br  Br16  1  0.110898  0.083470  0.204232  1
  Br  Br17  1  0.889102  0.916530  0.795768  1
  Br  Br18  1  0.270319  0.913598  0.461638  1
  Br  Br19  1  0.729681  0.086402  0.538362  1
  Br  Br20  1  0.330626  0.430912  0.659695  1
  Br  Br21  1  0.669374  0.569088  0.340305  1
  Br  Br22  1  0.857895  0.378550  0.696103  1
  Br  Br23  1  0.142105  0.621450  0.303897  1
  Br  Br24  1  0.954676  0.736927  0.616705  1
  Br  Br25  1  0.045324  0.263073  0.383295  1
  Br  Br26  1  0.250442  0.638435  0.131754  1
  Br  Br27  1  0.749558  0.361565  0.868246  1
