# generated using pymatgen
data_Yb3Ni4Bi9
_symmetry_space_group_name_H-M   'P 1'
_cell_length_a   4.26619900
_cell_length_b   8.61977555
_cell_length_c   11.21319983
_cell_angle_alpha   90.07504775
_cell_angle_beta   90.00000000
_cell_angle_gamma   90.00000000
_symmetry_Int_Tables_number   1
_chemical_formula_structural   Yb3Ni4Bi9
_chemical_formula_sum   'Yb3 Ni4 Bi9'
_cell_volume   412.35024422
_cell_formula_units_Z   1
loop_
 _symmetry_equiv_pos_site_id
 _symmetry_equiv_pos_as_xyz
  1  'x, y, z'
loop_
 _atom_site_type_symbol
 _atom_site_label
 _atom_site_symmetry_multiplicity
 _atom_site_fract_x
 _atom_site_fract_y
 _atom_site_fract_z
 _atom_site_occupancy
  Yb  Yb0  1  0.750000  0.223272  0.634634  1
  Yb  Yb1  1  0.250000  0.776614  0.376521  1
  Yb  Yb2  1  0.750000  0.726789  0.867900  1
  Ni  Ni3  1  0.250000  0.086739  0.486297  1
  Ni  Ni4  1  0.750000  0.904107  0.529411  1
  Ni  Ni5  1  0.250000  0.583686  0.018223  1
  Ni  Ni6  1  0.750000  0.405924  0.977739  1
  Bi  Bi7  1  0.250000  0.294049  0.112251  1
  Bi  Bi8  1  0.750000  0.105606  0.925035  1
  Bi  Bi9  1  0.250000  0.883932  0.080762  1
  Bi  Bi10  1  0.750000  0.600028  0.573922  1
  Bi  Bi11  1  0.250000  0.385615  0.421295  1
  Bi  Bi12  1  0.250000  0.426735  0.814166  1
  Bi  Bi13  1  0.750000  0.600094  0.167819  1
  Bi  Bi14  1  0.250000  0.912785  0.677879  1
  Bi  Bi15  1  0.750000  0.084026  0.336145  1
