# generated using pymatgen
data_Ho9ErTm2Th4(MgRh)4
_symmetry_space_group_name_H-M   'P 1'
_cell_length_a   9.73285562
_cell_length_b   9.73967469
_cell_length_c   9.75455039
_cell_angle_alpha   59.90319809
_cell_angle_beta   59.97251839
_cell_angle_gamma   59.92385360
_symmetry_Int_Tables_number   1
_chemical_formula_structural   Ho9ErTm2Th4(MgRh)4
_chemical_formula_sum   'Ho9 Er1 Tm2 Th4 Mg4 Rh4'
_cell_volume   652.85695171
_cell_formula_units_Z   1
loop_
 _symmetry_equiv_pos_site_id
 _symmetry_equiv_pos_as_xyz
  1  'x, y, z'
loop_
 _atom_site_type_symbol
 _atom_site_label
 _atom_site_symmetry_multiplicity
 _atom_site_fract_x
 _atom_site_fract_y
 _atom_site_fract_z
 _atom_site_occupancy
  Ho  Ho0  1  0.186252  0.814280  0.185857  1
  Ho  Ho1  1  0.814280  0.186252  0.813612  1
  Ho  Ho2  1  0.186915  0.186915  0.813085  1
  Ho  Ho3  1  0.814661  0.814661  0.185339  1
  Ho  Ho4  1  0.935345  0.566879  0.565181  1
  Ho  Ho5  1  0.566879  0.935345  0.932595  1
  Ho  Ho6  1  0.567019  0.935415  0.565156  1
  Ho  Ho7  1  0.935415  0.567019  0.932410  1
  Ho  Ho8  1  0.567019  0.567019  0.932981  1
  Er  Er9  1  0.935080  0.935080  0.564920  1
  Tm  Tm10  1  0.813418  0.187278  0.186752  1
  Tm  Tm11  1  0.187278  0.813418  0.812552  1
  Th  Th12  1  0.349117  0.348433  0.347315  1
  Th  Th13  1  0.348433  0.349117  0.955132  1
  Th  Th14  1  0.350447  0.950635  0.349817  1
  Th  Th15  1  0.950635  0.350447  0.349099  1
  Mg  Mg16  1  0.578806  0.578556  0.583195  1
  Mg  Mg17  1  0.578556  0.578806  0.259440  1
  Mg  Mg18  1  0.579188  0.257313  0.581779  1
  Mg  Mg19  1  0.257313  0.579188  0.581718  1
  Rh  Rh20  1  0.142256  0.143966  0.146699  1
  Rh  Rh21  1  0.143966  0.142256  0.567078  1
  Rh  Rh22  1  0.142527  0.569187  0.142996  1
  Rh  Rh23  1  0.569187  0.142527  0.145287  1
