# generated using pymatgen
data_Sb2Te7Cl8
_symmetry_space_group_name_H-M   'P 1'
_cell_length_a   5.59559551
_cell_length_b   13.46386520
_cell_length_c   16.17552085
_cell_angle_alpha   104.18527074
_cell_angle_beta   92.08726200
_cell_angle_gamma   97.47977820
_symmetry_Int_Tables_number   1
_chemical_formula_structural   Sb2Te7Cl8
_chemical_formula_sum   'Sb4 Te14 Cl16'
_cell_volume   1168.46273722
_cell_formula_units_Z   2
loop_
 _symmetry_equiv_pos_site_id
 _symmetry_equiv_pos_as_xyz
  1  'x, y, z'
loop_
 _atom_site_type_symbol
 _atom_site_label
 _atom_site_symmetry_multiplicity
 _atom_site_fract_x
 _atom_site_fract_y
 _atom_site_fract_z
 _atom_site_occupancy
  Sb  Sb0  1  0.771173  0.258020  0.261255  1
  Sb  Sb1  1  0.228827  0.741980  0.738745  1
  Sb  Sb2  1  0.889966  0.585617  0.378979  1
  Sb  Sb3  1  0.110034  0.414383  0.621021  1
  Te  Te4  1  0.804027  0.975030  0.556425  1
  Te  Te5  1  0.195973  0.024970  0.443575  1
  Te  Te6  1  0.456344  0.806577  0.170057  1
  Te  Te7  1  0.543656  0.193423  0.829943  1
  Te  Te8  1  0.177338  0.957935  0.155419  1
  Te  Te9  1  0.822662  0.042065  0.844581  1
  Te  Te10  1  0.791781  0.838073  0.046645  1
  Te  Te11  1  0.208219  0.161927  0.953355  1
  Te  Te12  1  0.057489  0.650119  0.050407  1
  Te  Te13  1  0.942511  0.349881  0.949593  1
  Te  Te14  1  0.342969  0.484950  0.063604  1
  Te  Te15  1  0.657031  0.515050  0.936396  1
  Te  Te16  1  0.566890  0.145608  0.571771  1
  Te  Te17  1  0.433110  0.854392  0.428229  1
  Cl  Cl18  1  0.802217  0.153443  0.115209  1
  Cl  Cl19  1  0.197783  0.846557  0.884791  1
  Cl  Cl20  1  0.363888  0.279760  0.227422  1
  Cl  Cl21  1  0.636112  0.720240  0.772578  1
  Cl  Cl22  1  0.906794  0.435940  0.214598  1
  Cl  Cl23  1  0.093206  0.564060  0.785402  1
  Cl  Cl24  1  0.826176  0.717627  0.512577  1
  Cl  Cl25  1  0.173824  0.282373  0.487423  1
  Cl  Cl26  1  0.715168  0.435984  0.431023  1
  Cl  Cl27  1  0.284832  0.564016  0.568977  1
  Cl  Cl28  1  0.502068  0.602417  0.317361  1
  Cl  Cl29  1  0.497932  0.397583  0.682639  1
  Cl  Cl30  1  0.049208  0.767048  0.308910  1
  Cl  Cl31  1  0.950792  0.232952  0.691090  1
  Cl  Cl32  1  0.391065  0.913479  0.698318  1
  Cl  Cl33  1  0.608935  0.086521  0.301682  1
