# generated using pymatgen
data_Ba4InAu17
_symmetry_space_group_name_H-M   'P 1'
_cell_length_a   9.29431226
_cell_length_b   9.12854999
_cell_length_c   9.12855291
_cell_angle_alpha   58.58048160
_cell_angle_beta   59.03644803
_cell_angle_gamma   59.03644507
_symmetry_Int_Tables_number   1
_chemical_formula_structural   Ba4InAu17
_chemical_formula_sum   'Ba4 In1 Au17'
_cell_volume   533.68544635
_cell_formula_units_Z   1
loop_
 _symmetry_equiv_pos_site_id
 _symmetry_equiv_pos_as_xyz
  1  'x, y, z'
loop_
 _atom_site_type_symbol
 _atom_site_label
 _atom_site_symmetry_multiplicity
 _atom_site_fract_x
 _atom_site_fract_y
 _atom_site_fract_z
 _atom_site_occupancy
  Ba  Ba0  1  0.374227  0.393383  0.421006  1
  Ba  Ba1  1  0.881129  0.921737  0.893955  1
  Ba  Ba2  1  0.618871  0.606045  0.578263  1
  Ba  Ba3  1  0.125773  0.078994  0.106617  1
  In  In4  1  0.750000  0.568424  0.931576  1
  Au  Au5  1  0.060090  0.239910  0.446330  1
  Au  Au6  1  0.439910  0.053670  0.260090  1
  Au  Au7  1  0.250000  0.434333  0.065667  1
  Au  Au8  1  0.936418  0.757818  0.555129  1
  Au  Au9  1  0.563582  0.944871  0.742182  1
  Au  Au10  1  0.974497  0.322209  0.746078  1
  Au  Au11  1  0.737361  0.995832  0.322872  1
  Au  Au12  1  0.366947  0.707644  0.974023  1
  Au  Au13  1  0.231775  0.829310  0.495865  1
  Au  Au14  1  0.475410  0.241262  0.830327  1
  Au  Au15  1  0.873679  0.475273  0.201548  1
  Au  Au16  1  0.024590  0.669673  0.258738  1
  Au  Au17  1  0.268225  0.004135  0.670690  1
  Au  Au18  1  0.626321  0.298452  0.024727  1
  Au  Au19  1  0.762639  0.177128  0.504168  1
  Au  Au20  1  0.525503  0.753922  0.177791  1
  Au  Au21  1  0.133053  0.525977  0.792356  1
