# generated using pymatgen
data_Dy4Pa(In2Ir)2
_symmetry_space_group_name_H-M   'P 1'
_cell_length_a   8.02255200
_cell_length_b   18.30151174
_cell_length_c   3.62593900
_cell_angle_alpha   90.00000000
_cell_angle_beta   90.00000000
_cell_angle_gamma   90.52446772
_symmetry_Int_Tables_number   1
_chemical_formula_structural   Dy4Pa(In2Ir)2
_chemical_formula_sum   'Dy8 Pa2 In8 Ir4'
_cell_volume   532.35557194
_cell_formula_units_Z   2
loop_
 _symmetry_equiv_pos_site_id
 _symmetry_equiv_pos_as_xyz
  1  'x, y, z'
loop_
 _atom_site_type_symbol
 _atom_site_label
 _atom_site_symmetry_multiplicity
 _atom_site_fract_x
 _atom_site_fract_y
 _atom_site_fract_z
 _atom_site_occupancy
  Dy  Dy0  1  0.500000  0.500000  0.000000  1
  Dy  Dy1  1  0.000000  0.000000  0.000000  1
  Dy  Dy2  1  0.750275  0.777519  0.000000  1
  Dy  Dy3  1  0.249725  0.222481  0.000000  1
  Dy  Dy4  1  0.619544  0.084882  0.000000  1
  Dy  Dy5  1  0.380456  0.915118  0.000000  1
  Dy  Dy6  1  0.882494  0.585664  0.000000  1
  Dy  Dy7  1  0.117506  0.414336  0.000000  1
  Pa  Pa8  1  0.752371  0.274984  0.000000  1
  Pa  Pa9  1  0.247629  0.725016  0.000000  1
  In  In10  1  0.705072  0.930944  0.500000  1
  In  In11  1  0.294928  0.069056  0.500000  1
  In  In12  1  0.793532  0.435327  0.500000  1
  In  In13  1  0.206468  0.564673  0.500000  1
  In  In14  1  0.571888  0.647995  0.500000  1
  In  In15  1  0.428112  0.352005  0.500000  1
  In  In16  1  0.937881  0.145033  0.500000  1
  In  In17  1  0.062119  0.854967  0.500000  1
  Ir  Ir18  1  0.551287  0.203452  0.500000  1
  Ir  Ir19  1  0.448713  0.796548  0.500000  1
  Ir  Ir20  1  0.000776  0.696152  0.500000  1
  Ir  Ir21  1  0.999224  0.303848  0.500000  1
