# generated using pymatgen
data_La2Ni7B2Ir
_symmetry_space_group_name_H-M   'P 1'
_cell_length_a   5.10726200
_cell_length_b   5.20841862
_cell_length_c   7.01791300
_cell_angle_alpha   90.00000000
_cell_angle_beta   90.00000000
_cell_angle_gamma   119.35959921
_symmetry_Int_Tables_number   1
_chemical_formula_structural   La2Ni7B2Ir
_chemical_formula_sum   'La2 Ni7 B2 Ir1'
_cell_volume   162.70434958
_cell_formula_units_Z   1
loop_
 _symmetry_equiv_pos_site_id
 _symmetry_equiv_pos_as_xyz
  1  'x, y, z'
loop_
 _atom_site_type_symbol
 _atom_site_label
 _atom_site_symmetry_multiplicity
 _atom_site_fract_x
 _atom_site_fract_y
 _atom_site_fract_z
 _atom_site_occupancy
  La  La0  1  0.000000  0.000000  0.494169  1
  La  La1  1  0.000000  0.000000  0.992342  1
  Ni  Ni2  1  0.327149  0.654300  0.506291  1
  Ni  Ni3  1  0.672851  0.345700  0.506291  1
  Ni  Ni4  1  0.500000  0.000000  0.793000  1
  Ni  Ni5  1  0.000000  0.500000  0.204022  1
  Ni  Ni6  1  0.000000  0.500000  0.796299  1
  Ni  Ni7  1  0.500000  0.500000  0.204022  1
  Ni  Ni8  1  0.500000  0.500000  0.796299  1
  B  B9  1  0.331503  0.663009  0.998075  1
  B  B10  1  0.668497  0.336991  0.998075  1
  Ir  Ir11  1  0.500000  0.000000  0.211115  1
