# generated using pymatgen
data_K16CeThSb8
_symmetry_space_group_name_H-M   'P 1'
_cell_length_a   11.79386861
_cell_length_b   11.79386796
_cell_length_c   11.79386900
_cell_angle_alpha   59.99999988
_cell_angle_beta   60.00000171
_cell_angle_gamma   60.00000255
_symmetry_Int_Tables_number   1
_chemical_formula_structural   K16CeThSb8
_chemical_formula_sum   'K16 Ce1 Th1 Sb8'
_cell_volume   1159.98897542
_cell_formula_units_Z   1
loop_
 _symmetry_equiv_pos_site_id
 _symmetry_equiv_pos_as_xyz
  1  'x, y, z'
loop_
 _atom_site_type_symbol
 _atom_site_label
 _atom_site_symmetry_multiplicity
 _atom_site_fract_x
 _atom_site_fract_y
 _atom_site_fract_z
 _atom_site_occupancy
  K  K0  1  0.624201  0.127398  0.624201  1
  K  K1  1  0.624201  0.624201  0.127398  1
  K  K2  1  0.127398  0.624201  0.624201  1
  K  K3  1  0.624201  0.624201  0.624201  1
  K  K4  1  0.031769  0.031769  0.468231  1
  K  K5  1  0.781510  0.218490  0.218490  1
  K  K6  1  0.218490  0.781510  0.781510  1
  K  K7  1  0.781510  0.781510  0.218490  1
  K  K8  1  0.781510  0.218490  0.781510  1
  K  K9  1  0.218490  0.781510  0.218490  1
  K  K10  1  0.468231  0.031769  0.468231  1
  K  K11  1  0.468231  0.031769  0.031769  1
  K  K12  1  0.031769  0.468231  0.468231  1
  K  K13  1  0.031769  0.468231  0.031769  1
  K  K14  1  0.218490  0.218490  0.781510  1
  K  K15  1  0.468231  0.468231  0.031769  1
  Ce  Ce16  1  0.500000  0.500000  0.500000  1
  Th  Th17  1  0.750000  0.750000  0.750000  1
  Sb  Sb18  1  0.394468  0.816595  0.394468  1
  Sb  Sb19  1  0.856756  0.856756  0.429731  1
  Sb  Sb20  1  0.429731  0.856756  0.856756  1
  Sb  Sb21  1  0.856756  0.856756  0.856756  1
  Sb  Sb22  1  0.816595  0.394468  0.394468  1
  Sb  Sb23  1  0.394468  0.394468  0.394468  1
  Sb  Sb24  1  0.394468  0.394468  0.816595  1
  Sb  Sb25  1  0.856756  0.429731  0.856756  1
