# generated using pymatgen
data_Lu3TiGa4Rh
_symmetry_space_group_name_H-M   'P 1'
_cell_length_a   6.85939500
_cell_length_b   7.01041478
_cell_length_c   4.19325400
_cell_angle_alpha   90.00000000
_cell_angle_beta   90.00000000
_cell_angle_gamma   119.28991658
_symmetry_Int_Tables_number   1
_chemical_formula_structural   Lu3TiGa4Rh
_chemical_formula_sum   'Lu3 Ti1 Ga4 Rh1'
_cell_volume   175.86303478
_cell_formula_units_Z   1
loop_
 _symmetry_equiv_pos_site_id
 _symmetry_equiv_pos_as_xyz
  1  'x, y, z'
loop_
 _atom_site_type_symbol
 _atom_site_label
 _atom_site_symmetry_multiplicity
 _atom_site_fract_x
 _atom_site_fract_y
 _atom_site_fract_z
 _atom_site_occupancy
  Lu  Lu0  1  0.589473  0.000000  0.500000  1
  Lu  Lu1  1  0.414851  0.416575  0.500000  1
  Lu  Lu2  1  0.998275  0.583425  0.500000  1
  Ti  Ti3  1  0.220409  0.000000  0.000000  1
  Ga  Ga4  1  0.006729  0.246932  0.000000  1
  Ga  Ga5  1  0.659133  0.321899  0.000000  1
  Ga  Ga6  1  0.337233  0.678101  0.000000  1
  Ga  Ga7  1  0.759797  0.753068  0.000000  1
  Rh  Rh8  1  0.014100  0.000000  0.500000  1
