# generated using pymatgen
data_AlVSi2Pb2O9
_symmetry_space_group_name_H-M   'P 1'
_cell_length_a   6.97370900
_cell_length_b   10.04912600
_cell_length_c   11.09907600
_cell_angle_alpha   90.00000000
_cell_angle_beta   90.00000000
_cell_angle_gamma   90.00000000
_symmetry_Int_Tables_number   1
_chemical_formula_structural   AlVSi2Pb2O9
_chemical_formula_sum   'Al4 V4 Si8 Pb8 O36'
_cell_volume   777.81969913
_cell_formula_units_Z   4
loop_
 _symmetry_equiv_pos_site_id
 _symmetry_equiv_pos_as_xyz
  1  'x, y, z'
loop_
 _atom_site_type_symbol
 _atom_site_label
 _atom_site_symmetry_multiplicity
 _atom_site_fract_x
 _atom_site_fract_y
 _atom_site_fract_z
 _atom_site_occupancy
  Al  Al0  1  0.500000  0.500000  0.000000  1
  Al  Al1  1  0.000000  0.500000  0.500000  1
  Al  Al2  1  0.500000  0.000000  0.000000  1
  Al  Al3  1  0.000000  0.000000  0.500000  1
  V  V4  1  0.500000  0.250000  0.853613  1
  V  V5  1  0.000000  0.250000  0.353613  1
  V  V6  1  0.500000  0.750000  0.146387  1
  V  V7  1  0.000000  0.750000  0.646387  1
  Si  Si8  1  0.717726  0.249766  0.587613  1
  Si  Si9  1  0.217726  0.250234  0.087613  1
  Si  Si10  1  0.282274  0.750234  0.412387  1
  Si  Si11  1  0.217726  0.750234  0.912387  1
  Si  Si12  1  0.717726  0.749766  0.412387  1
  Si  Si13  1  0.282274  0.250234  0.587613  1
  Si  Si14  1  0.782274  0.749766  0.912387  1
  Si  Si15  1  0.782274  0.249766  0.087613  1
  Pb  Pb16  1  0.048521  0.547797  0.199382  1
  Pb  Pb17  1  0.048521  0.047797  0.800618  1
  Pb  Pb18  1  0.451479  0.047797  0.300618  1
  Pb  Pb19  1  0.548521  0.952203  0.699382  1
  Pb  Pb20  1  0.951479  0.952203  0.199382  1
  Pb  Pb21  1  0.548521  0.452203  0.300618  1
  Pb  Pb22  1  0.951479  0.452203  0.800618  1
  Pb  Pb23  1  0.451479  0.547797  0.699382  1
  O  O24  1  0.693640  0.900611  0.895850  1
  O  O25  1  0.390329  0.568192  0.140357  1
  O  O26  1  0.306360  0.599389  0.895850  1
  O  O27  1  0.609671  0.431808  0.859643  1
  O  O28  1  0.500000  0.750000  0.475278  1
  O  O29  1  0.890329  0.431808  0.359643  1
  O  O30  1  0.345593  0.840472  0.004759  1
  O  O31  1  0.306360  0.099389  0.104150  1
  O  O32  1  0.691921  0.180896  0.721631  1
  O  O33  1  0.191921  0.819104  0.778369  1
  O  O34  1  0.345593  0.340472  0.995241  1
  O  O35  1  0.154407  0.840472  0.504759  1
  O  O36  1  0.109671  0.068192  0.359643  1
  O  O37  1  0.845593  0.659528  0.504759  1
  O  O38  1  0.691921  0.680896  0.278369  1
  O  O39  1  0.308079  0.319104  0.721631  1
  O  O40  1  0.193640  0.099389  0.604150  1
  O  O41  1  0.308079  0.819104  0.278369  1
  O  O42  1  0.191921  0.319104  0.221631  1
  O  O43  1  0.390329  0.068192  0.859643  1
  O  O44  1  0.000000  0.750000  0.975278  1
  O  O45  1  0.890329  0.931808  0.640357  1
  O  O46  1  0.845593  0.159528  0.495241  1
  O  O47  1  0.109671  0.568192  0.640357  1
  O  O48  1  0.806360  0.400611  0.604150  1
  O  O49  1  0.154407  0.340472  0.495241  1
  O  O50  1  0.609671  0.931808  0.140357  1
  O  O51  1  0.193640  0.599389  0.395850  1
  O  O52  1  0.693640  0.400611  0.104150  1
  O  O53  1  0.808079  0.680896  0.778369  1
  O  O54  1  0.806360  0.900611  0.395850  1
  O  O55  1  0.654407  0.159528  0.995241  1
  O  O56  1  0.654407  0.659528  0.004759  1
  O  O57  1  0.000000  0.250000  0.024722  1
  O  O58  1  0.808079  0.180896  0.221631  1
  O  O59  1  0.500000  0.250000  0.524722  1
