# generated using pymatgen
data_Tm2Mn4P7(Ir3Rh)2
_symmetry_space_group_name_H-M   'P 1'
_cell_length_a   9.40436237
_cell_length_b   9.42433244
_cell_length_c   3.84609500
_cell_angle_alpha   90.00000000
_cell_angle_beta   90.00000000
_cell_angle_gamma   120.04076549
_symmetry_Int_Tables_number   1
_chemical_formula_structural   Tm2Mn4P7(Ir3Rh)2
_chemical_formula_sum   'Tm2 Mn4 P7 Ir6 Rh2'
_cell_volume   295.08833704
_cell_formula_units_Z   1
loop_
 _symmetry_equiv_pos_site_id
 _symmetry_equiv_pos_as_xyz
  1  'x, y, z'
loop_
 _atom_site_type_symbol
 _atom_site_label
 _atom_site_symmetry_multiplicity
 _atom_site_fract_x
 _atom_site_fract_y
 _atom_site_fract_z
 _atom_site_occupancy
  Tm  Tm0  1  0.999750  0.000271  0.000000  1
  Tm  Tm1  1  0.667060  0.333661  0.500000  1
  Mn  Mn2  1  0.222704  0.395231  0.000000  1
  Mn  Mn3  1  0.603237  0.823524  0.000000  1
  Mn  Mn4  1  0.175265  0.777638  0.000000  1
  Mn  Mn5  1  0.107825  0.542846  0.500000  1
  P  P6  1  0.443915  0.366457  0.000000  1
  P  P7  1  0.634018  0.075793  0.000000  1
  P  P8  1  0.925945  0.556401  0.000000  1
  P  P9  1  0.057736  0.271274  0.500000  1
  P  P10  1  0.730323  0.789517  0.500000  1
  P  P11  1  0.209462  0.941376  0.500000  1
  P  P12  1  0.332243  0.665523  0.000000  1
  Ir  Ir13  1  0.698082  0.598984  0.000000  1
  Ir  Ir14  1  0.401447  0.098742  0.000000  1
  Ir  Ir15  1  0.902383  0.304206  0.000000  1
  Ir  Ir16  1  0.273132  0.217159  0.500000  1
  Ir  Ir17  1  0.780677  0.055288  0.500000  1
  Ir  Ir18  1  0.943383  0.723814  0.500000  1
  Rh  Rh19  1  0.462449  0.567685  0.500000  1
  Rh  Rh20  1  0.428962  0.894612  0.500000  1
