# generated using pymatgen
data_Ca4Sn5SbPd18
_symmetry_space_group_name_H-M   'P 1'
_cell_length_a   8.03822923
_cell_length_b   8.03822880
_cell_length_c   9.42800767
_cell_angle_alpha   90.09048203
_cell_angle_beta   90.09047794
_cell_angle_gamma   119.78537289
_symmetry_Int_Tables_number   1
_chemical_formula_structural   Ca4Sn5SbPd18
_chemical_formula_sum   'Ca4 Sn5 Sb1 Pd18'
_cell_volume   528.69397420
_cell_formula_units_Z   1
loop_
 _symmetry_equiv_pos_site_id
 _symmetry_equiv_pos_as_xyz
  1  'x, y, z'
loop_
 _atom_site_type_symbol
 _atom_site_label
 _atom_site_symmetry_multiplicity
 _atom_site_fract_x
 _atom_site_fract_y
 _atom_site_fract_z
 _atom_site_occupancy
  Ca  Ca0  1  0.327549  0.016289  0.750205  1
  Ca  Ca1  1  0.672233  0.982770  0.249883  1
  Ca  Ca2  1  0.017230  0.327767  0.750117  1
  Ca  Ca3  1  0.983711  0.672451  0.249795  1
  Sn  Sn4  1  0.000006  0.999994  0.500000  1
  Sn  Sn5  1  0.677220  0.322780  0.000000  1
  Sn  Sn6  1  0.322803  0.677197  0.500000  1
  Sn  Sn7  1  0.322731  0.677269  0.000000  1
  Sn  Sn8  1  0.000042  0.999958  0.000000  1
  Sb  Sb9  1  0.677271  0.322729  0.500000  1
  Pd  Pd10  1  0.333761  0.333236  0.966178  1
  Pd  Pd11  1  0.452010  0.647167  0.750496  1
  Pd  Pd12  1  0.550259  0.353374  0.251225  1
  Pd  Pd13  1  0.646626  0.449741  0.748775  1
  Pd  Pd14  1  0.003185  0.338560  0.082730  1
  Pd  Pd15  1  0.997787  0.661653  0.582121  1
  Pd  Pd16  1  0.338347  0.002213  0.417879  1
  Pd  Pd17  1  0.661440  0.996815  0.917270  1
  Pd  Pd18  1  0.996917  0.661344  0.916830  1
  Pd  Pd19  1  0.000675  0.338464  0.418617  1
  Pd  Pd20  1  0.661536  0.999325  0.581383  1
  Pd  Pd21  1  0.858105  0.858586  0.749814  1
  Pd  Pd22  1  0.332454  0.333564  0.533324  1
  Pd  Pd23  1  0.666764  0.666239  0.033822  1
  Pd  Pd24  1  0.338656  0.003083  0.083170  1
  Pd  Pd25  1  0.666436  0.667546  0.466676  1
  Pd  Pd26  1  0.141414  0.141895  0.250186  1
  Pd  Pd27  1  0.352833  0.547990  0.249504  1
