# generated using pymatgen
data_LaPr4Nd(SiPd5)2
_symmetry_space_group_name_H-M   'P 1'
_cell_length_a   8.47275497
_cell_length_b   8.47545823
_cell_length_c   8.47545830
_cell_angle_alpha   127.30655174
_cell_angle_beta   126.24846182
_cell_angle_gamma   78.62429156
_symmetry_Int_Tables_number   1
_chemical_formula_structural   LaPr4Nd(SiPd5)2
_chemical_formula_sum   'La1 Pr4 Nd1 Si2 Pd10'
_cell_volume   377.89400394
_cell_formula_units_Z   1
loop_
 _symmetry_equiv_pos_site_id
 _symmetry_equiv_pos_as_xyz
  1  'x, y, z'
loop_
 _atom_site_type_symbol
 _atom_site_label
 _atom_site_symmetry_multiplicity
 _atom_site_fract_x
 _atom_site_fract_y
 _atom_site_fract_z
 _atom_site_occupancy
  La  La0  1  0.614942  0.749969  0.864973  1
  Pr  Pr1  1  0.821743  0.049531  0.772213  1
  Pr  Pr2  1  0.222946  0.450544  0.772404  1
  Pr  Pr3  1  0.178983  0.950915  0.228067  1
  Pr  Pr4  1  0.387754  0.250094  0.137660  1
  Nd  Nd5  1  0.777722  0.549054  0.228667  1
  Si  Si6  1  0.210042  0.749842  0.460201  1
  Si  Si7  1  0.788367  0.250016  0.538351  1
  Pd  Pd8  1  0.829241  0.591414  0.636783  1
  Pd  Pd9  1  0.545910  0.308069  0.637625  1
  Pd  Pd10  1  0.453707  0.091317  0.761215  1
  Pd  Pd11  1  0.829241  0.192458  0.237828  1
  Pd  Pd12  1  0.169528  0.409082  0.362364  1
  Pd  Pd13  1  0.453707  0.692492  0.362390  1
  Pd  Pd14  1  0.545910  0.908283  0.237841  1
  Pd  Pd15  1  0.169528  0.807164  0.760447  1
  Pd  Pd16  1  0.000364  0.000563  0.501170  1
  Pd  Pd17  1  0.000364  0.499195  0.999801  1
