# generated using pymatgen
data_Dy6InFe2
_symmetry_space_group_name_H-M   'P 1'
_cell_length_a   8.43838870
_cell_length_b   8.43838833
_cell_length_c   8.43838834
_cell_angle_alpha   111.68565828
_cell_angle_beta   109.74939428
_cell_angle_gamma   107.01242013
_symmetry_Int_Tables_number   1
_chemical_formula_structural   Dy6InFe2
_chemical_formula_sum   'Dy12 In2 Fe4'
_cell_volume   461.77429283
_cell_formula_units_Z   2
loop_
 _symmetry_equiv_pos_site_id
 _symmetry_equiv_pos_as_xyz
  1  'x, y, z'
loop_
 _atom_site_type_symbol
 _atom_site_label
 _atom_site_symmetry_multiplicity
 _atom_site_fract_x
 _atom_site_fract_y
 _atom_site_fract_z
 _atom_site_occupancy
  Dy  Dy0  1  0.188474  0.292103  0.480577  1
  Dy  Dy1  1  0.811526  0.707897  0.519423  1
  Dy  Dy2  1  0.188474  0.707897  0.896372  1
  Dy  Dy3  1  0.811526  0.292103  0.103628  1
  Dy  Dy4  1  0.311260  0.609606  0.298347  1
  Dy  Dy5  1  0.688740  0.390394  0.701653  1
  Dy  Dy6  1  0.311260  0.012913  0.701653  1
  Dy  Dy7  1  0.688740  0.987087  0.298347  1
  Dy  Dy8  1  0.443530  0.227476  0.216054  1
  Dy  Dy9  1  0.556470  0.772524  0.783946  1
  Dy  Dy10  1  0.011422  0.227476  0.783946  1
  Dy  Dy11  1  0.988578  0.772524  0.216054  1
  In  In12  1  0.500000  0.500000  0.000000  1
  In  In13  1  0.000000  0.000000  0.000000  1
  Fe  Fe14  1  0.106859  0.606859  0.500000  1
  Fe  Fe15  1  0.893141  0.393141  0.500000  1
  Fe  Fe16  1  0.387796  0.000000  0.387796  1
  Fe  Fe17  1  0.612204  0.000000  0.612204  1
