# generated using pymatgen
data_Tb13Ho3In3AgIr4
_symmetry_space_group_name_H-M   'P 1'
_cell_length_a   9.64357310
_cell_length_b   9.65994316
_cell_length_c   9.64753293
_cell_angle_alpha   60.17195667
_cell_angle_beta   60.14520776
_cell_angle_gamma   60.16192377
_symmetry_Int_Tables_number   1
_chemical_formula_structural   Tb13Ho3In3AgIr4
_chemical_formula_sum   'Tb13 Ho3 In3 Ag1 Ir4'
_cell_volume   637.79601427
_cell_formula_units_Z   1
loop_
 _symmetry_equiv_pos_site_id
 _symmetry_equiv_pos_as_xyz
  1  'x, y, z'
loop_
 _atom_site_type_symbol
 _atom_site_label
 _atom_site_symmetry_multiplicity
 _atom_site_fract_x
 _atom_site_fract_y
 _atom_site_fract_z
 _atom_site_occupancy
  Tb  Tb0  1  0.309966  0.687732  0.310727  1
  Tb  Tb1  1  0.938106  0.559834  0.559751  1
  Tb  Tb2  1  0.310207  0.311383  0.686869  1
  Tb  Tb3  1  0.098818  0.099504  0.099699  1
  Tb  Tb4  1  0.559559  0.559303  0.938231  1
  Tb  Tb5  1  0.099876  0.099993  0.701075  1
  Tb  Tb6  1  0.690016  0.309318  0.689404  1
  Tb  Tb7  1  0.690419  0.689795  0.308781  1
  Tb  Tb8  1  0.686942  0.311193  0.310852  1
  Tb  Tb9  1  0.308104  0.690446  0.690422  1
  Tb  Tb10  1  0.560068  0.937612  0.559717  1
  Tb  Tb11  1  0.701815  0.099812  0.099882  1
  Tb  Tb12  1  0.558975  0.941011  0.940832  1
  Ho  Ho13  1  0.099588  0.701842  0.099811  1
  Ho  Ho14  1  0.941634  0.941038  0.558486  1
  Ho  Ho15  1  0.942147  0.558115  0.941419  1
  In  In16  1  0.005267  0.332624  0.331773  1
  In  In17  1  0.332047  0.005228  0.332478  1
  In  In18  1  0.331625  0.332931  0.005303  1
  Ag  Ag19  1  0.332423  0.333326  0.332467  1
  Ir  Ir20  1  0.893291  0.890314  0.892075  1
  Ir  Ir21  1  0.892480  0.890823  0.325734  1
  Ir  Ir22  1  0.324901  0.890566  0.892368  1
  Ir  Ir23  1  0.891722  0.326254  0.891842  1
