# generated using pymatgen
data_TbNd3CdHgPd4
_symmetry_space_group_name_H-M   'P 1'
_cell_length_a   3.88405200
_cell_length_b   7.79432566
_cell_length_c   7.81784140
_cell_angle_alpha   89.68480138
_cell_angle_beta   90.00000000
_cell_angle_gamma   90.00000000
_symmetry_Int_Tables_number   1
_chemical_formula_structural   TbNd3CdHgPd4
_chemical_formula_sum   'Tb1 Nd3 Cd1 Hg1 Pd4'
_cell_volume   236.67035761
_cell_formula_units_Z   1
loop_
 _symmetry_equiv_pos_site_id
 _symmetry_equiv_pos_as_xyz
  1  'x, y, z'
loop_
 _atom_site_type_symbol
 _atom_site_label
 _atom_site_symmetry_multiplicity
 _atom_site_fract_x
 _atom_site_fract_y
 _atom_site_fract_z
 _atom_site_occupancy
  Tb  Tb0  1  0.500000  0.683296  0.839104  1
  Nd  Nd1  1  0.500000  0.162155  0.684003  1
  Nd  Nd2  1  0.500000  0.836588  0.318078  1
  Nd  Nd3  1  0.500000  0.317568  0.161284  1
  Cd  Cd4  1  0.000000  0.501088  0.500203  1
  Hg  Hg5  1  0.000000  0.996584  0.997636  1
  Pd  Pd6  1  0.000000  0.619623  0.133254  1
  Pd  Pd7  1  0.000000  0.389932  0.858924  1
  Pd  Pd8  1  0.000000  0.855892  0.623555  1
  Pd  Pd9  1  0.000000  0.137273  0.383958  1
