# generated using pymatgen
data_Nd4Ho2Al17Si7Os8
_symmetry_space_group_name_H-M   'P 1'
_cell_length_a   8.75883556
_cell_length_b   8.73769860
_cell_length_c   9.57517800
_cell_angle_alpha   90.00000000
_cell_angle_beta   90.00000000
_cell_angle_gamma   120.16957970
_symmetry_Int_Tables_number   1
_chemical_formula_structural   Nd4Ho2Al17Si7Os8
_chemical_formula_sum   'Nd4 Ho2 Al17 Si7 Os8'
_cell_volume   633.54323887
_cell_formula_units_Z   1
loop_
 _symmetry_equiv_pos_site_id
 _symmetry_equiv_pos_as_xyz
  1  'x, y, z'
loop_
 _atom_site_type_symbol
 _atom_site_label
 _atom_site_symmetry_multiplicity
 _atom_site_fract_x
 _atom_site_fract_y
 _atom_site_fract_z
 _atom_site_occupancy
  Nd  Nd0  1  0.190323  0.382485  0.250000  1
  Nd  Nd1  1  0.809895  0.619327  0.750000  1
  Nd  Nd2  1  0.383031  0.188875  0.750000  1
  Nd  Nd3  1  0.805315  0.189859  0.750000  1
  Ho  Ho4  1  0.610095  0.807084  0.250000  1
  Ho  Ho5  1  0.196441  0.805114  0.250000  1
  Al  Al6  1  0.165284  0.331519  0.575853  1
  Al  Al7  1  0.834700  0.672212  0.420001  1
  Al  Al8  1  0.670095  0.834530  0.573340  1
  Al  Al9  1  0.834700  0.672212  0.079999  1
  Al  Al10  1  0.329875  0.164899  0.421745  1
  Al  Al11  1  0.165284  0.331519  0.924147  1
  Al  Al12  1  0.164346  0.833819  0.572064  1
  Al  Al13  1  0.329875  0.164899  0.078255  1
  Al  Al14  1  0.834440  0.163183  0.421304  1
  Al  Al15  1  0.670095  0.834530  0.926660  1
  Al  Al16  1  0.834440  0.163183  0.078696  1
  Al  Al17  1  0.164346  0.833819  0.927936  1
  Al  Al18  1  0.128723  0.568061  0.750000  1
  Al  Al19  1  0.566354  0.435647  0.250000  1
  Al  Al20  1  0.438589  0.568509  0.750000  1
  Al  Al21  1  0.996775  0.993357  0.250000  1
  Al  Al22  1  0.999807  0.001416  0.750000  1
  Si  Si23  1  0.334329  0.666497  0.038878  1
  Si  Si24  1  0.666618  0.336361  0.966120  1
  Si  Si25  1  0.666618  0.336361  0.533880  1
  Si  Si26  1  0.334329  0.666497  0.461122  1
  Si  Si27  1  0.564272  0.122853  0.250000  1
  Si  Si28  1  0.435157  0.870556  0.750000  1
  Si  Si29  1  0.873698  0.435823  0.250000  1
  Os  Os30  1  0.500278  0.999700  0.004205  1
  Os  Os31  1  0.999068  0.500735  0.008108  1
  Os  Os32  1  0.500278  0.999700  0.495795  1
  Os  Os33  1  0.501001  0.501451  0.001947  1
  Os  Os34  1  0.999068  0.500735  0.491892  1
  Os  Os35  1  0.501001  0.501451  0.498053  1
  Os  Os36  1  0.000728  0.000608  0.000274  1
  Os  Os37  1  0.000728  0.000608  0.499726  1
