# generated using pymatgen
data_Pr3Mn10N11
_symmetry_space_group_name_H-M   'P 1'
_cell_length_a   9.09844345
_cell_length_b   9.09844350
_cell_length_c   9.09844300
_cell_angle_alpha   59.99999819
_cell_angle_beta   59.99999799
_cell_angle_gamma   60.00000096
_symmetry_Int_Tables_number   1
_chemical_formula_structural   Pr3Mn10N11
_chemical_formula_sum   'Pr6 Mn20 N22'
_cell_volume   532.58174214
_cell_formula_units_Z   2
loop_
 _symmetry_equiv_pos_site_id
 _symmetry_equiv_pos_as_xyz
  1  'x, y, z'
loop_
 _atom_site_type_symbol
 _atom_site_label
 _atom_site_symmetry_multiplicity
 _atom_site_fract_x
 _atom_site_fract_y
 _atom_site_fract_z
 _atom_site_occupancy
  Pr  Pr0  1  0.696344  0.303656  0.303656  1
  Pr  Pr1  1  0.303656  0.696344  0.696344  1
  Pr  Pr2  1  0.303656  0.696344  0.303656  1
  Pr  Pr3  1  0.696344  0.303656  0.696344  1
  Pr  Pr4  1  0.303656  0.303656  0.696344  1
  Pr  Pr5  1  0.696344  0.696344  0.303656  1
  Mn  Mn6  1  0.096662  0.096662  0.096662  1
  Mn  Mn7  1  0.903338  0.903338  0.903338  1
  Mn  Mn8  1  0.096662  0.096662  0.710014  1
  Mn  Mn9  1  0.096662  0.710014  0.096662  1
  Mn  Mn10  1  0.903338  0.903338  0.289986  1
  Mn  Mn11  1  0.903338  0.289986  0.903338  1
  Mn  Mn12  1  0.710014  0.096662  0.096662  1
  Mn  Mn13  1  0.289986  0.903338  0.903338  1
  Mn  Mn14  1  0.396730  0.103270  0.103270  1
  Mn  Mn15  1  0.603270  0.896730  0.896730  1
  Mn  Mn16  1  0.103270  0.396730  0.396730  1
  Mn  Mn17  1  0.103270  0.396730  0.103270  1
  Mn  Mn18  1  0.603270  0.896730  0.603270  1
  Mn  Mn19  1  0.896730  0.603270  0.603270  1
  Mn  Mn20  1  0.896730  0.603270  0.896730  1
  Mn  Mn21  1  0.396730  0.103270  0.396730  1
  Mn  Mn22  1  0.103270  0.103270  0.396730  1
  Mn  Mn23  1  0.896730  0.896730  0.603270  1
  Mn  Mn24  1  0.396730  0.396730  0.103270  1
  Mn  Mn25  1  0.603270  0.603270  0.896730  1
  N  N26  1  0.342890  0.000000  0.000000  1
  N  N27  1  0.657110  0.000000  0.000000  1
  N  N28  1  0.000000  0.342890  0.657110  1
  N  N29  1  0.000000  0.657110  0.342890  1
  N  N30  1  0.000000  0.342890  0.000000  1
  N  N31  1  0.657110  0.000000  0.342890  1
  N  N32  1  0.000000  0.657110  0.000000  1
  N  N33  1  0.342890  0.000000  0.657110  1
  N  N34  1  0.000000  0.000000  0.342890  1
  N  N35  1  0.000000  0.000000  0.657110  1
  N  N36  1  0.657110  0.342890  0.000000  1
  N  N37  1  0.342890  0.657110  0.000000  1
  N  N38  1  0.355791  0.355791  0.355791  1
  N  N39  1  0.644209  0.644209  0.644209  1
  N  N40  1  0.355791  0.355791  0.932626  1
  N  N41  1  0.355791  0.932626  0.355791  1
  N  N42  1  0.644209  0.644209  0.067374  1
  N  N43  1  0.644209  0.067374  0.644209  1
  N  N44  1  0.932626  0.355791  0.355791  1
  N  N45  1  0.067374  0.644209  0.644209  1
  N  N46  1  0.500000  0.500000  0.500000  1
  N  N47  1  0.000000  0.000000  0.000000  1
