# generated using pymatgen
data_Hf3Zr3SiBiPb
_symmetry_space_group_name_H-M   'P 1'
_cell_length_a   7.64603300
_cell_length_b   7.64603291
_cell_length_c   3.96270100
_cell_angle_alpha   90.00000000
_cell_angle_beta   90.00000000
_cell_angle_gamma   119.99999607
_symmetry_Int_Tables_number   1
_chemical_formula_structural   Hf3Zr3SiBiPb
_chemical_formula_sum   'Hf3 Zr3 Si1 Bi1 Pb1'
_cell_volume   200.62926606
_cell_formula_units_Z   1
loop_
 _symmetry_equiv_pos_site_id
 _symmetry_equiv_pos_as_xyz
  1  'x, y, z'
loop_
 _atom_site_type_symbol
 _atom_site_label
 _atom_site_symmetry_multiplicity
 _atom_site_fract_x
 _atom_site_fract_y
 _atom_site_fract_z
 _atom_site_occupancy
  Hf  Hf0  1  0.233343  0.996739  0.000000  1
  Hf  Hf1  1  0.763397  0.766657  0.000000  1
  Hf  Hf2  1  0.003261  0.236603  0.000000  1
  Zr  Zr3  1  0.615210  0.999649  0.500000  1
  Zr  Zr4  1  0.384439  0.384790  0.500000  1
  Zr  Zr5  1  0.000351  0.615561  0.500000  1
  Si  Si6  1  0.000000  0.000000  0.500000  1
  Bi  Bi7  1  0.666667  0.333333  0.000000  1
  Pb  Pb8  1  0.333333  0.666667  0.000000  1
