# generated using pymatgen
data_Pr3Y13(CdIr)4
_symmetry_space_group_name_H-M   'P 1'
_cell_length_a   9.74552159
_cell_length_b   9.75466160
_cell_length_c   9.73703460
_cell_angle_alpha   59.99770013
_cell_angle_beta   59.88650431
_cell_angle_gamma   59.91140165
_symmetry_Int_Tables_number   1
_chemical_formula_structural   Pr3Y13(CdIr)4
_chemical_formula_sum   'Pr3 Y13 Cd4 Ir4'
_cell_volume   653.51633022
_cell_formula_units_Z   1
loop_
 _symmetry_equiv_pos_site_id
 _symmetry_equiv_pos_as_xyz
  1  'x, y, z'
loop_
 _atom_site_type_symbol
 _atom_site_label
 _atom_site_symmetry_multiplicity
 _atom_site_fract_x
 _atom_site_fract_y
 _atom_site_fract_z
 _atom_site_occupancy
  Pr  Pr0  1  0.938985  0.561015  0.938985  1
  Pr  Pr1  1  0.562169  0.565458  0.935790  1
  Pr  Pr2  1  0.935790  0.936583  0.562169  1
  Y  Y3  1  0.350362  0.347463  0.348651  1
  Y  Y4  1  0.350799  0.349380  0.954468  1
  Y  Y5  1  0.348651  0.953522  0.350362  1
  Y  Y6  1  0.954468  0.345352  0.350799  1
  Y  Y7  1  0.811295  0.188124  0.188264  1
  Y  Y8  1  0.188264  0.812317  0.811295  1
  Y  Y9  1  0.189044  0.810956  0.189044  1
  Y  Y10  1  0.811264  0.188736  0.811264  1
  Y  Y11  1  0.189470  0.190124  0.809690  1
  Y  Y12  1  0.809690  0.810716  0.189470  1
  Y  Y13  1  0.941818  0.558959  0.554233  1
  Y  Y14  1  0.554233  0.944990  0.941818  1
  Y  Y15  1  0.558859  0.941141  0.558859  1
  Cd  Cd16  1  0.582302  0.581570  0.577873  1
  Cd  Cd17  1  0.578595  0.582580  0.260097  1
  Cd  Cd18  1  0.577873  0.258254  0.582302  1
  Cd  Cd19  1  0.260097  0.578727  0.578595  1
  Ir  Ir20  1  0.146156  0.139217  0.139329  1
  Ir  Ir21  1  0.144505  0.142041  0.575981  1
  Ir  Ir22  1  0.139329  0.575299  0.146156  1
  Ir  Ir23  1  0.575981  0.137473  0.144505  1
