# generated using pymatgen
data_Nd3Ho3TcSb2
_symmetry_space_group_name_H-M   'P 1'
_cell_length_a   8.30312900
_cell_length_b   8.30312906
_cell_length_c   4.32604700
_cell_angle_alpha   90.00000000
_cell_angle_beta   90.00000000
_cell_angle_gamma   119.99999579
_symmetry_Int_Tables_number   1
_chemical_formula_structural   Nd3Ho3TcSb2
_chemical_formula_sum   'Nd3 Ho3 Tc1 Sb2'
_cell_volume   258.28873023
_cell_formula_units_Z   1
loop_
 _symmetry_equiv_pos_site_id
 _symmetry_equiv_pos_as_xyz
  1  'x, y, z'
loop_
 _atom_site_type_symbol
 _atom_site_label
 _atom_site_symmetry_multiplicity
 _atom_site_fract_x
 _atom_site_fract_y
 _atom_site_fract_z
 _atom_site_occupancy
  Nd  Nd0  1  0.600496  0.000000  0.500000  1
  Nd  Nd1  1  0.399504  0.399504  0.500000  1
  Nd  Nd2  1  0.000000  0.600496  0.500000  1
  Ho  Ho3  1  0.232010  0.000000  0.000000  1
  Ho  Ho4  1  0.767990  0.767990  0.000000  1
  Ho  Ho5  1  0.000000  0.232010  0.000000  1
  Tc  Tc6  1  0.000000  0.000000  0.500000  1
  Sb  Sb7  1  0.333333  0.666667  0.000000  1
  Sb  Sb8  1  0.666667  0.333333  0.000000  1
