# generated using pymatgen
data_La6Nd10Cd4Co3Ir
_symmetry_space_group_name_H-M   'P 1'
_cell_length_a   9.88639867
_cell_length_b   9.91733542
_cell_length_c   9.91234968
_cell_angle_alpha   59.45703079
_cell_angle_beta   60.34943588
_cell_angle_gamma   60.36536540
_symmetry_Int_Tables_number   1
_chemical_formula_structural   La6Nd10Cd4Co3Ir
_chemical_formula_sum   'La6 Nd10 Cd4 Co3 Ir1'
_cell_volume   687.99801151
_cell_formula_units_Z   1
loop_
 _symmetry_equiv_pos_site_id
 _symmetry_equiv_pos_as_xyz
  1  'x, y, z'
loop_
 _atom_site_type_symbol
 _atom_site_label
 _atom_site_symmetry_multiplicity
 _atom_site_fract_x
 _atom_site_fract_y
 _atom_site_fract_z
 _atom_site_occupancy
  La  La0  1  0.338042  0.349772  0.349751  1
  La  La1  1  0.343568  0.346955  0.958380  1
  La  La2  1  0.343560  0.958350  0.346989  1
  La  La3  1  0.962601  0.348375  0.348404  1
  La  La4  1  0.821656  0.187155  0.187166  1
  La  La5  1  0.185949  0.814011  0.813921  1
  Nd  Nd6  1  0.191249  0.809085  0.189373  1
  Nd  Nd7  1  0.812640  0.190086  0.803892  1
  Nd  Nd8  1  0.191252  0.189402  0.809025  1
  Nd  Nd9  1  0.812630  0.803936  0.190062  1
  Nd  Nd10  1  0.934912  0.565564  0.565531  1
  Nd  Nd11  1  0.562300  0.936932  0.936950  1
  Nd  Nd12  1  0.562040  0.939898  0.559108  1
  Nd  Nd13  1  0.937393  0.561324  0.938284  1
  Nd  Nd14  1  0.562007  0.559124  0.939905  1
  Nd  Nd15  1  0.937401  0.938296  0.561295  1
  Cd  Cd16  1  0.581633  0.579173  0.579210  1
  Cd  Cd17  1  0.580130  0.581447  0.258863  1
  Cd  Cd18  1  0.580139  0.258835  0.581470  1
  Cd  Cd19  1  0.257608  0.580142  0.580159  1
  Co  Co20  1  0.132055  0.145126  0.145168  1
  Co  Co21  1  0.145756  0.135112  0.577829  1
  Co  Co22  1  0.145722  0.577801  0.135157  1
  Ir  Ir23  1  0.577753  0.144097  0.144106  1
