# generated using pymatgen
data_RbLa6TcBr12
_symmetry_space_group_name_H-M   'P 1'
_cell_length_a   9.79688887
_cell_length_b   9.61723697
_cell_length_c   9.79921747
_cell_angle_alpha   104.73814168
_cell_angle_beta   104.95213217
_cell_angle_gamma   104.39880303
_symmetry_Int_Tables_number   1
_chemical_formula_structural   RbLa6TcBr12
_chemical_formula_sum   'Rb1 La6 Tc1 Br12'
_cell_volume   812.38968374
_cell_formula_units_Z   1
loop_
 _symmetry_equiv_pos_site_id
 _symmetry_equiv_pos_as_xyz
  1  'x, y, z'
loop_
 _atom_site_type_symbol
 _atom_site_label
 _atom_site_symmetry_multiplicity
 _atom_site_fract_x
 _atom_site_fract_y
 _atom_site_fract_z
 _atom_site_occupancy
  Rb  Rb0  1  0.500000  0.500000  0.500000  1
  La  La1  1  0.097427  0.295277  0.010519  1
  La  La2  1  0.312066  0.009281  0.107153  1
  La  La3  1  0.010843  0.107049  0.311374  1
  La  La4  1  0.989156  0.892951  0.688626  1
  La  La5  1  0.687934  0.990718  0.892846  1
  La  La6  1  0.902573  0.704723  0.989481  1
  Tc  Tc7  1  0.000000  0.000000  0.000000  1
  Br  Br8  1  0.213358  0.671596  0.072898  1
  Br  Br9  1  0.425454  0.333971  0.119247  1
  Br  Br10  1  0.674445  0.075605  0.211761  1
  Br  Br11  1  0.925091  0.787801  0.325173  1
  Br  Br12  1  0.119113  0.430549  0.336463  1
  Br  Br13  1  0.333154  0.115673  0.428970  1
  Br  Br14  1  0.666846  0.884327  0.571030  1
  Br  Br15  1  0.880886  0.569451  0.663537  1
  Br  Br16  1  0.074910  0.212200  0.674828  1
  Br  Br17  1  0.325556  0.924396  0.788239  1
  Br  Br18  1  0.574545  0.666028  0.880753  1
  Br  Br19  1  0.786642  0.328405  0.927102  1
