# generated using pymatgen
data_Tb3Y3(BCl3)2
_symmetry_space_group_name_H-M   'P 1'
_cell_length_a   9.49020654
_cell_length_b   9.48817467
_cell_length_c   9.48817456
_cell_angle_alpha   109.52381031
_cell_angle_beta   109.47461242
_cell_angle_gamma   109.40659747
_symmetry_Int_Tables_number   1
_chemical_formula_structural   Tb3Y3(BCl3)2
_chemical_formula_sum   'Tb6 Y6 B4 Cl12'
_cell_volume   657.75638983
_cell_formula_units_Z   2
loop_
 _symmetry_equiv_pos_site_id
 _symmetry_equiv_pos_as_xyz
  1  'x, y, z'
loop_
 _atom_site_type_symbol
 _atom_site_label
 _atom_site_symmetry_multiplicity
 _atom_site_fract_x
 _atom_site_fract_y
 _atom_site_fract_z
 _atom_site_occupancy
  Tb  Tb0  1  0.470066  0.484868  0.234864  1
  Tb  Tb1  1  0.750102  0.235172  0.264799  1
  Tb  Tb2  1  0.749898  0.014697  0.485070  1
  Tb  Tb3  1  0.235363  0.470407  0.485152  1
  Tb  Tb4  1  0.264637  0.749790  0.235043  1
  Tb  Tb5  1  0.029934  0.264799  0.014802  1
  Y  Y6  1  0.015463  0.030662  0.265499  1
  Y  Y7  1  0.484537  0.750036  0.015200  1
  Y  Y8  1  0.484701  0.234539  0.469410  1
  Y  Y9  1  0.015299  0.484708  0.749838  1
  Y  Y10  1  0.265129  0.015089  0.030276  1
  Y  Y11  1  0.234871  0.265148  0.749960  1
  B  B12  1  0.249966  0.249842  0.249940  1
  B  B13  1  0.499981  0.999967  0.249922  1
  B  B14  1  0.000019  0.249941  0.499986  1
  B  B15  1  0.250034  0.499974  0.999876  1
  Cl  Cl16  1  0.249894  0.755717  0.745311  1
  Cl  Cl17  1  0.510645  0.505059  0.755358  1
  Cl  Cl18  1  0.989355  0.744713  0.994413  1
  Cl  Cl19  1  0.744235  0.250424  0.754791  1
  Cl  Cl20  1  0.995529  0.989301  0.745116  1
  Cl  Cl21  1  0.250106  0.995417  0.505823  1
  Cl  Cl22  1  0.755765  0.510555  0.506189  1
  Cl  Cl23  1  0.504471  0.249587  0.993772  1
  Cl  Cl24  1  0.755816  0.745117  0.249542  1
  Cl  Cl25  1  0.744184  0.993726  0.989301  1
  Cl  Cl26  1  0.994584  0.505362  0.249968  1
  Cl  Cl27  1  0.505416  0.755385  0.510778  1
