# generated using pymatgen
data_Nd12Co3NiCl12
_symmetry_space_group_name_H-M   'P 1'
_cell_length_a   10.04733018
_cell_length_b   10.04732927
_cell_length_c   10.04732944
_cell_angle_alpha   109.60480361
_cell_angle_beta   109.60480543
_cell_angle_gamma   109.60479676
_symmetry_Int_Tables_number   1
_chemical_formula_structural   Nd12Co3NiCl12
_chemical_formula_sum   'Nd12 Co3 Ni1 Cl12'
_cell_volume   776.89696568
_cell_formula_units_Z   1
loop_
 _symmetry_equiv_pos_site_id
 _symmetry_equiv_pos_as_xyz
  1  'x, y, z'
loop_
 _atom_site_type_symbol
 _atom_site_label
 _atom_site_symmetry_multiplicity
 _atom_site_fract_x
 _atom_site_fract_y
 _atom_site_fract_z
 _atom_site_occupancy
  Nd  Nd0  1  0.475443  0.490871  0.235423  1
  Nd  Nd1  1  0.750000  0.237337  0.262663  1
  Nd  Nd2  1  0.750000  0.012454  0.487546  1
  Nd  Nd3  1  0.235423  0.475443  0.490871  1
  Nd  Nd4  1  0.262663  0.750000  0.237337  1
  Nd  Nd5  1  0.024557  0.264577  0.009129  1
  Nd  Nd6  1  0.009129  0.024557  0.264577  1
  Nd  Nd7  1  0.487546  0.750000  0.012454  1
  Nd  Nd8  1  0.490871  0.235423  0.475443  1
  Nd  Nd9  1  0.012454  0.487546  0.750000  1
  Nd  Nd10  1  0.264577  0.009129  0.024557  1
  Nd  Nd11  1  0.237337  0.262663  0.750000  1
  Co  Co12  1  0.499903  0.000097  0.250000  1
  Co  Co13  1  0.000097  0.250000  0.499903  1
  Co  Co14  1  0.250000  0.499903  0.000097  1
  Ni  Ni15  1  0.250000  0.250000  0.250000  1
  Cl  Cl16  1  0.250000  0.754529  0.745471  1
  Cl  Cl17  1  0.507828  0.503816  0.753376  1
  Cl  Cl18  1  0.992172  0.746624  0.996184  1
  Cl  Cl19  1  0.745471  0.250000  0.754529  1
  Cl  Cl20  1  0.996184  0.992172  0.746624  1
  Cl  Cl21  1  0.250000  0.996230  0.503770  1
  Cl  Cl22  1  0.753376  0.507828  0.503816  1
  Cl  Cl23  1  0.503770  0.250000  0.996230  1
  Cl  Cl24  1  0.754529  0.745471  0.250000  1
  Cl  Cl25  1  0.746624  0.996184  0.992172  1
  Cl  Cl26  1  0.996230  0.503770  0.250000  1
  Cl  Cl27  1  0.503816  0.753376  0.507828  1
