# generated using pymatgen
data_Ce4Mn2InB6
_symmetry_space_group_name_H-M   'P 1'
_cell_length_a   5.30161979
_cell_length_b   5.30162109
_cell_length_c   8.38000266
_cell_angle_alpha   71.55913693
_cell_angle_beta   71.55914454
_cell_angle_gamma   60.00000160
_symmetry_Int_Tables_number   1
_chemical_formula_structural   Ce4Mn2InB6
_chemical_formula_sum   'Ce4 Mn2 In1 B6'
_cell_volume   189.88795797
_cell_formula_units_Z   1
loop_
 _symmetry_equiv_pos_site_id
 _symmetry_equiv_pos_as_xyz
  1  'x, y, z'
loop_
 _atom_site_type_symbol
 _atom_site_label
 _atom_site_symmetry_multiplicity
 _atom_site_fract_x
 _atom_site_fract_y
 _atom_site_fract_z
 _atom_site_occupancy
  Ce  Ce0  1  0.746149  0.746149  0.761553  1
  Ce  Ce1  1  0.253851  0.253851  0.238447  1
  Ce  Ce2  1  0.587197  0.587197  0.238408  1
  Ce  Ce3  1  0.412803  0.412803  0.761592  1
  Mn  Mn4  1  0.883854  0.883854  0.348441  1
  Mn  Mn5  1  0.116146  0.116146  0.651560  1
  In  In6  1  0.000000  0.000000  0.000000  1
  B  B7  1  0.500000  0.167826  0.500000  1
  B  B8  1  0.832174  0.500000  0.500000  1
  B  B9  1  0.167826  0.832174  0.500000  1
  B  B10  1  0.167826  0.500000  0.500000  1
  B  B11  1  0.832174  0.167826  0.500000  1
  B  B12  1  0.500000  0.832174  0.500000  1
