# generated using pymatgen
data_Lu3(Al3Ru)4
_symmetry_space_group_name_H-M   'P 1'
_cell_length_a   8.74420100
_cell_length_b   8.74420058
_cell_length_c   9.54982400
_cell_angle_alpha   90.00000000
_cell_angle_beta   90.00000000
_cell_angle_gamma   119.99999782
_symmetry_Int_Tables_number   1
_chemical_formula_structural   Lu3(Al3Ru)4
_chemical_formula_sum   'Lu6 Al24 Ru8'
_cell_volume   632.36270999
_cell_formula_units_Z   2
loop_
 _symmetry_equiv_pos_site_id
 _symmetry_equiv_pos_as_xyz
  1  'x, y, z'
loop_
 _atom_site_type_symbol
 _atom_site_label
 _atom_site_symmetry_multiplicity
 _atom_site_fract_x
 _atom_site_fract_y
 _atom_site_fract_z
 _atom_site_occupancy
  Lu  Lu0  1  0.194934  0.389867  0.250000  1
  Lu  Lu1  1  0.805066  0.610133  0.750000  1
  Lu  Lu2  1  0.610133  0.805066  0.250000  1
  Lu  Lu3  1  0.389867  0.194934  0.750000  1
  Lu  Lu4  1  0.194934  0.805066  0.250000  1
  Lu  Lu5  1  0.805066  0.194934  0.750000  1
  Al  Al6  1  0.333333  0.666667  0.018625  1
  Al  Al7  1  0.666667  0.333333  0.981375  1
  Al  Al8  1  0.666667  0.333333  0.518625  1
  Al  Al9  1  0.333333  0.666667  0.481375  1
  Al  Al10  1  0.162424  0.324849  0.578629  1
  Al  Al11  1  0.837576  0.675151  0.421371  1
  Al  Al12  1  0.675151  0.837576  0.578629  1
  Al  Al13  1  0.837576  0.675151  0.078629  1
  Al  Al14  1  0.324849  0.162424  0.421371  1
  Al  Al15  1  0.162424  0.324849  0.921371  1
  Al  Al16  1  0.162424  0.837576  0.578629  1
  Al  Al17  1  0.324849  0.162424  0.078629  1
  Al  Al18  1  0.837576  0.162424  0.421371  1
  Al  Al19  1  0.675151  0.837576  0.921371  1
  Al  Al20  1  0.837576  0.162424  0.078629  1
  Al  Al21  1  0.162424  0.837576  0.921371  1
  Al  Al22  1  0.560843  0.121685  0.250000  1
  Al  Al23  1  0.439157  0.878315  0.750000  1
  Al  Al24  1  0.878315  0.439157  0.250000  1
  Al  Al25  1  0.121685  0.560843  0.750000  1
  Al  Al26  1  0.560843  0.439157  0.250000  1
  Al  Al27  1  0.439157  0.560843  0.750000  1
  Al  Al28  1  0.000000  0.000000  0.250000  1
  Al  Al29  1  0.000000  0.000000  0.750000  1
  Ru  Ru30  1  0.500000  0.000000  0.000000  1
  Ru  Ru31  1  0.000000  0.500000  0.000000  1
  Ru  Ru32  1  0.500000  0.000000  0.500000  1
  Ru  Ru33  1  0.500000  0.500000  0.000000  1
  Ru  Ru34  1  0.000000  0.500000  0.500000  1
  Ru  Ru35  1  0.500000  0.500000  0.500000  1
  Ru  Ru36  1  0.000000  0.000000  0.000000  1
  Ru  Ru37  1  0.000000  0.000000  0.500000  1
