# generated using pymatgen
data_Te(SCl6)2
_symmetry_space_group_name_H-M   'P 1'
_cell_length_a   8.65483661
_cell_length_b   8.65483621
_cell_length_c   8.65483752
_cell_angle_alpha   79.00076845
_cell_angle_beta   79.00077221
_cell_angle_gamma   79.00076602
_symmetry_Int_Tables_number   1
_chemical_formula_structural   Te(SCl6)2
_chemical_formula_sum   'Te1 S2 Cl12'
_cell_volume   616.62994502
_cell_formula_units_Z   1
loop_
 _symmetry_equiv_pos_site_id
 _symmetry_equiv_pos_as_xyz
  1  'x, y, z'
loop_
 _atom_site_type_symbol
 _atom_site_label
 _atom_site_symmetry_multiplicity
 _atom_site_fract_x
 _atom_site_fract_y
 _atom_site_fract_z
 _atom_site_occupancy
  Te  Te0  1  0.000000  0.000000  0.000000  1
  S  S1  1  0.208535  0.208535  0.208535  1
  S  S2  1  0.791465  0.791465  0.791465  1
  Cl  Cl3  1  0.833495  0.833495  0.548701  1
  Cl  Cl4  1  0.868666  0.194947  0.194947  1
  Cl  Cl5  1  0.194947  0.194947  0.868666  1
  Cl  Cl6  1  0.194947  0.868666  0.194947  1
  Cl  Cl7  1  0.805053  0.131334  0.805053  1
  Cl  Cl8  1  0.131334  0.805053  0.805053  1
  Cl  Cl9  1  0.805053  0.805053  0.131334  1
  Cl  Cl10  1  0.451299  0.166505  0.166505  1
  Cl  Cl11  1  0.166505  0.166505  0.451299  1
  Cl  Cl12  1  0.166505  0.451299  0.166505  1
  Cl  Cl13  1  0.833495  0.548701  0.833495  1
  Cl  Cl14  1  0.548701  0.833495  0.833495  1
