# generated using pymatgen
data_HoTm9(SiPb3)2
_symmetry_space_group_name_H-M   'P 1'
_cell_length_a   9.22711414
_cell_length_b   9.22711511
_cell_length_c   6.44431900
_cell_angle_alpha   90.00000000
_cell_angle_beta   90.00000000
_cell_angle_gamma   119.97982491
_symmetry_Int_Tables_number   1
_chemical_formula_structural   HoTm9(SiPb3)2
_chemical_formula_sum   'Ho1 Tm9 Si2 Pb6'
_cell_volume   475.25615353
_cell_formula_units_Z   1
loop_
 _symmetry_equiv_pos_site_id
 _symmetry_equiv_pos_as_xyz
  1  'x, y, z'
loop_
 _atom_site_type_symbol
 _atom_site_label
 _atom_site_symmetry_multiplicity
 _atom_site_fract_x
 _atom_site_fract_y
 _atom_site_fract_z
 _atom_site_occupancy
  Ho  Ho0  1  0.749918  0.749918  0.250000  1
  Tm  Tm1  1  0.666655  0.333240  0.499943  1
  Tm  Tm2  1  0.333240  0.666655  0.499943  1
  Tm  Tm3  1  0.333240  0.666655  0.000057  1
  Tm  Tm4  1  0.666655  0.333240  0.000057  1
  Tm  Tm5  1  0.249428  0.999961  0.250000  1
  Tm  Tm6  1  0.999961  0.249428  0.250000  1
  Tm  Tm7  1  0.249495  0.249495  0.750000  1
  Tm  Tm8  1  0.750492  0.000081  0.750000  1
  Tm  Tm9  1  0.000081  0.750492  0.750000  1
  Si  Si10  1  0.000446  0.000446  0.500464  1
  Si  Si11  1  0.000446  0.000446  0.999536  1
  Pb  Pb12  1  0.392532  0.392532  0.250000  1
  Pb  Pb13  1  0.607046  0.000340  0.250000  1
  Pb  Pb14  1  0.000340  0.607046  0.250000  1
  Pb  Pb15  1  0.607074  0.607074  0.750000  1
  Pb  Pb16  1  0.392941  0.000008  0.750000  1
  Pb  Pb17  1  0.000008  0.392941  0.750000  1
