# generated using pymatgen
data_CdSi6Ag6(SnP4)3
_symmetry_space_group_name_H-M   'P 1'
_cell_length_a   9.06035055
_cell_length_b   9.06035165
_cell_length_c   8.97330700
_cell_angle_alpha   109.27672717
_cell_angle_beta   109.27672961
_cell_angle_gamma   109.66501013
_symmetry_Int_Tables_number   1
_chemical_formula_structural   CdSi6Ag6(SnP4)3
_chemical_formula_sum   'Cd1 Si6 Ag6 Sn3 P12'
_cell_volume   568.40449445
_cell_formula_units_Z   1
loop_
 _symmetry_equiv_pos_site_id
 _symmetry_equiv_pos_as_xyz
  1  'x, y, z'
loop_
 _atom_site_type_symbol
 _atom_site_label
 _atom_site_symmetry_multiplicity
 _atom_site_fract_x
 _atom_site_fract_y
 _atom_site_fract_z
 _atom_site_occupancy
  Cd  Cd0  1  0.000000  0.000000  0.599550  1
  Si  Si1  1  0.251954  0.753751  0.499684  1
  Si  Si2  1  0.748046  0.501797  0.247730  1
  Si  Si3  1  0.753751  0.251954  0.499684  1
  Si  Si4  1  0.498203  0.246249  0.745933  1
  Si  Si5  1  0.501797  0.748046  0.247730  1
  Si  Si6  1  0.246249  0.498203  0.745933  1
  Ag  Ag7  1  0.204402  0.000000  0.205478  1
  Ag  Ag8  1  0.000000  0.800195  0.800253  1
  Ag  Ag9  1  0.000000  0.204402  0.205478  1
  Ag  Ag10  1  0.795598  0.795598  0.001076  1
  Ag  Ag11  1  0.800195  0.000000  0.800253  1
  Ag  Ag12  1  0.199805  0.199805  0.000058  1
  Sn  Sn13  1  0.592147  0.000000  0.996744  1
  Sn  Sn14  1  0.000000  0.592147  0.996744  1
  Sn  Sn15  1  0.407853  0.407853  0.404597  1
  P  P16  1  0.000000  0.504019  0.246809  1
  P  P17  1  0.504019  0.000000  0.246809  1
  P  P18  1  0.499498  0.745633  0.499204  1
  P  P19  1  0.246134  0.500502  0.999705  1
  P  P20  1  0.745633  0.499498  0.499204  1
  P  P21  1  0.254367  0.753866  0.753571  1
  P  P22  1  0.753866  0.254367  0.753571  1
  P  P23  1  0.245926  0.000000  0.502544  1
  P  P24  1  0.495981  0.495981  0.742791  1
  P  P25  1  0.000000  0.245926  0.502544  1
  P  P26  1  0.754074  0.754074  0.256617  1
  P  P27  1  0.500502  0.246134  0.999705  1
