# generated using pymatgen
data_HoTm(Co3Si2)2
_symmetry_space_group_name_H-M   'P 1'
_cell_length_a   6.18221115
_cell_length_b   6.18349372
_cell_length_c   6.18221179
_cell_angle_alpha   130.64686557
_cell_angle_beta   112.67890396
_cell_angle_gamma   87.87448260
_symmetry_Int_Tables_number   1
_chemical_formula_structural   HoTm(Co3Si2)2
_chemical_formula_sum   'Ho1 Tm1 Co6 Si4'
_cell_volume   157.52477397
_cell_formula_units_Z   1
loop_
 _symmetry_equiv_pos_site_id
 _symmetry_equiv_pos_as_xyz
  1  'x, y, z'
loop_
 _atom_site_type_symbol
 _atom_site_label
 _atom_site_symmetry_multiplicity
 _atom_site_fract_x
 _atom_site_fract_y
 _atom_site_fract_z
 _atom_site_occupancy
  Ho  Ho0  1  0.250022  0.529417  0.279396  1
  Tm  Tm1  1  0.749982  0.469063  0.719080  1
  Co  Co2  1  0.000035  0.000332  0.500368  1
  Co  Co3  1  0.499964  0.000332  0.000295  1
  Co  Co4  1  0.724388  0.000817  0.724408  1
  Co  Co5  1  0.223608  0.500018  0.724425  1
  Co  Co6  1  0.276410  0.000817  0.276428  1
  Co  Co7  1  0.775593  0.500018  0.276410  1
  Si  Si8  1  0.080581  0.873886  0.793305  1
  Si  Si9  1  0.918415  0.124705  0.206289  1
  Si  Si10  1  0.581576  0.787935  0.206358  1
  Si  Si11  1  0.419425  0.212662  0.793238  1
