# generated using pymatgen
data_Dy17Y3(Bi2Os)4
_symmetry_space_group_name_H-M   'P 1'
_cell_length_a   7.97002801
_cell_length_b   9.04565300
_cell_length_c   12.51976502
_cell_angle_alpha   90.00000000
_cell_angle_beta   89.99392492
_cell_angle_gamma   90.00000000
_symmetry_Int_Tables_number   1
_chemical_formula_structural   Dy17Y3(Bi2Os)4
_chemical_formula_sum   'Dy17 Y3 Bi8 Os4'
_cell_volume   902.60128361
_cell_formula_units_Z   1
loop_
 _symmetry_equiv_pos_site_id
 _symmetry_equiv_pos_as_xyz
  1  'x, y, z'
loop_
 _atom_site_type_symbol
 _atom_site_label
 _atom_site_symmetry_multiplicity
 _atom_site_fract_x
 _atom_site_fract_y
 _atom_site_fract_z
 _atom_site_occupancy
  Dy  Dy0  1  0.658898  0.750000  0.291936  1
  Dy  Dy1  1  0.374806  0.750000  0.692382  1
  Dy  Dy2  1  0.625199  0.250000  0.307598  1
  Dy  Dy3  1  0.874843  0.250000  0.807644  1
  Dy  Dy4  1  0.125149  0.750000  0.192381  1
  Dy  Dy5  1  0.942770  0.750000  0.504314  1
  Dy  Dy6  1  0.057309  0.250000  0.495575  1
  Dy  Dy7  1  0.442664  0.250000  0.995623  1
  Dy  Dy8  1  0.557326  0.750000  0.004474  1
  Dy  Dy9  1  0.674492  0.041918  0.563934  1
  Dy  Dy10  1  0.325481  0.958160  0.436014  1
  Dy  Dy11  1  0.174461  0.958168  0.936102  1
  Dy  Dy12  1  0.325481  0.541840  0.436014  1
  Dy  Dy13  1  0.825539  0.041876  0.063910  1
  Dy  Dy14  1  0.674492  0.458082  0.563934  1
  Dy  Dy15  1  0.825539  0.458124  0.063910  1
  Dy  Dy16  1  0.174461  0.541832  0.936102  1
  Y  Y17  1  0.840942  0.750000  0.791379  1
  Y  Y18  1  0.159093  0.250000  0.208636  1
  Y  Y19  1  0.340908  0.250000  0.708639  1
  Bi  Bi20  1  0.568142  0.493424  0.827907  1
  Bi  Bi21  1  0.431888  0.506604  0.172135  1
  Bi  Bi22  1  0.068161  0.506594  0.672094  1
  Bi  Bi23  1  0.431888  0.993396  0.172135  1
  Bi  Bi24  1  0.931778  0.493434  0.327879  1
  Bi  Bi25  1  0.568142  0.006576  0.827907  1
  Bi  Bi26  1  0.931778  0.006566  0.327879  1
  Bi  Bi27  1  0.068161  0.993406  0.672094  1
  Os  Os28  1  0.575469  0.750000  0.510688  1
  Os  Os29  1  0.424700  0.250000  0.488850  1
  Os  Os30  1  0.075318  0.250000  0.988795  1
  Os  Os31  1  0.924724  0.750000  0.011140  1
