# generated using pymatgen
data_Sr3NiPdO6
_symmetry_space_group_name_H-M   'P 1'
_cell_length_a   6.73369364
_cell_length_b   6.73226063
_cell_length_c   6.73377353
_cell_angle_alpha   92.14705653
_cell_angle_beta   92.14040559
_cell_angle_gamma   92.13793205
_symmetry_Int_Tables_number   1
_chemical_formula_structural   Sr3NiPdO6
_chemical_formula_sum   'Sr6 Ni2 Pd2 O12'
_cell_volume   304.60583467
_cell_formula_units_Z   2
loop_
 _symmetry_equiv_pos_site_id
 _symmetry_equiv_pos_as_xyz
  1  'x, y, z'
loop_
 _atom_site_type_symbol
 _atom_site_label
 _atom_site_symmetry_multiplicity
 _atom_site_fract_x
 _atom_site_fract_y
 _atom_site_fract_z
 _atom_site_occupancy
  Sr  Sr0  1  0.615176  0.884795  0.250087  1
  Sr  Sr1  1  0.250006  0.615180  0.884776  1
  Sr  Sr2  1  0.884788  0.250014  0.615184  1
  Sr  Sr3  1  0.384825  0.115204  0.749914  1
  Sr  Sr4  1  0.749995  0.384819  0.115226  1
  Sr  Sr5  1  0.115213  0.749986  0.384815  1
  Ni  Ni6  1  0.250015  0.250006  0.250020  1
  Ni  Ni7  1  0.749985  0.749997  0.749976  1
  Pd  Pd8  1  0.000004  0.000002  0.000002  1
  Pd  Pd9  1  0.499999  0.500001  0.499997  1
  O  O10  1  0.288801  0.964270  0.089442  1
  O  O11  1  0.089546  0.288816  0.964279  1
  O  O12  1  0.964276  0.089488  0.288830  1
  O  O13  1  0.535689  0.211178  0.410455  1
  O  O14  1  0.410517  0.535718  0.211245  1
  O  O15  1  0.211211  0.410532  0.535710  1
  O  O16  1  0.711196  0.035727  0.910559  1
  O  O17  1  0.910451  0.711182  0.035721  1
  O  O18  1  0.035723  0.910508  0.711165  1
  O  O19  1  0.464309  0.788822  0.589547  1
  O  O20  1  0.589486  0.464284  0.788757  1
  O  O21  1  0.788789  0.589469  0.464292  1
