# generated using pymatgen
data_Tb3YB16Mo3W
_symmetry_space_group_name_H-M   'P 1'
_cell_length_a   3.63289400
_cell_length_b   6.04808500
_cell_length_c   11.68448211
_cell_angle_alpha   90.00966295
_cell_angle_beta   90.00000000
_cell_angle_gamma   90.00000000
_symmetry_Int_Tables_number   1
_chemical_formula_structural   Tb3YB16Mo3W
_chemical_formula_sum   'Tb3 Y1 B16 Mo3 W1'
_cell_volume   256.73204155
_cell_formula_units_Z   1
loop_
 _symmetry_equiv_pos_site_id
 _symmetry_equiv_pos_as_xyz
  1  'x, y, z'
loop_
 _atom_site_type_symbol
 _atom_site_label
 _atom_site_symmetry_multiplicity
 _atom_site_fract_x
 _atom_site_fract_y
 _atom_site_fract_z
 _atom_site_occupancy
  Tb  Tb0  1  0.000000  0.126871  0.149635  1
  Tb  Tb1  1  0.000000  0.873055  0.850117  1
  Tb  Tb2  1  0.000000  0.627061  0.350199  1
  Y  Y3  1  0.000000  0.373275  0.649901  1
  B  B4  1  0.500000  0.023486  0.693317  1
  B  B5  1  0.500000  0.975873  0.306620  1
  B  B6  1  0.500000  0.523770  0.806567  1
  B  B7  1  0.500000  0.476510  0.193250  1
  B  B8  1  0.500000  0.113573  0.547586  1
  B  B9  1  0.500000  0.886009  0.452821  1
  B  B10  1  0.500000  0.613813  0.952607  1
  B  B11  1  0.500000  0.386258  0.047397  1
  B  B12  1  0.500000  0.287159  0.313604  1
  B  B13  1  0.500000  0.713367  0.686069  1
  B  B14  1  0.500000  0.786445  0.185964  1
  B  B15  1  0.500000  0.213364  0.813848  1
  B  B16  1  0.500000  0.366645  0.468286  1
  B  B17  1  0.500000  0.633857  0.532088  1
  B  B18  1  0.500000  0.866391  0.031907  1
  B  B19  1  0.500000  0.133554  0.968087  1
  Mo  Mo20  1  0.000000  0.869738  0.584010  1
  Mo  Mo21  1  0.000000  0.629585  0.083592  1
  Mo  Mo22  1  0.000000  0.370319  0.916493  1
  W  W23  1  0.000000  0.130022  0.416037  1
