# generated using pymatgen
data_Ti3Nb(GaRh5)2
_symmetry_space_group_name_H-M   'P 1'
_cell_length_a   4.00770900
_cell_length_b   5.42997724
_cell_length_c   10.71561371
_cell_angle_alpha   90.31242171
_cell_angle_beta   90.00000000
_cell_angle_gamma   90.00000000
_symmetry_Int_Tables_number   1
_chemical_formula_structural   Ti3Nb(GaRh5)2
_chemical_formula_sum   'Ti3 Nb1 Ga2 Rh10'
_cell_volume   233.18723983
_cell_formula_units_Z   1
loop_
 _symmetry_equiv_pos_site_id
 _symmetry_equiv_pos_as_xyz
  1  'x, y, z'
loop_
 _atom_site_type_symbol
 _atom_site_label
 _atom_site_symmetry_multiplicity
 _atom_site_fract_x
 _atom_site_fract_y
 _atom_site_fract_z
 _atom_site_occupancy
  Ti  Ti0  1  0.500000  0.683739  0.857564  1
  Ti  Ti1  1  0.500000  0.819051  0.364537  1
  Ti  Ti2  1  0.500000  0.181086  0.639797  1
  Nb  Nb3  1  0.500000  0.315966  0.139032  1
  Ga  Ga4  1  0.000000  0.999378  0.998507  1
  Ga  Ga5  1  0.000000  0.500589  0.500231  1
  Rh  Rh6  1  0.000000  0.000103  0.500898  1
  Rh  Rh7  1  0.000000  0.505035  0.997534  1
  Rh  Rh8  1  0.000000  0.062612  0.248470  1
  Rh  Rh9  1  0.000000  0.932805  0.754146  1
  Rh  Rh10  1  0.000000  0.565057  0.253720  1
  Rh  Rh11  1  0.000000  0.432639  0.744761  1
  Rh  Rh12  1  0.500000  0.304420  0.390107  1
  Rh  Rh13  1  0.500000  0.695370  0.611344  1
  Rh  Rh14  1  0.500000  0.805080  0.112035  1
  Rh  Rh15  1  0.500000  0.197071  0.887316  1
