# generated using pymatgen
data_Dy6Er10InHg3Ir4
_symmetry_space_group_name_H-M   'P 1'
_cell_length_a   9.55695903
_cell_length_b   9.56416485
_cell_length_c   9.56449725
_cell_angle_alpha   60.02186502
_cell_angle_beta   59.96939952
_cell_angle_gamma   59.96784154
_symmetry_Int_Tables_number   1
_chemical_formula_structural   Dy6Er10InHg3Ir4
_chemical_formula_sum   'Dy6 Er10 In1 Hg3 Ir4'
_cell_volume   617.98711847
_cell_formula_units_Z   1
loop_
 _symmetry_equiv_pos_site_id
 _symmetry_equiv_pos_as_xyz
  1  'x, y, z'
loop_
 _atom_site_type_symbol
 _atom_site_label
 _atom_site_symmetry_multiplicity
 _atom_site_fract_x
 _atom_site_fract_y
 _atom_site_fract_z
 _atom_site_occupancy
  Dy  Dy0  1  0.186018  0.812159  0.812140  1
  Dy  Dy1  1  0.810434  0.188661  0.188675  1
  Dy  Dy2  1  0.810637  0.189084  0.812041  1
  Dy  Dy3  1  0.185694  0.811888  0.190499  1
  Dy  Dy4  1  0.810610  0.812046  0.189094  1
  Dy  Dy5  1  0.185659  0.190533  0.811904  1
  Er  Er6  1  0.599860  0.599702  0.599663  1
  Er  Er7  1  0.600257  0.600003  0.200101  1
  Er  Er8  1  0.600268  0.200123  0.599969  1
  Er  Er9  1  0.198972  0.600431  0.600493  1
  Er  Er10  1  0.060344  0.439420  0.439397  1
  Er  Er11  1  0.438308  0.060043  0.060058  1
  Er  Er12  1  0.439033  0.059412  0.441142  1
  Er  Er13  1  0.060801  0.438670  0.060403  1
  Er  Er14  1  0.439003  0.441150  0.059443  1
  Er  Er15  1  0.060797  0.060419  0.438675  1
  In  In16  1  0.507719  0.830545  0.830536  1
  Hg  Hg17  1  0.834383  0.834232  0.834226  1
  Hg  Hg18  1  0.834543  0.834672  0.496123  1
  Hg  Hg19  1  0.834565  0.496105  0.834678  1
  Ir  Ir20  1  0.392333  0.392079  0.392073  1
  Ir  Ir21  1  0.392400  0.392096  0.824492  1
  Ir  Ir22  1  0.392442  0.824456  0.392109  1
  Ir  Ir23  1  0.824919  0.392071  0.392065  1
