# generated using pymatgen
data_ErPa2O6
_symmetry_space_group_name_H-M   'P 1'
_cell_length_a   6.60819226
_cell_length_b   6.60819379
_cell_length_c   6.60819392
_cell_angle_alpha   146.21955417
_cell_angle_beta   131.74966569
_cell_angle_gamma   60.19488628
_symmetry_Int_Tables_number   1
_chemical_formula_structural   ErPa2O6
_chemical_formula_sum   'Er1 Pa2 O6'
_cell_volume   118.59158337
_cell_formula_units_Z   1
loop_
 _symmetry_equiv_pos_site_id
 _symmetry_equiv_pos_as_xyz
  1  'x, y, z'
loop_
 _atom_site_type_symbol
 _atom_site_label
 _atom_site_symmetry_multiplicity
 _atom_site_fract_x
 _atom_site_fract_y
 _atom_site_fract_z
 _atom_site_occupancy
  Er  Er0  1  0.500000  0.000000  0.500000  1
  Pa  Pa1  1  0.163772  0.663772  0.500000  1
  Pa  Pa2  1  0.836228  0.336228  0.500000  1
  O  O3  1  0.417058  0.168952  0.248106  1
  O  O4  1  0.245216  0.500000  0.745216  1
  O  O5  1  0.920845  0.168952  0.751894  1
  O  O6  1  0.079155  0.831048  0.248106  1
  O  O7  1  0.754784  0.500000  0.254784  1
  O  O8  1  0.582942  0.831048  0.751894  1
