# generated using pymatgen
data_Y3Ho5(AlPd)2
_symmetry_space_group_name_H-M   'P 1'
_cell_length_a   9.59522026
_cell_length_b   9.59522122
_cell_length_c   9.59522000
_cell_angle_alpha   59.99999731
_cell_angle_beta   59.99999401
_cell_angle_gamma   59.99999532
_symmetry_Int_Tables_number   1
_chemical_formula_structural   Y3Ho5(AlPd)2
_chemical_formula_sum   'Y6 Ho10 Al4 Pd4'
_cell_volume   624.66882946
_cell_formula_units_Z   2
loop_
 _symmetry_equiv_pos_site_id
 _symmetry_equiv_pos_as_xyz
  1  'x, y, z'
loop_
 _atom_site_type_symbol
 _atom_site_label
 _atom_site_symmetry_multiplicity
 _atom_site_fract_x
 _atom_site_fract_y
 _atom_site_fract_z
 _atom_site_occupancy
  Y  Y0  1  0.934650  0.565350  0.565350  1
  Y  Y1  1  0.565350  0.934650  0.934650  1
  Y  Y2  1  0.565350  0.934650  0.565350  1
  Y  Y3  1  0.934650  0.565350  0.934650  1
  Y  Y4  1  0.565350  0.565350  0.934650  1
  Y  Y5  1  0.934650  0.934650  0.565350  1
  Ho  Ho6  1  0.355841  0.355841  0.355841  1
  Ho  Ho7  1  0.355841  0.355841  0.932477  1
  Ho  Ho8  1  0.355841  0.932477  0.355841  1
  Ho  Ho9  1  0.932477  0.355841  0.355841  1
  Ho  Ho10  1  0.807490  0.192510  0.192510  1
  Ho  Ho11  1  0.192510  0.807490  0.807490  1
  Ho  Ho12  1  0.192510  0.807490  0.192510  1
  Ho  Ho13  1  0.807490  0.192510  0.807490  1
  Ho  Ho14  1  0.192510  0.192510  0.807490  1
  Ho  Ho15  1  0.807490  0.807490  0.192510  1
  Al  Al16  1  0.577902  0.577902  0.577902  1
  Al  Al17  1  0.577902  0.577902  0.266295  1
  Al  Al18  1  0.577902  0.266295  0.577902  1
  Al  Al19  1  0.266295  0.577902  0.577902  1
  Pd  Pd20  1  0.144736  0.144736  0.144736  1
  Pd  Pd21  1  0.144736  0.144736  0.565791  1
  Pd  Pd22  1  0.144736  0.565791  0.144736  1
  Pd  Pd23  1  0.565791  0.144736  0.144736  1
