# generated using pymatgen
data_Dy4Y2VB14Mo
_symmetry_space_group_name_H-M   'P 1'
_cell_length_a   8.17057600
_cell_length_b   8.17057601
_cell_length_c   9.45848500
_cell_angle_alpha   90.00000000
_cell_angle_beta   90.00000000
_cell_angle_gamma   155.58588597
_symmetry_Int_Tables_number   1
_chemical_formula_structural   Dy4Y2VB14Mo
_chemical_formula_sum   'Dy4 Y2 V1 B14 Mo1'
_cell_volume   260.98920498
_cell_formula_units_Z   1
loop_
 _symmetry_equiv_pos_site_id
 _symmetry_equiv_pos_as_xyz
  1  'x, y, z'
loop_
 _atom_site_type_symbol
 _atom_site_label
 _atom_site_symmetry_multiplicity
 _atom_site_fract_x
 _atom_site_fract_y
 _atom_site_fract_z
 _atom_site_occupancy
  Dy  Dy0  1  0.606074  0.393926  0.061748  1
  Dy  Dy1  1  0.393364  0.606636  0.941587  1
  Dy  Dy2  1  0.393364  0.606636  0.558413  1
  Dy  Dy3  1  0.606074  0.393926  0.438252  1
  Y  Y4  1  0.258263  0.741737  0.250000  1
  Y  Y5  1  0.744384  0.255616  0.750000  1
  V  V6  1  0.447218  0.552782  0.250000  1
  B  B7  1  0.978720  0.021280  0.095249  1
  B  B8  1  0.019719  0.980281  0.908931  1
  B  B9  1  0.019719  0.980281  0.591069  1
  B  B10  1  0.978720  0.021280  0.404751  1
  B  B11  1  0.772765  0.227235  0.032801  1
  B  B12  1  0.227313  0.772687  0.968283  1
  B  B13  1  0.227313  0.772687  0.531717  1
  B  B14  1  0.772765  0.227235  0.467199  1
  B  B15  1  0.867616  0.132384  0.150172  1
  B  B16  1  0.134576  0.865424  0.853407  1
  B  B17  1  0.134576  0.865424  0.646593  1
  B  B18  1  0.867616  0.132384  0.349828  1
  B  B19  1  0.040461  0.959539  0.250000  1
  B  B20  1  0.956171  0.043829  0.750000  1
  Mo  Mo21  1  0.553211  0.446789  0.750000  1
