# generated using pymatgen
data_CaTc4Hg7O20
_symmetry_space_group_name_H-M   'P 1'
_cell_length_a   7.92729578
_cell_length_b   9.72735235
_cell_length_c   9.46384700
_cell_angle_alpha   120.35335677
_cell_angle_beta   100.66952618
_cell_angle_gamma   88.19417406
_symmetry_Int_Tables_number   1
_chemical_formula_structural   CaTc4Hg7O20
_chemical_formula_sum   'Ca1 Tc4 Hg7 O20'
_cell_volume   617.19303308
_cell_formula_units_Z   1
loop_
 _symmetry_equiv_pos_site_id
 _symmetry_equiv_pos_as_xyz
  1  'x, y, z'
loop_
 _atom_site_type_symbol
 _atom_site_label
 _atom_site_symmetry_multiplicity
 _atom_site_fract_x
 _atom_site_fract_y
 _atom_site_fract_z
 _atom_site_occupancy
  Ca  Ca0  1  0.500000  0.000000  0.500000  1
  Tc  Tc1  1  0.885438  0.747344  0.459193  1
  Tc  Tc2  1  0.717227  0.325676  0.972210  1
  Tc  Tc3  1  0.282773  0.674324  0.027790  1
  Tc  Tc4  1  0.114562  0.252656  0.540807  1
  Hg  Hg5  1  0.369047  0.617838  0.429525  1
  Hg  Hg6  1  0.709282  0.669770  0.811470  1
  Hg  Hg7  1  0.630953  0.382162  0.570475  1
  Hg  Hg8  1  0.347444  0.958268  0.812403  1
  Hg  Hg9  1  0.290718  0.330230  0.188530  1
  Hg  Hg10  1  0.652556  0.041732  0.187597  1
  Hg  Hg11  1  0.000000  0.000000  0.000000  1
  O  O12  1  0.241045  0.114781  0.571785  1
  O  O13  1  0.469842  0.849581  0.619425  1
  O  O14  1  0.071008  0.713503  0.978768  1
  O  O15  1  0.250918  0.073642  0.027270  1
  O  O16  1  0.007834  0.163353  0.332083  1
  O  O17  1  0.992166  0.836647  0.667917  1
  O  O18  1  0.357711  0.784983  0.245061  1
  O  O19  1  0.749082  0.926358  0.972730  1
  O  O20  1  0.928992  0.286497  0.021232  1
  O  O21  1  0.705718  0.526478  0.040024  1
  O  O22  1  0.038784  0.687029  0.335042  1
  O  O23  1  0.294282  0.473522  0.959976  1
  O  O24  1  0.758955  0.885219  0.428215  1
  O  O25  1  0.756239  0.583187  0.411629  1
  O  O26  1  0.243761  0.416813  0.588371  1
  O  O27  1  0.642289  0.215017  0.754939  1
  O  O28  1  0.530158  0.150419  0.380575  1
  O  O29  1  0.589083  0.266032  0.066272  1
  O  O30  1  0.961216  0.312971  0.664958  1
  O  O31  1  0.410917  0.733968  0.933728  1
