# generated using pymatgen
data_CePr3(HgPt2)2
_symmetry_space_group_name_H-M   'P 1'
_cell_length_a   7.91927910
_cell_length_b   7.91927952
_cell_length_c   3.84615200
_cell_angle_alpha   90.00000000
_cell_angle_beta   90.00000000
_cell_angle_gamma   91.23945057
_symmetry_Int_Tables_number   1
_chemical_formula_structural   CePr3(HgPt2)2
_chemical_formula_sum   'Ce1 Pr3 Hg2 Pt4'
_cell_volume   241.15492716
_cell_formula_units_Z   1
loop_
 _symmetry_equiv_pos_site_id
 _symmetry_equiv_pos_as_xyz
  1  'x, y, z'
loop_
 _atom_site_type_symbol
 _atom_site_label
 _atom_site_symmetry_multiplicity
 _atom_site_fract_x
 _atom_site_fract_y
 _atom_site_fract_z
 _atom_site_occupancy
  Ce  Ce0  1  0.670025  0.170025  0.500000  1
  Pr  Pr1  1  0.170838  0.328411  0.500000  1
  Pr  Pr2  1  0.328424  0.828424  0.500000  1
  Pr  Pr3  1  0.828411  0.670838  0.500000  1
  Hg  Hg4  1  0.501004  0.501493  0.000000  1
  Hg  Hg5  1  0.001493  0.001004  0.000000  1
  Pt  Pt6  1  0.633231  0.881363  0.000000  1
  Pt  Pt7  1  0.124269  0.624269  0.000000  1
  Pt  Pt8  1  0.860943  0.360943  0.000000  1
  Pt  Pt9  1  0.381363  0.133231  0.000000  1
