# generated using pymatgen
data_Hf2Np2H15
_symmetry_space_group_name_H-M   'P 1'
_cell_length_a   7.20293054
_cell_length_b   7.20293009
_cell_length_c   7.20293100
_cell_angle_alpha   109.43904027
_cell_angle_beta   109.43903591
_cell_angle_gamma   109.43903188
_symmetry_Int_Tables_number   1
_chemical_formula_structural   Hf2Np2H15
_chemical_formula_sum   'Hf4 Np4 H30'
_cell_volume   288.01971760
_cell_formula_units_Z   2
loop_
 _symmetry_equiv_pos_site_id
 _symmetry_equiv_pos_as_xyz
  1  'x, y, z'
loop_
 _atom_site_type_symbol
 _atom_site_label
 _atom_site_symmetry_multiplicity
 _atom_site_fract_x
 _atom_site_fract_y
 _atom_site_fract_z
 _atom_site_occupancy
  Hf  Hf0  1  0.906210  0.906210  0.906210  1
  Hf  Hf1  1  0.499415  0.993108  0.090178  1
  Hf  Hf2  1  0.993108  0.090178  0.499415  1
  Hf  Hf3  1  0.090178  0.499415  0.993108  1
  Np  Np4  1  0.001569  0.592962  0.504364  1
  Np  Np5  1  0.592962  0.504364  0.001569  1
  Np  Np6  1  0.504364  0.001569  0.592962  1
  Np  Np7  1  0.406968  0.406968  0.406968  1
  H  H8  1  0.657927  0.958851  0.369172  1
  H  H9  1  0.207127  0.306717  0.835243  1
  H  H10  1  0.177392  0.392602  0.536381  1
  H  H11  1  0.080723  0.273191  0.105885  1
  H  H12  1  0.273191  0.105885  0.080723  1
  H  H13  1  0.105885  0.080723  0.273191  1
  H  H14  1  0.474863  0.147407  0.892747  1
  H  H15  1  0.742792  0.357039  0.818918  1
  H  H16  1  0.626111  0.369946  0.246032  1
  H  H17  1  0.246032  0.626111  0.369946  1
  H  H18  1  0.751447  0.875194  0.124042  1
  H  H19  1  0.124042  0.751447  0.875194  1
  H  H20  1  0.369946  0.246032  0.626111  1
  H  H21  1  0.875194  0.124042  0.751447  1
  H  H22  1  0.783429  0.602495  0.642195  1
  H  H23  1  0.306717  0.835243  0.207127  1
  H  H24  1  0.369172  0.657927  0.958851  1
  H  H25  1  0.958851  0.369172  0.657927  1
  H  H26  1  0.536381  0.177392  0.392602  1
  H  H27  1  0.392602  0.536381  0.177392  1
  H  H28  1  0.835243  0.207127  0.306717  1
  H  H29  1  0.923532  0.695398  0.030432  1
  H  H30  1  0.818918  0.742792  0.357039  1
  H  H31  1  0.147407  0.892747  0.474863  1
  H  H32  1  0.695398  0.030432  0.923532  1
  H  H33  1  0.357039  0.818918  0.742792  1
  H  H34  1  0.892747  0.474863  0.147407  1
  H  H35  1  0.642195  0.783429  0.602495  1
  H  H36  1  0.602495  0.642195  0.783429  1
  H  H37  1  0.030432  0.923532  0.695398  1
