# generated using pymatgen
data_Eu4ErSc7O16
_symmetry_space_group_name_H-M   'P 1'
_cell_length_a   3.22912600
_cell_length_b   9.69866891
_cell_length_c   11.41305592
_cell_angle_alpha   90.35564646
_cell_angle_beta   90.00000000
_cell_angle_gamma   90.00000000
_symmetry_Int_Tables_number   1
_chemical_formula_structural   Eu4ErSc7O16
_chemical_formula_sum   'Eu4 Er1 Sc7 O16'
_cell_volume   357.42975520
_cell_formula_units_Z   1
loop_
 _symmetry_equiv_pos_site_id
 _symmetry_equiv_pos_as_xyz
  1  'x, y, z'
loop_
 _atom_site_type_symbol
 _atom_site_label
 _atom_site_symmetry_multiplicity
 _atom_site_fract_x
 _atom_site_fract_y
 _atom_site_fract_z
 _atom_site_occupancy
  Eu  Eu0  1  0.250000  0.748878  0.146967  1
  Eu  Eu1  1  0.750000  0.253104  0.847554  1
  Eu  Eu2  1  0.750000  0.754595  0.657058  1
  Eu  Eu3  1  0.250000  0.244692  0.347179  1
  Er  Er4  1  0.250000  0.579032  0.390701  1
  Sc  Sc5  1  0.250000  0.575860  0.893245  1
  Sc  Sc6  1  0.750000  0.421094  0.105620  1
  Sc  Sc7  1  0.750000  0.925321  0.390659  1
  Sc  Sc8  1  0.250000  0.076106  0.607082  1
  Sc  Sc9  1  0.250000  0.073231  0.109934  1
  Sc  Sc10  1  0.750000  0.929576  0.889753  1
  Sc  Sc11  1  0.750000  0.426761  0.615111  1
  O  O12  1  0.250000  0.575450  0.584892  1
  O  O13  1  0.750000  0.420135  0.430128  1
  O  O14  1  0.750000  0.924931  0.073202  1
  O  O15  1  0.250000  0.076429  0.925117  1
  O  O16  1  0.250000  0.875852  0.518060  1
  O  O17  1  0.750000  0.118309  0.480390  1
  O  O18  1  0.750000  0.618186  0.020739  1
  O  O19  1  0.250000  0.379444  0.977464  1
  O  O20  1  0.250000  0.790653  0.838052  1
  O  O21  1  0.750000  0.209082  0.162126  1
  O  O22  1  0.750000  0.718908  0.324183  1
  O  O23  1  0.250000  0.288463  0.665997  1
  O  O24  1  0.250000  0.985380  0.282947  1
  O  O25  1  0.750000  0.017359  0.715874  1
  O  O26  1  0.750000  0.517020  0.786548  1
  O  O27  1  0.250000  0.476150  0.213417  1
