# generated using pymatgen
data_DyZr2Co9
_symmetry_space_group_name_H-M   'P 1'
_cell_length_a   8.43513993
_cell_length_b   8.43514052
_cell_length_c   8.43514029
_cell_angle_alpha   33.65819530
_cell_angle_beta   33.65819104
_cell_angle_gamma   33.65819099
_symmetry_Int_Tables_number   1
_chemical_formula_structural   DyZr2Co9
_chemical_formula_sum   'Dy1 Zr2 Co9'
_cell_volume   164.24167999
_cell_formula_units_Z   1
loop_
 _symmetry_equiv_pos_site_id
 _symmetry_equiv_pos_as_xyz
  1  'x, y, z'
loop_
 _atom_site_type_symbol
 _atom_site_label
 _atom_site_symmetry_multiplicity
 _atom_site_fract_x
 _atom_site_fract_y
 _atom_site_fract_z
 _atom_site_occupancy
  Dy  Dy0  1  0.000000  0.000000  0.000000  1
  Zr  Zr1  1  0.139573  0.139573  0.139573  1
  Zr  Zr2  1  0.860427  0.860427  0.860427  1
  Co  Co3  1  0.586705  0.078589  0.586705  1
  Co  Co4  1  0.586705  0.586705  0.078589  1
  Co  Co5  1  0.335511  0.335511  0.335511  1
  Co  Co6  1  0.921411  0.413295  0.413295  1
  Co  Co7  1  0.078589  0.586705  0.586705  1
  Co  Co8  1  0.413295  0.921411  0.413295  1
  Co  Co9  1  0.664489  0.664489  0.664489  1
  Co  Co10  1  0.500000  0.500000  0.500000  1
  Co  Co11  1  0.413295  0.413295  0.921411  1
