# generated using pymatgen
data_Dy7Er3IrRu3
_symmetry_space_group_name_H-M   'P 1'
_cell_length_a   6.33696613
_cell_length_b   7.29211485
_cell_length_c   8.43915503
_cell_angle_alpha   96.77607272
_cell_angle_beta   111.86169371
_cell_angle_gamma   90.07862937
_symmetry_Int_Tables_number   1
_chemical_formula_structural   Dy7Er3IrRu3
_chemical_formula_sum   'Dy7 Er3 Ir1 Ru3'
_cell_volume   358.96499058
_cell_formula_units_Z   1
loop_
 _symmetry_equiv_pos_site_id
 _symmetry_equiv_pos_as_xyz
  1  'x, y, z'
loop_
 _atom_site_type_symbol
 _atom_site_label
 _atom_site_symmetry_multiplicity
 _atom_site_fract_x
 _atom_site_fract_y
 _atom_site_fract_z
 _atom_site_occupancy
  Dy  Dy0  1  0.792225  0.582084  0.814775  1
  Dy  Dy1  1  0.978713  0.915061  0.186969  1
  Dy  Dy2  1  0.208176  0.415117  0.186036  1
  Dy  Dy3  1  0.024689  0.085833  0.814979  1
  Dy  Dy4  1  0.205654  0.684153  0.565030  1
  Dy  Dy5  1  0.641848  0.815892  0.433962  1
  Dy  Dy6  1  0.793185  0.314468  0.434324  1
  Er  Er7  1  0.356928  0.185713  0.564401  1
  Er  Er8  1  0.420935  0.749696  0.000123  1
  Er  Er9  1  0.579318  0.251223  0.000251  1
  Ir  Ir10  1  0.600339  0.924371  0.779292  1
  Ru  Ru11  1  0.823073  0.576494  0.219374  1
  Ru  Ru12  1  0.395883  0.075793  0.220597  1
  Ru  Ru13  1  0.179036  0.424099  0.779885  1
