# generated using pymatgen
data_Th4Ga4IrRu3
_symmetry_space_group_name_H-M   'P 1'
_cell_length_a   4.29671300
_cell_length_b   6.98480006
_cell_length_c   8.16235374
_cell_angle_alpha   89.78820378
_cell_angle_beta   90.00000000
_cell_angle_gamma   90.00000000
_symmetry_Int_Tables_number   1
_chemical_formula_structural   Th4Ga4IrRu3
_chemical_formula_sum   'Th4 Ga4 Ir1 Ru3'
_cell_volume   244.96428473
_cell_formula_units_Z   1
loop_
 _symmetry_equiv_pos_site_id
 _symmetry_equiv_pos_as_xyz
  1  'x, y, z'
loop_
 _atom_site_type_symbol
 _atom_site_label
 _atom_site_symmetry_multiplicity
 _atom_site_fract_x
 _atom_site_fract_y
 _atom_site_fract_z
 _atom_site_occupancy
  Th  Th0  1  0.250000  0.962706  0.314108  1
  Th  Th1  1  0.250000  0.465555  0.184480  1
  Th  Th2  1  0.750000  0.034746  0.689762  1
  Th  Th3  1  0.750000  0.535246  0.813340  1
  Ga  Ga4  1  0.250000  0.361752  0.564037  1
  Ga  Ga5  1  0.250000  0.858811  0.936524  1
  Ga  Ga6  1  0.750000  0.642207  0.436461  1
  Ga  Ga7  1  0.750000  0.138998  0.063730  1
  Ir  Ir8  1  0.750000  0.254648  0.381721  1
  Ru  Ru9  1  0.250000  0.247064  0.882058  1
  Ru  Ru10  1  0.250000  0.747789  0.616689  1
  Ru  Ru11  1  0.750000  0.750478  0.117090  1
