# generated using pymatgen
data_Tb2Y2ErRu2
_symmetry_space_group_name_H-M   'P 1'
_cell_length_a   6.35159118
_cell_length_b   7.28825922
_cell_length_c   8.48932813
_cell_angle_alpha   96.71028494
_cell_angle_beta   111.96824833
_cell_angle_gamma   89.99999971
_symmetry_Int_Tables_number   1
_chemical_formula_structural   Tb2Y2ErRu2
_chemical_formula_sum   'Tb4 Y4 Er2 Ru4'
_cell_volume   361.54947760
_cell_formula_units_Z   2
loop_
 _symmetry_equiv_pos_site_id
 _symmetry_equiv_pos_as_xyz
  1  'x, y, z'
loop_
 _atom_site_type_symbol
 _atom_site_label
 _atom_site_symmetry_multiplicity
 _atom_site_fract_x
 _atom_site_fract_y
 _atom_site_fract_z
 _atom_site_occupancy
  Tb  Tb0  1  0.206641  0.685181  0.567135  1
  Tb  Tb1  1  0.639505  0.814819  0.432865  1
  Tb  Tb2  1  0.793359  0.314819  0.432865  1
  Tb  Tb3  1  0.360495  0.185181  0.567135  1
  Y  Y4  1  0.792857  0.584171  0.814656  1
  Y  Y5  1  0.978202  0.915829  0.185344  1
  Y  Y6  1  0.207143  0.415829  0.185344  1
  Y  Y7  1  0.021798  0.084171  0.814656  1
  Er  Er8  1  0.422270  0.750000  0.000000  1
  Er  Er9  1  0.577730  0.250000  0.000000  1
  Ru  Ru10  1  0.601163  0.925155  0.780905  1
  Ru  Ru11  1  0.820257  0.574845  0.219095  1
  Ru  Ru12  1  0.398837  0.074845  0.219095  1
  Ru  Ru13  1  0.179743  0.425155  0.780905  1
