# generated using pymatgen
data_Tb3NdSn10(PtRh2)2
_symmetry_space_group_name_H-M   'P 1'
_cell_length_a   13.52887769
_cell_length_b   13.52887776
_cell_length_c   7.39426418
_cell_angle_alpha   89.94154819
_cell_angle_beta   90.05845712
_cell_angle_gamma   161.11032925
_symmetry_Int_Tables_number   1
_chemical_formula_structural   Tb3NdSn10(PtRh2)2
_chemical_formula_sum   'Tb3 Nd1 Sn10 Pt2 Rh4'
_cell_volume   438.15102294
_cell_formula_units_Z   1
loop_
 _symmetry_equiv_pos_site_id
 _symmetry_equiv_pos_as_xyz
  1  'x, y, z'
loop_
 _atom_site_type_symbol
 _atom_site_label
 _atom_site_symmetry_multiplicity
 _atom_site_fract_x
 _atom_site_fract_y
 _atom_site_fract_z
 _atom_site_occupancy
  Tb  Tb0  1  0.826531  0.173469  0.252234  1
  Tb  Tb1  1  0.475850  0.524150  0.738081  1
  Tb  Tb2  1  0.523350  0.476650  0.237134  1
  Nd  Nd3  1  0.174698  0.825302  0.751234  1
  Sn  Sn4  1  0.879587  0.120413  0.727033  1
  Sn  Sn5  1  0.120588  0.879412  0.228644  1
  Sn  Sn6  1  0.704218  0.295782  0.050233  1
  Sn  Sn7  1  0.296090  0.703910  0.548020  1
  Sn  Sn8  1  0.597454  0.402546  0.616902  1
  Sn  Sn9  1  0.401305  0.598695  0.116746  1
  Sn  Sn10  1  0.950985  0.049015  0.400924  1
  Sn  Sn11  1  0.048439  0.951561  0.900804  1
  Sn  Sn12  1  0.290165  0.709835  0.977370  1
  Sn  Sn13  1  0.711220  0.288780  0.473738  1
  Pt  Pt14  1  0.048941  0.951059  0.516655  1
  Pt  Pt15  1  0.950332  0.049668  0.017560  1
  Rh  Rh16  1  0.777946  0.222054  0.768161  1
  Rh  Rh17  1  0.223230  0.776770  0.266320  1
  Rh  Rh18  1  0.394904  0.605096  0.482459  1
  Rh  Rh19  1  0.604167  0.395833  0.985749  1
