# generated using pymatgen
data_Tb3Ce(Ir3Ru)2
_symmetry_space_group_name_H-M   'P 1'
_cell_length_a   5.38474300
_cell_length_b   5.38474342
_cell_length_c   8.71334800
_cell_angle_alpha   90.00000000
_cell_angle_beta   90.00000000
_cell_angle_gamma   119.99999130
_symmetry_Int_Tables_number   1
_chemical_formula_structural   Tb3Ce(Ir3Ru)2
_chemical_formula_sum   'Tb3 Ce1 Ir6 Ru2'
_cell_volume   218.79919691
_cell_formula_units_Z   1
loop_
 _symmetry_equiv_pos_site_id
 _symmetry_equiv_pos_as_xyz
  1  'x, y, z'
loop_
 _atom_site_type_symbol
 _atom_site_label
 _atom_site_symmetry_multiplicity
 _atom_site_fract_x
 _atom_site_fract_y
 _atom_site_fract_z
 _atom_site_occupancy
  Tb  Tb0  1  0.333333  0.666667  0.933370  1
  Tb  Tb1  1  0.666667  0.333333  0.066818  1
  Tb  Tb2  1  0.666667  0.333333  0.434008  1
  Ce  Ce3  1  0.333333  0.666667  0.565926  1
  Ir  Ir4  1  0.830982  0.169018  0.750695  1
  Ir  Ir5  1  0.830982  0.661963  0.750695  1
  Ir  Ir6  1  0.338037  0.169018  0.750695  1
  Ir  Ir7  1  0.168669  0.831331  0.249345  1
  Ir  Ir8  1  0.168669  0.337337  0.249345  1
  Ir  Ir9  1  0.662663  0.831331  0.249345  1
  Ru  Ru10  1  0.000000  0.000000  0.000200  1
  Ru  Ru11  1  0.000000  0.000000  0.499559  1
