# generated using pymatgen
data_Dy2HoEr(ReB6)2
_symmetry_space_group_name_H-M   'P 1'
_cell_length_a   3.67286200
_cell_length_b   9.15435201
_cell_length_c   11.54093002
_cell_angle_alpha   90.00591932
_cell_angle_beta   90.00000000
_cell_angle_gamma   90.00000000
_symmetry_Int_Tables_number   1
_chemical_formula_structural   Dy2HoEr(ReB6)2
_chemical_formula_sum   'Dy4 Ho2 Er2 Re4 B24'
_cell_volume   388.03689826
_cell_formula_units_Z   2
loop_
 _symmetry_equiv_pos_site_id
 _symmetry_equiv_pos_as_xyz
  1  'x, y, z'
loop_
 _atom_site_type_symbol
 _atom_site_label
 _atom_site_symmetry_multiplicity
 _atom_site_fract_x
 _atom_site_fract_y
 _atom_site_fract_z
 _atom_site_occupancy
  Dy  Dy0  1  0.000000  0.323673  0.413847  1
  Dy  Dy1  1  0.000000  0.676327  0.586153  1
  Dy  Dy2  1  0.000000  0.823539  0.086091  1
  Dy  Dy3  1  0.000000  0.176461  0.913909  1
  Ho  Ho4  1  0.000000  0.943368  0.370065  1
  Ho  Ho5  1  0.000000  0.056632  0.629935  1
  Er  Er6  1  0.000000  0.443392  0.129847  1
  Er  Er7  1  0.000000  0.556608  0.870153  1
  Re  Re8  1  0.000000  0.638753  0.320524  1
  Re  Re9  1  0.000000  0.361247  0.679476  1
  Re  Re10  1  0.000000  0.139223  0.179206  1
  Re  Re11  1  0.000000  0.860777  0.820794  1
  B  B12  1  0.500000  0.553498  0.432806  1
  B  B13  1  0.500000  0.446502  0.567194  1
  B  B14  1  0.500000  0.053556  0.067157  1
  B  B15  1  0.500000  0.946444  0.932843  1
  B  B16  1  0.500000  0.749496  0.418678  1
  B  B17  1  0.500000  0.250504  0.581322  1
  B  B18  1  0.500000  0.249840  0.081311  1
  B  B19  1  0.500000  0.750160  0.918689  1
  B  B20  1  0.500000  0.792352  0.265659  1
  B  B21  1  0.500000  0.207648  0.734341  1
  B  B22  1  0.500000  0.292689  0.234241  1
  B  B23  1  0.500000  0.707311  0.765759  1
  B  B24  1  0.500000  0.630832  0.185548  1
  B  B25  1  0.500000  0.369168  0.814452  1
  B  B26  1  0.500000  0.131138  0.314270  1
  B  B27  1  0.500000  0.868862  0.685730  1
  B  B28  1  0.500000  0.982570  0.212049  1
  B  B29  1  0.500000  0.017430  0.787951  1
  B  B30  1  0.500000  0.482392  0.287751  1
  B  B31  1  0.500000  0.517608  0.712249  1
  B  B32  1  0.500000  0.599476  0.027830  1
  B  B33  1  0.500000  0.400524  0.972170  1
  B  B34  1  0.500000  0.099868  0.472074  1
  B  B35  1  0.500000  0.900132  0.527926  1
