# generated using pymatgen
data_CeEuAl3O7
_symmetry_space_group_name_H-M   'P 1'
_cell_length_a   7.90280100
_cell_length_b   5.23034369
_cell_length_c   7.91912100
_cell_angle_alpha   89.68173739
_cell_angle_beta   90.00000000
_cell_angle_gamma   90.00000000
_symmetry_Int_Tables_number   1
_chemical_formula_structural   CeEuAl3O7
_chemical_formula_sum   'Ce2 Eu2 Al6 O14'
_cell_volume   327.32679077
_cell_formula_units_Z   2
loop_
 _symmetry_equiv_pos_site_id
 _symmetry_equiv_pos_as_xyz
  1  'x, y, z'
loop_
 _atom_site_type_symbol
 _atom_site_label
 _atom_site_symmetry_multiplicity
 _atom_site_fract_x
 _atom_site_fract_y
 _atom_site_fract_z
 _atom_site_occupancy
  Ce  Ce0  1  0.838428  0.506922  0.092215  1
  Ce  Ce1  1  0.338428  0.493078  0.907785  1
  Eu  Eu2  1  0.161424  0.514718  0.415859  1
  Eu  Eu3  1  0.661424  0.485282  0.584141  1
  Al  Al4  1  0.356994  0.964925  0.609282  1
  Al  Al5  1  0.856994  0.035075  0.390718  1
  Al  Al6  1  0.643340  0.960299  0.895545  1
  Al  Al7  1  0.143340  0.039701  0.104455  1
  Al  Al8  1  0.499658  0.999692  0.245646  1
  Al  Al9  1  0.999658  0.000308  0.754354  1
  O  O10  1  0.358447  0.298470  0.622899  1
  O  O11  1  0.858447  0.701530  0.377101  1
  O  O12  1  0.641981  0.294686  0.901744  1
  O  O13  1  0.141981  0.705314  0.098256  1
  O  O14  1  0.005110  0.176341  0.252165  1
  O  O15  1  0.505110  0.823659  0.747835  1
  O  O16  1  0.405461  0.825355  0.412098  1
  O  O17  1  0.905461  0.174645  0.587902  1
  O  O18  1  0.581308  0.796116  0.085118  1
  O  O19  1  0.081308  0.203884  0.914882  1
  O  O20  1  0.340674  0.188287  0.146920  1
  O  O21  1  0.840674  0.811713  0.853080  1
  O  O22  1  0.667177  0.190914  0.323921  1
  O  O23  1  0.167177  0.809086  0.676079  1
