# generated using pymatgen
data_SrZn9Rh2
_symmetry_space_group_name_H-M   'P 1'
_cell_length_a   8.35979389
_cell_length_b   8.35979422
_cell_length_c   8.35979378
_cell_angle_alpha   100.15081944
_cell_angle_beta   100.15081537
_cell_angle_gamma   130.35489938
_symmetry_Int_Tables_number   1
_chemical_formula_structural   SrZn9Rh2
_chemical_formula_sum   'Sr2 Zn18 Rh4'
_cell_volume   404.08207592
_cell_formula_units_Z   2
loop_
 _symmetry_equiv_pos_site_id
 _symmetry_equiv_pos_as_xyz
  1  'x, y, z'
loop_
 _atom_site_type_symbol
 _atom_site_label
 _atom_site_symmetry_multiplicity
 _atom_site_fract_x
 _atom_site_fract_y
 _atom_site_fract_z
 _atom_site_occupancy
  Sr  Sr0  1  0.000000  0.000000  0.000000  1
  Sr  Sr1  1  0.250000  0.750000  0.500000  1
  Zn  Zn2  1  0.062819  0.646067  0.829005  1
  Zn  Zn3  1  0.817062  0.233813  0.170995  1
  Zn  Zn4  1  0.750000  0.250000  0.500000  1
  Zn  Zn5  1  0.500000  0.500000  0.000000  1
  Zn  Zn6  1  0.817062  0.646067  0.583248  1
  Zn  Zn7  1  0.896067  0.812819  0.329005  1
  Zn  Zn8  1  0.483813  0.567062  0.670995  1
  Zn  Zn9  1  0.062819  0.233813  0.416752  1
  Zn  Zn10  1  0.766187  0.937181  0.583248  1
  Zn  Zn11  1  0.353933  0.182938  0.416752  1
  Zn  Zn12  1  0.432938  0.516187  0.329005  1
  Zn  Zn13  1  0.187181  0.103933  0.670995  1
  Zn  Zn14  1  0.432938  0.103933  0.916752  1
  Zn  Zn15  1  0.353933  0.937181  0.170995  1
  Zn  Zn16  1  0.766187  0.182938  0.829005  1
  Zn  Zn17  1  0.187181  0.516187  0.083248  1
  Zn  Zn18  1  0.483813  0.812819  0.916752  1
  Zn  Zn19  1  0.896067  0.567062  0.083248  1
  Rh  Rh20  1  0.625000  0.375000  0.750000  1
  Rh  Rh21  1  0.625000  0.375000  0.250000  1
  Rh  Rh22  1  0.125000  0.375000  0.750000  1
  Rh  Rh23  1  0.625000  0.875000  0.250000  1
