# generated using pymatgen
data_Y8CdNi2Ag
_symmetry_space_group_name_H-M   'P 1'
_cell_length_a   9.53289345
_cell_length_b   9.53289325
_cell_length_c   9.52474500
_cell_angle_alpha   60.02827437
_cell_angle_beta   60.02827508
_cell_angle_gamma   60.00380199
_symmetry_Int_Tables_number   1
_chemical_formula_structural   Y8CdNi2Ag
_chemical_formula_sum   'Y16 Cd2 Ni4 Ag2'
_cell_volume   612.33035549
_cell_formula_units_Z   2
loop_
 _symmetry_equiv_pos_site_id
 _symmetry_equiv_pos_as_xyz
  1  'x, y, z'
loop_
 _atom_site_type_symbol
 _atom_site_label
 _atom_site_symmetry_multiplicity
 _atom_site_fract_x
 _atom_site_fract_y
 _atom_site_fract_z
 _atom_site_occupancy
  Y  Y0  1  0.599343  0.599343  0.598686  1
  Y  Y1  1  0.599343  0.599343  0.202628  1
  Y  Y2  1  0.600636  0.199643  0.599861  1
  Y  Y3  1  0.199643  0.600636  0.599861  1
  Y  Y4  1  0.061018  0.439205  0.439808  1
  Y  Y5  1  0.439205  0.061018  0.059969  1
  Y  Y6  1  0.439205  0.061018  0.439808  1
  Y  Y7  1  0.061018  0.439205  0.059969  1
  Y  Y8  1  0.439783  0.439783  0.060217  1
  Y  Y9  1  0.060830  0.060830  0.439170  1
  Y  Y10  1  0.183492  0.813790  0.814466  1
  Y  Y11  1  0.813790  0.183492  0.188252  1
  Y  Y12  1  0.813790  0.183492  0.814466  1
  Y  Y13  1  0.183492  0.813790  0.188252  1
  Y  Y14  1  0.813622  0.813622  0.186378  1
  Y  Y15  1  0.186009  0.186009  0.813991  1
  Cd  Cd16  1  0.831452  0.508947  0.829800  1
  Cd  Cd17  1  0.508947  0.831452  0.829800  1
  Ni  Ni18  1  0.392795  0.392795  0.392843  1
  Ni  Ni19  1  0.392795  0.392795  0.821568  1
  Ni  Ni20  1  0.392138  0.822426  0.392718  1
  Ni  Ni21  1  0.822426  0.392138  0.392718  1
  Ag  Ag22  1  0.832613  0.832613  0.831375  1
  Ag  Ag23  1  0.832613  0.832613  0.503398  1
