# generated using pymatgen
data_Hf6Ti4Al12FeRu6
_symmetry_space_group_name_H-M   'P 1'
_cell_length_a   8.72916399
_cell_length_b   8.72850179
_cell_length_c   8.72888001
_cell_angle_alpha   60.00431288
_cell_angle_beta   60.00063970
_cell_angle_gamma   60.00245650
_symmetry_Int_Tables_number   1
_chemical_formula_structural   Hf6Ti4Al12FeRu6
_chemical_formula_sum   'Hf6 Ti4 Al12 Fe1 Ru6'
_cell_volume   470.30565397
_cell_formula_units_Z   1
loop_
 _symmetry_equiv_pos_site_id
 _symmetry_equiv_pos_as_xyz
  1  'x, y, z'
loop_
 _atom_site_type_symbol
 _atom_site_label
 _atom_site_symmetry_multiplicity
 _atom_site_fract_x
 _atom_site_fract_y
 _atom_site_fract_z
 _atom_site_occupancy
  Hf  Hf0  1  0.700108  0.700107  0.299904  1
  Hf  Hf1  1  0.299862  0.700148  0.299843  1
  Hf  Hf2  1  0.700122  0.299881  0.299875  1
  Hf  Hf3  1  0.299839  0.299831  0.700160  1
  Hf  Hf4  1  0.700150  0.299870  0.700135  1
  Hf  Hf5  1  0.299888  0.700139  0.700124  1
  Ti  Ti6  1  0.882988  0.882988  0.351086  1
  Ti  Ti7  1  0.882938  0.351161  0.882943  1
  Ti  Ti8  1  0.351142  0.882948  0.882942  1
  Ti  Ti9  1  0.882973  0.882966  0.882912  1
  Al  Al10  1  0.117380  0.117433  0.647761  1
  Al  Al11  1  0.117383  0.647809  0.117396  1
  Al  Al12  1  0.647818  0.117399  0.117358  1
  Al  Al13  1  0.117402  0.117411  0.117386  1
  Al  Al14  1  0.665309  0.665302  0.004112  1
  Al  Al15  1  0.665316  0.004061  0.665334  1
  Al  Al16  1  0.004049  0.665303  0.665321  1
  Al  Al17  1  0.665342  0.665287  0.665311  1
  Al  Al18  1  0.334529  0.334535  0.996343  1
  Al  Al19  1  0.334526  0.996328  0.334536  1
  Al  Al20  1  0.996318  0.334553  0.334558  1
  Al  Al21  1  0.334518  0.334583  0.334567  1
  Fe  Fe22  1  0.000060  0.999993  0.000039  1
  Ru  Ru23  1  0.999937  0.999925  0.500049  1
  Ru  Ru24  1  0.500116  0.999904  0.500074  1
  Ru  Ru25  1  0.999938  0.500079  0.500057  1
  Ru  Ru26  1  0.500059  0.500068  0.999950  1
  Ru  Ru27  1  0.999945  0.500045  0.999960  1
  Ru  Ru28  1  0.500043  0.999942  0.999959  1
