# generated using pymatgen
data_Sn16Pd3Au
_symmetry_space_group_name_H-M   'P 1'
_cell_length_a   12.91217487
_cell_length_b   12.91217486
_cell_length_c   12.91681805
_cell_angle_alpha   150.94632442
_cell_angle_beta   150.94632720
_cell_angle_gamma   41.49971884
_symmetry_Int_Tables_number   1
_chemical_formula_structural   Sn16Pd3Au
_chemical_formula_sum   'Sn16 Pd3 Au1'
_cell_volume   506.82555798
_cell_formula_units_Z   1
loop_
 _symmetry_equiv_pos_site_id
 _symmetry_equiv_pos_as_xyz
  1  'x, y, z'
loop_
 _atom_site_type_symbol
 _atom_site_label
 _atom_site_symmetry_multiplicity
 _atom_site_fract_x
 _atom_site_fract_y
 _atom_site_fract_z
 _atom_site_occupancy
  Sn  Sn0  1  0.982713  0.482662  0.840848  1
  Sn  Sn1  1  0.358135  0.858186  0.840848  1
  Sn  Sn2  1  0.017338  0.517287  0.159152  1
  Sn  Sn3  1  0.255965  0.599343  0.986777  1
  Sn  Sn4  1  0.100147  0.110687  0.342859  1
  Sn  Sn5  1  0.858386  0.015698  0.499441  1
  Sn  Sn6  1  0.516257  0.358945  0.500559  1
  Sn  Sn7  1  0.141055  0.983743  0.499441  1
  Sn  Sn8  1  0.484302  0.641614  0.500559  1
  Sn  Sn9  1  0.742712  0.732172  0.342859  1
  Sn  Sn10  1  0.389313  0.399853  0.657141  1
  Sn  Sn11  1  0.767828  0.757288  0.657141  1
  Sn  Sn12  1  0.641814  0.141865  0.159152  1
  Sn  Sn13  1  0.900657  0.244035  0.013223  1
  Sn  Sn14  1  0.230812  0.887434  0.986777  1
  Sn  Sn15  1  0.612566  0.269188  0.013223  1
  Pd  Pd16  1  0.750000  0.750000  0.000000  1
  Pd  Pd17  1  0.250000  0.250000  0.000000  1
  Pd  Pd18  1  0.000000  0.500000  0.500000  1
  Au  Au19  1  0.500000  0.000000  0.500000  1
