# generated using pymatgen
data_Dy7Tm(OsI4)2
_symmetry_space_group_name_H-M   'P 1'
_cell_length_a   11.65409183
_cell_length_b   11.63688750
_cell_length_c   6.17464376
_cell_angle_alpha   90.04789075
_cell_angle_beta   89.97850272
_cell_angle_gamma   90.04925743
_symmetry_Int_Tables_number   1
_chemical_formula_structural   Dy7Tm(OsI4)2
_chemical_formula_sum   'Dy7 Tm1 Os2 I8'
_cell_volume   837.38819724
_cell_formula_units_Z   1
loop_
 _symmetry_equiv_pos_site_id
 _symmetry_equiv_pos_as_xyz
  1  'x, y, z'
loop_
 _atom_site_type_symbol
 _atom_site_label
 _atom_site_symmetry_multiplicity
 _atom_site_fract_x
 _atom_site_fract_y
 _atom_site_fract_z
 _atom_site_occupancy
  Dy  Dy0  1  0.078863  0.807730  0.500869  1
  Dy  Dy1  1  0.079113  0.192394  0.000923  1
  Dy  Dy2  1  0.191913  0.079559  0.500820  1
  Dy  Dy3  1  0.920684  0.807718  0.999189  1
  Dy  Dy4  1  0.919732  0.192448  0.499333  1
  Dy  Dy5  1  0.191922  0.920810  0.998915  1
  Dy  Dy6  1  0.806984  0.921310  0.499370  1
  Tm  Tm7  1  0.812708  0.077330  0.001521  1
  Os  Os8  1  0.000429  0.999713  0.250358  1
  Os  Os9  1  0.000062  0.000047  0.749875  1
  I  I10  1  0.653743  0.143868  0.488324  1
  I  I11  1  0.855467  0.654709  0.506291  1
  I  I12  1  0.344934  0.144301  0.993712  1
  I  I13  1  0.144154  0.345441  0.493701  1
  I  I14  1  0.655051  0.857946  0.006316  1
  I  I15  1  0.345746  0.856329  0.510517  1
  I  I16  1  0.143597  0.654180  0.989388  1
  I  I17  1  0.854896  0.344167  0.010579  1
