# generated using pymatgen
data_TbU2Ni3Sb4
_symmetry_space_group_name_H-M   'P 1'
_cell_length_a   8.13735141
_cell_length_b   8.13735120
_cell_length_c   8.13735181
_cell_angle_alpha   109.49679436
_cell_angle_beta   109.42008933
_cell_angle_gamma   109.49679587
_symmetry_Int_Tables_number   1
_chemical_formula_structural   TbU2Ni3Sb4
_chemical_formula_sum   'Tb2 U4 Ni6 Sb8'
_cell_volume   414.78882179
_cell_formula_units_Z   2
loop_
 _symmetry_equiv_pos_site_id
 _symmetry_equiv_pos_as_xyz
  1  'x, y, z'
loop_
 _atom_site_type_symbol
 _atom_site_label
 _atom_site_symmetry_multiplicity
 _atom_site_fract_x
 _atom_site_fract_y
 _atom_site_fract_z
 _atom_site_occupancy
  Tb  Tb0  1  0.875000  0.250000  0.125000  1
  Tb  Tb1  1  0.625000  0.750000  0.375000  1
  U  U2  1  0.250000  0.126230  0.876230  1
  U  U3  1  0.750000  0.373770  0.623770  1
  U  U4  1  0.123770  0.873770  0.250000  1
  U  U5  1  0.376230  0.626230  0.750000  1
  Ni  Ni6  1  0.375000  0.250000  0.625000  1
  Ni  Ni7  1  0.125000  0.750000  0.875000  1
  Ni  Ni8  1  0.250000  0.627864  0.377864  1
  Ni  Ni9  1  0.750000  0.872136  0.122136  1
  Ni  Ni10  1  0.622136  0.372136  0.250000  1
  Ni  Ni11  1  0.877864  0.127864  0.750000  1
  Sb  Sb12  1  0.663758  0.501069  0.001247  1
  Sb  Sb13  1  0.500178  0.998931  0.662689  1
  Sb  Sb14  1  0.999822  0.662511  0.498753  1
  Sb  Sb15  1  0.836242  0.837489  0.837311  1
  Sb  Sb16  1  0.501247  0.001069  0.163758  1
  Sb  Sb17  1  0.162689  0.498931  0.000178  1
  Sb  Sb18  1  0.998753  0.162511  0.499822  1
  Sb  Sb19  1  0.337311  0.337489  0.336242  1
