# generated using pymatgen
data_Dy2Sc3Co17(P6Ru)2
_symmetry_space_group_name_H-M   'P 1'
_cell_length_a   11.90157784
_cell_length_b   11.88922598
_cell_length_c   3.63771700
_cell_angle_alpha   90.00000000
_cell_angle_beta   90.00000000
_cell_angle_gamma   119.96566786
_symmetry_Int_Tables_number   1
_chemical_formula_structural   Dy2Sc3Co17(P6Ru)2
_chemical_formula_sum   'Dy2 Sc3 Co17 P12 Ru2'
_cell_volume   445.93114550
_cell_formula_units_Z   1
loop_
 _symmetry_equiv_pos_site_id
 _symmetry_equiv_pos_as_xyz
  1  'x, y, z'
loop_
 _atom_site_type_symbol
 _atom_site_label
 _atom_site_symmetry_multiplicity
 _atom_site_fract_x
 _atom_site_fract_y
 _atom_site_fract_z
 _atom_site_occupancy
  Dy  Dy0  1  0.666090  0.332824  0.000000  1
  Dy  Dy1  1  0.333910  0.666735  0.000000  1
  Sc  Sc2  1  0.181692  0.181826  0.500000  1
  Sc  Sc3  1  0.818308  0.000134  0.500000  1
  Sc  Sc4  1  0.000000  0.815256  0.500000  1
  Co  Co5  1  0.000000  0.449327  0.000000  1
  Co  Co6  1  0.823783  0.196518  0.000000  1
  Co  Co7  1  0.806921  0.628702  0.000000  1
  Co  Co8  1  0.369706  0.177024  0.000000  1
  Co  Co9  1  0.193079  0.821781  0.000000  1
  Co  Co10  1  0.630294  0.807317  0.000000  1
  Co  Co11  1  0.176217  0.372735  0.000000  1
  Co  Co12  1  0.646121  0.125397  0.500000  1
  Co  Co13  1  0.875054  0.518668  0.500000  1
  Co  Co14  1  0.480439  0.354319  0.500000  1
  Co  Co15  1  0.124946  0.643613  0.500000  1
  Co  Co16  1  0.519561  0.873880  0.500000  1
  Co  Co17  1  0.353879  0.479276  0.500000  1
  Co  Co18  1  0.721182  0.720900  0.500000  1
  Co  Co19  1  0.278818  0.999719  0.500000  1
  Co  Co20  1  0.000000  0.281609  0.500000  1
  Co  Co21  1  0.000000  0.001226  0.000000  1
  P  P22  1  0.357170  0.358228  0.000000  1
  P  P23  1  0.642830  0.001058  0.000000  1
  P  P24  1  0.000000  0.636825  0.000000  1
  P  P25  1  0.837424  0.316352  0.500000  1
  P  P26  1  0.686139  0.521744  0.500000  1
  P  P27  1  0.477945  0.163107  0.500000  1
  P  P28  1  0.313861  0.835605  0.500000  1
  P  P29  1  0.522055  0.685162  0.500000  1
  P  P30  1  0.162576  0.478927  0.500000  1
  P  P31  1  0.825656  0.824845  0.000000  1
  P  P32  1  0.174344  0.999188  0.000000  1
  P  P33  1  0.000000  0.176836  0.000000  1
  Ru  Ru34  1  0.551564  0.552449  0.000000  1
  Ru  Ru35  1  0.448436  0.000885  0.000000  1
