# generated using pymatgen
data_CaYSi4Tc3
_symmetry_space_group_name_H-M   'P 1'
_cell_length_a   6.82742100
_cell_length_b   6.67707076
_cell_length_c   6.80566254
_cell_angle_alpha   70.54427703
_cell_angle_beta   90.00000000
_cell_angle_gamma   90.00000000
_symmetry_Int_Tables_number   1
_chemical_formula_structural   CaYSi4Tc3
_chemical_formula_sum   'Ca2 Y2 Si8 Tc6'
_cell_volume   292.53533111
_cell_formula_units_Z   2
loop_
 _symmetry_equiv_pos_site_id
 _symmetry_equiv_pos_as_xyz
  1  'x, y, z'
loop_
 _atom_site_type_symbol
 _atom_site_label
 _atom_site_symmetry_multiplicity
 _atom_site_fract_x
 _atom_site_fract_y
 _atom_site_fract_z
 _atom_site_occupancy
  Ca  Ca0  1  0.167349  0.943424  0.186776  1
  Ca  Ca1  1  0.332651  0.443424  0.186776  1
  Y  Y2  1  0.833044  0.058539  0.808755  1
  Y  Y3  1  0.666956  0.558539  0.808755  1
  Si  Si4  1  0.546649  0.118126  0.106225  1
  Si  Si5  1  0.357899  0.632988  0.507605  1
  Si  Si6  1  0.863214  0.867699  0.487476  1
  Si  Si7  1  0.048827  0.380682  0.897995  1
  Si  Si8  1  0.142101  0.132988  0.507605  1
  Si  Si9  1  0.636786  0.367699  0.487476  1
  Si  Si10  1  0.953351  0.618126  0.106225  1
  Si  Si11  1  0.451173  0.880682  0.897995  1
  Tc  Tc12  1  0.841361  0.244021  0.239158  1
  Tc  Tc13  1  0.344216  0.257336  0.760814  1
  Tc  Tc14  1  0.155784  0.757336  0.760814  1
  Tc  Tc15  1  0.658639  0.744021  0.239158  1
  Tc  Tc16  1  0.503804  0.997185  0.505195  1
  Tc  Tc17  1  0.996196  0.497185  0.505195  1
