# generated using pymatgen
data_Ho5(Tl2Pt)2
_symmetry_space_group_name_H-M   'P 1'
_cell_length_a   3.60909300
_cell_length_b   8.28097400
_cell_length_c   18.38469400
_cell_angle_alpha   90.00000000
_cell_angle_beta   90.00000000
_cell_angle_gamma   90.00000000
_symmetry_Int_Tables_number   1
_chemical_formula_structural   Ho5(Tl2Pt)2
_chemical_formula_sum   'Ho10 Tl8 Pt4'
_cell_volume   549.45977002
_cell_formula_units_Z   2
loop_
 _symmetry_equiv_pos_site_id
 _symmetry_equiv_pos_as_xyz
  1  'x, y, z'
loop_
 _atom_site_type_symbol
 _atom_site_label
 _atom_site_symmetry_multiplicity
 _atom_site_fract_x
 _atom_site_fract_y
 _atom_site_fract_z
 _atom_site_occupancy
  Ho  Ho0  1  0.000000  0.112516  0.411855  1
  Ho  Ho1  1  0.000000  0.887484  0.588145  1
  Ho  Ho2  1  0.000000  0.387484  0.911855  1
  Ho  Ho3  1  0.000000  0.612516  0.088145  1
  Ho  Ho4  1  0.000000  0.242342  0.219514  1
  Ho  Ho5  1  0.000000  0.757658  0.780486  1
  Ho  Ho6  1  0.000000  0.257658  0.719514  1
  Ho  Ho7  1  0.000000  0.742342  0.280486  1
  Ho  Ho8  1  0.000000  0.000000  0.000000  1
  Ho  Ho9  1  0.000000  0.500000  0.500000  1
  Tl  Tl10  1  0.500000  0.419359  0.353363  1
  Tl  Tl11  1  0.500000  0.580641  0.646637  1
  Tl  Tl12  1  0.500000  0.080641  0.853363  1
  Tl  Tl13  1  0.500000  0.919359  0.146637  1
  Tl  Tl14  1  0.500000  0.292546  0.063782  1
  Tl  Tl15  1  0.500000  0.707454  0.936218  1
  Tl  Tl16  1  0.500000  0.207454  0.563782  1
  Tl  Tl17  1  0.500000  0.792546  0.436218  1
  Pt  Pt18  1  0.500000  0.025305  0.301821  1
  Pt  Pt19  1  0.500000  0.974695  0.698179  1
  Pt  Pt20  1  0.500000  0.474695  0.801821  1
  Pt  Pt21  1  0.500000  0.525305  0.198179  1
