# generated using pymatgen
data_Tb3Ce2ZnSn3
_symmetry_space_group_name_H-M   'P 1'
_cell_length_a   6.37245800
_cell_length_b   9.38880110
_cell_length_c   9.38880100
_cell_angle_alpha   120.00000318
_cell_angle_beta   90.00000000
_cell_angle_gamma   90.00000000
_symmetry_Int_Tables_number   1
_chemical_formula_structural   Tb3Ce2ZnSn3
_chemical_formula_sum   'Tb6 Ce4 Zn2 Sn6'
_cell_volume   486.47202650
_cell_formula_units_Z   2
loop_
 _symmetry_equiv_pos_site_id
 _symmetry_equiv_pos_as_xyz
  1  'x, y, z'
loop_
 _atom_site_type_symbol
 _atom_site_label
 _atom_site_symmetry_multiplicity
 _atom_site_fract_x
 _atom_site_fract_y
 _atom_site_fract_z
 _atom_site_occupancy
  Tb  Tb0  1  0.750000  0.723352  0.723352  1
  Tb  Tb1  1  0.250000  0.276648  0.276648  1
  Tb  Tb2  1  0.750000  0.000000  0.276648  1
  Tb  Tb3  1  0.250000  0.000000  0.723352  1
  Tb  Tb4  1  0.750000  0.276648  0.000000  1
  Tb  Tb5  1  0.250000  0.723352  0.000000  1
  Ce  Ce6  1  0.000000  0.666667  0.333333  1
  Ce  Ce7  1  0.000000  0.333333  0.666667  1
  Ce  Ce8  1  0.500000  0.333333  0.666667  1
  Ce  Ce9  1  0.500000  0.666667  0.333333  1
  Zn  Zn10  1  0.000000  0.000000  0.000000  1
  Zn  Zn11  1  0.500000  0.000000  0.000000  1
  Sn  Sn12  1  0.750000  0.371058  0.371058  1
  Sn  Sn13  1  0.250000  0.628942  0.628942  1
  Sn  Sn14  1  0.750000  0.000000  0.628942  1
  Sn  Sn15  1  0.250000  0.000000  0.371058  1
  Sn  Sn16  1  0.750000  0.628942  0.000000  1
  Sn  Sn17  1  0.250000  0.371058  0.000000  1
