# generated using pymatgen
data_Hf2Co3Sn2
_symmetry_space_group_name_H-M   'P 1'
_cell_length_a   7.51449366
_cell_length_b   7.51449329
_cell_length_c   7.51449439
_cell_angle_alpha   33.77159228
_cell_angle_beta   33.77159531
_cell_angle_gamma   33.77158800
_symmetry_Int_Tables_number   1
_chemical_formula_structural   Hf2Co3Sn2
_chemical_formula_sum   'Hf2 Co3 Sn2'
_cell_volume   116.83237932
_cell_formula_units_Z   1
loop_
 _symmetry_equiv_pos_site_id
 _symmetry_equiv_pos_as_xyz
  1  'x, y, z'
loop_
 _atom_site_type_symbol
 _atom_site_label
 _atom_site_symmetry_multiplicity
 _atom_site_fract_x
 _atom_site_fract_y
 _atom_site_fract_z
 _atom_site_occupancy
  Hf  Hf0  1  0.753822  0.753822  0.753822  1
  Hf  Hf1  1  0.247279  0.247279  0.247279  1
  Co  Co2  1  0.122519  0.122519  0.122519  1
  Co  Co3  1  0.627512  0.627512  0.627512  1
  Co  Co4  1  0.374791  0.374791  0.374791  1
  Sn  Sn5  1  0.996662  0.996662  0.996662  1
  Sn  Sn6  1  0.502417  0.502417  0.502417  1
