# generated using pymatgen
data_Th14Tc4PdRu
_symmetry_space_group_name_H-M   'P 1'
_cell_length_a   9.98774196
_cell_length_b   9.97712962
_cell_length_c   6.32736402
_cell_angle_alpha   89.99037933
_cell_angle_beta   89.84743896
_cell_angle_gamma   119.68374446
_symmetry_Int_Tables_number   1
_chemical_formula_structural   Th14Tc4PdRu
_chemical_formula_sum   'Th14 Tc4 Pd1 Ru1'
_cell_volume   547.77147493
_cell_formula_units_Z   1
loop_
 _symmetry_equiv_pos_site_id
 _symmetry_equiv_pos_as_xyz
  1  'x, y, z'
loop_
 _atom_site_type_symbol
 _atom_site_label
 _atom_site_symmetry_multiplicity
 _atom_site_fract_x
 _atom_site_fract_y
 _atom_site_fract_z
 _atom_site_occupancy
  Th  Th0  1  0.467922  0.543469  0.292434  1
  Th  Th1  1  0.075611  0.544605  0.291830  1
  Th  Th2  1  0.918874  0.460335  0.799019  1
  Th  Th3  1  0.257428  0.120949  0.505827  1
  Th  Th4  1  0.542112  0.080807  0.798623  1
  Th  Th5  1  0.752812  0.876268  0.003715  1
  Th  Th6  1  0.666273  0.334202  0.285572  1
  Th  Th7  1  0.124731  0.875830  0.000652  1
  Th  Th8  1  0.457160  0.916608  0.294407  1
  Th  Th9  1  0.543332  0.462100  0.796792  1
  Th  Th10  1  0.863912  0.120644  0.502982  1
  Th  Th11  1  0.123210  0.244888  0.010827  1
  Th  Th12  1  0.874320  0.750749  0.506222  1
  Th  Th13  1  0.337314  0.673072  0.800087  1
  Tc  Tc14  1  0.815888  0.630134  0.048923  1
  Tc  Tc15  1  0.820800  0.187985  0.047983  1
  Tc  Tc16  1  0.622884  0.807770  0.549646  1
  Tc  Tc17  1  0.367358  0.188472  0.046275  1
  Pd  Pd18  1  0.185514  0.374251  0.554514  1
  Ru  Ru19  1  0.182546  0.806863  0.547668  1
