# generated using pymatgen
data_Yb4ErIr2
_symmetry_space_group_name_H-M   'P 1'
_cell_length_a   6.53511191
_cell_length_b   7.31349419
_cell_length_c   8.50147134
_cell_angle_alpha   97.13944356
_cell_angle_beta   112.60350450
_cell_angle_gamma   89.99999665
_symmetry_Int_Tables_number   1
_chemical_formula_structural   Yb4ErIr2
_chemical_formula_sum   'Yb8 Er2 Ir4'
_cell_volume   371.69772152
_cell_formula_units_Z   2
loop_
 _symmetry_equiv_pos_site_id
 _symmetry_equiv_pos_as_xyz
  1  'x, y, z'
loop_
 _atom_site_type_symbol
 _atom_site_label
 _atom_site_symmetry_multiplicity
 _atom_site_fract_x
 _atom_site_fract_y
 _atom_site_fract_z
 _atom_site_occupancy
  Yb  Yb0  1  0.971423  0.921606  0.170736  1
  Yb  Yb1  1  0.800687  0.578394  0.829264  1
  Yb  Yb2  1  0.028577  0.078394  0.829264  1
  Yb  Yb3  1  0.199313  0.421606  0.170736  1
  Yb  Yb4  1  0.644169  0.819833  0.437785  1
  Yb  Yb5  1  0.206384  0.680167  0.562215  1
  Yb  Yb6  1  0.355831  0.180167  0.562215  1
  Yb  Yb7  1  0.793616  0.319833  0.437785  1
  Er  Er8  1  0.438122  0.750000  0.000000  1
  Er  Er9  1  0.561878  0.250000  0.000000  1
  Ir  Ir10  1  0.812810  0.572962  0.210280  1
  Ir  Ir11  1  0.602529  0.927038  0.789720  1
  Ir  Ir12  1  0.187190  0.427038  0.789720  1
  Ir  Ir13  1  0.397471  0.072962  0.210280  1
