# generated using pymatgen
data_La16Rh15
_symmetry_space_group_name_H-M   'P 1'
_cell_length_a   8.77924900
_cell_length_b   9.71253111
_cell_length_c   9.72986151
_cell_angle_alpha   76.13652199
_cell_angle_beta   90.00000000
_cell_angle_gamma   90.00000000
_symmetry_Int_Tables_number   1
_chemical_formula_structural   La16Rh15
_chemical_formula_sum   'La16 Rh15'
_cell_volume   805.48464779
_cell_formula_units_Z   1
loop_
 _symmetry_equiv_pos_site_id
 _symmetry_equiv_pos_as_xyz
  1  'x, y, z'
loop_
 _atom_site_type_symbol
 _atom_site_label
 _atom_site_symmetry_multiplicity
 _atom_site_fract_x
 _atom_site_fract_y
 _atom_site_fract_z
 _atom_site_occupancy
  La  La0  1  0.245678  0.545874  0.285949  1
  La  La1  1  0.000000  0.290210  0.048708  1
  La  La2  1  0.749238  0.040175  0.791664  1
  La  La3  1  0.500000  0.794233  0.537596  1
  La  La4  1  0.000000  0.709790  0.951292  1
  La  La5  1  0.754322  0.454126  0.714051  1
  La  La6  1  0.500000  0.205767  0.462404  1
  La  La7  1  0.250762  0.959825  0.208336  1
  La  La8  1  0.500000  0.292580  0.045357  1
  La  La9  1  0.250762  0.040175  0.791664  1
  La  La10  1  0.000000  0.791371  0.538470  1
  La  La11  1  0.754322  0.545874  0.285949  1
  La  La12  1  0.749238  0.959825  0.208336  1
  La  La13  1  0.500000  0.707420  0.954643  1
  La  La14  1  0.245678  0.454126  0.714051  1
  La  La15  1  0.000000  0.208629  0.461530  1
  Rh  Rh16  1  0.250379  0.500000  0.000000  1
  Rh  Rh17  1  0.000000  0.249556  0.753733  1
  Rh  Rh18  1  0.746222  0.000000  0.500000  1
  Rh  Rh19  1  0.500000  0.750553  0.247349  1
  Rh  Rh20  1  0.000000  0.750444  0.246267  1
  Rh  Rh21  1  0.749621  0.500000  0.000000  1
  Rh  Rh22  1  0.500000  0.249447  0.752651  1
  Rh  Rh23  1  0.253778  0.000000  0.500000  1
  Rh  Rh24  1  0.000000  0.500000  0.500000  1
  Rh  Rh25  1  0.746537  0.253603  0.255308  1
  Rh  Rh26  1  0.500000  0.000000  0.000000  1
  Rh  Rh27  1  0.253463  0.746397  0.744692  1
  Rh  Rh28  1  0.253463  0.253603  0.255308  1
  Rh  Rh29  1  0.000000  0.000000  0.000000  1
  Rh  Rh30  1  0.746537  0.746397  0.744692  1
