# generated using pymatgen
data_Ca4Sc4Re(B8Ru)3
_symmetry_space_group_name_H-M   'P 1'
_cell_length_a   3.55219300
_cell_length_b   9.02380334
_cell_length_c   11.39455001
_cell_angle_alpha   90.06540939
_cell_angle_beta   90.00000000
_cell_angle_gamma   90.00000000
_symmetry_Int_Tables_number   1
_chemical_formula_structural   Ca4Sc4Re(B8Ru)3
_chemical_formula_sum   'Ca4 Sc4 Re1 B24 Ru3'
_cell_volume   365.24398467
_cell_formula_units_Z   1
loop_
 _symmetry_equiv_pos_site_id
 _symmetry_equiv_pos_as_xyz
  1  'x, y, z'
loop_
 _atom_site_type_symbol
 _atom_site_label
 _atom_site_symmetry_multiplicity
 _atom_site_fract_x
 _atom_site_fract_y
 _atom_site_fract_z
 _atom_site_occupancy
  Ca  Ca0  1  0.000000  0.323294  0.415707  1
  Ca  Ca1  1  0.000000  0.675875  0.583721  1
  Ca  Ca2  1  0.000000  0.823236  0.085144  1
  Ca  Ca3  1  0.000000  0.178202  0.915833  1
  Sc  Sc4  1  0.000000  0.943379  0.366390  1
  Sc  Sc5  1  0.000000  0.057641  0.632165  1
  Sc  Sc6  1  0.000000  0.442473  0.132982  1
  Sc  Sc7  1  0.000000  0.555101  0.867488  1
  Re  Re8  1  0.000000  0.857307  0.816541  1
  B  B9  1  0.500000  0.555429  0.431871  1
  B  B10  1  0.500000  0.445186  0.568067  1
  B  B11  1  0.500000  0.055713  0.068456  1
  B  B12  1  0.500000  0.946178  0.933117  1
  B  B13  1  0.500000  0.753738  0.416592  1
  B  B14  1  0.500000  0.246326  0.583392  1
  B  B15  1  0.500000  0.253074  0.083541  1
  B  B16  1  0.500000  0.744228  0.918705  1
  B  B17  1  0.500000  0.795055  0.263781  1
  B  B18  1  0.500000  0.205331  0.735851  1
  B  B19  1  0.500000  0.295066  0.236366  1
  B  B20  1  0.500000  0.703072  0.763226  1
  B  B21  1  0.500000  0.629516  0.183003  1
  B  B22  1  0.500000  0.370044  0.816686  1
  B  B23  1  0.500000  0.129828  0.317277  1
  B  B24  1  0.500000  0.871225  0.681563  1
  B  B25  1  0.500000  0.983315  0.212610  1
  B  B26  1  0.500000  0.019519  0.786993  1
  B  B27  1  0.500000  0.482954  0.287388  1
  B  B28  1  0.500000  0.516177  0.713290  1
  B  B29  1  0.500000  0.592540  0.025253  1
  B  B30  1  0.500000  0.405739  0.975256  1
  B  B31  1  0.500000  0.093187  0.474504  1
  B  B32  1  0.500000  0.907760  0.524353  1
  Ru  Ru33  1  0.000000  0.642333  0.316523  1
  Ru  Ru34  1  0.000000  0.358012  0.681702  1
  Ru  Ru35  1  0.000000  0.142947  0.184662  1
