# generated using pymatgen
data_YbDy2Y4NiI12
_symmetry_space_group_name_H-M   'P 1'
_cell_length_a   9.73817368
_cell_length_b   9.74110148
_cell_length_c   9.74188210
_cell_angle_alpha   106.84905992
_cell_angle_beta   106.83382375
_cell_angle_gamma   106.84638213
_symmetry_Int_Tables_number   1
_chemical_formula_structural   YbDy2Y4NiI12
_chemical_formula_sum   'Yb1 Dy2 Y4 Ni1 I12'
_cell_volume   772.88669321
_cell_formula_units_Z   1
loop_
 _symmetry_equiv_pos_site_id
 _symmetry_equiv_pos_as_xyz
  1  'x, y, z'
loop_
 _atom_site_type_symbol
 _atom_site_label
 _atom_site_symmetry_multiplicity
 _atom_site_fract_x
 _atom_site_fract_y
 _atom_site_fract_z
 _atom_site_occupancy
  Yb  Yb0  1  0.500114  0.500152  0.500109  1
  Dy  Dy1  1  0.904104  0.975533  0.706566  1
  Dy  Dy2  1  0.706344  0.904107  0.975741  1
  Y  Y3  1  0.975561  0.704666  0.903483  1
  Y  Y4  1  0.095995  0.024552  0.294814  1
  Y  Y5  1  0.294904  0.096132  0.024605  1
  Y  Y6  1  0.024610  0.295114  0.096255  1
  Ni  Ni7  1  0.998607  0.999201  0.999150  1
  I  I8  1  0.926920  0.322138  0.775803  1
  I  I9  1  0.775932  0.926980  0.321972  1
  I  I10  1  0.322607  0.776350  0.927014  1
  I  I11  1  0.073099  0.677406  0.223803  1
  I  I12  1  0.223331  0.072943  0.677320  1
  I  I13  1  0.677253  0.223442  0.072881  1
  I  I14  1  0.542072  0.849091  0.620541  1
  I  I15  1  0.620042  0.541989  0.848940  1
  I  I16  1  0.848976  0.620607  0.541594  1
  I  I17  1  0.458329  0.151146  0.379895  1
  I  I18  1  0.380070  0.458413  0.151188  1
  I  I19  1  0.151132  0.380037  0.458324  1
