# generated using pymatgen
data_BaCe2(CoH6)2
_symmetry_space_group_name_H-M   'P 1'
_cell_length_a   4.93276300
_cell_length_b   4.93276219
_cell_length_c   8.28114000
_cell_angle_alpha   90.00000000
_cell_angle_beta   90.00000000
_cell_angle_gamma   119.99998531
_symmetry_Int_Tables_number   1
_chemical_formula_structural   BaCe2(CoH6)2
_chemical_formula_sum   'Ba1 Ce2 Co2 H12'
_cell_volume   174.50233844
_cell_formula_units_Z   1
loop_
 _symmetry_equiv_pos_site_id
 _symmetry_equiv_pos_as_xyz
  1  'x, y, z'
loop_
 _atom_site_type_symbol
 _atom_site_label
 _atom_site_symmetry_multiplicity
 _atom_site_fract_x
 _atom_site_fract_y
 _atom_site_fract_z
 _atom_site_occupancy
  Ba  Ba0  1  0.000000  0.000000  0.000000  1
  Ce  Ce1  1  0.666667  0.333333  0.365512  1
  Ce  Ce2  1  0.333333  0.666667  0.634488  1
  Co  Co3  1  0.666667  0.333333  0.739263  1
  Co  Co4  1  0.333333  0.666667  0.260737  1
  H  H5  1  0.180710  0.819290  0.372906  1
  H  H6  1  0.638582  0.819290  0.372906  1
  H  H7  1  0.180710  0.361418  0.372906  1
  H  H8  1  0.819290  0.180710  0.627094  1
  H  H9  1  0.361418  0.180710  0.627094  1
  H  H10  1  0.819290  0.638582  0.627094  1
  H  H11  1  0.515611  0.031222  0.850226  1
  H  H12  1  0.515611  0.484389  0.850226  1
  H  H13  1  0.968778  0.484389  0.850226  1
  H  H14  1  0.484389  0.968778  0.149774  1
  H  H15  1  0.484389  0.515611  0.149774  1
  H  H16  1  0.031222  0.515611  0.149774  1
