# generated using pymatgen
data_PrNd3Y2OsI10
_symmetry_space_group_name_H-M   'P 1'
_cell_length_a   7.90747212
_cell_length_b   9.98057513
_cell_length_c   9.96828124
_cell_angle_alpha   107.30279602
_cell_angle_beta   96.20721405
_cell_angle_gamma   104.58477047
_symmetry_Int_Tables_number   1
_chemical_formula_structural   PrNd3Y2OsI10
_chemical_formula_sum   'Pr1 Nd3 Y2 Os1 I10'
_cell_volume   712.50046561
_cell_formula_units_Z   1
loop_
 _symmetry_equiv_pos_site_id
 _symmetry_equiv_pos_as_xyz
  1  'x, y, z'
loop_
 _atom_site_type_symbol
 _atom_site_label
 _atom_site_symmetry_multiplicity
 _atom_site_fract_x
 _atom_site_fract_y
 _atom_site_fract_z
 _atom_site_occupancy
  Pr  Pr0  1  0.116904  0.041983  0.758884  1
  Nd  Nd1  1  0.883623  0.958247  0.240502  1
  Nd  Nd2  1  0.967508  0.281900  0.084269  1
  Nd  Nd3  1  0.032349  0.718043  0.916040  1
  Y  Y4  1  0.350805  0.125551  0.167152  1
  Y  Y5  1  0.649025  0.874364  0.833074  1
  Os  Os6  1  0.999774  0.999936  0.000445  1
  I  I7  1  0.353607  0.443492  0.270624  1
  I  I8  1  0.646407  0.556501  0.729362  1
  I  I9  1  0.262904  0.087789  0.453214  1
  I  I10  1  0.736322  0.911944  0.546093  1
  I  I11  1  0.087359  0.369896  0.817284  1
  I  I12  1  0.912555  0.630795  0.182918  1
  I  I13  1  0.455171  0.821460  0.089070  1
  I  I14  1  0.545478  0.178754  0.911211  1
  I  I15  1  0.770307  0.255382  0.346014  1
  I  I16  1  0.229902  0.743963  0.653846  1
