# generated using pymatgen
data_Ho3Tm17(Bi2Pt)4
_symmetry_space_group_name_H-M   'P 1'
_cell_length_a   7.98366407
_cell_length_b   8.99461900
_cell_length_c   12.27773710
_cell_angle_alpha   90.00000000
_cell_angle_beta   89.98518921
_cell_angle_gamma   90.00000000
_symmetry_Int_Tables_number   1
_chemical_formula_structural   Ho3Tm17(Bi2Pt)4
_chemical_formula_sum   'Ho3 Tm17 Bi8 Pt4'
_cell_volume   881.66447451
_cell_formula_units_Z   1
loop_
 _symmetry_equiv_pos_site_id
 _symmetry_equiv_pos_as_xyz
  1  'x, y, z'
loop_
 _atom_site_type_symbol
 _atom_site_label
 _atom_site_symmetry_multiplicity
 _atom_site_fract_x
 _atom_site_fract_y
 _atom_site_fract_z
 _atom_site_occupancy
  Ho  Ho0  1  0.873011  0.750000  0.802799  1
  Ho  Ho1  1  0.372785  0.250000  0.697046  1
  Ho  Ho2  1  0.127180  0.250000  0.197269  1
  Tm  Tm3  1  0.165462  0.750000  0.210768  1
  Tm  Tm4  1  0.334620  0.750000  0.710548  1
  Tm  Tm5  1  0.834705  0.250000  0.789383  1
  Tm  Tm6  1  0.665698  0.250000  0.289192  1
  Tm  Tm7  1  0.448278  0.750000  0.000455  1
  Tm  Tm8  1  0.051908  0.750000  0.500165  1
  Tm  Tm9  1  0.551875  0.250000  0.999967  1
  Tm  Tm10  1  0.948049  0.250000  0.499734  1
  Tm  Tm11  1  0.626051  0.750000  0.303561  1
  Tm  Tm12  1  0.823149  0.548269  0.066823  1
  Tm  Tm13  1  0.676832  0.951923  0.566032  1
  Tm  Tm14  1  0.176622  0.047943  0.933602  1
  Tm  Tm15  1  0.323640  0.452334  0.433267  1
  Tm  Tm16  1  0.176622  0.452057  0.933602  1
  Tm  Tm17  1  0.323640  0.047666  0.433267  1
  Tm  Tm18  1  0.823149  0.951731  0.066823  1
  Tm  Tm19  1  0.676832  0.548077  0.566032  1
  Bi  Bi20  1  0.932497  0.511037  0.327998  1
  Bi  Bi21  1  0.566516  0.989586  0.827881  1
  Bi  Bi22  1  0.066502  0.010380  0.671982  1
  Bi  Bi23  1  0.434076  0.490137  0.172377  1
  Bi  Bi24  1  0.066502  0.489620  0.671982  1
  Bi  Bi25  1  0.434076  0.009863  0.172377  1
  Bi  Bi26  1  0.932497  0.988963  0.327998  1
  Bi  Bi27  1  0.566516  0.510414  0.827881  1
  Pt  Pt28  1  0.421323  0.750000  0.488397  1
  Pt  Pt29  1  0.079633  0.750000  0.989058  1
  Pt  Pt30  1  0.579422  0.250000  0.510696  1
  Pt  Pt31  1  0.920333  0.250000  0.011038  1
