# generated using pymatgen
data_Nb18CoNi3(GePt2)2
_symmetry_space_group_name_H-M   'P 1'
_cell_length_a   5.15100256
_cell_length_b   9.82782656
_cell_length_c   9.83095165
_cell_angle_alpha   86.04553738
_cell_angle_beta   74.81250290
_cell_angle_gamma   74.73751977
_symmetry_Int_Tables_number   1
_chemical_formula_structural   Nb18CoNi3(GePt2)2
_chemical_formula_sum   'Nb18 Co1 Ni3 Ge2 Pt4'
_cell_volume   463.35203075
_cell_formula_units_Z   1
loop_
 _symmetry_equiv_pos_site_id
 _symmetry_equiv_pos_as_xyz
  1  'x, y, z'
loop_
 _atom_site_type_symbol
 _atom_site_label
 _atom_site_symmetry_multiplicity
 _atom_site_fract_x
 _atom_site_fract_y
 _atom_site_fract_z
 _atom_site_occupancy
  Nb  Nb0  1  0.749525  0.501035  0.500000  1
  Nb  Nb1  1  0.250475  0.498965  0.500000  1
  Nb  Nb2  1  0.790163  0.781374  0.638806  1
  Nb  Nb3  1  0.209837  0.218626  0.361194  1
  Nb  Nb4  1  0.710202  0.360988  0.219368  1
  Nb  Nb5  1  0.289798  0.639012  0.780632  1
  Nb  Nb6  1  0.570433  0.639012  0.219368  1
  Nb  Nb7  1  0.429567  0.360988  0.780632  1
  Nb  Nb8  1  0.071031  0.218626  0.638806  1
  Nb  Nb9  1  0.928969  0.781374  0.361194  1
  Nb  Nb10  1  0.583191  0.077676  0.753335  1
  Nb  Nb11  1  0.416809  0.922324  0.246665  1
  Nb  Nb12  1  0.916317  0.246227  0.921811  1
  Nb  Nb13  1  0.083683  0.753773  0.078189  1
  Nb  Nb14  1  0.661872  0.753773  0.921811  1
  Nb  Nb15  1  0.338128  0.246227  0.078189  1
  Nb  Nb16  1  0.163475  0.922324  0.753335  1
  Nb  Nb17  1  0.836525  0.077676  0.246665  1
  Co  Co18  1  0.500000  0.000000  0.500000  1
  Ni  Ni19  1  0.000000  0.000000  0.500000  1
  Ni  Ni20  1  0.500000  0.500000  0.000000  1
  Ni  Ni21  1  0.000000  0.500000  0.000000  1
  Ge  Ge22  1  0.249869  0.000000  0.000262  1
  Ge  Ge23  1  0.750131  0.000000  0.999738  1
  Pt  Pt24  1  0.130456  0.500000  0.239087  1
  Pt  Pt25  1  0.869544  0.500000  0.760913  1
  Pt  Pt26  1  0.367430  0.762193  0.500000  1
  Pt  Pt27  1  0.632570  0.237807  0.500000  1
