# generated using pymatgen
data_Y2V3Co3Ni6As7
_symmetry_space_group_name_H-M   'P 1'
_cell_length_a   3.80802700
_cell_length_b   9.44935210
_cell_length_c   9.44935300
_cell_angle_alpha   119.99999964
_cell_angle_beta   90.00000000
_cell_angle_gamma   90.00000000
_symmetry_Int_Tables_number   1
_chemical_formula_structural   Y2V3Co3Ni6As7
_chemical_formula_sum   'Y2 V3 Co3 Ni6 As7'
_cell_volume   294.46572918
_cell_formula_units_Z   1
loop_
 _symmetry_equiv_pos_site_id
 _symmetry_equiv_pos_as_xyz
  1  'x, y, z'
loop_
 _atom_site_type_symbol
 _atom_site_label
 _atom_site_symmetry_multiplicity
 _atom_site_fract_x
 _atom_site_fract_y
 _atom_site_fract_z
 _atom_site_occupancy
  Y  Y0  1  0.000000  0.666667  0.333333  1
  Y  Y1  1  0.500000  0.333333  0.666667  1
  V  V2  1  0.500000  0.784670  0.899179  1
  V  V3  1  0.500000  0.114509  0.215330  1
  V  V4  1  0.500000  0.100821  0.885491  1
  Co  Co5  1  0.000000  0.874760  0.153459  1
  Co  Co6  1  0.000000  0.278698  0.125240  1
  Co  Co7  1  0.000000  0.846541  0.721302  1
  Ni  Ni8  1  0.000000  0.568379  0.939056  1
  Ni  Ni9  1  0.000000  0.370676  0.431621  1
  Ni  Ni10  1  0.000000  0.060944  0.629324  1
  Ni  Ni11  1  0.500000  0.947095  0.381465  1
  Ni  Ni12  1  0.500000  0.434369  0.052905  1
  Ni  Ni13  1  0.500000  0.618535  0.565631  1
  As  As14  1  0.000000  0.000000  0.000000  1
  As  As15  1  0.500000  0.710316  0.114922  1
  As  As16  1  0.500000  0.404606  0.289684  1
  As  As17  1  0.500000  0.885078  0.595394  1
  As  As18  1  0.000000  0.592192  0.704964  1
  As  As19  1  0.000000  0.112772  0.407808  1
  As  As20  1  0.000000  0.295036  0.887228  1
