# generated using pymatgen
data_PrSb3F18
_symmetry_space_group_name_H-M   'P 1'
_cell_length_a   9.73042800
_cell_length_b   9.73042814
_cell_length_c   8.87579500
_cell_angle_alpha   90.00000000
_cell_angle_beta   90.00000000
_cell_angle_gamma   119.99999952
_symmetry_Int_Tables_number   1
_chemical_formula_structural   PrSb3F18
_chemical_formula_sum   'Pr2 Sb6 F36'
_cell_volume   727.78280408
_cell_formula_units_Z   2
loop_
 _symmetry_equiv_pos_site_id
 _symmetry_equiv_pos_as_xyz
  1  'x, y, z'
loop_
 _atom_site_type_symbol
 _atom_site_label
 _atom_site_symmetry_multiplicity
 _atom_site_fract_x
 _atom_site_fract_y
 _atom_site_fract_z
 _atom_site_occupancy
  Pr  Pr0  1  0.333333  0.666667  0.576253  1
  Pr  Pr1  1  0.666667  0.333333  0.423747  1
  Sb  Sb2  1  0.981752  0.345224  0.768203  1
  Sb  Sb3  1  0.363472  0.018248  0.768203  1
  Sb  Sb4  1  0.654776  0.636528  0.768203  1
  Sb  Sb5  1  0.018248  0.654776  0.231797  1
  Sb  Sb6  1  0.636528  0.981752  0.231797  1
  Sb  Sb7  1  0.345224  0.363472  0.231797  1
  F  F8  1  0.476834  0.866871  0.392236  1
  F  F9  1  0.390037  0.523166  0.392236  1
  F  F10  1  0.133129  0.609963  0.392236  1
  F  F11  1  0.523166  0.133129  0.607764  1
  F  F12  1  0.609963  0.476834  0.607764  1
  F  F13  1  0.866871  0.390037  0.607764  1
  F  F14  1  0.105317  0.312531  0.910569  1
  F  F15  1  0.207214  0.894683  0.910569  1
  F  F16  1  0.687469  0.792786  0.910569  1
  F  F17  1  0.894683  0.687469  0.089431  1
  F  F18  1  0.792786  0.105317  0.089431  1
  F  F19  1  0.312531  0.207214  0.089431  1
  F  F20  1  0.855207  0.377052  0.907702  1
  F  F21  1  0.521846  0.144793  0.907702  1
  F  F22  1  0.622948  0.478154  0.907702  1
  F  F23  1  0.144793  0.622948  0.092298  1
  F  F24  1  0.478154  0.855207  0.092298  1
  F  F25  1  0.377052  0.521846  0.092298  1
  F  F26  1  0.243007  0.870419  0.604008  1
  F  F27  1  0.627413  0.756993  0.604008  1
  F  F28  1  0.129581  0.372587  0.604008  1
  F  F29  1  0.756993  0.129581  0.395992  1
  F  F30  1  0.372587  0.243007  0.395992  1
  F  F31  1  0.870419  0.627413  0.395992  1
  F  F32  1  0.845959  0.128123  0.727209  1
  F  F33  1  0.282164  0.154041  0.727209  1
  F  F34  1  0.871877  0.717836  0.727209  1
  F  F35  1  0.154041  0.871877  0.272791  1
  F  F36  1  0.717836  0.845959  0.272791  1
  F  F37  1  0.128123  0.282164  0.272791  1
  F  F38  1  0.126920  0.577803  0.765747  1
  F  F39  1  0.450883  0.873080  0.765747  1
  F  F40  1  0.422197  0.549117  0.765747  1
  F  F41  1  0.873080  0.422197  0.234253  1
  F  F42  1  0.549117  0.126920  0.234253  1
  F  F43  1  0.577803  0.450883  0.234253  1
