# generated using pymatgen
data_Ba9CeIn2(Hg3Bi5)2
_symmetry_space_group_name_H-M   'P 1'
_cell_length_a   10.74337733
_cell_length_b   10.72734402
_cell_length_c   9.01796853
_cell_angle_alpha   89.11263909
_cell_angle_beta   89.48607491
_cell_angle_gamma   89.95841784
_symmetry_Int_Tables_number   1
_chemical_formula_structural   Ba9CeIn2(Hg3Bi5)2
_chemical_formula_sum   'Ba9 Ce1 In2 Hg6 Bi10'
_cell_volume   1039.13535459
_cell_formula_units_Z   1
loop_
 _symmetry_equiv_pos_site_id
 _symmetry_equiv_pos_as_xyz
  1  'x, y, z'
loop_
 _atom_site_type_symbol
 _atom_site_label
 _atom_site_symmetry_multiplicity
 _atom_site_fract_x
 _atom_site_fract_y
 _atom_site_fract_z
 _atom_site_occupancy
  Ba  Ba0  1  0.499204  0.501217  0.703458  1
  Ba  Ba1  1  0.187222  0.601857  0.374116  1
  Ba  Ba2  1  0.605843  0.810595  0.376913  1
  Ba  Ba3  1  0.398265  0.187404  0.375225  1
  Ba  Ba4  1  0.810404  0.394961  0.377282  1
  Ba  Ba5  1  0.693414  0.894580  0.873322  1
  Ba  Ba6  1  0.308303  0.107575  0.874511  1
  Ba  Ba7  1  0.892108  0.307498  0.875432  1
  Ba  Ba8  1  0.104341  0.691434  0.873326  1
  Ce  Ce9  1  0.999172  0.999938  0.200779  1
  In  In10  1  0.181793  0.931381  0.522965  1
  In  In11  1  0.068734  0.182500  0.526186  1
  Hg  Hg12  1  0.692782  0.577034  0.025838  1
  Hg  Hg13  1  0.312271  0.423964  0.025690  1
  Hg  Hg14  1  0.423593  0.689730  0.027153  1
  Hg  Hg15  1  0.579555  0.309138  0.024699  1
  Hg  Hg16  1  0.937824  0.815037  0.520513  1
  Hg  Hg17  1  0.816498  0.070761  0.522041  1
  Bi  Bi18  1  0.002668  0.000869  0.845090  1
  Bi  Bi19  1  0.501466  0.500099  0.310907  1
  Bi  Bi20  1  0.892249  0.707747  0.196213  1
  Bi  Bi21  1  0.104375  0.291640  0.194676  1
  Bi  Bi22  1  0.291106  0.893829  0.194879  1
  Bi  Bi23  1  0.706518  0.103333  0.195368  1
  Bi  Bi24  1  0.807374  0.613731  0.691674  1
  Bi  Bi25  1  0.611601  0.189723  0.692488  1
  Bi  Bi26  1  0.387641  0.814538  0.690608  1
  Bi  Bi27  1  0.183675  0.387891  0.692209  1
