# generated using pymatgen
data_Pr3CoCu5Ni7B2
_symmetry_space_group_name_H-M   'P 1'
_cell_length_a   5.12869117
_cell_length_b   5.10297831
_cell_length_c   10.92512300
_cell_angle_alpha   90.00000000
_cell_angle_beta   90.00000000
_cell_angle_gamma   119.98130836
_symmetry_Int_Tables_number   1
_chemical_formula_structural   Pr3CoCu5Ni7B2
_chemical_formula_sum   'Pr3 Co1 Cu5 Ni7 B2'
_cell_volume   247.66749166
_cell_formula_units_Z   1
loop_
 _symmetry_equiv_pos_site_id
 _symmetry_equiv_pos_as_xyz
  1  'x, y, z'
loop_
 _atom_site_type_symbol
 _atom_site_label
 _atom_site_symmetry_multiplicity
 _atom_site_fract_x
 _atom_site_fract_y
 _atom_site_fract_z
 _atom_site_occupancy
  Pr  Pr0  1  0.000000  0.000000  0.000690  1
  Pr  Pr1  1  0.000000  0.000000  0.323054  1
  Pr  Pr2  1  0.000000  0.000000  0.672292  1
  Co  Co3  1  0.000000  0.500000  0.126686  1
  Cu  Cu4  1  0.500000  0.000000  0.499971  1
  Cu  Cu5  1  0.327690  0.661669  0.315987  1
  Cu  Cu6  1  0.672310  0.338331  0.315987  1
  Cu  Cu7  1  0.668069  0.336181  0.684036  1
  Cu  Cu8  1  0.331931  0.663819  0.684036  1
  Ni  Ni9  1  0.500000  0.500000  0.500223  1
  Ni  Ni10  1  0.000000  0.500000  0.500158  1
  Ni  Ni11  1  0.500000  0.000000  0.130223  1
  Ni  Ni12  1  0.500000  0.500000  0.130013  1
  Ni  Ni13  1  0.500000  0.000000  0.871115  1
  Ni  Ni14  1  0.500000  0.500000  0.871188  1
  Ni  Ni15  1  0.000000  0.500000  0.870875  1
  B  B16  1  0.328935  0.664863  0.001733  1
  B  B17  1  0.671065  0.335137  0.001733  1
