# generated using pymatgen
data_Dy4Al4IrPd3
_symmetry_space_group_name_H-M   'P 1'
_cell_length_a   4.41612200
_cell_length_b   6.85276091
_cell_length_c   7.84009986
_cell_angle_alpha   89.83750223
_cell_angle_beta   90.00000000
_cell_angle_gamma   90.00000000
_symmetry_Int_Tables_number   1
_chemical_formula_structural   Dy4Al4IrPd3
_chemical_formula_sum   'Dy4 Al4 Ir1 Pd3'
_cell_volume   237.26107302
_cell_formula_units_Z   1
loop_
 _symmetry_equiv_pos_site_id
 _symmetry_equiv_pos_as_xyz
  1  'x, y, z'
loop_
 _atom_site_type_symbol
 _atom_site_label
 _atom_site_symmetry_multiplicity
 _atom_site_fract_x
 _atom_site_fract_y
 _atom_site_fract_z
 _atom_site_occupancy
  Dy  Dy0  1  0.250000  0.037332  0.322426  1
  Dy  Dy1  1  0.250000  0.533715  0.179953  1
  Dy  Dy2  1  0.750000  0.975015  0.679196  1
  Dy  Dy3  1  0.750000  0.461938  0.817371  1
  Al  Al4  1  0.250000  0.144753  0.936293  1
  Al  Al5  1  0.250000  0.637785  0.561614  1
  Al  Al6  1  0.750000  0.857130  0.059575  1
  Al  Al7  1  0.750000  0.355714  0.441827  1
  Ir  Ir8  1  0.250000  0.267729  0.620750  1
  Pd  Pd9  1  0.250000  0.771487  0.880138  1
  Pd  Pd10  1  0.750000  0.728894  0.379474  1
  Pd  Pd11  1  0.750000  0.228510  0.121382  1
