# generated using pymatgen
data_LuHf4Sc7Ga20
_symmetry_space_group_name_H-M   'P 1'
_cell_length_a   5.74574121
_cell_length_b   9.20627191
_cell_length_c   11.12847783
_cell_angle_alpha   89.94069181
_cell_angle_beta   90.02824027
_cell_angle_gamma   90.06910171
_symmetry_Int_Tables_number   1
_chemical_formula_structural   LuHf4Sc7Ga20
_chemical_formula_sum   'Lu1 Hf4 Sc7 Ga20'
_cell_volume   588.66067409
_cell_formula_units_Z   1
loop_
 _symmetry_equiv_pos_site_id
 _symmetry_equiv_pos_as_xyz
  1  'x, y, z'
loop_
 _atom_site_type_symbol
 _atom_site_label
 _atom_site_symmetry_multiplicity
 _atom_site_fract_x
 _atom_site_fract_y
 _atom_site_fract_z
 _atom_site_occupancy
  Lu  Lu0  1  0.613727  0.500119  0.853059  1
  Hf  Hf1  1  0.857335  0.750229  0.069750  1
  Hf  Hf2  1  0.642441  0.749641  0.569485  1
  Hf  Hf3  1  0.142431  0.250548  0.930536  1
  Hf  Hf4  1  0.357268  0.249812  0.430379  1
  Sc  Sc5  1  0.886399  0.500194  0.352888  1
  Sc  Sc6  1  0.613806  0.999978  0.853006  1
  Sc  Sc7  1  0.113695  0.000253  0.646517  1
  Sc  Sc8  1  0.386263  0.499798  0.147818  1
  Sc  Sc9  1  0.113746  0.499685  0.646752  1
  Sc  Sc10  1  0.385915  0.000281  0.147417  1
  Sc  Sc11  1  0.886475  0.999492  0.352972  1
  Ga  Ga12  1  0.873892  0.050805  0.093011  1
  Ga  Ga13  1  0.626730  0.447956  0.590442  1
  Ga  Ga14  1  0.124165  0.552585  0.908302  1
  Ga  Ga15  1  0.373656  0.948698  0.407238  1
  Ga  Ga16  1  0.126812  0.949624  0.907424  1
  Ga  Ga17  1  0.373352  0.551313  0.407058  1
  Ga  Ga18  1  0.874049  0.448383  0.093930  1
  Ga  Ga19  1  0.626420  0.050920  0.592747  1
  Ga  Ga20  1  0.151903  0.750005  0.256790  1
  Ga  Ga21  1  0.346297  0.752487  0.755779  1
  Ga  Ga22  1  0.850733  0.247381  0.741864  1
  Ga  Ga23  1  0.651689  0.249750  0.243597  1
  Ga  Ga24  1  0.394831  0.751110  0.002415  1
  Ga  Ga25  1  0.104056  0.749957  0.501589  1
  Ga  Ga26  1  0.602947  0.247077  0.000801  1
  Ga  Ga27  1  0.896326  0.249705  0.497982  1
  Ga  Ga28  1  0.621884  0.750019  0.293467  1
  Ga  Ga29  1  0.881173  0.753250  0.792483  1
  Ga  Ga30  1  0.377581  0.249105  0.705856  1
  Ga  Ga31  1  0.122003  0.249841  0.206645  1
