# generated using pymatgen
data_Er7CoSn23Ir5
_symmetry_space_group_name_H-M   'P 1'
_cell_length_a   9.80952714
_cell_length_b   9.84015779
_cell_length_c   10.05627154
_cell_angle_alpha   90.00000197
_cell_angle_beta   90.06574775
_cell_angle_gamma   120.10334875
_symmetry_Int_Tables_number   1
_chemical_formula_structural   Er7CoSn23Ir5
_chemical_formula_sum   'Er7 Co1 Sn23 Ir5'
_cell_volume   839.77734705
_cell_formula_units_Z   1
loop_
 _symmetry_equiv_pos_site_id
 _symmetry_equiv_pos_as_xyz
  1  'x, y, z'
loop_
 _atom_site_type_symbol
 _atom_site_label
 _atom_site_symmetry_multiplicity
 _atom_site_fract_x
 _atom_site_fract_y
 _atom_site_fract_z
 _atom_site_occupancy
  Er  Er0  1  0.481632  0.518641  0.307890  1
  Er  Er1  1  0.517606  0.480449  0.690470  1
  Er  Er2  1  0.481632  0.962992  0.307890  1
  Er  Er3  1  0.517606  0.037155  0.690470  1
  Er  Er4  1  0.036057  0.518029  0.306834  1
  Er  Er5  1  0.961179  0.480589  0.692759  1
  Er  Er6  1  0.011995  0.005997  0.006736  1
  Co  Co7  1  0.659197  0.829598  0.799945  1
  Sn  Sn8  1  0.117627  0.879357  0.285344  1
  Sn  Sn9  1  0.875183  0.110398  0.723320  1
  Sn  Sn10  1  0.117627  0.238272  0.285344  1
  Sn  Sn11  1  0.875183  0.764786  0.723320  1
  Sn  Sn12  1  0.759521  0.879760  0.283915  1
  Sn  Sn13  1  0.237397  0.118699  0.714921  1
  Sn  Sn14  1  0.780650  0.220712  0.459823  1
  Sn  Sn15  1  0.219654  0.777393  0.540476  1
  Sn  Sn16  1  0.780650  0.559938  0.459823  1
  Sn  Sn17  1  0.219654  0.442261  0.540476  1
  Sn  Sn18  1  0.443539  0.221770  0.458363  1
  Sn  Sn19  1  0.562039  0.781020  0.546542  1
  Sn  Sn20  1  0.356861  0.000167  0.998446  1
  Sn  Sn21  1  0.650789  0.993754  0.994409  1
  Sn  Sn22  1  0.999892  0.352581  0.999943  1
  Sn  Sn23  1  0.999892  0.647312  0.999943  1
  Sn  Sn24  1  0.650789  0.657036  0.994409  1
  Sn  Sn25  1  0.356861  0.356693  0.998446  1
  Sn  Sn26  1  0.334937  0.667469  0.121766  1
  Sn  Sn27  1  0.663450  0.331725  0.876448  1
  Sn  Sn28  1  0.338413  0.669207  0.825804  1
  Sn  Sn29  1  0.665545  0.332772  0.170665  1
  Sn  Sn30  1  0.998472  0.999237  0.500946  1
  Ir  Ir31  1  0.828318  0.167802  0.198563  1
  Ir  Ir32  1  0.167976  0.829816  0.799518  1
  Ir  Ir33  1  0.828318  0.660516  0.198563  1
  Ir  Ir34  1  0.167976  0.338158  0.799518  1
  Ir  Ir35  1  0.335881  0.167942  0.197956  1
