# generated using pymatgen
data_Ca5Zn2Rh
_symmetry_space_group_name_H-M   'P 1'
_cell_length_a   9.23027521
_cell_length_b   9.23027558
_cell_length_c   9.23027448
_cell_angle_alpha   129.48171570
_cell_angle_beta   129.35360780
_cell_angle_gamma   74.33950822
_symmetry_Int_Tables_number   1
_chemical_formula_structural   Ca5Zn2Rh
_chemical_formula_sum   'Ca10 Zn4 Rh2'
_cell_volume   457.48759940
_cell_formula_units_Z   2
loop_
 _symmetry_equiv_pos_site_id
 _symmetry_equiv_pos_as_xyz
  1  'x, y, z'
loop_
 _atom_site_type_symbol
 _atom_site_label
 _atom_site_symmetry_multiplicity
 _atom_site_fract_x
 _atom_site_fract_y
 _atom_site_fract_z
 _atom_site_occupancy
  Ca  Ca0  1  0.984041  0.469748  0.172466  1
  Ca  Ca1  1  0.456845  0.309563  0.489675  1
  Ca  Ca2  1  0.702719  0.188425  0.172466  1
  Ca  Ca3  1  0.009437  0.003877  0.013314  1
  Ca  Ca4  1  0.180112  0.032831  0.489675  1
  Ca  Ca5  1  0.797281  0.969748  0.485707  1
  Ca  Ca6  1  0.319888  0.809563  0.852718  1
  Ca  Ca7  1  0.515959  0.688425  0.485707  1
  Ca  Ca8  1  0.490563  0.503877  0.994439  1
  Ca  Ca9  1  0.043155  0.532831  0.852718  1
  Zn  Zn10  1  0.611405  0.116275  0.727680  1
  Zn  Zn11  1  0.750000  0.742374  0.992374  1
  Zn  Zn12  1  0.888595  0.616275  0.504871  1
  Zn  Zn13  1  0.250000  0.242374  0.992374  1
  Rh  Rh14  1  0.115819  0.386907  0.502726  1
  Rh  Rh15  1  0.384181  0.886907  0.271087  1
