# generated using pymatgen
data_Hf6Tc3RuRh2
_symmetry_space_group_name_H-M   'P 1'
_cell_length_a   4.61203200
_cell_length_b   6.50127200
_cell_length_c   13.85317000
_cell_angle_alpha   90.00000000
_cell_angle_beta   90.00012002
_cell_angle_gamma   90.00000000
_symmetry_Int_Tables_number   1
_chemical_formula_structural   Hf6Tc3RuRh2
_chemical_formula_sum   'Hf12 Tc6 Ru2 Rh4'
_cell_volume   415.37448141
_cell_formula_units_Z   2
loop_
 _symmetry_equiv_pos_site_id
 _symmetry_equiv_pos_as_xyz
  1  'x, y, z'
loop_
 _atom_site_type_symbol
 _atom_site_label
 _atom_site_symmetry_multiplicity
 _atom_site_fract_x
 _atom_site_fract_y
 _atom_site_fract_z
 _atom_site_occupancy
  Hf  Hf0  1  0.500001  0.248882  0.998325  1
  Hf  Hf1  1  0.500001  0.751118  0.998325  1
  Hf  Hf2  1  0.999987  0.249749  0.166374  1
  Hf  Hf3  1  0.999987  0.750251  0.166374  1
  Hf  Hf4  1  0.499991  0.250252  0.333647  1
  Hf  Hf5  1  0.499991  0.749748  0.333647  1
  Hf  Hf6  1  0.000000  0.251118  0.501675  1
  Hf  Hf7  1  0.000000  0.748883  0.501675  1
  Hf  Hf8  1  0.500009  0.251531  0.668032  1
  Hf  Hf9  1  0.500009  0.748469  0.668032  1
  Hf  Hf10  1  0.000012  0.248470  0.831948  1
  Hf  Hf11  1  0.000012  0.751530  0.831948  1
  Tc  Tc12  1  0.000001  0.000000  0.001558  1
  Tc  Tc13  1  0.499981  0.500001  0.167121  1
  Tc  Tc14  1  0.999991  0.000000  0.332901  1
  Tc  Tc15  1  0.500002  0.500001  0.498442  1
  Tc  Tc16  1  0.000011  0.000000  0.665568  1
  Tc  Tc17  1  0.500019  0.500001  0.834405  1
  Ru  Ru18  1  0.000011  0.500001  0.666151  1
  Ru  Ru19  1  0.500022  0.000000  0.833830  1
  Rh  Rh20  1  0.999997  0.500001  0.000498  1
  Rh  Rh21  1  0.499983  0.000000  0.166906  1
  Rh  Rh22  1  0.999988  0.500001  0.333118  1
  Rh  Rh23  1  0.500001  0.000000  0.499501  1
