# generated using pymatgen
data_Ce4Sn2PdRu2Rh
_symmetry_space_group_name_H-M   'P 1'
_cell_length_a   7.62050125
_cell_length_b   7.62050155
_cell_length_c   3.77944700
_cell_angle_alpha   90.00000000
_cell_angle_beta   90.00000000
_cell_angle_gamma   91.09048452
_symmetry_Int_Tables_number   1
_chemical_formula_structural   Ce4Sn2PdRu2Rh
_chemical_formula_sum   'Ce4 Sn2 Pd1 Ru2 Rh1'
_cell_volume   219.44045270
_cell_formula_units_Z   1
loop_
 _symmetry_equiv_pos_site_id
 _symmetry_equiv_pos_as_xyz
  1  'x, y, z'
loop_
 _atom_site_type_symbol
 _atom_site_label
 _atom_site_symmetry_multiplicity
 _atom_site_fract_x
 _atom_site_fract_y
 _atom_site_fract_z
 _atom_site_occupancy
  Ce  Ce0  1  0.685013  0.176594  0.500000  1
  Ce  Ce1  1  0.323406  0.814987  0.500000  1
  Ce  Ce2  1  0.160269  0.339731  0.500000  1
  Ce  Ce3  1  0.827354  0.672646  0.500000  1
  Sn  Sn4  1  0.000590  0.000078  0.000000  1
  Sn  Sn5  1  0.499922  0.499410  0.000000  1
  Pd  Pd6  1  0.369807  0.130193  0.000000  1
  Ru  Ru7  1  0.140134  0.639751  0.000000  1
  Ru  Ru8  1  0.860249  0.359866  0.000000  1
  Rh  Rh9  1  0.633257  0.866743  0.000000  1
