# generated using pymatgen
data_HoTm4(Hg2Pt)2
_symmetry_space_group_name_H-M   'P 1'
_cell_length_a   3.55907600
_cell_length_b   7.96158600
_cell_length_c   18.24297100
_cell_angle_alpha   90.00000000
_cell_angle_beta   90.00000000
_cell_angle_gamma   90.00000000
_symmetry_Int_Tables_number   1
_chemical_formula_structural   HoTm4(Hg2Pt)2
_chemical_formula_sum   'Ho2 Tm8 Hg8 Pt4'
_cell_volume   516.93081323
_cell_formula_units_Z   2
loop_
 _symmetry_equiv_pos_site_id
 _symmetry_equiv_pos_as_xyz
  1  'x, y, z'
loop_
 _atom_site_type_symbol
 _atom_site_label
 _atom_site_symmetry_multiplicity
 _atom_site_fract_x
 _atom_site_fract_y
 _atom_site_fract_z
 _atom_site_occupancy
  Ho  Ho0  1  0.000000  0.000000  0.000000  1
  Ho  Ho1  1  0.000000  0.500000  0.500000  1
  Tm  Tm2  1  0.000000  0.113736  0.414745  1
  Tm  Tm3  1  0.000000  0.886264  0.585255  1
  Tm  Tm4  1  0.000000  0.386264  0.914745  1
  Tm  Tm5  1  0.000000  0.613736  0.085255  1
  Tm  Tm6  1  0.000000  0.240255  0.217108  1
  Tm  Tm7  1  0.000000  0.759745  0.782892  1
  Tm  Tm8  1  0.000000  0.259745  0.717108  1
  Tm  Tm9  1  0.000000  0.740255  0.282892  1
  Hg  Hg10  1  0.500000  0.423420  0.353725  1
  Hg  Hg11  1  0.500000  0.576580  0.646275  1
  Hg  Hg12  1  0.500000  0.076580  0.853725  1
  Hg  Hg13  1  0.500000  0.923420  0.146275  1
  Hg  Hg14  1  0.500000  0.288833  0.063239  1
  Hg  Hg15  1  0.500000  0.711167  0.936761  1
  Hg  Hg16  1  0.500000  0.211167  0.563239  1
  Hg  Hg17  1  0.500000  0.788833  0.436761  1
  Pt  Pt18  1  0.500000  0.027013  0.303270  1
  Pt  Pt19  1  0.500000  0.972987  0.696730  1
  Pt  Pt20  1  0.500000  0.472987  0.803270  1
  Pt  Pt21  1  0.500000  0.527013  0.196730  1
