# generated using pymatgen
data_Ho17Mg(ScIr6)2
_symmetry_space_group_name_H-M   'P 1'
_cell_length_a   10.75341300
_cell_length_b   10.75341300
_cell_length_c   6.25679900
_cell_angle_alpha   90.00000000
_cell_angle_beta   90.00000000
_cell_angle_gamma   90.00000000
_symmetry_Int_Tables_number   1
_chemical_formula_structural   Ho17Mg(ScIr6)2
_chemical_formula_sum   'Ho17 Mg1 Sc2 Ir12'
_cell_volume   723.51052810
_cell_formula_units_Z   1
loop_
 _symmetry_equiv_pos_site_id
 _symmetry_equiv_pos_as_xyz
  1  'x, y, z'
loop_
 _atom_site_type_symbol
 _atom_site_label
 _atom_site_symmetry_multiplicity
 _atom_site_fract_x
 _atom_site_fract_y
 _atom_site_fract_z
 _atom_site_occupancy
  Ho  Ho0  1  0.284931  0.084243  0.377686  1
  Ho  Ho1  1  0.291728  0.912028  0.878333  1
  Ho  Ho2  1  0.708272  0.087972  0.878333  1
  Ho  Ho3  1  0.715069  0.915757  0.377686  1
  Ho  Ho4  1  0.587238  0.787934  0.879147  1
  Ho  Ho5  1  0.585680  0.211981  0.377633  1
  Ho  Ho6  1  0.414320  0.788019  0.377633  1
  Ho  Ho7  1  0.412762  0.212066  0.879147  1
  Ho  Ho8  1  0.211981  0.414320  0.622367  1
  Ho  Ho9  1  0.212066  0.587238  0.120853  1
  Ho  Ho10  1  0.787934  0.412762  0.120853  1
  Ho  Ho11  1  0.788019  0.585680  0.622367  1
  Ho  Ho12  1  0.912028  0.708272  0.121667  1
  Ho  Ho13  1  0.915757  0.284931  0.622314  1
  Ho  Ho14  1  0.084243  0.715069  0.622314  1
  Ho  Ho15  1  0.087972  0.291728  0.121667  1
  Ho  Ho16  1  0.000000  0.000000  0.000000  1
  Mg  Mg17  1  0.000000  0.000000  0.500000  1
  Sc  Sc18  1  0.500000  0.500000  0.000000  1
  Sc  Sc19  1  0.500000  0.500000  0.500000  1
  Ir  Ir20  1  0.845342  0.155588  0.247185  1
  Ir  Ir21  1  0.844412  0.845342  0.752815  1
  Ir  Ir22  1  0.155588  0.154658  0.752815  1
  Ir  Ir23  1  0.154658  0.844412  0.247185  1
  Ir  Ir24  1  0.647107  0.353064  0.748785  1
  Ir  Ir25  1  0.646936  0.647107  0.251215  1
  Ir  Ir26  1  0.353064  0.352893  0.251215  1
  Ir  Ir27  1  0.352893  0.646936  0.748785  1
  Ir  Ir28  1  0.500000  0.000000  0.124670  1
  Ir  Ir29  1  0.500000  0.000000  0.620966  1
  Ir  Ir30  1  0.000000  0.500000  0.875330  1
  Ir  Ir31  1  0.000000  0.500000  0.379034  1
