# generated using pymatgen
data_Th2Sc(SnRu)3
_symmetry_space_group_name_H-M   'P 1'
_cell_length_a   7.24273600
_cell_length_b   7.50710567
_cell_length_c   4.08840500
_cell_angle_alpha   90.00000000
_cell_angle_beta   90.00000000
_cell_angle_gamma   118.84174666
_symmetry_Int_Tables_number   1
_chemical_formula_structural   Th2Sc(SnRu)3
_chemical_formula_sum   'Th2 Sc1 Sn3 Ru3'
_cell_volume   194.72024435
_cell_formula_units_Z   1
loop_
 _symmetry_equiv_pos_site_id
 _symmetry_equiv_pos_as_xyz
  1  'x, y, z'
loop_
 _atom_site_type_symbol
 _atom_site_label
 _atom_site_symmetry_multiplicity
 _atom_site_fract_x
 _atom_site_fract_y
 _atom_site_fract_z
 _atom_site_occupancy
  Th  Th0  1  0.997014  0.412913  0.500000  1
  Th  Th1  1  0.584101  0.587087  0.500000  1
  Sc  Sc2  1  0.403964  0.000000  0.500000  1
  Sn  Sn3  1  0.020119  0.765545  0.000000  1
  Sn  Sn4  1  0.254574  0.234455  0.000000  1
  Sn  Sn5  1  0.728101  0.000000  0.000000  1
  Ru  Ru6  1  0.330289  0.644898  0.000000  1
  Ru  Ru7  1  0.685392  0.355102  0.000000  1
  Ru  Ru8  1  0.996446  0.000000  0.500000  1
