# generated using pymatgen
data_NdY7(Er3Pt4)4
_symmetry_space_group_name_H-M   'P 1'
_cell_length_a   7.46700331
_cell_length_b   7.53787930
_cell_length_c   14.70226503
_cell_angle_alpha   89.99880814
_cell_angle_beta   89.99304047
_cell_angle_gamma   90.03235769
_symmetry_Int_Tables_number   1
_chemical_formula_structural   NdY7(Er3Pt4)4
_chemical_formula_sum   'Nd1 Y7 Er12 Pt16'
_cell_volume   827.52228429
_cell_formula_units_Z   1
loop_
 _symmetry_equiv_pos_site_id
 _symmetry_equiv_pos_as_xyz
  1  'x, y, z'
loop_
 _atom_site_type_symbol
 _atom_site_label
 _atom_site_symmetry_multiplicity
 _atom_site_fract_x
 _atom_site_fract_y
 _atom_site_fract_z
 _atom_site_occupancy
  Nd  Nd0  1  0.000248  0.821968  0.407487  1
  Y  Y1  1  0.498316  0.679379  0.092879  1
  Y  Y2  1  0.501503  0.320563  0.593014  1
  Y  Y3  1  0.001709  0.179461  0.906901  1
  Y  Y4  1  0.002000  0.180949  0.593825  1
  Y  Y5  1  0.501500  0.320403  0.907015  1
  Y  Y6  1  0.498535  0.678458  0.406723  1
  Y  Y7  1  0.997985  0.820553  0.092965  1
  Er  Er8  1  0.680152  0.989355  0.249222  1
  Er  Er9  1  0.181562  0.510365  0.249403  1
  Er  Er10  1  0.818996  0.489075  0.750091  1
  Er  Er11  1  0.318761  0.011100  0.750178  1
  Er  Er12  1  0.655473  0.832079  0.622630  1
  Er  Er13  1  0.156113  0.667584  0.877692  1
  Er  Er14  1  0.843219  0.332542  0.377522  1
  Er  Er15  1  0.343838  0.167713  0.122017  1
  Er  Er16  1  0.345410  0.168794  0.377400  1
  Er  Er17  1  0.843497  0.332727  0.122116  1
  Er  Er18  1  0.157534  0.666557  0.623088  1
  Er  Er19  1  0.656271  0.832577  0.877651  1
  Pt  Pt20  1  0.814635  0.640193  0.248591  1
  Pt  Pt21  1  0.317227  0.858541  0.249241  1
  Pt  Pt22  1  0.683776  0.141489  0.750040  1
  Pt  Pt23  1  0.183883  0.358528  0.750070  1
  Pt  Pt24  1  0.546133  0.384259  0.249957  1
  Pt  Pt25  1  0.046906  0.116388  0.249251  1
  Pt  Pt26  1  0.953347  0.884869  0.749959  1
  Pt  Pt27  1  0.453442  0.615159  0.750058  1
  Pt  Pt28  1  0.817134  0.531972  0.542686  1
  Pt  Pt29  1  0.317658  0.966501  0.957874  1
  Pt  Pt30  1  0.678868  0.035799  0.458478  1
  Pt  Pt31  1  0.182522  0.466417  0.042151  1
  Pt  Pt32  1  0.183214  0.463565  0.458738  1
  Pt  Pt33  1  0.682225  0.033248  0.042169  1
  Pt  Pt34  1  0.318521  0.967463  0.543050  1
  Pt  Pt35  1  0.817888  0.533410  0.957869  1
