# generated using pymatgen
data_Eu2BiSb3
_symmetry_space_group_name_H-M   'P 1'
_cell_length_a   4.72374348
_cell_length_b   4.48655100
_cell_length_c   9.05077235
_cell_angle_alpha   90.00000000
_cell_angle_beta   104.28310346
_cell_angle_gamma   90.00000000
_symmetry_Int_Tables_number   1
_chemical_formula_structural   Eu2BiSb3
_chemical_formula_sum   'Eu2 Bi1 Sb3'
_cell_volume   185.88656794
_cell_formula_units_Z   1
loop_
 _symmetry_equiv_pos_site_id
 _symmetry_equiv_pos_as_xyz
  1  'x, y, z'
loop_
 _atom_site_type_symbol
 _atom_site_label
 _atom_site_symmetry_multiplicity
 _atom_site_fract_x
 _atom_site_fract_y
 _atom_site_fract_z
 _atom_site_occupancy
  Eu  Eu0  1  0.407677  0.250000  0.299070  1
  Eu  Eu1  1  0.592127  0.749999  0.702422  1
  Bi  Bi2  1  0.778429  0.250000  0.011231  1
  Sb  Sb3  1  0.946300  0.749999  0.381919  1
  Sb  Sb4  1  0.053458  0.250000  0.618367  1
  Sb  Sb5  1  0.222008  0.749999  0.986991  1
