# generated using pymatgen
data_Pr2Er3(BiPb)2
_symmetry_space_group_name_H-M   'P 1'
_cell_length_a   8.38247900
_cell_length_b   8.37128000
_cell_length_c   15.73344800
_cell_angle_alpha   90.00000000
_cell_angle_beta   90.00000000
_cell_angle_gamma   90.00000000
_symmetry_Int_Tables_number   1
_chemical_formula_structural   Pr2Er3(BiPb)2
_chemical_formula_sum   'Pr8 Er12 Bi8 Pb8'
_cell_volume   1104.04875290
_cell_formula_units_Z   4
loop_
 _symmetry_equiv_pos_site_id
 _symmetry_equiv_pos_as_xyz
  1  'x, y, z'
loop_
 _atom_site_type_symbol
 _atom_site_label
 _atom_site_symmetry_multiplicity
 _atom_site_fract_x
 _atom_site_fract_y
 _atom_site_fract_z
 _atom_site_occupancy
  Pr  Pr0  1  0.471459  0.677238  0.599560  1
  Pr  Pr1  1  0.971459  0.822762  0.900440  1
  Pr  Pr2  1  0.528541  0.322762  0.099560  1
  Pr  Pr3  1  0.028541  0.177238  0.400440  1
  Pr  Pr4  1  0.528541  0.322762  0.400440  1
  Pr  Pr5  1  0.028541  0.177238  0.099560  1
  Pr  Pr6  1  0.471459  0.677238  0.900440  1
  Pr  Pr7  1  0.971459  0.822762  0.599560  1
  Er  Er8  1  0.634652  0.156773  0.625500  1
  Er  Er9  1  0.134652  0.343227  0.874500  1
  Er  Er10  1  0.365348  0.843227  0.125500  1
  Er  Er11  1  0.865348  0.656773  0.374500  1
  Er  Er12  1  0.365348  0.843227  0.374500  1
  Er  Er13  1  0.865348  0.656773  0.125500  1
  Er  Er14  1  0.634652  0.156773  0.874500  1
  Er  Er15  1  0.134652  0.343227  0.625500  1
  Er  Er16  1  0.802798  0.500892  0.750000  1
  Er  Er17  1  0.302798  0.999108  0.750000  1
  Er  Er18  1  0.197202  0.499108  0.250000  1
  Er  Er19  1  0.697202  0.000892  0.250000  1
  Bi  Bi20  1  0.708292  0.959525  0.455799  1
  Bi  Bi21  1  0.208292  0.540475  0.044201  1
  Bi  Bi22  1  0.291708  0.040475  0.955799  1
  Bi  Bi23  1  0.791708  0.459525  0.544201  1
  Bi  Bi24  1  0.291708  0.040475  0.544201  1
  Bi  Bi25  1  0.791708  0.459525  0.955799  1
  Bi  Bi26  1  0.708292  0.959525  0.044201  1
  Bi  Bi27  1  0.208292  0.540475  0.455799  1
  Pb  Pb28  1  0.440373  0.369950  0.750000  1
  Pb  Pb29  1  0.940373  0.130050  0.750000  1
  Pb  Pb30  1  0.559627  0.630050  0.250000  1
  Pb  Pb31  1  0.059627  0.869950  0.250000  1
  Pb  Pb32  1  0.660732  0.850187  0.750000  1
  Pb  Pb33  1  0.160732  0.649813  0.750000  1
  Pb  Pb34  1  0.339268  0.149813  0.250000  1
  Pb  Pb35  1  0.839268  0.350187  0.250000  1
