# generated using pymatgen
data_CeEr2Zn3Ir2Pd
_symmetry_space_group_name_H-M   'P 1'
_cell_length_a   7.37049100
_cell_length_b   7.17691120
_cell_length_c   3.84309700
_cell_angle_alpha   90.00000000
_cell_angle_beta   90.00000000
_cell_angle_gamma   120.89632535
_symmetry_Int_Tables_number   1
_chemical_formula_structural   CeEr2Zn3Ir2Pd
_chemical_formula_sum   'Ce1 Er2 Zn3 Ir2 Pd1'
_cell_volume   174.44243813
_cell_formula_units_Z   1
loop_
 _symmetry_equiv_pos_site_id
 _symmetry_equiv_pos_as_xyz
  1  'x, y, z'
loop_
 _atom_site_type_symbol
 _atom_site_label
 _atom_site_symmetry_multiplicity
 _atom_site_fract_x
 _atom_site_fract_y
 _atom_site_fract_z
 _atom_site_occupancy
  Ce  Ce0  1  0.423971  0.000000  0.000000  1
  Er  Er1  1  0.997377  0.409293  0.000000  1
  Er  Er2  1  0.588084  0.590707  0.000000  1
  Zn  Zn3  1  0.994759  0.742971  0.500000  1
  Zn  Zn4  1  0.251788  0.257029  0.500000  1
  Zn  Zn5  1  0.757685  0.000000  0.500000  1
  Ir  Ir6  1  0.654447  0.322674  0.500000  1
  Ir  Ir7  1  0.331772  0.677326  0.500000  1
  Pd  Pd8  1  0.000118  0.000000  0.000000  1
