# generated using pymatgen
data_Th4Ge10(OsRh)3
_symmetry_space_group_name_H-M   'P 1'
_cell_length_a   8.47101273
_cell_length_b   8.48381749
_cell_length_c   8.48381614
_cell_angle_alpha   137.85943161
_cell_angle_beta   106.21608613
_cell_angle_gamma   88.83274024
_symmetry_Int_Tables_number   1
_chemical_formula_structural   Th4Ge10(OsRh)3
_chemical_formula_sum   'Th4 Ge10 Os3 Rh3'
_cell_volume   375.95031959
_cell_formula_units_Z   1
loop_
 _symmetry_equiv_pos_site_id
 _symmetry_equiv_pos_as_xyz
  1  'x, y, z'
loop_
 _atom_site_type_symbol
 _atom_site_label
 _atom_site_symmetry_multiplicity
 _atom_site_fract_x
 _atom_site_fract_y
 _atom_site_fract_z
 _atom_site_occupancy
  Th  Th0  1  0.868439  0.133113  0.735326  1
  Th  Th1  1  0.135550  0.867984  0.267566  1
  Th  Th2  1  0.398709  0.631909  0.766798  1
  Th  Th3  1  0.601070  0.367793  0.233278  1
  Ge  Ge4  1  0.499020  0.249534  0.749962  1
  Ge  Ge5  1  0.499020  0.749058  0.249486  1
  Ge  Ge6  1  0.222995  0.474151  0.251473  1
  Ge  Ge7  1  0.776566  0.026422  0.248205  1
  Ge  Ge8  1  0.776566  0.528361  0.750144  1
  Ge  Ge9  1  0.222995  0.971522  0.748844  1
  Ge  Ge10  1  0.059641  0.401760  0.657881  1
  Ge  Ge11  1  0.941017  0.599307  0.341709  1
  Ge  Ge12  1  0.742728  0.900285  0.842444  1
  Ge  Ge13  1  0.257406  0.098412  0.158994  1
  Os  Os14  1  0.000366  0.251193  0.250023  1
  Os  Os15  1  0.000366  0.750343  0.749173  1
  Os  Os16  1  0.245075  0.356282  0.888793  1
  Rh  Rh17  1  0.750239  0.642170  0.108069  1
  Rh  Rh18  1  0.467676  0.857625  0.610050  1
  Rh  Rh19  1  0.534555  0.142774  0.391782  1
