# generated using pymatgen
data_Dy10NiHg3
_symmetry_space_group_name_H-M   'P 1'
_cell_length_a   9.59871300
_cell_length_b   9.59871335
_cell_length_c   9.63592300
_cell_angle_alpha   90.00000000
_cell_angle_beta   90.00000000
_cell_angle_gamma   119.99999533
_symmetry_Int_Tables_number   1
_chemical_formula_structural   Dy10NiHg3
_chemical_formula_sum   'Dy20 Ni2 Hg6'
_cell_volume   768.86484175
_cell_formula_units_Z   2
loop_
 _symmetry_equiv_pos_site_id
 _symmetry_equiv_pos_as_xyz
  1  'x, y, z'
loop_
 _atom_site_type_symbol
 _atom_site_label
 _atom_site_symmetry_multiplicity
 _atom_site_fract_x
 _atom_site_fract_y
 _atom_site_fract_z
 _atom_site_occupancy
  Dy  Dy0  1  0.000000  0.000000  0.500000  1
  Dy  Dy1  1  0.000000  0.000000  0.000000  1
  Dy  Dy2  1  0.543368  0.456632  0.250000  1
  Dy  Dy3  1  0.543368  0.086737  0.250000  1
  Dy  Dy4  1  0.913263  0.456632  0.250000  1
  Dy  Dy5  1  0.456632  0.543368  0.750000  1
  Dy  Dy6  1  0.456632  0.913263  0.750000  1
  Dy  Dy7  1  0.086737  0.543368  0.750000  1
  Dy  Dy8  1  0.209991  0.790009  0.436486  1
  Dy  Dy9  1  0.209991  0.419983  0.436486  1
  Dy  Dy10  1  0.580017  0.790009  0.436486  1
  Dy  Dy11  1  0.790009  0.209991  0.563514  1
  Dy  Dy12  1  0.790009  0.580017  0.563514  1
  Dy  Dy13  1  0.419983  0.209991  0.563514  1
  Dy  Dy14  1  0.790009  0.209991  0.936486  1
  Dy  Dy15  1  0.790009  0.580017  0.936486  1
  Dy  Dy16  1  0.419983  0.209991  0.936486  1
  Dy  Dy17  1  0.209991  0.790009  0.063514  1
  Dy  Dy18  1  0.209991  0.419983  0.063514  1
  Dy  Dy19  1  0.580017  0.790009  0.063514  1
  Ni  Ni20  1  0.333333  0.666667  0.250000  1
  Ni  Ni21  1  0.666667  0.333333  0.750000  1
  Hg  Hg22  1  0.880051  0.119949  0.250000  1
  Hg  Hg23  1  0.880051  0.760102  0.250000  1
  Hg  Hg24  1  0.239898  0.119949  0.250000  1
  Hg  Hg25  1  0.119949  0.880051  0.750000  1
  Hg  Hg26  1  0.119949  0.239898  0.750000  1
  Hg  Hg27  1  0.760102  0.880051  0.750000  1
