# generated using pymatgen
data_Dy3YReSi4Rh
_symmetry_space_group_name_H-M   'P 1'
_cell_length_a   5.73731510
_cell_length_b   5.73731499
_cell_length_c   10.09724223
_cell_angle_alpha   63.26767163
_cell_angle_beta   63.26766181
_cell_angle_gamma   43.36117209
_symmetry_Int_Tables_number   1
_chemical_formula_structural   Dy3YReSi4Rh
_chemical_formula_sum   'Dy3 Y1 Re1 Si4 Rh1'
_cell_volume   199.68442234
_cell_formula_units_Z   1
loop_
 _symmetry_equiv_pos_site_id
 _symmetry_equiv_pos_as_xyz
  1  'x, y, z'
loop_
 _atom_site_type_symbol
 _atom_site_label
 _atom_site_symmetry_multiplicity
 _atom_site_fract_x
 _atom_site_fract_y
 _atom_site_fract_z
 _atom_site_occupancy
  Dy  Dy0  1  0.008221  0.008221  0.320575  1
  Dy  Dy1  1  0.184042  0.184042  0.891051  1
  Dy  Dy2  1  0.994871  0.994871  0.678199  1
  Y  Y3  1  0.813075  0.813075  0.109699  1
  Re  Re4  1  0.727272  0.727272  0.626235  1
  Si  Si5  1  0.355472  0.355472  0.562188  1
  Si  Si6  1  0.495807  0.495807  0.877495  1
  Si  Si7  1  0.642165  0.642165  0.438040  1
  Si  Si8  1  0.507255  0.507255  0.122640  1
  Rh  Rh9  1  0.271820  0.271820  0.373878  1
