# generated using pymatgen
data_Cd2Fe3SbO8
_symmetry_space_group_name_H-M   'P 1'
_cell_length_a   6.31571141
_cell_length_b   11.21585269
_cell_length_c   6.32805802
_cell_angle_alpha   73.62051068
_cell_angle_beta   120.06468157
_cell_angle_gamma   89.31993284
_symmetry_Int_Tables_number   1
_chemical_formula_structural   Cd2Fe3SbO8
_chemical_formula_sum   'Cd4 Fe6 Sb2 O16'
_cell_volume   365.81672008
_cell_formula_units_Z   2
loop_
 _symmetry_equiv_pos_site_id
 _symmetry_equiv_pos_as_xyz
  1  'x, y, z'
loop_
 _atom_site_type_symbol
 _atom_site_label
 _atom_site_symmetry_multiplicity
 _atom_site_fract_x
 _atom_site_fract_y
 _atom_site_fract_z
 _atom_site_occupancy
  Cd  Cd0  1  0.933719  0.204944  0.870298  1
  Cd  Cd1  1  0.433773  0.704961  0.858476  1
  Cd  Cd2  1  0.566259  0.295079  0.141531  1
  Cd  Cd3  1  0.066310  0.795080  0.129677  1
  Fe  Fe4  1  0.499980  0.000089  0.999811  1
  Fe  Fe5  1  0.499777  0.999995  0.499994  1
  Fe  Fe6  1  0.500115  0.499964  0.500130  1
  Fe  Fe7  1  0.999918  0.500020  0.999827  1
  Fe  Fe8  1  0.999983  0.500044  0.500015  1
  Fe  Fe9  1  0.000063  0.000046  0.500128  1
  Sb  Sb10  1  0.749999  0.750082  0.492178  1
  Sb  Sb11  1  0.249927  0.249958  0.507734  1
  O  O12  1  0.872268  0.410554  0.723845  1
  O  O13  1  0.372124  0.910544  0.737755  1
  O  O14  1  0.627791  0.089438  0.262236  1
  O  O15  1  0.127820  0.589432  0.276182  1
  O  O16  1  0.083634  0.627085  0.709964  1
  O  O17  1  0.583595  0.127034  0.746593  1
  O  O18  1  0.642357  0.633916  0.710855  1
  O  O19  1  0.156837  0.126886  0.742098  1
  O  O20  1  0.656852  0.626891  0.287862  1
  O  O21  1  0.142243  0.133881  0.297561  1
  O  O22  1  0.857614  0.866080  0.702425  1
  O  O23  1  0.343219  0.373081  0.712162  1
  O  O24  1  0.843198  0.873085  0.257951  1
  O  O25  1  0.357687  0.366029  0.289216  1
  O  O26  1  0.416479  0.872911  0.253431  1
  O  O27  1  0.916458  0.372896  0.290063  1
