# generated using pymatgen
data_Na2ThS3
_symmetry_space_group_name_H-M   'P 1'
_cell_length_a   7.18736934
_cell_length_b   7.18736935
_cell_length_c   7.10048169
_cell_angle_alpha   80.16405333
_cell_angle_beta   80.16405658
_cell_angle_gamma   119.92208986
_symmetry_Int_Tables_number   1
_chemical_formula_structural   Na2ThS3
_chemical_formula_sum   'Na4 Th2 S6'
_cell_volume   298.82255363
_cell_formula_units_Z   2
loop_
 _symmetry_equiv_pos_site_id
 _symmetry_equiv_pos_as_xyz
  1  'x, y, z'
loop_
 _atom_site_type_symbol
 _atom_site_label
 _atom_site_symmetry_multiplicity
 _atom_site_fract_x
 _atom_site_fract_y
 _atom_site_fract_z
 _atom_site_occupancy
  Na  Na0  1  0.000000  0.000000  0.000000  1
  Na  Na1  1  0.500000  0.500000  0.500000  1
  Na  Na2  1  0.839258  0.160742  0.500000  1
  Na  Na3  1  0.160742  0.839258  0.500000  1
  Th  Th4  1  0.667321  0.332679  0.000000  1
  Th  Th5  1  0.332679  0.667321  0.000000  1
  S  S6  1  0.275445  0.275445  0.234452  1
  S  S7  1  0.432008  0.078155  0.768603  1
  S  S8  1  0.078155  0.432008  0.768603  1
  S  S9  1  0.724555  0.724555  0.765548  1
  S  S10  1  0.567992  0.921845  0.231397  1
  S  S11  1  0.921845  0.567992  0.231397  1
