# generated using pymatgen
data_Mg5Zn7(GaPt)6
_symmetry_space_group_name_H-M   'P 1'
_cell_length_a   7.54232794
_cell_length_b   7.54232661
_cell_length_c   8.23143637
_cell_angle_alpha   89.95501082
_cell_angle_beta   89.95502112
_cell_angle_gamma   120.25774719
_symmetry_Int_Tables_number   1
_chemical_formula_structural   Mg5Zn7(GaPt)6
_chemical_formula_sum   'Mg5 Zn7 Ga6 Pt6'
_cell_volume   404.46656902
_cell_formula_units_Z   1
loop_
 _symmetry_equiv_pos_site_id
 _symmetry_equiv_pos_as_xyz
  1  'x, y, z'
loop_
 _atom_site_type_symbol
 _atom_site_label
 _atom_site_symmetry_multiplicity
 _atom_site_fract_x
 _atom_site_fract_y
 _atom_site_fract_z
 _atom_site_occupancy
  Mg  Mg0  1  0.003040  0.351366  0.931274  1
  Mg  Mg1  1  0.351366  0.003040  0.931274  1
  Mg  Mg2  1  0.648964  0.998846  0.433535  1
  Mg  Mg3  1  0.998846  0.648964  0.433535  1
  Mg  Mg4  1  0.649810  0.649810  0.932824  1
  Zn  Zn5  1  0.315770  0.315770  0.088850  1
  Zn  Zn6  1  0.009192  0.312665  0.581842  1
  Zn  Zn7  1  0.312665  0.009192  0.581842  1
  Zn  Zn8  1  0.685708  0.999965  0.086165  1
  Zn  Zn9  1  0.999965  0.685708  0.086165  1
  Zn  Zn10  1  0.674326  0.674326  0.585504  1
  Zn  Zn11  1  0.350281  0.350281  0.433509  1
  Ga  Ga12  1  0.998678  0.998678  0.272354  1
  Ga  Ga13  1  0.999395  0.999395  0.772457  1
  Ga  Ga14  1  0.332620  0.666579  0.225050  1
  Ga  Ga15  1  0.670568  0.333193  0.724395  1
  Ga  Ga16  1  0.333193  0.670568  0.724395  1
  Ga  Ga17  1  0.666579  0.332620  0.225050  1
  Pt  Pt18  1  0.333011  0.333011  0.761099  1
  Pt  Pt19  1  0.999753  0.329867  0.263381  1
  Pt  Pt20  1  0.329867  0.999753  0.263381  1
  Pt  Pt21  1  0.671078  0.000678  0.764000  1
  Pt  Pt22  1  0.000678  0.671078  0.764000  1
  Pt  Pt23  1  0.664649  0.664649  0.265717  1
