# generated using pymatgen
data_Tb2Nd8(RuPt)3
_symmetry_space_group_name_H-M   'P 1'
_cell_length_a   11.35813250
_cell_length_b   11.34636400
_cell_length_c   6.48783600
_cell_angle_alpha   90.00000000
_cell_angle_beta   90.10885472
_cell_angle_gamma   90.00000000
_symmetry_Int_Tables_number   1
_chemical_formula_structural   Tb2Nd8(RuPt)3
_chemical_formula_sum   'Tb4 Nd16 Ru6 Pt6'
_cell_volume   836.10866069
_cell_formula_units_Z   2
loop_
 _symmetry_equiv_pos_site_id
 _symmetry_equiv_pos_as_xyz
  1  'x, y, z'
loop_
 _atom_site_type_symbol
 _atom_site_label
 _atom_site_symmetry_multiplicity
 _atom_site_fract_x
 _atom_site_fract_y
 _atom_site_fract_z
 _atom_site_occupancy
  Tb  Tb0  1  0.999679  0.999437  0.499756  1
  Tb  Tb1  1  0.999679  0.000563  0.999756  1
  Tb  Tb2  1  0.495953  0.498692  0.000017  1
  Tb  Tb3  1  0.495953  0.501308  0.500017  1
  Nd  Nd4  1  0.294402  0.089589  0.374699  1
  Nd  Nd5  1  0.294402  0.910411  0.874699  1
  Nd  Nd6  1  0.703908  0.085110  0.872458  1
  Nd  Nd7  1  0.703908  0.914890  0.372458  1
  Nd  Nd8  1  0.581269  0.790636  0.875008  1
  Nd  Nd9  1  0.581269  0.209364  0.375008  1
  Nd  Nd10  1  0.411316  0.792315  0.380700  1
  Nd  Nd11  1  0.411316  0.207685  0.880700  1
  Nd  Nd12  1  0.211284  0.414780  0.619894  1
  Nd  Nd13  1  0.211284  0.585220  0.119894  1
  Nd  Nd14  1  0.795065  0.413343  0.125182  1
  Nd  Nd15  1  0.795065  0.586657  0.625182  1
  Nd  Nd16  1  0.915904  0.704218  0.127264  1
  Nd  Nd17  1  0.915904  0.295782  0.627264  1
  Nd  Nd18  1  0.091335  0.704704  0.625943  1
  Nd  Nd19  1  0.091335  0.295296  0.125943  1
  Ru  Ru20  1  0.350835  0.349643  0.250284  1
  Ru  Ru21  1  0.350835  0.650357  0.750284  1
  Ru  Ru22  1  0.500576  0.999915  0.120095  1
  Ru  Ru23  1  0.500576  0.000085  0.620095  1
  Ru  Ru24  1  0.998398  0.500172  0.878998  1
  Ru  Ru25  1  0.998398  0.499828  0.378998  1
  Pt  Pt26  1  0.851571  0.148594  0.249858  1
  Pt  Pt27  1  0.851571  0.851406  0.749858  1
  Pt  Pt28  1  0.147655  0.147973  0.749720  1
  Pt  Pt29  1  0.147655  0.852027  0.249720  1
  Pt  Pt30  1  0.650848  0.350414  0.750123  1
  Pt  Pt31  1  0.650848  0.649586  0.250123  1
