# generated using pymatgen
data_Na4CrFe3P8(O3F)8
_symmetry_space_group_name_H-M   'P 1'
_cell_length_a   14.40797100
_cell_length_b   6.55292599
_cell_length_c   6.56675400
_cell_angle_alpha   83.94683646
_cell_angle_beta   90.00000000
_cell_angle_gamma   90.00000000
_symmetry_Int_Tables_number   1
_chemical_formula_structural   Na4CrFe3P8(O3F)8
_chemical_formula_sum   'Na4 Cr1 Fe3 P8 O24 F8'
_cell_volume   616.53912470
_cell_formula_units_Z   1
loop_
 _symmetry_equiv_pos_site_id
 _symmetry_equiv_pos_as_xyz
  1  'x, y, z'
loop_
 _atom_site_type_symbol
 _atom_site_label
 _atom_site_symmetry_multiplicity
 _atom_site_fract_x
 _atom_site_fract_y
 _atom_site_fract_z
 _atom_site_occupancy
  Na  Na0  1  0.422940  0.689422  0.495174  1
  Na  Na1  1  0.922838  0.310868  0.004546  1
  Na  Na2  1  0.577065  0.310487  0.504277  1
  Na  Na3  1  0.076573  0.689548  0.995609  1
  Cr  Cr4  1  0.608366  0.727803  0.135990  1
  Fe  Fe5  1  0.108747  0.270746  0.364888  1
  Fe  Fe6  1  0.391244  0.270708  0.864764  1
  Fe  Fe7  1  0.891104  0.729297  0.635127  1
  P  P8  1  0.655303  0.771434  0.631384  1
  P  P9  1  0.155341  0.228889  0.869200  1
  P  P10  1  0.344697  0.228980  0.369057  1
  P  P11  1  0.843999  0.771164  0.130567  1
  P  P12  1  0.395339  0.755158  0.979542  1
  P  P13  1  0.894519  0.244969  0.519917  1
  P  P14  1  0.605509  0.244545  0.019772  1
  P  P15  1  0.105414  0.755068  0.480030  1
  O  O16  1  0.469057  0.739560  0.149354  1
  O  O17  1  0.968265  0.260577  0.350567  1
  O  O18  1  0.531738  0.260618  0.850500  1
  O  O19  1  0.031694  0.739395  0.649365  1
  O  O20  1  0.385399  0.965207  0.860058  1
  O  O21  1  0.884958  0.034781  0.639511  1
  O  O22  1  0.614984  0.035170  0.141020  1
  O  O23  1  0.115006  0.965242  0.360380  1
  O  O24  1  0.601118  0.744715  0.830628  1
  O  O25  1  0.101924  0.254531  0.669183  1
  O  O26  1  0.398132  0.254605  0.169027  1
  O  O27  1  0.897525  0.745328  0.330670  1
  O  O28  1  0.399370  0.586209  0.836705  1
  O  O29  1  0.899050  0.413791  0.662997  1
  O  O30  1  0.601179  0.414030  0.163029  1
  O  O31  1  0.100965  0.586225  0.336918  1
  O  O32  1  0.754678  0.700314  0.642592  1
  O  O33  1  0.254906  0.299319  0.857793  1
  O  O34  1  0.245169  0.299374  0.357749  1
  O  O35  1  0.744879  0.699378  0.141376  1
  O  O36  1  0.597943  0.690144  0.458545  1
  O  O37  1  0.097975  0.311381  0.040413  1
  O  O38  1  0.402099  0.311465  0.540260  1
  O  O39  1  0.901760  0.688941  0.959524  1
  F  F40  1  0.340350  0.986077  0.430218  1
  F  F41  1  0.839882  0.014210  0.069663  1
  F  F42  1  0.659876  0.014288  0.570789  1
  F  F43  1  0.159794  0.985966  0.930348  1
  F  F44  1  0.302614  0.715153  0.109090  1
  F  F45  1  0.801196  0.284987  0.392327  1
  F  F46  1  0.698749  0.284889  0.891957  1
  F  F47  1  0.198769  0.715045  0.607599  1
