# generated using pymatgen
data_Ti14VAs12W
_symmetry_space_group_name_H-M   'P 1'
_cell_length_a   7.30378271
_cell_length_b   7.30378266
_cell_length_c   18.75482307
_cell_angle_alpha   89.99060335
_cell_angle_beta   90.00939630
_cell_angle_gamma   152.09582623
_symmetry_Int_Tables_number   1
_chemical_formula_structural   Ti14VAs12W
_chemical_formula_sum   'Ti14 V1 As12 W1'
_cell_volume   468.21908697
_cell_formula_units_Z   1
loop_
 _symmetry_equiv_pos_site_id
 _symmetry_equiv_pos_as_xyz
  1  'x, y, z'
loop_
 _atom_site_type_symbol
 _atom_site_label
 _atom_site_symmetry_multiplicity
 _atom_site_fract_x
 _atom_site_fract_y
 _atom_site_fract_z
 _atom_site_occupancy
  Ti  Ti0  1  0.061794  0.938206  0.748760  1
  Ti  Ti1  1  0.938206  0.061794  0.251240  1
  Ti  Ti2  1  0.730672  0.269328  0.161989  1
  Ti  Ti3  1  0.269328  0.730672  0.838011  1
  Ti  Ti4  1  0.268223  0.731777  0.661245  1
  Ti  Ti5  1  0.731777  0.268223  0.338755  1
  Ti  Ti6  1  0.534155  0.465845  0.116439  1
  Ti  Ti7  1  0.465845  0.534155  0.883561  1
  Ti  Ti8  1  0.465638  0.534362  0.615567  1
  Ti  Ti9  1  0.534362  0.465638  0.384433  1
  Ti  Ti10  1  0.662079  0.337921  0.972939  1
  Ti  Ti11  1  0.337921  0.662079  0.027061  1
  Ti  Ti12  1  0.336852  0.663148  0.473534  1
  Ti  Ti13  1  0.663148  0.336852  0.526466  1
  V  V14  1  0.000000  0.000000  0.500000  1
  As  As15  1  0.420352  0.579648  0.749296  1
  As  As16  1  0.579648  0.420352  0.250704  1
  As  As17  1  0.700535  0.299465  0.749507  1
  As  As18  1  0.299465  0.700535  0.250493  1
  As  As19  1  0.900510  0.099490  0.118694  1
  As  As20  1  0.099490  0.900510  0.881306  1
  As  As21  1  0.097869  0.902131  0.615514  1
  As  As22  1  0.902131  0.097869  0.384486  1
  As  As23  1  0.838783  0.161217  0.924655  1
  As  As24  1  0.161217  0.838783  0.075345  1
  As  As25  1  0.159534  0.840466  0.425692  1
  As  As26  1  0.840466  0.159534  0.574308  1
  W  W27  1  0.000000  0.000000  0.000000  1
