# generated using pymatgen
data_Ta6Tc5B6Pt
_symmetry_space_group_name_H-M   'P 1'
_cell_length_a   3.19395100
_cell_length_b   9.05649536
_cell_length_c   15.66684436
_cell_angle_alpha   89.57210889
_cell_angle_beta   90.00000000
_cell_angle_gamma   90.00000000
_symmetry_Int_Tables_number   1
_chemical_formula_structural   Ta6Tc5B6Pt
_chemical_formula_sum   'Ta12 Tc10 B12 Pt2'
_cell_volume   453.16654039
_cell_formula_units_Z   2
loop_
 _symmetry_equiv_pos_site_id
 _symmetry_equiv_pos_as_xyz
  1  'x, y, z'
loop_
 _atom_site_type_symbol
 _atom_site_label
 _atom_site_symmetry_multiplicity
 _atom_site_fract_x
 _atom_site_fract_y
 _atom_site_fract_z
 _atom_site_occupancy
  Ta  Ta0  1  0.000000  0.803568  0.494420  1
  Ta  Ta1  1  0.000000  0.196432  0.505580  1
  Ta  Ta2  1  0.000000  0.303510  0.007274  1
  Ta  Ta3  1  0.000000  0.696490  0.992726  1
  Ta  Ta4  1  0.000000  0.515144  0.595402  1
  Ta  Ta5  1  0.000000  0.484856  0.404598  1
  Ta  Ta6  1  0.000000  0.015753  0.906469  1
  Ta  Ta7  1  0.000000  0.984247  0.093531  1
  Ta  Ta8  1  0.000000  0.673309  0.205436  1
  Ta  Ta9  1  0.000000  0.326691  0.794564  1
  Ta  Ta10  1  0.000000  0.187854  0.296547  1
  Ta  Ta11  1  0.000000  0.812146  0.703453  1
  Tc  Tc12  1  0.500000  0.719536  0.357359  1
  Tc  Tc13  1  0.500000  0.280464  0.642641  1
  Tc  Tc14  1  0.500000  0.214503  0.143068  1
  Tc  Tc15  1  0.500000  0.785497  0.856932  1
  Tc  Tc16  1  0.500000  0.518718  0.094817  1
  Tc  Tc17  1  0.500000  0.481282  0.905183  1
  Tc  Tc18  1  0.500000  0.019272  0.403885  1
  Tc  Tc19  1  0.500000  0.980728  0.596115  1
  Tc  Tc20  1  0.500000  0.568423  0.732179  1
  Tc  Tc21  1  0.500000  0.431577  0.267821  1
  B  B22  1  0.500000  0.605455  0.494376  1
  B  B23  1  0.500000  0.394545  0.505624  1
  B  B24  1  0.500000  0.104411  0.004203  1
  B  B25  1  0.500000  0.895589  0.995797  1
  B  B26  1  0.000000  0.610768  0.832885  1
  B  B27  1  0.000000  0.389232  0.167115  1
  B  B28  1  0.000000  0.112047  0.662293  1
  B  B29  1  0.000000  0.887953  0.337707  1
  B  B30  1  0.500000  0.715070  0.601178  1
  B  B31  1  0.500000  0.284930  0.398822  1
  B  B32  1  0.500000  0.218567  0.900844  1
  B  B33  1  0.500000  0.781433  0.099156  1
  Pt  Pt34  1  0.500000  0.066761  0.767183  1
  Pt  Pt35  1  0.500000  0.933239  0.232817  1
