# generated using pymatgen
data_Sm3Y2(FeB3)2
_symmetry_space_group_name_H-M   'P 1'
_cell_length_a   5.44384253
_cell_length_b   5.44384364
_cell_length_c   8.46553636
_cell_angle_alpha   71.24454643
_cell_angle_beta   71.24454011
_cell_angle_gamma   59.99998659
_symmetry_Int_Tables_number   1
_chemical_formula_structural   Sm3Y2(FeB3)2
_chemical_formula_sum   'Sm3 Y2 Fe2 B6'
_cell_volume   201.73894601
_cell_formula_units_Z   1
loop_
 _symmetry_equiv_pos_site_id
 _symmetry_equiv_pos_as_xyz
  1  'x, y, z'
loop_
 _atom_site_type_symbol
 _atom_site_label
 _atom_site_symmetry_multiplicity
 _atom_site_fract_x
 _atom_site_fract_y
 _atom_site_fract_z
 _atom_site_occupancy
  Sm  Sm0  1  0.000000  0.000000  0.000000  1
  Sm  Sm1  1  0.252586  0.252586  0.242241  1
  Sm  Sm2  1  0.747414  0.747414  0.757759  1
  Y  Y3  1  0.418844  0.418844  0.743467  1
  Y  Y4  1  0.581156  0.581156  0.256533  1
  Fe  Fe5  1  0.119671  0.119671  0.640988  1
  Fe  Fe6  1  0.880329  0.880329  0.359012  1
  B  B7  1  0.167335  0.832665  0.500000  1
  B  B8  1  0.832665  0.500000  0.500000  1
  B  B9  1  0.500000  0.167335  0.500000  1
  B  B10  1  0.167335  0.500000  0.500000  1
  B  B11  1  0.500000  0.832665  0.500000  1
  B  B12  1  0.832665  0.167335  0.500000  1
