# generated using pymatgen
data_PuMgN2
_symmetry_space_group_name_H-M   'P 1'
_cell_length_a   5.94505778
_cell_length_b   5.94505725
_cell_length_c   5.94505683
_cell_angle_alpha   134.55975944
_cell_angle_beta   134.55975919
_cell_angle_gamma   66.21500579
_symmetry_Int_Tables_number   1
_chemical_formula_structural   PuMgN2
_chemical_formula_sum   'Pu2 Mg2 N4'
_cell_volume   105.02222900
_cell_formula_units_Z   2
loop_
 _symmetry_equiv_pos_site_id
 _symmetry_equiv_pos_as_xyz
  1  'x, y, z'
loop_
 _atom_site_type_symbol
 _atom_site_label
 _atom_site_symmetry_multiplicity
 _atom_site_fract_x
 _atom_site_fract_y
 _atom_site_fract_z
 _atom_site_occupancy
  Pu  Pu0  1  0.000000  0.000000  0.000000  1
  Pu  Pu1  1  0.750000  0.250000  0.500000  1
  Mg  Mg2  1  0.500000  0.500000  0.000000  1
  Mg  Mg3  1  0.250000  0.750000  0.500000  1
  N  N4  1  0.763676  0.763676  0.000000  1
  N  N5  1  0.236324  0.236324  0.000000  1
  N  N6  1  0.986324  0.486324  0.500000  1
  N  N7  1  0.513676  0.013676  0.500000  1
