# generated using pymatgen
data_Lu12MgNi4Pb
_symmetry_space_group_name_H-M   'P 1'
_cell_length_a   8.23462253
_cell_length_b   8.23462155
_cell_length_c   8.23462200
_cell_angle_alpha   111.72080776
_cell_angle_beta   109.78016823
_cell_angle_gamma   106.94800126
_symmetry_Int_Tables_number   1
_chemical_formula_structural   Lu12MgNi4Pb
_chemical_formula_sum   'Lu12 Mg1 Ni4 Pb1'
_cell_volume   429.09139005
_cell_formula_units_Z   1
loop_
 _symmetry_equiv_pos_site_id
 _symmetry_equiv_pos_as_xyz
  1  'x, y, z'
loop_
 _atom_site_type_symbol
 _atom_site_label
 _atom_site_symmetry_multiplicity
 _atom_site_fract_x
 _atom_site_fract_y
 _atom_site_fract_z
 _atom_site_occupancy
  Lu  Lu0  1  0.439464  0.230949  0.208516  1
  Lu  Lu1  1  0.560536  0.769051  0.791484  1
  Lu  Lu2  1  0.022433  0.230949  0.791484  1
  Lu  Lu3  1  0.977567  0.769051  0.208516  1
  Lu  Lu4  1  0.182851  0.288969  0.471820  1
  Lu  Lu5  1  0.817149  0.711031  0.528180  1
  Lu  Lu6  1  0.182851  0.711031  0.893883  1
  Lu  Lu7  1  0.817149  0.288969  0.106117  1
  Lu  Lu8  1  0.321089  0.624450  0.303361  1
  Lu  Lu9  1  0.678911  0.375550  0.696639  1
  Lu  Lu10  1  0.321089  0.017728  0.696639  1
  Lu  Lu11  1  0.678911  0.982272  0.303361  1
  Mg  Mg12  1  0.000000  0.000000  0.000000  1
  Ni  Ni13  1  0.352961  0.000000  0.352961  1
  Ni  Ni14  1  0.647039  0.000000  0.647039  1
  Ni  Ni15  1  0.124491  0.624491  0.500000  1
  Ni  Ni16  1  0.875509  0.375509  0.500000  1
  Pb  Pb17  1  0.500000  0.500000  0.000000  1
