# generated using pymatgen
data_Er4Sc8Sn9Pb
_symmetry_space_group_name_H-M   'P 1'
_cell_length_a   6.17878479
_cell_length_b   9.00590470
_cell_length_c   11.09093000
_cell_angle_alpha   114.00387597
_cell_angle_beta   106.17375560
_cell_angle_gamma   89.99999881
_symmetry_Int_Tables_number   1
_chemical_formula_structural   Er4Sc8Sn9Pb
_chemical_formula_sum   'Er4 Sc8 Sn9 Pb1'
_cell_volume   536.93855634
_cell_formula_units_Z   1
loop_
 _symmetry_equiv_pos_site_id
 _symmetry_equiv_pos_as_xyz
  1  'x, y, z'
loop_
 _atom_site_type_symbol
 _atom_site_label
 _atom_site_symmetry_multiplicity
 _atom_site_fract_x
 _atom_site_fract_y
 _atom_site_fract_z
 _atom_site_occupancy
  Er  Er0  1  0.141269  0.257063  0.282537  1
  Er  Er1  1  0.858707  0.742755  0.717414  1
  Er  Er2  1  0.641271  0.026105  0.282543  1
  Er  Er3  1  0.357859  0.970631  0.715719  1
  Sc  Sc4  1  0.559106  0.308450  0.614959  1
  Sc  Sc5  1  0.441730  0.691504  0.383164  1
  Sc  Sc6  1  0.941434  0.691504  0.383164  1
  Sc  Sc7  1  0.055854  0.308450  0.614959  1
  Sc  Sc8  1  0.437485  0.680685  0.874971  1
  Sc  Sc9  1  0.563756  0.321565  0.127513  1
  Sc  Sc10  1  0.937410  0.194565  0.874821  1
  Sc  Sc11  1  0.062830  0.804704  0.125659  1
  Sn  Sn12  1  0.290132  0.589831  0.580265  1
  Sn  Sn13  1  0.709871  0.410002  0.419742  1
  Sn  Sn14  1  0.790313  0.990039  0.580628  1
  Sn  Sn15  1  0.209903  0.010331  0.419804  1
  Sn  Sn16  1  0.250090  0.000283  0.000078  1
  Sn  Sn17  1  0.749989  0.000283  0.000078  1
  Sn  Sn18  1  0.068912  0.478113  0.137825  1
  Sn  Sn19  1  0.930586  0.521839  0.861172  1
  Sn  Sn20  1  0.570025  0.662141  0.140048  1
  Pb  Pb21  1  0.431468  0.339158  0.862935  1
