# generated using pymatgen
data_Sc4Si2B4Ir3Rh7
_symmetry_space_group_name_H-M   'P 1'
_cell_length_a   9.19686406
_cell_length_b   9.18867107
_cell_length_c   3.14602100
_cell_angle_alpha   90.00000000
_cell_angle_beta   90.00000000
_cell_angle_gamma   90.01363092
_symmetry_Int_Tables_number   1
_chemical_formula_structural   Sc4Si2B4Ir3Rh7
_chemical_formula_sum   'Sc4 Si2 B4 Ir3 Rh7'
_cell_volume   265.86065927
_cell_formula_units_Z   1
loop_
 _symmetry_equiv_pos_site_id
 _symmetry_equiv_pos_as_xyz
  1  'x, y, z'
loop_
 _atom_site_type_symbol
 _atom_site_label
 _atom_site_symmetry_multiplicity
 _atom_site_fract_x
 _atom_site_fract_y
 _atom_site_fract_z
 _atom_site_occupancy
  Sc  Sc0  1  0.675330  0.175421  0.000000  1
  Sc  Sc1  1  0.174748  0.325006  0.000000  1
  Sc  Sc2  1  0.824680  0.675285  0.000000  1
  Sc  Sc3  1  0.324321  0.824655  0.000000  1
  Si  Si4  1  0.999589  0.999859  0.000000  1
  Si  Si5  1  0.500004  0.500066  0.000000  1
  B  B6  1  0.375825  0.122397  0.000000  1
  B  B7  1  0.877474  0.377469  0.000000  1
  B  B8  1  0.122778  0.622587  0.000000  1
  B  B9  1  0.622830  0.877485  0.000000  1
  Ir  Ir10  1  0.500875  0.999701  0.500000  1
  Ir  Ir11  1  0.212275  0.070867  0.500000  1
  Ir  Ir12  1  0.999600  0.500553  0.500000  1
  Rh  Rh13  1  0.929034  0.211728  0.500000  1
  Rh  Rh14  1  0.429530  0.288976  0.500000  1
  Rh  Rh15  1  0.711532  0.428532  0.500000  1
  Rh  Rh16  1  0.288484  0.571111  0.500000  1
  Rh  Rh17  1  0.571256  0.711020  0.500000  1
  Rh  Rh18  1  0.071236  0.788580  0.500000  1
  Rh  Rh19  1  0.788595  0.928696  0.500000  1
