# generated using pymatgen
data_Ce2Si3Pt
_symmetry_space_group_name_H-M   'P 1'
_cell_length_a   8.20151400
_cell_length_b   8.20151359
_cell_length_c   4.21182800
_cell_angle_alpha   90.00000000
_cell_angle_beta   90.00000000
_cell_angle_gamma   120.00000165
_symmetry_Int_Tables_number   1
_chemical_formula_structural   Ce2Si3Pt
_chemical_formula_sum   'Ce4 Si6 Pt2'
_cell_volume   245.35182420
_cell_formula_units_Z   2
loop_
 _symmetry_equiv_pos_site_id
 _symmetry_equiv_pos_as_xyz
  1  'x, y, z'
loop_
 _atom_site_type_symbol
 _atom_site_label
 _atom_site_symmetry_multiplicity
 _atom_site_fract_x
 _atom_site_fract_y
 _atom_site_fract_z
 _atom_site_occupancy
  Ce  Ce0  1  0.000000  0.000000  0.500000  1
  Ce  Ce1  1  0.000000  0.500000  0.500000  1
  Ce  Ce2  1  0.500000  0.500000  0.500000  1
  Ce  Ce3  1  0.500000  0.000000  0.500000  1
  Si  Si4  1  0.330021  0.165010  0.000000  1
  Si  Si5  1  0.834990  0.165010  0.000000  1
  Si  Si6  1  0.834990  0.669979  0.000000  1
  Si  Si7  1  0.165010  0.330021  0.000000  1
  Si  Si8  1  0.165010  0.834990  0.000000  1
  Si  Si9  1  0.669979  0.834990  0.000000  1
  Pt  Pt10  1  0.666667  0.333333  0.000000  1
  Pt  Pt11  1  0.333333  0.666667  0.000000  1
