# generated using pymatgen
data_Hf9TaRe3Rh
_symmetry_space_group_name_H-M   'P 1'
_cell_length_a   8.73867900
_cell_length_b   8.73868011
_cell_length_c   8.50641500
_cell_angle_alpha   90.00000000
_cell_angle_beta   90.00000000
_cell_angle_gamma   119.99999959
_symmetry_Int_Tables_number   1
_chemical_formula_structural   Hf9TaRe3Rh
_chemical_formula_sum   'Hf18 Ta2 Re6 Rh2'
_cell_volume   562.55997327
_cell_formula_units_Z   2
loop_
 _symmetry_equiv_pos_site_id
 _symmetry_equiv_pos_as_xyz
  1  'x, y, z'
loop_
 _atom_site_type_symbol
 _atom_site_label
 _atom_site_symmetry_multiplicity
 _atom_site_fract_x
 _atom_site_fract_y
 _atom_site_fract_z
 _atom_site_occupancy
  Hf  Hf0  1  0.198212  0.801788  0.446152  1
  Hf  Hf1  1  0.198212  0.396424  0.446152  1
  Hf  Hf2  1  0.603576  0.801788  0.446152  1
  Hf  Hf3  1  0.801788  0.198212  0.553848  1
  Hf  Hf4  1  0.801788  0.603576  0.553848  1
  Hf  Hf5  1  0.396424  0.198212  0.553848  1
  Hf  Hf6  1  0.801788  0.198212  0.946152  1
  Hf  Hf7  1  0.801788  0.603576  0.946152  1
  Hf  Hf8  1  0.396424  0.198212  0.946152  1
  Hf  Hf9  1  0.198212  0.801788  0.053848  1
  Hf  Hf10  1  0.198212  0.396424  0.053848  1
  Hf  Hf11  1  0.603576  0.801788  0.053848  1
  Hf  Hf12  1  0.542104  0.457896  0.250000  1
  Hf  Hf13  1  0.542104  0.084207  0.250000  1
  Hf  Hf14  1  0.915793  0.457896  0.250000  1
  Hf  Hf15  1  0.457896  0.542104  0.750000  1
  Hf  Hf16  1  0.457896  0.915793  0.750000  1
  Hf  Hf17  1  0.084207  0.542104  0.750000  1
  Ta  Ta18  1  0.000000  0.000000  0.500000  1
  Ta  Ta19  1  0.000000  0.000000  0.000000  1
  Re  Re20  1  0.886044  0.113956  0.250000  1
  Re  Re21  1  0.886044  0.772087  0.250000  1
  Re  Re22  1  0.227913  0.113956  0.250000  1
  Re  Re23  1  0.113956  0.886044  0.750000  1
  Re  Re24  1  0.113956  0.227913  0.750000  1
  Re  Re25  1  0.772087  0.886044  0.750000  1
  Rh  Rh26  1  0.333333  0.666667  0.250000  1
  Rh  Rh27  1  0.666667  0.333333  0.750000  1
