# generated using pymatgen
data_Tm2Lu6In3Au
_symmetry_space_group_name_H-M   'P 1'
_cell_length_a   10.41182700
_cell_length_b   10.41409227
_cell_length_c   6.76465101
_cell_angle_alpha   89.99502092
_cell_angle_beta   90.00000000
_cell_angle_gamma   119.99280793
_symmetry_Int_Tables_number   1
_chemical_formula_structural   Tm2Lu6In3Au
_chemical_formula_sum   'Tm4 Lu12 In6 Au2'
_cell_volume   635.26636259
_cell_formula_units_Z   2
loop_
 _symmetry_equiv_pos_site_id
 _symmetry_equiv_pos_as_xyz
  1  'x, y, z'
loop_
 _atom_site_type_symbol
 _atom_site_label
 _atom_site_symmetry_multiplicity
 _atom_site_fract_x
 _atom_site_fract_y
 _atom_site_fract_z
 _atom_site_occupancy
  Tm  Tm0  1  0.522476  0.044950  0.527294  1
  Tm  Tm1  1  0.955037  0.477521  0.527272  1
  Tm  Tm2  1  0.522484  0.477521  0.527272  1
  Tm  Tm3  1  0.477584  0.955169  0.027194  1
  Lu  Lu4  1  0.045070  0.522567  0.027232  1
  Lu  Lu5  1  0.477496  0.522567  0.027232  1
  Lu  Lu6  1  0.173279  0.346558  0.741806  1
  Lu  Lu7  1  0.653493  0.826680  0.741653  1
  Lu  Lu8  1  0.173186  0.826680  0.741653  1
  Lu  Lu9  1  0.826760  0.653519  0.241360  1
  Lu  Lu10  1  0.346427  0.173323  0.241414  1
  Lu  Lu11  1  0.826896  0.173323  0.241414  1
  Lu  Lu12  1  0.666752  0.333502  0.884774  1
  Lu  Lu13  1  0.333260  0.666521  0.384313  1
  Lu  Lu14  1  0.999995  0.999989  0.505318  1
  Lu  Lu15  1  0.000010  0.000020  0.005399  1
  In  In16  1  0.836034  0.672069  0.761266  1
  In  In17  1  0.327957  0.163959  0.761317  1
  In  In18  1  0.836001  0.163959  0.761317  1
  In  In19  1  0.164048  0.328095  0.261179  1
  In  In20  1  0.671974  0.835911  0.261294  1
  In  In21  1  0.163938  0.835911  0.261294  1
  Au  Au22  1  0.666667  0.333334  0.297537  1
  Au  Au23  1  0.333176  0.666354  0.797878  1
