# generated using pymatgen
data_Gd8Y12Si15As
_symmetry_space_group_name_H-M   'P 1'
_cell_length_a   7.56874100
_cell_length_b   7.83879634
_cell_length_c   14.87514600
_cell_angle_alpha   90.00000000
_cell_angle_beta   90.00000000
_cell_angle_gamma   90.35721303
_symmetry_Int_Tables_number   1
_chemical_formula_structural   Gd8Y12Si15As
_chemical_formula_sum   'Gd8 Y12 Si15 As1'
_cell_volume   882.52257211
_cell_formula_units_Z   1
loop_
 _symmetry_equiv_pos_site_id
 _symmetry_equiv_pos_as_xyz
  1  'x, y, z'
loop_
 _atom_site_type_symbol
 _atom_site_label
 _atom_site_symmetry_multiplicity
 _atom_site_fract_x
 _atom_site_fract_y
 _atom_site_fract_z
 _atom_site_occupancy
  Gd  Gd0  1  0.033942  0.186648  0.398831  1
  Gd  Gd1  1  0.531369  0.318279  0.401504  1
  Gd  Gd2  1  0.472032  0.678204  0.902625  1
  Gd  Gd3  1  0.472032  0.678204  0.597375  1
  Gd  Gd4  1  0.966879  0.816459  0.601977  1
  Gd  Gd5  1  0.966879  0.816459  0.898023  1
  Gd  Gd6  1  0.531369  0.318279  0.098496  1
  Gd  Gd7  1  0.033942  0.186648  0.101169  1
  Y  Y8  1  0.310469  0.175423  0.623356  1
  Y  Y9  1  0.687278  0.824538  0.377394  1
  Y  Y10  1  0.646060  0.988500  0.750000  1
  Y  Y11  1  0.187501  0.678265  0.377556  1
  Y  Y12  1  0.809390  0.323326  0.878913  1
  Y  Y13  1  0.809390  0.323326  0.621087  1
  Y  Y14  1  0.854395  0.489619  0.250000  1
  Y  Y15  1  0.357640  0.012538  0.250000  1
  Y  Y16  1  0.310469  0.175423  0.876644  1
  Y  Y17  1  0.187501  0.678265  0.122444  1
  Y  Y18  1  0.687278  0.824538  0.122606  1
  Y  Y19  1  0.141842  0.504822  0.750000  1
  Si  Si20  1  0.482972  0.607850  0.250000  1
  Si  Si21  1  0.006206  0.123536  0.750000  1
  Si  Si22  1  0.514735  0.390105  0.750000  1
  Si  Si23  1  0.141161  0.471940  0.540990  1
  Si  Si24  1  0.983319  0.893711  0.250000  1
  Si  Si25  1  0.738264  0.127998  0.250000  1
  Si  Si26  1  0.860291  0.529794  0.041366  1
  Si  Si27  1  0.358323  0.972801  0.040963  1
  Si  Si28  1  0.141161  0.471940  0.959010  1
  Si  Si29  1  0.639017  0.025313  0.542212  1
  Si  Si30  1  0.358323  0.972801  0.459037  1
  Si  Si31  1  0.860291  0.529794  0.458634  1
  Si  Si32  1  0.762793  0.625898  0.750000  1
  Si  Si33  1  0.239410  0.374621  0.250000  1
  Si  Si34  1  0.639017  0.025313  0.957788  1
  As  As35  1  0.277060  0.858822  0.750000  1
