# generated using pymatgen
data_Eu3MgIn2Pd2Rh
_symmetry_space_group_name_H-M   'P 1'
_cell_length_a   7.66386800
_cell_length_b   7.68090349
_cell_length_c   4.25625600
_cell_angle_alpha   90.00000000
_cell_angle_beta   90.00000000
_cell_angle_gamma   119.92665949
_symmetry_Int_Tables_number   1
_chemical_formula_structural   Eu3MgIn2Pd2Rh
_chemical_formula_sum   'Eu3 Mg1 In2 Pd2 Rh1'
_cell_volume   217.13967264
_cell_formula_units_Z   1
loop_
 _symmetry_equiv_pos_site_id
 _symmetry_equiv_pos_as_xyz
  1  'x, y, z'
loop_
 _atom_site_type_symbol
 _atom_site_label
 _atom_site_symmetry_multiplicity
 _atom_site_fract_x
 _atom_site_fract_y
 _atom_site_fract_z
 _atom_site_occupancy
  Eu  Eu0  1  0.403020  0.000000  0.500000  1
  Eu  Eu1  1  0.002106  0.412357  0.500000  1
  Eu  Eu2  1  0.589749  0.587643  0.500000  1
  Mg  Mg3  1  0.760202  0.000000  0.000000  1
  In  In4  1  0.994711  0.752545  0.000000  1
  In  In5  1  0.242166  0.247455  0.000000  1
  Pd  Pd6  1  0.336454  0.670035  0.000000  1
  Pd  Pd7  1  0.666420  0.329965  0.000000  1
  Rh  Rh8  1  0.005173  0.000000  0.500000  1
