# generated using pymatgen
data_EuCo2(As6Os)2
_symmetry_space_group_name_H-M   'P 1'
_cell_length_a   7.41151614
_cell_length_b   7.41151529
_cell_length_c   7.35236413
_cell_angle_alpha   109.56519140
_cell_angle_beta   109.49699292
_cell_angle_gamma   109.67594066
_symmetry_Int_Tables_number   1
_chemical_formula_structural   EuCo2(As6Os)2
_chemical_formula_sum   'Eu1 Co2 As12 Os2'
_cell_volume   309.64713151
_cell_formula_units_Z   1
loop_
 _symmetry_equiv_pos_site_id
 _symmetry_equiv_pos_as_xyz
  1  'x, y, z'
loop_
 _atom_site_type_symbol
 _atom_site_label
 _atom_site_symmetry_multiplicity
 _atom_site_fract_x
 _atom_site_fract_y
 _atom_site_fract_z
 _atom_site_occupancy
  Eu  Eu0  1  0.000000  0.000000  0.000000  1
  Co  Co1  1  0.500000  0.000000  0.000000  1
  Co  Co2  1  0.000000  0.500000  0.000000  1
  As  As3  1  0.352152  0.194663  0.854701  1
  As  As4  1  0.647848  0.805337  0.145299  1
  As  As5  1  0.660038  0.502548  0.854701  1
  As  As6  1  0.339962  0.497452  0.145299  1
  As  As7  1  0.194186  0.842982  0.340442  1
  As  As8  1  0.805814  0.157018  0.659558  1
  As  As9  1  0.502539  0.853744  0.659558  1
  As  As10  1  0.497461  0.146256  0.340442  1
  As  As11  1  0.846130  0.342908  0.189038  1
  As  As12  1  0.153870  0.657092  0.810962  1
  As  As13  1  0.851356  0.650578  0.501933  1
  As  As14  1  0.148644  0.349422  0.498067  1
  Os  Os15  1  0.000000  0.000000  0.500000  1
  Os  Os16  1  0.500000  0.500000  0.500000  1
