# generated using pymatgen
data_TbYSc2(B6Ir)2
_symmetry_space_group_name_H-M   'P 1'
_cell_length_a   3.55468400
_cell_length_b   9.02596203
_cell_length_c   11.40076604
_cell_angle_alpha   90.00934083
_cell_angle_beta   90.00000000
_cell_angle_gamma   90.00000000
_symmetry_Int_Tables_number   1
_chemical_formula_structural   TbYSc2(B6Ir)2
_chemical_formula_sum   'Tb2 Y2 Sc4 B24 Ir4'
_cell_volume   365.78722110
_cell_formula_units_Z   2
loop_
 _symmetry_equiv_pos_site_id
 _symmetry_equiv_pos_as_xyz
  1  'x, y, z'
loop_
 _atom_site_type_symbol
 _atom_site_label
 _atom_site_symmetry_multiplicity
 _atom_site_fract_x
 _atom_site_fract_y
 _atom_site_fract_z
 _atom_site_occupancy
  Tb  Tb0  1  0.500000  0.319887  0.413991  1
  Tb  Tb1  1  0.500000  0.680113  0.586009  1
  Y  Y2  1  0.500000  0.180267  0.913999  1
  Y  Y3  1  0.500000  0.819733  0.086001  1
  Sc  Sc4  1  0.500000  0.445164  0.124332  1
  Sc  Sc5  1  0.500000  0.554836  0.875668  1
  Sc  Sc6  1  0.500000  0.054864  0.624339  1
  Sc  Sc7  1  0.500000  0.945136  0.375661  1
  B  B8  1  0.000000  0.099950  0.472921  1
  B  B9  1  0.000000  0.900050  0.527079  1
  B  B10  1  0.000000  0.399932  0.972882  1
  B  B11  1  0.000000  0.600068  0.027118  1
  B  B12  1  0.000000  0.129677  0.318267  1
  B  B13  1  0.000000  0.870323  0.681733  1
  B  B14  1  0.000000  0.370282  0.818306  1
  B  B15  1  0.000000  0.629718  0.181694  1
  B  B16  1  0.000000  0.054753  0.065827  1
  B  B17  1  0.000000  0.945247  0.934173  1
  B  B18  1  0.000000  0.445231  0.565935  1
  B  B19  1  0.000000  0.554769  0.434065  1
  B  B20  1  0.000000  0.481880  0.284942  1
  B  B21  1  0.000000  0.518120  0.715058  1
  B  B22  1  0.000000  0.018200  0.784939  1
  B  B23  1  0.000000  0.981800  0.215061  1
  B  B24  1  0.000000  0.254219  0.080351  1
  B  B25  1  0.000000  0.745781  0.919649  1
  B  B26  1  0.000000  0.245780  0.580407  1
  B  B27  1  0.000000  0.754220  0.419593  1
  B  B28  1  0.000000  0.295653  0.235114  1
  B  B29  1  0.000000  0.704347  0.764886  1
  B  B30  1  0.000000  0.204294  0.735206  1
  B  B31  1  0.000000  0.795706  0.264794  1
  Ir  Ir32  1  0.500000  0.141464  0.181462  1
  Ir  Ir33  1  0.500000  0.858536  0.818538  1
  Ir  Ir34  1  0.500000  0.358478  0.681519  1
  Ir  Ir35  1  0.500000  0.641522  0.318481  1
