# generated using pymatgen
data_Lu4Al3ReB16
_symmetry_space_group_name_H-M   'P 1'
_cell_length_a   3.52213400
_cell_length_b   5.91975851
_cell_length_c   11.44659745
_cell_angle_alpha   90.20560329
_cell_angle_beta   90.00000000
_cell_angle_gamma   90.00000000
_symmetry_Int_Tables_number   1
_chemical_formula_structural   Lu4Al3ReB16
_chemical_formula_sum   'Lu4 Al3 Re1 B16'
_cell_volume   238.66211194
_cell_formula_units_Z   1
loop_
 _symmetry_equiv_pos_site_id
 _symmetry_equiv_pos_as_xyz
  1  'x, y, z'
loop_
 _atom_site_type_symbol
 _atom_site_label
 _atom_site_symmetry_multiplicity
 _atom_site_fract_x
 _atom_site_fract_y
 _atom_site_fract_z
 _atom_site_occupancy
  Lu  Lu0  1  0.000000  0.370272  0.654874  1
  Lu  Lu1  1  0.000000  0.627866  0.348225  1
  Lu  Lu2  1  0.000000  0.873932  0.850998  1
  Lu  Lu3  1  0.000000  0.129858  0.145683  1
  Al  Al4  1  0.000000  0.639922  0.087416  1
  Al  Al5  1  0.000000  0.860488  0.592406  1
  Al  Al6  1  0.000000  0.137708  0.409691  1
  Re  Re7  1  0.000000  0.370708  0.916340  1
  B  B8  1  0.500000  0.024677  0.692349  1
  B  B9  1  0.500000  0.973433  0.305995  1
  B  B10  1  0.500000  0.521555  0.806671  1
  B  B11  1  0.500000  0.475850  0.194279  1
  B  B12  1  0.500000  0.114185  0.547328  1
  B  B13  1  0.500000  0.885104  0.451619  1
  B  B14  1  0.500000  0.614019  0.950411  1
  B  B15  1  0.500000  0.382624  0.046624  1
  B  B16  1  0.500000  0.292053  0.312848  1
  B  B17  1  0.500000  0.708005  0.685789  1
  B  B18  1  0.500000  0.789981  0.187187  1
  B  B19  1  0.500000  0.209765  0.813823  1
  B  B20  1  0.500000  0.366789  0.468781  1
  B  B21  1  0.500000  0.632137  0.530039  1
  B  B22  1  0.500000  0.866128  0.032656  1
  B  B23  1  0.500000  0.132942  0.967965  1
