# generated using pymatgen
data_Y8SiAsI12
_symmetry_space_group_name_H-M   'P 1'
_cell_length_a   4.23738100
_cell_length_b   13.98039697
_cell_length_c   14.78650733
_cell_angle_alpha   89.96713770
_cell_angle_beta   90.00000000
_cell_angle_gamma   90.00000000
_symmetry_Int_Tables_number   1
_chemical_formula_structural   Y8SiAsI12
_chemical_formula_sum   'Y8 Si1 As1 I12'
_cell_volume   875.95652044
_cell_formula_units_Z   1
loop_
 _symmetry_equiv_pos_site_id
 _symmetry_equiv_pos_as_xyz
  1  'x, y, z'
loop_
 _atom_site_type_symbol
 _atom_site_label
 _atom_site_symmetry_multiplicity
 _atom_site_fract_x
 _atom_site_fract_y
 _atom_site_fract_z
 _atom_site_occupancy
  Y  Y0  1  0.500000  0.114524  0.346881  1
  Y  Y1  1  0.500000  0.885476  0.653119  1
  Y  Y2  1  0.500000  0.613762  0.151815  1
  Y  Y3  1  0.500000  0.386238  0.848185  1
  Y  Y4  1  0.000000  0.110159  0.573462  1
  Y  Y5  1  0.000000  0.889841  0.426538  1
  Y  Y6  1  0.000000  0.611047  0.925819  1
  Y  Y7  1  0.000000  0.388953  0.074181  1
  Si  Si8  1  0.500000  0.500000  0.000000  1
  As  As9  1  0.500000  0.000000  0.500000  1
  I  I10  1  0.500000  0.244654  0.161845  1
  I  I11  1  0.500000  0.755346  0.838155  1
  I  I12  1  0.500000  0.746455  0.340300  1
  I  I13  1  0.500000  0.253545  0.659700  1
  I  I14  1  0.000000  0.258327  0.414051  1
  I  I15  1  0.000000  0.741673  0.585949  1
  I  I16  1  0.000000  0.759036  0.086196  1
  I  I17  1  0.000000  0.240964  0.913804  1
  I  I18  1  0.000000  0.999177  0.241139  1
  I  I19  1  0.000000  0.000823  0.758861  1
  I  I20  1  0.000000  0.499570  0.259796  1
  I  I21  1  0.000000  0.500430  0.740204  1
