# generated using pymatgen
data_La3LuBi5
_symmetry_space_group_name_H-M   'P 1'
_cell_length_a   9.97552000
_cell_length_b   9.97551936
_cell_length_c   6.61435100
_cell_angle_alpha   90.00000000
_cell_angle_beta   90.00000000
_cell_angle_gamma   120.00000211
_symmetry_Int_Tables_number   1
_chemical_formula_structural   La3LuBi5
_chemical_formula_sum   'La6 Lu2 Bi10'
_cell_volume   570.01845897
_cell_formula_units_Z   2
loop_
 _symmetry_equiv_pos_site_id
 _symmetry_equiv_pos_as_xyz
  1  'x, y, z'
loop_
 _atom_site_type_symbol
 _atom_site_label
 _atom_site_symmetry_multiplicity
 _atom_site_fract_x
 _atom_site_fract_y
 _atom_site_fract_z
 _atom_site_occupancy
  La  La0  1  0.380721  0.000000  0.750000  1
  La  La1  1  0.619279  0.619279  0.750000  1
  La  La2  1  0.000000  0.380721  0.750000  1
  La  La3  1  0.619279  0.000000  0.250000  1
  La  La4  1  0.380721  0.380721  0.250000  1
  La  La5  1  0.000000  0.619279  0.250000  1
  Lu  Lu6  1  0.000000  0.000000  0.000000  1
  Lu  Lu7  1  0.000000  0.000000  0.500000  1
  Bi  Bi8  1  0.266026  0.000000  0.250000  1
  Bi  Bi9  1  0.666667  0.333333  0.000000  1
  Bi  Bi10  1  0.733974  0.733974  0.250000  1
  Bi  Bi11  1  0.000000  0.733974  0.750000  1
  Bi  Bi12  1  0.000000  0.266026  0.250000  1
  Bi  Bi13  1  0.333333  0.666667  0.500000  1
  Bi  Bi14  1  0.666667  0.333333  0.500000  1
  Bi  Bi15  1  0.733974  0.000000  0.750000  1
  Bi  Bi16  1  0.266026  0.266026  0.750000  1
  Bi  Bi17  1  0.333333  0.666667  0.000000  1
