# generated using pymatgen
data_Ba7TaTc3O19
_symmetry_space_group_name_H-M   'P 1'
_cell_length_a   7.81163967
_cell_length_b   7.81164663
_cell_length_c   10.97777392
_cell_angle_alpha   81.59462152
_cell_angle_beta   81.59462006
_cell_angle_gamma   44.19447523
_symmetry_Int_Tables_number   1
_chemical_formula_structural   Ba7TaTc3O19
_chemical_formula_sum   'Ba7 Ta1 Tc3 O19'
_cell_volume   461.12487853
_cell_formula_units_Z   1
loop_
 _symmetry_equiv_pos_site_id
 _symmetry_equiv_pos_as_xyz
  1  'x, y, z'
loop_
 _atom_site_type_symbol
 _atom_site_label
 _atom_site_symmetry_multiplicity
 _atom_site_fract_x
 _atom_site_fract_y
 _atom_site_fract_z
 _atom_site_occupancy
  Ba  Ba0  1  0.204474  0.204474  0.407345  1
  Ba  Ba1  1  0.801103  0.801103  0.588368  1
  Ba  Ba2  1  0.419652  0.419652  0.171447  1
  Ba  Ba3  1  0.580994  0.580994  0.828581  1
  Ba  Ba4  1  0.498717  0.498717  0.497519  1
  Ba  Ba5  1  0.859749  0.859749  0.951886  1
  Ba  Ba6  1  0.138605  0.138605  0.049948  1
  Ta  Ta7  1  0.965107  0.965108  0.317900  1
  Tc  Tc8  1  0.031263  0.031262  0.676060  1
  Tc  Tc9  1  0.671227  0.671227  0.218727  1
  Tc  Tc10  1  0.327775  0.327775  0.783509  1
  O  O11  1  0.999889  0.999889  0.507024  1
  O  O12  1  0.690089  0.690089  0.378030  1
  O  O13  1  0.312266  0.312266  0.623839  1
  O  O14  1  0.046650  0.046650  0.841845  1
  O  O15  1  0.953320  0.953320  0.146120  1
  O  O16  1  0.394070  0.394070  0.920146  1
  O  O17  1  0.607075  0.607075  0.078595  1
  O  O18  1  0.829954  0.312730  0.283353  1
  O  O19  1  0.695142  0.168459  0.717244  1
  O  O20  1  0.168459  0.695142  0.717243  1
  O  O21  1  0.312730  0.829954  0.283352  1
  O  O22  1  0.638016  0.118932  0.376891  1
  O  O23  1  0.888917  0.349740  0.627772  1
  O  O24  1  0.349741  0.888917  0.627772  1
  O  O25  1  0.118932  0.638017  0.376891  1
  O  O26  1  0.984507  0.521655  0.159468  1
  O  O27  1  0.476041  0.013880  0.841829  1
  O  O28  1  0.013879  0.476041  0.841829  1
  O  O29  1  0.521655  0.984506  0.159468  1
