# generated using pymatgen
data_TbHo7(HgRh)2
_symmetry_space_group_name_H-M   'P 1'
_cell_length_a   9.56659347
_cell_length_b   9.56659402
_cell_length_c   9.56319400
_cell_angle_alpha   60.01176292
_cell_angle_beta   60.01176105
_cell_angle_gamma   59.97648430
_symmetry_Int_Tables_number   1
_chemical_formula_structural   TbHo7(HgRh)2
_chemical_formula_sum   'Tb2 Ho14 Hg4 Rh4'
_cell_volume   618.87444334
_cell_formula_units_Z   2
loop_
 _symmetry_equiv_pos_site_id
 _symmetry_equiv_pos_as_xyz
  1  'x, y, z'
loop_
 _atom_site_type_symbol
 _atom_site_label
 _atom_site_symmetry_multiplicity
 _atom_site_fract_x
 _atom_site_fract_y
 _atom_site_fract_z
 _atom_site_occupancy
  Tb  Tb0  1  0.936086  0.936086  0.563914  1
  Tb  Tb1  1  0.563914  0.563914  0.936086  1
  Ho  Ho2  1  0.689078  0.689078  0.310922  1
  Ho  Ho3  1  0.149297  0.552597  0.149053  1
  Ho  Ho4  1  0.688850  0.311150  0.688850  1
  Ho  Ho5  1  0.149053  0.149053  0.149297  1
  Ho  Ho6  1  0.552597  0.149297  0.149053  1
  Ho  Ho7  1  0.688850  0.311150  0.311150  1
  Ho  Ho8  1  0.149053  0.149053  0.552597  1
  Ho  Ho9  1  0.311150  0.688850  0.311150  1
  Ho  Ho10  1  0.311150  0.688850  0.688850  1
  Ho  Ho11  1  0.937058  0.562942  0.562942  1
  Ho  Ho12  1  0.937058  0.562942  0.937058  1
  Ho  Ho13  1  0.562942  0.937058  0.562942  1
  Ho  Ho14  1  0.562942  0.937058  0.937058  1
  Ho  Ho15  1  0.310922  0.310922  0.689078  1
  Hg  Hg16  1  0.915711  0.915711  0.252258  1
  Hg  Hg17  1  0.252258  0.916319  0.915711  1
  Hg  Hg18  1  0.915711  0.915711  0.916319  1
  Hg  Hg19  1  0.916319  0.252258  0.915711  1
  Rh  Rh20  1  0.357045  0.357045  0.927983  1
  Rh  Rh21  1  0.357925  0.927983  0.357045  1
  Rh  Rh22  1  0.927983  0.357925  0.357045  1
  Rh  Rh23  1  0.357045  0.357045  0.357925  1
