# generated using pymatgen
data_YbCe5TiNbSb10
_symmetry_space_group_name_H-M   'P 1'
_cell_length_a   9.33035506
_cell_length_b   9.30314933
_cell_length_c   6.23819404
_cell_angle_alpha   90.00660461
_cell_angle_beta   89.98682316
_cell_angle_gamma   120.09678063
_symmetry_Int_Tables_number   1
_chemical_formula_structural   YbCe5TiNbSb10
_chemical_formula_sum   'Yb1 Ce5 Ti1 Nb1 Sb10'
_cell_volume   468.48242263
_cell_formula_units_Z   1
loop_
 _symmetry_equiv_pos_site_id
 _symmetry_equiv_pos_as_xyz
  1  'x, y, z'
loop_
 _atom_site_type_symbol
 _atom_site_label
 _atom_site_symmetry_multiplicity
 _atom_site_fract_x
 _atom_site_fract_y
 _atom_site_fract_z
 _atom_site_occupancy
  Yb  Yb0  1  0.617353  0.000000  0.250201  1
  Ce  Ce1  1  0.387155  0.000000  0.749110  1
  Ce  Ce2  1  0.000769  0.617076  0.250089  1
  Ce  Ce3  1  0.997504  0.379721  0.749686  1
  Ce  Ce4  1  0.383692  0.382924  0.250089  1
  Ce  Ce5  1  0.617782  0.620279  0.749686  1
  Ti  Ti6  1  0.998008  0.000000  0.005995  1
  Nb  Nb7  1  0.998254  0.000000  0.494530  1
  Sb  Sb8  1  0.261223  0.000000  0.248122  1
  Sb  Sb9  1  0.742084  0.000000  0.752296  1
  Sb  Sb10  1  0.000659  0.261537  0.248003  1
  Sb  Sb11  1  0.001256  0.742572  0.752290  1
  Sb  Sb12  1  0.739122  0.738463  0.248003  1
  Sb  Sb13  1  0.258684  0.257428  0.752290  1
  Sb  Sb14  1  0.331715  0.665437  0.000190  1
  Sb  Sb15  1  0.666279  0.334563  0.000190  1
  Sb  Sb16  1  0.666457  0.334451  0.499615  1
  Sb  Sb17  1  0.332005  0.665549  0.499615  1
