# generated using pymatgen
data_Ba4TbSbO8
_symmetry_space_group_name_H-M   'P 1'
_cell_length_a   7.47602395
_cell_length_b   7.47602341
_cell_length_c   6.03960700
_cell_angle_alpha   90.00000000
_cell_angle_beta   90.00000000
_cell_angle_gamma   132.53411448
_symmetry_Int_Tables_number   1
_chemical_formula_structural   Ba4TbSbO8
_chemical_formula_sum   'Ba4 Tb1 Sb1 O8'
_cell_volume   248.73895839
_cell_formula_units_Z   1
loop_
 _symmetry_equiv_pos_site_id
 _symmetry_equiv_pos_as_xyz
  1  'x, y, z'
loop_
 _atom_site_type_symbol
 _atom_site_label
 _atom_site_symmetry_multiplicity
 _atom_site_fract_x
 _atom_site_fract_y
 _atom_site_fract_z
 _atom_site_occupancy
  Ba  Ba0  1  0.352676  0.647324  0.000000  1
  Ba  Ba1  1  0.852543  0.147457  0.500000  1
  Ba  Ba2  1  0.147457  0.852543  0.500000  1
  Ba  Ba3  1  0.647324  0.352676  0.000000  1
  Tb  Tb4  1  0.000000  0.000000  0.000000  1
  Sb  Sb5  1  0.500000  0.500000  0.500000  1
  O  O6  1  0.261679  0.261679  0.733560  1
  O  O7  1  0.738321  0.738321  0.266440  1
  O  O8  1  0.738321  0.738321  0.733560  1
  O  O9  1  0.261679  0.261679  0.266440  1
  O  O10  1  0.166303  0.833697  0.000000  1
  O  O11  1  0.650673  0.349327  0.500000  1
  O  O12  1  0.349327  0.650673  0.500000  1
  O  O13  1  0.833697  0.166303  0.000000  1
