# generated using pymatgen
data_Ho2(Al3Rh)3
_symmetry_space_group_name_H-M   'P 1'
_cell_length_a   7.53583977
_cell_length_b   7.53584002
_cell_length_c   9.45837400
_cell_angle_alpha   90.00000000
_cell_angle_beta   90.00000000
_cell_angle_gamma   119.40009413
_symmetry_Int_Tables_number   1
_chemical_formula_structural   Ho2(Al3Rh)3
_chemical_formula_sum   'Ho4 Al18 Rh6'
_cell_volume   467.95507135
_cell_formula_units_Z   2
loop_
 _symmetry_equiv_pos_site_id
 _symmetry_equiv_pos_as_xyz
  1  'x, y, z'
loop_
 _atom_site_type_symbol
 _atom_site_label
 _atom_site_symmetry_multiplicity
 _atom_site_fract_x
 _atom_site_fract_y
 _atom_site_fract_z
 _atom_site_occupancy
  Ho  Ho0  1  0.994272  0.671743  0.250000  1
  Ho  Ho1  1  0.005728  0.328257  0.750000  1
  Ho  Ho2  1  0.671743  0.994272  0.250000  1
  Ho  Ho3  1  0.328257  0.005728  0.750000  1
  Al  Al4  1  0.128401  0.128401  0.250000  1
  Al  Al5  1  0.871599  0.871599  0.750000  1
  Al  Al6  1  0.000830  0.335496  0.074478  1
  Al  Al7  1  0.999170  0.664504  0.925522  1
  Al  Al8  1  0.999170  0.664504  0.574478  1
  Al  Al9  1  0.335496  0.000830  0.425522  1
  Al  Al10  1  0.000830  0.335496  0.425522  1
  Al  Al11  1  0.664504  0.999170  0.574478  1
  Al  Al12  1  0.664504  0.999170  0.925522  1
  Al  Al13  1  0.335496  0.000830  0.074478  1
  Al  Al14  1  0.333105  0.333105  0.549706  1
  Al  Al15  1  0.666895  0.666895  0.450294  1
  Al  Al16  1  0.666895  0.666895  0.049706  1
  Al  Al17  1  0.333105  0.333105  0.950294  1
  Al  Al18  1  0.339569  0.549744  0.250000  1
  Al  Al19  1  0.660431  0.450256  0.750000  1
  Al  Al20  1  0.549744  0.339569  0.250000  1
  Al  Al21  1  0.450256  0.660431  0.750000  1
  Rh  Rh22  1  0.672110  0.327890  0.000000  1
  Rh  Rh23  1  0.327890  0.672110  0.000000  1
  Rh  Rh24  1  0.327890  0.672110  0.500000  1
  Rh  Rh25  1  0.672110  0.327890  0.500000  1
  Rh  Rh26  1  0.000000  0.000000  0.000000  1
  Rh  Rh27  1  0.000000  0.000000  0.500000  1
