# generated using pymatgen
data_Er4Al5Re2Mo
_symmetry_space_group_name_H-M   'P 1'
_cell_length_a   5.55507900
_cell_length_b   5.52695981
_cell_length_c   8.78458100
_cell_angle_alpha   90.00000000
_cell_angle_beta   90.00000000
_cell_angle_gamma   120.16843503
_symmetry_Int_Tables_number   1
_chemical_formula_structural   Er4Al5Re2Mo
_chemical_formula_sum   'Er4 Al5 Re2 Mo1'
_cell_volume   233.17855806
_cell_formula_units_Z   1
loop_
 _symmetry_equiv_pos_site_id
 _symmetry_equiv_pos_as_xyz
  1  'x, y, z'
loop_
 _atom_site_type_symbol
 _atom_site_label
 _atom_site_symmetry_multiplicity
 _atom_site_fract_x
 _atom_site_fract_y
 _atom_site_fract_z
 _atom_site_occupancy
  Er  Er0  1  0.667563  0.335126  0.052734  1
  Er  Er1  1  0.667563  0.335126  0.447266  1
  Er  Er2  1  0.333214  0.666427  0.555911  1
  Er  Er3  1  0.333214  0.666427  0.944089  1
  Al  Al4  1  0.151467  0.812466  0.250000  1
  Al  Al5  1  0.660999  0.812466  0.250000  1
  Al  Al6  1  0.327037  0.165692  0.750000  1
  Al  Al7  1  0.838654  0.165692  0.750000  1
  Al  Al8  1  0.839053  0.678105  0.750000  1
  Re  Re9  1  0.011181  0.022363  0.008384  1
  Re  Re10  1  0.011181  0.022363  0.491615  1
  Mo  Mo11  1  0.158875  0.317752  0.250000  1
