# generated using pymatgen
data_Y5Lu5(In2Pb)2
_symmetry_space_group_name_H-M   'P 1'
_cell_length_a   6.54121449
_cell_length_b   8.99244117
_cell_length_c   8.98676035
_cell_angle_alpha   120.36889448
_cell_angle_beta   90.00460737
_cell_angle_gamma   89.99938715
_symmetry_Int_Tables_number   1
_chemical_formula_structural   Y5Lu5(In2Pb)2
_chemical_formula_sum   'Y5 Lu5 In4 Pb2'
_cell_volume   456.08247361
_cell_formula_units_Z   1
loop_
 _symmetry_equiv_pos_site_id
 _symmetry_equiv_pos_as_xyz
  1  'x, y, z'
loop_
 _atom_site_type_symbol
 _atom_site_label
 _atom_site_symmetry_multiplicity
 _atom_site_fract_x
 _atom_site_fract_y
 _atom_site_fract_z
 _atom_site_occupancy
  Y  Y0  1  0.750073  0.235986  0.999556  1
  Y  Y1  1  0.750051  0.766217  0.761632  1
  Y  Y2  1  0.750030  0.003539  0.242150  1
  Y  Y3  1  0.249919  0.763430  0.999856  1
  Y  Y4  1  0.249915  0.234876  0.238553  1
  Lu  Lu5  1  0.500035  0.331422  0.662143  1
  Lu  Lu6  1  0.499571  0.668775  0.337930  1
  Lu  Lu7  1  0.000442  0.668255  0.337314  1
  Lu  Lu8  1  0.000003  0.331872  0.662645  1
  Lu  Lu9  1  0.249954  0.995574  0.758947  1
  In  In10  1  0.750005  0.405111  0.402844  1
  In  In11  1  0.750601  0.001462  0.597210  1
  In  In12  1  0.249729  0.597252  0.597743  1
  In  In13  1  0.249675  0.999046  0.403917  1
  Pb  Pb14  1  0.749756  0.603927  0.999211  1
  Pb  Pb15  1  0.250243  0.393261  0.998349  1
