# generated using pymatgen
data_TaSbF10
_symmetry_space_group_name_H-M   'P 1'
_cell_length_a   5.75667486
_cell_length_b   7.51334408
_cell_length_c   9.85366258
_cell_angle_alpha   87.83946826
_cell_angle_beta   106.27249825
_cell_angle_gamma   99.37368800
_symmetry_Int_Tables_number   1
_chemical_formula_structural   TaSbF10
_chemical_formula_sum   'Ta2 Sb2 F20'
_cell_volume   403.63914806
_cell_formula_units_Z   2
loop_
 _symmetry_equiv_pos_site_id
 _symmetry_equiv_pos_as_xyz
  1  'x, y, z'
loop_
 _atom_site_type_symbol
 _atom_site_label
 _atom_site_symmetry_multiplicity
 _atom_site_fract_x
 _atom_site_fract_y
 _atom_site_fract_z
 _atom_site_occupancy
  Ta  Ta0  1  0.339196  0.381657  0.221397  1
  Ta  Ta1  1  0.660804  0.618343  0.778603  1
  Sb  Sb2  1  0.965294  0.767510  0.314809  1
  Sb  Sb3  1  0.034706  0.232490  0.685191  1
  F  F4  1  0.028479  0.248387  0.167943  1
  F  F5  1  0.971521  0.751613  0.832057  1
  F  F6  1  0.494780  0.220657  0.157438  1
  F  F7  1  0.505220  0.779343  0.842562  1
  F  F8  1  0.114880  0.225901  0.884861  1
  F  F9  1  0.885120  0.774099  0.115139  1
  F  F10  1  0.960033  0.288524  0.491071  1
  F  F11  1  0.039967  0.711476  0.508929  1
  F  F12  1  0.758175  0.051306  0.663126  1
  F  F13  1  0.241825  0.948694  0.336874  1
  F  F14  1  0.260540  0.082075  0.674502  1
  F  F15  1  0.739460  0.917925  0.325498  1
  F  F16  1  0.307915  0.446986  0.711744  1
  F  F17  1  0.692085  0.553014  0.288256  1
  F  F18  1  0.827402  0.420059  0.699311  1
  F  F19  1  0.172598  0.579941  0.300689  1
  F  F20  1  0.692155  0.451097  0.926832  1
  F  F21  1  0.307845  0.548903  0.073168  1
  F  F22  1  0.571840  0.668789  0.585212  1
  F  F23  1  0.428160  0.331211  0.414788  1
