# generated using pymatgen
data_Ho11Lu(Si3Ir)4
_symmetry_space_group_name_H-M   'P 1'
_cell_length_a   4.22206500
_cell_length_b   10.59443655
_cell_length_c   12.22816607
_cell_angle_alpha   89.91781017
_cell_angle_beta   90.00000000
_cell_angle_gamma   90.00000000
_symmetry_Int_Tables_number   1
_chemical_formula_structural   Ho11Lu(Si3Ir)4
_chemical_formula_sum   'Ho11 Lu1 Si12 Ir4'
_cell_volume   546.97019390
_cell_formula_units_Z   1
loop_
 _symmetry_equiv_pos_site_id
 _symmetry_equiv_pos_as_xyz
  1  'x, y, z'
loop_
 _atom_site_type_symbol
 _atom_site_label
 _atom_site_symmetry_multiplicity
 _atom_site_fract_x
 _atom_site_fract_y
 _atom_site_fract_z
 _atom_site_occupancy
  Ho  Ho0  1  0.250000  0.880436  0.019737  1
  Ho  Ho1  1  0.250000  0.619704  0.520001  1
  Ho  Ho2  1  0.750000  0.120128  0.978933  1
  Ho  Ho3  1  0.750000  0.378672  0.480748  1
  Ho  Ho4  1  0.250000  0.919422  0.603408  1
  Ho  Ho5  1  0.250000  0.581101  0.103341  1
  Ho  Ho6  1  0.750000  0.080767  0.397756  1
  Ho  Ho7  1  0.750000  0.418596  0.896097  1
  Ho  Ho8  1  0.250000  0.658812  0.800724  1
  Ho  Ho9  1  0.250000  0.841849  0.300806  1
  Ho  Ho10  1  0.750000  0.340346  0.199324  1
  Lu  Lu11  1  0.750000  0.159179  0.700332  1
  Si  Si12  1  0.250000  0.011766  0.820255  1
  Si  Si13  1  0.250000  0.488831  0.321368  1
  Si  Si14  1  0.750000  0.990270  0.178982  1
  Si  Si15  1  0.750000  0.510967  0.678547  1
  Si  Si16  1  0.250000  0.246388  0.840166  1
  Si  Si17  1  0.250000  0.252722  0.341737  1
  Si  Si18  1  0.750000  0.753816  0.159199  1
  Si  Si19  1  0.750000  0.746484  0.658868  1
  Si  Si20  1  0.250000  0.198914  0.545983  1
  Si  Si21  1  0.250000  0.299585  0.043195  1
  Si  Si22  1  0.750000  0.799333  0.456466  1
  Si  Si23  1  0.750000  0.700912  0.955972  1
  Ir  Ir24  1  0.250000  0.388702  0.680364  1
  Ir  Ir25  1  0.250000  0.110587  0.180595  1
  Ir  Ir26  1  0.750000  0.610342  0.319533  1
  Ir  Ir27  1  0.750000  0.891367  0.817563  1
