# generated using pymatgen
data_Hf3Al2AsRu6
_symmetry_space_group_name_H-M   'P 1'
_cell_length_a   4.44878200
_cell_length_b   6.26121000
_cell_length_c   13.25493200
_cell_angle_alpha   90.00000000
_cell_angle_beta   89.99996974
_cell_angle_gamma   90.00000000
_symmetry_Int_Tables_number   1
_chemical_formula_structural   Hf3Al2AsRu6
_chemical_formula_sum   'Hf6 Al4 As2 Ru12'
_cell_volume   369.21292776
_cell_formula_units_Z   2
loop_
 _symmetry_equiv_pos_site_id
 _symmetry_equiv_pos_as_xyz
  1  'x, y, z'
loop_
 _atom_site_type_symbol
 _atom_site_label
 _atom_site_symmetry_multiplicity
 _atom_site_fract_x
 _atom_site_fract_y
 _atom_site_fract_z
 _atom_site_occupancy
  Hf  Hf0  1  0.000017  0.000000  0.998134  1
  Hf  Hf1  1  0.499911  0.500000  0.168622  1
  Hf  Hf2  1  0.999911  0.000000  0.336248  1
  Hf  Hf3  1  0.499999  0.500000  0.501060  1
  Hf  Hf4  1  0.000079  0.000000  0.665571  1
  Hf  Hf5  1  0.500087  0.500000  0.830398  1
  Al  Al6  1  0.999916  0.500000  0.334651  1
  Al  Al7  1  0.500000  0.000000  0.500036  1
  Al  Al8  1  0.000092  0.500000  0.666657  1
  Al  Al9  1  0.500089  0.000000  0.831873  1
  As  As10  1  0.000010  0.500000  0.997144  1
  As  As11  1  0.499917  0.000000  0.169469  1
  Ru  Ru12  1  0.500012  0.248885  0.001469  1
  Ru  Ru13  1  0.500012  0.751116  0.001469  1
  Ru  Ru14  1  0.999917  0.251125  0.165267  1
  Ru  Ru15  1  0.999917  0.748876  0.165267  1
  Ru  Ru16  1  0.499903  0.249212  0.331420  1
  Ru  Ru17  1  0.499903  0.750789  0.331420  1
  Ru  Ru18  1  0.000002  0.251690  0.499266  1
  Ru  Ru19  1  0.000002  0.748310  0.499266  1
  Ru  Ru20  1  0.500086  0.248397  0.667367  1
  Ru  Ru21  1  0.500086  0.751604  0.667367  1
  Ru  Ru22  1  0.000067  0.250727  0.835279  1
  Ru  Ru23  1  0.000067  0.749274  0.835279  1
