# generated using pymatgen
data_Sc12Os2PbBr16
_symmetry_space_group_name_H-M   'P 1'
_cell_length_a   9.24099512
_cell_length_b   11.30080508
_cell_length_c   11.97078907
_cell_angle_alpha   116.96459199
_cell_angle_beta   102.02141968
_cell_angle_gamma   101.41909932
_symmetry_Int_Tables_number   1
_chemical_formula_structural   Sc12Os2PbBr16
_chemical_formula_sum   'Sc12 Os2 Pb1 Br16'
_cell_volume   1026.63474001
_cell_formula_units_Z   1
loop_
 _symmetry_equiv_pos_site_id
 _symmetry_equiv_pos_as_xyz
  1  'x, y, z'
loop_
 _atom_site_type_symbol
 _atom_site_label
 _atom_site_symmetry_multiplicity
 _atom_site_fract_x
 _atom_site_fract_y
 _atom_site_fract_z
 _atom_site_occupancy
  Sc  Sc0  1  0.102266  0.249947  0.346295  1
  Sc  Sc1  1  0.897743  0.750043  0.653695  1
  Sc  Sc2  1  0.753545  0.539124  0.315242  1
  Sc  Sc3  1  0.246444  0.460886  0.684741  1
  Sc  Sc4  1  0.307799  0.751223  0.653755  1
  Sc  Sc5  1  0.692215  0.248787  0.346252  1
  Sc  Sc6  1  0.162626  0.538135  0.316103  1
  Sc  Sc7  1  0.837378  0.461854  0.683903  1
  Sc  Sc8  1  0.403742  0.355654  0.269818  1
  Sc  Sc9  1  0.596267  0.644359  0.730185  1
  Sc  Sc10  1  0.457423  0.302779  0.520881  1
  Sc  Sc11  1  0.542570  0.697218  0.479127  1
  Os  Os12  1  0.343227  0.499986  0.499257  1
  Os  Os13  1  0.656768  0.500011  0.500742  1
  Pb  Pb14  1  0.000030  0.500004  0.500006  1
  Br  Br15  1  0.397402  0.741283  0.882923  1
  Br  Br16  1  0.602593  0.258713  0.117077  1
  Br  Br17  1  0.183964  0.952537  0.776022  1
  Br  Br18  1  0.816015  0.047461  0.223975  1
  Br  Br19  1  0.338531  0.092353  0.249692  1
  Br  Br20  1  0.661480  0.907656  0.750312  1
  Br  Br21  1  0.554661  0.437556  0.800117  1
  Br  Br22  1  0.445315  0.562451  0.199885  1
  Br  Br23  1  0.309417  0.827335  0.462890  1
  Br  Br24  1  0.690567  0.172646  0.537097  1
  Br  Br25  1  0.167097  0.170642  0.532186  1
  Br  Br26  1  0.832904  0.829353  0.467822  1
  Br  Br27  1  0.927569  0.572949  0.169734  1
  Br  Br28  1  0.072444  0.427045  0.830268  1
  Br  Br29  1  0.922478  0.739981  0.883820  1
  Br  Br30  1  0.077519  0.260031  0.116177  1
