# generated using pymatgen
data_Yb(BrO3)2
_symmetry_space_group_name_H-M   'P 1'
_cell_length_a   6.92636543
_cell_length_b   6.92636423
_cell_length_c   7.12107538
_cell_angle_alpha   75.11512180
_cell_angle_beta   75.11513095
_cell_angle_gamma   116.57829639
_symmetry_Int_Tables_number   1
_chemical_formula_structural   Yb(BrO3)2
_chemical_formula_sum   'Yb2 Br4 O12'
_cell_volume   266.55822985
_cell_formula_units_Z   2
loop_
 _symmetry_equiv_pos_site_id
 _symmetry_equiv_pos_as_xyz
  1  'x, y, z'
loop_
 _atom_site_type_symbol
 _atom_site_label
 _atom_site_symmetry_multiplicity
 _atom_site_fract_x
 _atom_site_fract_y
 _atom_site_fract_z
 _atom_site_occupancy
  Yb  Yb0  1  0.626267  0.383601  0.989919  1
  Yb  Yb1  1  0.383601  0.626267  0.489919  1
  Br  Br2  1  0.398545  0.772015  0.957072  1
  Br  Br3  1  0.772015  0.398545  0.457072  1
  Br  Br4  1  0.972247  0.105426  0.025902  1
  Br  Br5  1  0.105426  0.972247  0.525902  1
  O  O6  1  0.476197  0.627877  0.123234  1
  O  O7  1  0.627877  0.476197  0.623234  1
  O  O8  1  0.765985  0.526324  0.226656  1
  O  O9  1  0.526324  0.765985  0.726656  1
  O  O10  1  0.580054  0.058912  0.908089  1
  O  O11  1  0.058912  0.580054  0.408089  1
  O  O12  1  0.021692  0.377319  0.893551  1
  O  O13  1  0.377319  0.021692  0.393551  1
  O  O14  1  0.999929  0.761385  0.773369  1
  O  O15  1  0.761385  0.999929  0.273369  1
  O  O16  1  0.217438  0.171386  0.068508  1
  O  O17  1  0.171386  0.217438  0.568508  1
