# generated using pymatgen
data_TaTi2Cr3AsP2
_symmetry_space_group_name_H-M   'P 1'
_cell_length_a   6.51161573
_cell_length_b   6.50637165
_cell_length_c   3.28612800
_cell_angle_alpha   90.00000000
_cell_angle_beta   90.00000000
_cell_angle_gamma   119.87491901
_symmetry_Int_Tables_number   1
_chemical_formula_structural   TaTi2Cr3AsP2
_chemical_formula_sum   'Ta1 Ti2 Cr3 As1 P2'
_cell_volume   120.72264558
_cell_formula_units_Z   1
loop_
 _symmetry_equiv_pos_site_id
 _symmetry_equiv_pos_as_xyz
  1  'x, y, z'
loop_
 _atom_site_type_symbol
 _atom_site_label
 _atom_site_symmetry_multiplicity
 _atom_site_fract_x
 _atom_site_fract_y
 _atom_site_fract_z
 _atom_site_occupancy
  Ta  Ta0  1  0.392470  0.407918  0.500000  1
  Ti  Ti1  1  0.592233  0.984066  0.500000  1
  Ti  Ti2  1  0.014232  0.606822  0.500000  1
  Cr  Cr3  1  0.009200  0.253960  0.000000  1
  Cr  Cr4  1  0.246602  0.994211  0.000000  1
  Cr  Cr5  1  0.744327  0.752294  0.000000  1
  As  As6  1  0.672410  0.331649  0.000000  1
  P  P7  1  0.331662  0.673138  0.000000  1
  P  P8  1  0.996862  0.995944  0.500000  1
