# generated using pymatgen
data_Dy3HoLu4(CoB6)4
_symmetry_space_group_name_H-M   'P 1'
_cell_length_a   3.52964000
_cell_length_b   9.02710501
_cell_length_c   11.39314801
_cell_angle_alpha   90.00408049
_cell_angle_beta   90.00000000
_cell_angle_gamma   90.00000000
_symmetry_Int_Tables_number   1
_chemical_formula_structural   Dy3HoLu4(CoB6)4
_chemical_formula_sum   'Dy3 Ho1 Lu4 Co4 B24'
_cell_volume   363.01339033
_cell_formula_units_Z   1
loop_
 _symmetry_equiv_pos_site_id
 _symmetry_equiv_pos_as_xyz
  1  'x, y, z'
loop_
 _atom_site_type_symbol
 _atom_site_label
 _atom_site_symmetry_multiplicity
 _atom_site_fract_x
 _atom_site_fract_y
 _atom_site_fract_z
 _atom_site_occupancy
  Dy  Dy0  1  0.000000  0.175960  0.914521  1
  Dy  Dy1  1  0.000000  0.324026  0.414503  1
  Dy  Dy2  1  0.000000  0.675956  0.585516  1
  Ho  Ho3  1  0.000000  0.823961  0.085492  1
  Lu  Lu4  1  0.000000  0.443909  0.129209  1
  Lu  Lu5  1  0.000000  0.556234  0.870808  1
  Lu  Lu6  1  0.000000  0.943744  0.370731  1
  Lu  Lu7  1  0.000000  0.056255  0.629219  1
  Co  Co8  1  0.000000  0.140456  0.180502  1
  Co  Co9  1  0.000000  0.859402  0.819563  1
  Co  Co10  1  0.000000  0.640663  0.319348  1
  Co  Co11  1  0.000000  0.359399  0.680574  1
  B  B12  1  0.500000  0.054375  0.067685  1
  B  B13  1  0.500000  0.945284  0.932524  1
  B  B14  1  0.500000  0.554640  0.432285  1
  B  B15  1  0.500000  0.445363  0.567716  1
  B  B16  1  0.500000  0.248708  0.082364  1
  B  B17  1  0.500000  0.751285  0.917923  1
  B  B18  1  0.500000  0.748740  0.417604  1
  B  B19  1  0.500000  0.251203  0.582322  1
  B  B20  1  0.500000  0.292525  0.235292  1
  B  B21  1  0.500000  0.707508  0.764742  1
  B  B22  1  0.500000  0.792629  0.264469  1
  B  B23  1  0.500000  0.207496  0.735301  1
  B  B24  1  0.500000  0.132842  0.315895  1
  B  B25  1  0.500000  0.867128  0.684019  1
  B  B26  1  0.500000  0.633085  0.183925  1
  B  B27  1  0.500000  0.367166  0.815978  1
  B  B28  1  0.500000  0.486083  0.287740  1
  B  B29  1  0.500000  0.513998  0.712277  1
  B  B30  1  0.500000  0.985774  0.212099  1
  B  B31  1  0.500000  0.013934  0.787802  1
  B  B32  1  0.500000  0.104881  0.471700  1
  B  B33  1  0.500000  0.895085  0.528259  1
  B  B34  1  0.500000  0.605245  0.028376  1
  B  B35  1  0.500000  0.395059  0.971718  1
