# generated using pymatgen
data_Dy2CoRuI2
_symmetry_space_group_name_H-M   'P 1'
_cell_length_a   4.10655900
_cell_length_b   4.10655752
_cell_length_c   12.33342400
_cell_angle_alpha   90.00000000
_cell_angle_beta   90.00000000
_cell_angle_gamma   120.00000384
_symmetry_Int_Tables_number   1
_chemical_formula_structural   Dy2CoRuI2
_chemical_formula_sum   'Dy2 Co1 Ru1 I2'
_cell_volume   180.12344907
_cell_formula_units_Z   1
loop_
 _symmetry_equiv_pos_site_id
 _symmetry_equiv_pos_as_xyz
  1  'x, y, z'
loop_
 _atom_site_type_symbol
 _atom_site_label
 _atom_site_symmetry_multiplicity
 _atom_site_fract_x
 _atom_site_fract_y
 _atom_site_fract_z
 _atom_site_occupancy
  Dy  Dy0  1  0.000000  0.000000  0.348911  1
  Dy  Dy1  1  0.000000  0.000000  0.649968  1
  Co  Co2  1  0.666668  0.333333  0.505082  1
  Ru  Ru3  1  0.333333  0.666666  0.496388  1
  I  I4  1  0.666668  0.333333  0.177251  1
  I  I5  1  0.333333  0.666666  0.822402  1
