# generated using pymatgen
data_Na5P12Ir16Ru3
_symmetry_space_group_name_H-M   'P 1'
_cell_length_a   12.53650800
_cell_length_b   12.53650902
_cell_length_c   4.00226000
_cell_angle_alpha   90.00000000
_cell_angle_beta   90.00000000
_cell_angle_gamma   120.00000259
_symmetry_Int_Tables_number   1
_chemical_formula_structural   Na5P12Ir16Ru3
_chemical_formula_sum   'Na5 P12 Ir16 Ru3'
_cell_volume   544.73981413
_cell_formula_units_Z   1
loop_
 _symmetry_equiv_pos_site_id
 _symmetry_equiv_pos_as_xyz
  1  'x, y, z'
loop_
 _atom_site_type_symbol
 _atom_site_label
 _atom_site_symmetry_multiplicity
 _atom_site_fract_x
 _atom_site_fract_y
 _atom_site_fract_z
 _atom_site_occupancy
  Na  Na0  1  0.000000  0.822456  0.500000  1
  Na  Na1  1  0.177544  0.177544  0.500000  1
  Na  Na2  1  0.822456  0.000000  0.500000  1
  Na  Na3  1  0.333333  0.666667  0.000000  1
  Na  Na4  1  0.666667  0.333333  0.000000  1
  P  P5  1  0.000000  0.181480  0.000000  1
  P  P6  1  0.818520  0.818520  0.000000  1
  P  P7  1  0.181480  0.000000  0.000000  1
  P  P8  1  0.516240  0.688859  0.500000  1
  P  P9  1  0.311141  0.827380  0.500000  1
  P  P10  1  0.172620  0.483760  0.500000  1
  P  P11  1  0.483760  0.172620  0.500000  1
  P  P12  1  0.688859  0.516240  0.500000  1
  P  P13  1  0.827380  0.311141  0.500000  1
  P  P14  1  0.000000  0.640015  0.000000  1
  P  P15  1  0.359985  0.359985  0.000000  1
  P  P16  1  0.640015  0.000000  0.000000  1
  Ir  Ir17  1  0.621654  0.803529  0.000000  1
  Ir  Ir18  1  0.196471  0.818126  0.000000  1
  Ir  Ir19  1  0.181874  0.378346  0.000000  1
  Ir  Ir20  1  0.378346  0.181874  0.000000  1
  Ir  Ir21  1  0.803529  0.621654  0.000000  1
  Ir  Ir22  1  0.818126  0.196471  0.000000  1
  Ir  Ir23  1  0.510936  0.871304  0.500000  1
  Ir  Ir24  1  0.128696  0.639632  0.500000  1
  Ir  Ir25  1  0.360368  0.489064  0.500000  1
  Ir  Ir26  1  0.489064  0.360368  0.500000  1
  Ir  Ir27  1  0.871304  0.510936  0.500000  1
  Ir  Ir28  1  0.639632  0.128696  0.500000  1
  Ir  Ir29  1  0.000000  0.000000  0.000000  1
  Ir  Ir30  1  0.000000  0.457474  0.000000  1
  Ir  Ir31  1  0.542526  0.542526  0.000000  1
  Ir  Ir32  1  0.457474  0.000000  0.000000  1
  Ru  Ru33  1  0.000000  0.292172  0.500000  1
  Ru  Ru34  1  0.707828  0.707828  0.500000  1
  Ru  Ru35  1  0.292172  0.000000  0.500000  1
