# generated using pymatgen
data_YHoCo3P4Ru3
_symmetry_space_group_name_H-M   'P 1'
_cell_length_a   3.83524700
_cell_length_b   10.66017568
_cell_length_c   12.50585138
_cell_angle_alpha   89.71083848
_cell_angle_beta   90.00000000
_cell_angle_gamma   90.00000000
_symmetry_Int_Tables_number   1
_chemical_formula_structural   YHoCo3P4Ru3
_chemical_formula_sum   'Y3 Ho3 Co9 P12 Ru9'
_cell_volume   511.28780385
_cell_formula_units_Z   3
loop_
 _symmetry_equiv_pos_site_id
 _symmetry_equiv_pos_as_xyz
  1  'x, y, z'
loop_
 _atom_site_type_symbol
 _atom_site_label
 _atom_site_symmetry_multiplicity
 _atom_site_fract_x
 _atom_site_fract_y
 _atom_site_fract_z
 _atom_site_occupancy
  Y  Y0  1  0.000000  0.500256  0.525456  1
  Y  Y1  1  0.500000  0.000601  0.471782  1
  Y  Y2  1  0.500000  0.820516  0.200718  1
  Ho  Ho3  1  0.500000  0.181099  0.201317  1
  Ho  Ho4  1  0.000000  0.678333  0.799983  1
  Ho  Ho5  1  0.000000  0.321767  0.798882  1
  Co  Co6  1  0.000000  0.498501  0.986095  1
  Co  Co7  1  0.500000  0.000562  0.016252  1
  Co  Co8  1  0.000000  0.374671  0.279826  1
  Co  Co9  1  0.500000  0.331398  0.989756  1
  Co  Co10  1  0.500000  0.665851  0.991255  1
  Co  Co11  1  0.000000  0.168632  0.012520  1
  Co  Co12  1  0.000000  0.832478  0.011004  1
  Co  Co13  1  0.500000  0.500190  0.704051  1
  Co  Co14  1  0.000000  0.001610  0.296346  1
  P  P15  1  0.500000  0.315931  0.616863  1
  P  P16  1  0.500000  0.685911  0.619005  1
  P  P17  1  0.000000  0.189523  0.377396  1
  P  P18  1  0.000000  0.813390  0.380317  1
  P  P19  1  0.500000  0.499401  0.882451  1
  P  P20  1  0.000000  0.000583  0.118864  1
  P  P21  1  0.500000  0.845175  0.901854  1
  P  P22  1  0.500000  0.154571  0.900313  1
  P  P23  1  0.000000  0.653259  0.100063  1
  P  P24  1  0.000000  0.345608  0.104016  1
  P  P25  1  0.500000  0.499587  0.338525  1
  P  P26  1  0.000000  0.000917  0.661852  1
  Ru  Ru27  1  0.500000  0.300785  0.422167  1
  Ru  Ru28  1  0.500000  0.702529  0.427631  1
  Ru  Ru29  1  0.000000  0.204794  0.568795  1
  Ru  Ru30  1  0.000000  0.798320  0.572067  1
  Ru  Ru31  1  0.500000  0.875298  0.719597  1
  Ru  Ru32  1  0.500000  0.126155  0.717569  1
  Ru  Ru33  1  0.000000  0.618417  0.281972  1
  Ru  Ru34  1  0.500000  0.491880  0.149868  1
  Ru  Ru35  1  0.000000  0.001497  0.853568  1
