# generated using pymatgen
data_Er(Ga2Pt)2
_symmetry_space_group_name_H-M   'P 1'
_cell_length_a   4.30396300
_cell_length_b   6.73258868
_cell_length_c   9.02268204
_cell_angle_alpha   71.42529558
_cell_angle_beta   90.00000000
_cell_angle_gamma   90.00000000
_symmetry_Int_Tables_number   1
_chemical_formula_structural   Er(Ga2Pt)2
_chemical_formula_sum   'Er2 Ga8 Pt4'
_cell_volume   247.82948460
_cell_formula_units_Z   2
loop_
 _symmetry_equiv_pos_site_id
 _symmetry_equiv_pos_as_xyz
  1  'x, y, z'
loop_
 _atom_site_type_symbol
 _atom_site_label
 _atom_site_symmetry_multiplicity
 _atom_site_fract_x
 _atom_site_fract_y
 _atom_site_fract_z
 _atom_site_occupancy
  Er  Er0  1  0.750000  0.852183  0.782966  1
  Er  Er1  1  0.250000  0.147817  0.217034  1
  Ga  Ga2  1  0.250000  0.099225  0.878416  1
  Ga  Ga3  1  0.750000  0.900775  0.121584  1
  Ga  Ga4  1  0.250000  0.113674  0.577612  1
  Ga  Ga5  1  0.750000  0.886326  0.422388  1
  Ga  Ga6  1  0.250000  0.528966  0.368302  1
  Ga  Ga7  1  0.750000  0.471034  0.631698  1
  Ga  Ga8  1  0.250000  0.512102  0.868798  1
  Ga  Ga9  1  0.750000  0.487898  0.131202  1
  Pt  Pt10  1  0.250000  0.715696  0.069798  1
  Pt  Pt11  1  0.750000  0.284304  0.930202  1
  Pt  Pt12  1  0.250000  0.725484  0.569923  1
  Pt  Pt13  1  0.750000  0.274516  0.430077  1
