# generated using pymatgen
data_Sc4CoNiRu2
_symmetry_space_group_name_H-M   'P 1'
_cell_length_a   6.33022000
_cell_length_b   4.50196800
_cell_length_c   9.02233100
_cell_angle_alpha   90.00000000
_cell_angle_beta   90.00000000
_cell_angle_gamma   90.00000000
_symmetry_Int_Tables_number   1
_chemical_formula_structural   Sc4CoNiRu2
_chemical_formula_sum   'Sc8 Co2 Ni2 Ru4'
_cell_volume   257.12242970
_cell_formula_units_Z   2
loop_
 _symmetry_equiv_pos_site_id
 _symmetry_equiv_pos_as_xyz
  1  'x, y, z'
loop_
 _atom_site_type_symbol
 _atom_site_label
 _atom_site_symmetry_multiplicity
 _atom_site_fract_x
 _atom_site_fract_y
 _atom_site_fract_z
 _atom_site_occupancy
  Sc  Sc0  1  0.001797  0.749999  0.122384  1
  Sc  Sc1  1  0.498643  0.749999  0.122449  1
  Sc  Sc2  1  0.998645  0.249999  0.377551  1
  Sc  Sc3  1  0.501796  0.249999  0.377616  1
  Sc  Sc4  1  0.501634  0.749999  0.627407  1
  Sc  Sc5  1  0.997922  0.749999  0.627426  1
  Sc  Sc6  1  0.497922  0.249999  0.872574  1
  Sc  Sc7  1  0.001634  0.249999  0.872593  1
  Co  Co8  1  0.749856  0.249999  0.624437  1
  Co  Co9  1  0.249856  0.749999  0.875562  1
  Ni  Ni10  1  0.750125  0.249999  0.125437  1
  Ni  Ni11  1  0.250124  0.749999  0.374563  1
  Ru  Ru12  1  0.250181  0.249999  0.126124  1
  Ru  Ru13  1  0.750180  0.749999  0.373876  1
  Ru  Ru14  1  0.249843  0.249999  0.624155  1
  Ru  Ru15  1  0.749844  0.749999  0.875845  1
