# generated using pymatgen
data_Tm10AlIn3Bi4
_symmetry_space_group_name_H-M   'P 1'
_cell_length_a   8.79989106
_cell_length_b   8.79989127
_cell_length_c   8.07870600
_cell_angle_alpha   89.81461950
_cell_angle_beta   89.81461298
_cell_angle_gamma   125.43983501
_symmetry_Int_Tables_number   1
_chemical_formula_structural   Tm10AlIn3Bi4
_chemical_formula_sum   'Tm10 Al1 In3 Bi4'
_cell_volume   509.67877503
_cell_formula_units_Z   1
loop_
 _symmetry_equiv_pos_site_id
 _symmetry_equiv_pos_as_xyz
  1  'x, y, z'
loop_
 _atom_site_type_symbol
 _atom_site_label
 _atom_site_symmetry_multiplicity
 _atom_site_fract_x
 _atom_site_fract_y
 _atom_site_fract_z
 _atom_site_occupancy
  Tm  Tm0  1  0.535860  0.799396  0.163024  1
  Tm  Tm1  1  0.300820  0.037822  0.332202  1
  Tm  Tm2  1  0.205851  0.468677  0.833170  1
  Tm  Tm3  1  0.956137  0.696400  0.671872  1
  Tm  Tm4  1  0.696400  0.956137  0.671872  1
  Tm  Tm5  1  0.468677  0.205851  0.833170  1
  Tm  Tm6  1  0.799396  0.535860  0.163024  1
  Tm  Tm7  1  0.037822  0.300820  0.332202  1
  Tm  Tm8  1  0.502110  0.502110  0.505044  1
  Tm  Tm9  1  0.994862  0.994862  0.998114  1
  Al  Al10  1  0.627481  0.627481  0.873391  1
  In  In11  1  0.132082  0.132082  0.630936  1
  In  In12  1  0.868288  0.868288  0.368358  1
  In  In13  1  0.372478  0.372478  0.127093  1
  Bi  Bi14  1  0.292133  0.706053  0.499193  1
  Bi  Bi15  1  0.207729  0.795821  0.999071  1
  Bi  Bi16  1  0.706053  0.292133  0.499193  1
  Bi  Bi17  1  0.795821  0.207729  0.999071  1
