# generated using pymatgen
data_Hf6Sn6Rh5Au
_symmetry_space_group_name_H-M   'P 1'
_cell_length_a   7.33903500
_cell_length_b   7.33903497
_cell_length_c   7.45866900
_cell_angle_alpha   90.00000000
_cell_angle_beta   90.00000000
_cell_angle_gamma   119.99999564
_symmetry_Int_Tables_number   1
_chemical_formula_structural   Hf6Sn6Rh5Au
_chemical_formula_sum   'Hf6 Sn6 Rh5 Au1'
_cell_volume   347.91239462
_cell_formula_units_Z   1
loop_
 _symmetry_equiv_pos_site_id
 _symmetry_equiv_pos_as_xyz
  1  'x, y, z'
loop_
 _atom_site_type_symbol
 _atom_site_label
 _atom_site_symmetry_multiplicity
 _atom_site_fract_x
 _atom_site_fract_y
 _atom_site_fract_z
 _atom_site_occupancy
  Hf  Hf0  1  0.012513  0.402222  0.756832  1
  Hf  Hf1  1  0.597778  0.610291  0.756832  1
  Hf  Hf2  1  0.389709  0.987487  0.756832  1
  Hf  Hf3  1  0.964332  0.379609  0.243630  1
  Hf  Hf4  1  0.620391  0.584722  0.243630  1
  Hf  Hf5  1  0.415278  0.035668  0.243630  1
  Sn  Sn6  1  0.267654  0.263485  0.504548  1
  Sn  Sn7  1  0.995830  0.732346  0.504548  1
  Sn  Sn8  1  0.004765  0.734134  0.002532  1
  Sn  Sn9  1  0.736515  0.004170  0.504548  1
  Sn  Sn10  1  0.729369  0.995235  0.002532  1
  Sn  Sn11  1  0.265866  0.270631  0.002532  1
  Rh  Rh12  1  0.666667  0.333333  0.533697  1
  Rh  Rh13  1  0.333333  0.666667  0.035010  1
  Rh  Rh14  1  0.000000  0.000000  0.754187  1
  Rh  Rh15  1  0.000000  0.000000  0.252932  1
  Rh  Rh16  1  0.666667  0.333333  0.956141  1
  Au  Au17  1  0.333333  0.666667  0.445405  1
