# generated using pymatgen
data_Be15Nb6Co3Cu5
_symmetry_space_group_name_H-M   'P 1'
_cell_length_a   7.63717179
_cell_length_b   7.63717221
_cell_length_c   7.64263428
_cell_angle_alpha   59.86617028
_cell_angle_beta   59.86616486
_cell_angle_gamma   59.73110038
_symmetry_Int_Tables_number   1
_chemical_formula_structural   Be15Nb6Co3Cu5
_chemical_formula_sum   'Be15 Nb6 Co3 Cu5'
_cell_volume   313.92430816
_cell_formula_units_Z   1
loop_
 _symmetry_equiv_pos_site_id
 _symmetry_equiv_pos_as_xyz
  1  'x, y, z'
loop_
 _atom_site_type_symbol
 _atom_site_label
 _atom_site_symmetry_multiplicity
 _atom_site_fract_x
 _atom_site_fract_y
 _atom_site_fract_z
 _atom_site_occupancy
  Be  Be0  1  0.325264  0.325264  0.331608  1
  Be  Be1  1  0.672659  0.672659  0.672334  1
  Be  Be2  1  0.324263  0.324263  0.019312  1
  Be  Be3  1  0.319340  0.025929  0.327473  1
  Be  Be4  1  0.677186  0.677186  0.974484  1
  Be  Be5  1  0.677613  0.976892  0.676542  1
  Be  Be6  1  0.025929  0.319340  0.327473  1
  Be  Be7  1  0.976892  0.677613  0.676542  1
  Be  Be8  1  0.499796  0.001113  0.999164  1
  Be  Be9  1  0.000602  0.496700  0.501464  1
  Be  Be10  1  0.001113  0.499796  0.999164  1
  Be  Be11  1  0.496700  0.000602  0.501464  1
  Be  Be12  1  0.001106  0.001106  0.501163  1
  Be  Be13  1  0.498911  0.498911  0.001672  1
  Be  Be14  1  0.001168  0.001168  0.995948  1
  Nb  Nb15  1  0.705559  0.303194  0.301669  1
  Nb  Nb16  1  0.288772  0.711676  0.694723  1
  Nb  Nb17  1  0.303194  0.705559  0.301669  1
  Nb  Nb18  1  0.711676  0.288772  0.694723  1
  Nb  Nb19  1  0.296317  0.296317  0.703703  1
  Nb  Nb20  1  0.697674  0.697674  0.293816  1
  Co  Co21  1  0.122559  0.122559  0.121761  1
  Co  Co22  1  0.876960  0.876960  0.879409  1
  Co  Co23  1  0.123008  0.123008  0.633927  1
  Cu  Cu24  1  0.122751  0.631555  0.123267  1
  Cu  Cu25  1  0.877183  0.877183  0.366515  1
  Cu  Cu26  1  0.875986  0.368266  0.877873  1
  Cu  Cu27  1  0.631555  0.122751  0.123267  1
  Cu  Cu28  1  0.368266  0.875986  0.877873  1
