# generated using pymatgen
data_Sm2AlCo6SiB2
_symmetry_space_group_name_H-M   'P 1'
_cell_length_a   5.21006903
_cell_length_b   5.20329914
_cell_length_c   6.53556000
_cell_angle_alpha   90.00000000
_cell_angle_beta   90.00000000
_cell_angle_gamma   120.06054839
_symmetry_Int_Tables_number   1
_chemical_formula_structural   Sm2AlCo6SiB2
_chemical_formula_sum   'Sm2 Al1 Co6 Si1 B2'
_cell_volume   153.34527956
_cell_formula_units_Z   1
loop_
 _symmetry_equiv_pos_site_id
 _symmetry_equiv_pos_as_xyz
  1  'x, y, z'
loop_
 _atom_site_type_symbol
 _atom_site_label
 _atom_site_symmetry_multiplicity
 _atom_site_fract_x
 _atom_site_fract_y
 _atom_site_fract_z
 _atom_site_occupancy
  Sm  Sm0  1  0.999973  0.999991  0.000000  1
  Sm  Sm1  1  0.999984  0.999989  0.500000  1
  Al  Al2  1  0.666458  0.332840  0.000000  1
  Co  Co3  1  0.498094  0.996217  0.289689  1
  Co  Co4  1  0.498063  0.501927  0.289696  1
  Co  Co5  1  0.003822  0.501921  0.289690  1
  Co  Co6  1  0.498094  0.996217  0.710311  1
  Co  Co7  1  0.498063  0.501927  0.710303  1
  Co  Co8  1  0.003822  0.501921  0.710309  1
  Si  Si9  1  0.333448  0.667029  0.000000  1
  B  B10  1  0.333406  0.666893  0.500000  1
  B  B11  1  0.666572  0.333128  0.500000  1
