# generated using pymatgen
data_Y12Th4Cd4IrRu3
_symmetry_space_group_name_H-M   'P 1'
_cell_length_a   9.74281361
_cell_length_b   9.74820862
_cell_length_c   9.74821000
_cell_angle_alpha   60.00000211
_cell_angle_beta   59.98168275
_cell_angle_gamma   59.98167803
_symmetry_Int_Tables_number   1
_chemical_formula_structural   Y12Th4Cd4IrRu3
_chemical_formula_sum   'Y12 Th4 Cd4 Ir1 Ru3'
_cell_volume   654.48362102
_cell_formula_units_Z   1
loop_
 _symmetry_equiv_pos_site_id
 _symmetry_equiv_pos_as_xyz
  1  'x, y, z'
loop_
 _atom_site_type_symbol
 _atom_site_label
 _atom_site_symmetry_multiplicity
 _atom_site_fract_x
 _atom_site_fract_y
 _atom_site_fract_z
 _atom_site_occupancy
  Y  Y0  1  0.812900  0.188656  0.188656  1
  Y  Y1  1  0.188092  0.811989  0.811989  1
  Y  Y2  1  0.188092  0.811989  0.187929  1
  Y  Y3  1  0.812900  0.188656  0.809789  1
  Y  Y4  1  0.188092  0.187929  0.811989  1
  Y  Y5  1  0.812900  0.809789  0.188656  1
  Y  Y6  1  0.935213  0.564131  0.564131  1
  Y  Y7  1  0.562479  0.936651  0.936651  1
  Y  Y8  1  0.562479  0.936651  0.564218  1
  Y  Y9  1  0.935213  0.564131  0.936525  1
  Y  Y10  1  0.562479  0.564218  0.936651  1
  Y  Y11  1  0.935213  0.936525  0.564131  1
  Th  Th12  1  0.345507  0.349660  0.349660  1
  Th  Th13  1  0.345507  0.349660  0.955173  1
  Th  Th14  1  0.345507  0.955173  0.349660  1
  Th  Th15  1  0.957833  0.347389  0.347389  1
  Cd  Cd16  1  0.581320  0.581587  0.581587  1
  Cd  Cd17  1  0.581320  0.581587  0.255506  1
  Cd  Cd18  1  0.581320  0.255506  0.581587  1
  Cd  Cd19  1  0.254939  0.581687  0.581687  1
  Ir  Ir20  1  0.571815  0.142728  0.142728  1
  Ru  Ru21  1  0.146293  0.144192  0.144192  1
  Ru  Ru22  1  0.146293  0.144192  0.565322  1
  Ru  Ru23  1  0.146293  0.565322  0.144192  1
