# generated using pymatgen
data_Dy2Tm3Sn3Sb
_symmetry_space_group_name_H-M   'P 1'
_cell_length_a   8.05633500
_cell_length_b   8.06615700
_cell_length_c   15.20383100
_cell_angle_alpha   90.00000000
_cell_angle_beta   90.00000000
_cell_angle_gamma   90.00000000
_symmetry_Int_Tables_number   1
_chemical_formula_structural   Dy2Tm3Sn3Sb
_chemical_formula_sum   'Dy8 Tm12 Sn12 Sb4'
_cell_volume   988.00062932
_cell_formula_units_Z   4
loop_
 _symmetry_equiv_pos_site_id
 _symmetry_equiv_pos_as_xyz
  1  'x, y, z'
loop_
 _atom_site_type_symbol
 _atom_site_label
 _atom_site_symmetry_multiplicity
 _atom_site_fract_x
 _atom_site_fract_y
 _atom_site_fract_z
 _atom_site_occupancy
  Dy  Dy0  1  0.530026  0.323441  0.900275  1
  Dy  Dy1  1  0.030026  0.176559  0.599725  1
  Dy  Dy2  1  0.469974  0.676559  0.400275  1
  Dy  Dy3  1  0.969974  0.823441  0.099725  1
  Dy  Dy4  1  0.477227  0.677610  0.098593  1
  Dy  Dy5  1  0.977227  0.822390  0.401407  1
  Dy  Dy6  1  0.522773  0.322390  0.598593  1
  Dy  Dy7  1  0.022773  0.177610  0.901407  1
  Tm  Tm8  1  0.370263  0.838824  0.876354  1
  Tm  Tm9  1  0.870263  0.661176  0.623646  1
  Tm  Tm10  1  0.629737  0.161176  0.376354  1
  Tm  Tm11  1  0.129737  0.338824  0.123646  1
  Tm  Tm12  1  0.632910  0.162873  0.123361  1
  Tm  Tm13  1  0.132910  0.337127  0.376639  1
  Tm  Tm14  1  0.367090  0.837127  0.623361  1
  Tm  Tm15  1  0.867090  0.662873  0.876639  1
  Tm  Tm16  1  0.196593  0.501560  0.748345  1
  Tm  Tm17  1  0.696593  0.998440  0.751655  1
  Tm  Tm18  1  0.803407  0.498440  0.248345  1
  Tm  Tm19  1  0.303407  0.001560  0.251655  1
  Sn  Sn20  1  0.710019  0.963768  0.958141  1
  Sn  Sn21  1  0.210019  0.536232  0.541859  1
  Sn  Sn22  1  0.289981  0.036232  0.458141  1
  Sn  Sn23  1  0.789981  0.463768  0.041859  1
  Sn  Sn24  1  0.563541  0.621252  0.749369  1
  Sn  Sn25  1  0.063541  0.878748  0.750631  1
  Sn  Sn26  1  0.436459  0.378748  0.249369  1
  Sn  Sn27  1  0.936459  0.121252  0.250631  1
  Sn  Sn28  1  0.334378  0.148648  0.750445  1
  Sn  Sn29  1  0.834378  0.351352  0.749555  1
  Sn  Sn30  1  0.665622  0.851352  0.250445  1
  Sn  Sn31  1  0.165622  0.648648  0.249555  1
  Sb  Sb32  1  0.288080  0.035879  0.042648  1
  Sb  Sb33  1  0.788080  0.464121  0.457352  1
  Sb  Sb34  1  0.711920  0.964121  0.542648  1
  Sb  Sb35  1  0.211920  0.535879  0.957352  1
