# generated using pymatgen
data_Tb20Bi5Os4Pb3
_symmetry_space_group_name_H-M   'P 1'
_cell_length_a   7.99452328
_cell_length_b   9.09000285
_cell_length_c   12.50380365
_cell_angle_alpha   90.07252844
_cell_angle_beta   90.13084374
_cell_angle_gamma   90.01202507
_symmetry_Int_Tables_number   1
_chemical_formula_structural   Tb20Bi5Os4Pb3
_chemical_formula_sum   'Tb20 Bi5 Os4 Pb3'
_cell_volume   908.65128664
_cell_formula_units_Z   1
loop_
 _symmetry_equiv_pos_site_id
 _symmetry_equiv_pos_as_xyz
  1  'x, y, z'
loop_
 _atom_site_type_symbol
 _atom_site_label
 _atom_site_symmetry_multiplicity
 _atom_site_fract_x
 _atom_site_fract_y
 _atom_site_fract_z
 _atom_site_occupancy
  Tb  Tb0  1  0.842011  0.746133  0.791380  1
  Tb  Tb1  1  0.159379  0.252339  0.208319  1
  Tb  Tb2  1  0.342615  0.253341  0.709209  1
  Tb  Tb3  1  0.656024  0.747290  0.291700  1
  Tb  Tb4  1  0.375807  0.747267  0.693331  1
  Tb  Tb5  1  0.621426  0.252262  0.306470  1
  Tb  Tb6  1  0.876144  0.252994  0.806542  1
  Tb  Tb7  1  0.126095  0.748315  0.192636  1
  Tb  Tb8  1  0.944646  0.747799  0.504865  1
  Tb  Tb9  1  0.057382  0.251924  0.497510  1
  Tb  Tb10  1  0.444077  0.253673  0.995925  1
  Tb  Tb11  1  0.555982  0.746247  0.003858  1
  Tb  Tb12  1  0.674650  0.040877  0.565282  1
  Tb  Tb13  1  0.323880  0.959248  0.434449  1
  Tb  Tb14  1  0.175322  0.959645  0.934334  1
  Tb  Tb15  1  0.325987  0.540373  0.433073  1
  Tb  Tb16  1  0.825101  0.040306  0.065699  1
  Tb  Tb17  1  0.675345  0.460669  0.568193  1
  Tb  Tb18  1  0.823402  0.460424  0.064857  1
  Tb  Tb19  1  0.175735  0.539701  0.932847  1
  Bi  Bi20  1  0.430919  0.993452  0.171726  1
  Bi  Bi21  1  0.930365  0.492730  0.327298  1
  Bi  Bi22  1  0.569267  0.006462  0.828195  1
  Bi  Bi23  1  0.930328  0.006722  0.327901  1
  Bi  Bi24  1  0.068689  0.993354  0.672559  1
  Os  Os25  1  0.575045  0.750854  0.509600  1
  Os  Os26  1  0.424821  0.249506  0.490420  1
  Os  Os27  1  0.074083  0.249184  0.990614  1
  Os  Os28  1  0.925692  0.750763  0.009812  1
  Pb  Pb29  1  0.570007  0.493751  0.828056  1
  Pb  Pb30  1  0.430018  0.506283  0.172232  1
  Pb  Pb31  1  0.069755  0.506110  0.671111  1
