# generated using pymatgen
data_Y2VReH18
_symmetry_space_group_name_H-M   'P 1'
_cell_length_a   4.63922000
_cell_length_b   4.63921968
_cell_length_c   8.71350900
_cell_angle_alpha   90.00000000
_cell_angle_beta   90.00000000
_cell_angle_gamma   120.00000231
_symmetry_Int_Tables_number   1
_chemical_formula_structural   Y2VReH18
_chemical_formula_sum   'Y2 V1 Re1 H18'
_cell_volume   162.41031603
_cell_formula_units_Z   1
loop_
 _symmetry_equiv_pos_site_id
 _symmetry_equiv_pos_as_xyz
  1  'x, y, z'
loop_
 _atom_site_type_symbol
 _atom_site_label
 _atom_site_symmetry_multiplicity
 _atom_site_fract_x
 _atom_site_fract_y
 _atom_site_fract_z
 _atom_site_occupancy
  Y  Y0  1  0.000000  0.000000  0.032241  1
  Y  Y1  1  0.000000  0.000000  0.467759  1
  V  V2  1  0.333333  0.666667  0.250000  1
  Re  Re3  1  0.666667  0.333333  0.750000  1
  H  H4  1  0.483412  0.516588  0.390141  1
  H  H5  1  0.483412  0.966824  0.390141  1
  H  H6  1  0.033176  0.516588  0.390141  1
  H  H7  1  0.967005  0.483502  0.889211  1
  H  H8  1  0.129582  0.259165  0.250000  1
  H  H9  1  0.872660  0.127340  0.750000  1
  H  H10  1  0.254680  0.127340  0.750000  1
  H  H11  1  0.740835  0.870418  0.250000  1
  H  H12  1  0.129582  0.870418  0.250000  1
  H  H13  1  0.872660  0.745320  0.750000  1
  H  H14  1  0.483412  0.966824  0.109859  1
  H  H15  1  0.516498  0.483502  0.610789  1
  H  H16  1  0.967005  0.483502  0.610789  1
  H  H17  1  0.033176  0.516588  0.109859  1
  H  H18  1  0.483412  0.516588  0.109859  1
  H  H19  1  0.516498  0.032995  0.889211  1
  H  H20  1  0.516498  0.483502  0.889211  1
  H  H21  1  0.516498  0.032995  0.610789  1
