# generated using pymatgen
data_Ti8Al15Fe4Pt3
_symmetry_space_group_name_H-M   'P 1'
_cell_length_a   8.55518913
_cell_length_b   8.55006886
_cell_length_c   8.55518777
_cell_angle_alpha   120.07137122
_cell_angle_beta   119.96055104
_cell_angle_gamma   89.98956181
_symmetry_Int_Tables_number   1
_chemical_formula_structural   Ti8Al15Fe4Pt3
_chemical_formula_sum   'Ti8 Al15 Fe4 Pt3'
_cell_volume   442.32685123
_cell_formula_units_Z   1
loop_
 _symmetry_equiv_pos_site_id
 _symmetry_equiv_pos_as_xyz
  1  'x, y, z'
loop_
 _atom_site_type_symbol
 _atom_site_label
 _atom_site_symmetry_multiplicity
 _atom_site_fract_x
 _atom_site_fract_y
 _atom_site_fract_z
 _atom_site_occupancy
  Ti  Ti0  1  0.797213  0.286214  0.070262  1
  Ti  Ti1  1  0.215952  0.286214  0.489001  1
  Ti  Ti2  1  0.211003  0.703913  0.492911  1
  Ti  Ti3  1  0.209344  0.718893  0.928890  1
  Ti  Ti4  1  0.790003  0.718893  0.509548  1
  Ti  Ti5  1  0.782889  0.287930  0.505041  1
  Ti  Ti6  1  0.384382  0.118282  0.733901  1
  Ti  Ti7  1  0.375273  0.642221  0.266950  1
  Al  Al8  1  0.996923  0.496768  0.499846  1
  Al  Al9  1  0.160247  0.338365  0.178118  1
  Al  Al10  1  0.152476  0.970871  0.818395  1
  Al  Al11  1  0.149946  0.350152  0.814476  1
  Al  Al12  1  0.535675  0.350152  0.200206  1
  Al  Al13  1  0.840769  0.657429  0.816662  1
  Al  Al14  1  0.849729  0.034891  0.185162  1
  Al  Al15  1  0.847954  0.650378  0.182025  1
  Al  Al16  1  0.468352  0.650378  0.802423  1
  Al  Al17  1  0.378604  0.122678  0.266069  1
  Al  Al18  1  0.856609  0.122678  0.744073  1
  Al  Al19  1  0.615836  0.881691  0.265854  1
  Al  Al20  1  0.623304  0.359049  0.735746  1
  Al  Al21  1  0.623865  0.876010  0.736019  1
  Al  Al22  1  0.139991  0.876010  0.252146  1
  Fe  Fe23  1  0.497222  0.500614  0.497757  1
  Fe  Fe24  1  0.002857  0.500614  0.003392  1
  Fe  Fe25  1  0.000388  0.999985  0.999596  1
  Fe  Fe26  1  0.495630  0.000160  0.504530  1
  Pt  Pt27  1  0.998065  0.999139  0.499205  1
  Pt  Pt28  1  0.499934  0.999139  0.001074  1
  Pt  Pt29  1  0.499561  0.500281  0.000721  1
