# generated using pymatgen
data_Er4Os5Ru3
_symmetry_space_group_name_H-M   'P 1'
_cell_length_a   5.30014937
_cell_length_b   5.30015009
_cell_length_c   8.92927300
_cell_angle_alpha   90.00000000
_cell_angle_beta   90.00000000
_cell_angle_gamma   121.16387771
_symmetry_Int_Tables_number   1
_chemical_formula_structural   Er4Os5Ru3
_chemical_formula_sum   'Er4 Os5 Ru3'
_cell_volume   214.63926940
_cell_formula_units_Z   1
loop_
 _symmetry_equiv_pos_site_id
 _symmetry_equiv_pos_as_xyz
  1  'x, y, z'
loop_
 _atom_site_type_symbol
 _atom_site_label
 _atom_site_symmetry_multiplicity
 _atom_site_fract_x
 _atom_site_fract_y
 _atom_site_fract_z
 _atom_site_occupancy
  Er  Er0  1  0.333962  0.666038  0.434252  1
  Er  Er1  1  0.666059  0.333941  0.565719  1
  Er  Er2  1  0.666059  0.333941  0.934281  1
  Er  Er3  1  0.333962  0.666038  0.065748  1
  Os  Os4  1  0.169804  0.341807  0.750000  1
  Os  Os5  1  0.170559  0.829441  0.750000  1
  Os  Os6  1  0.339606  0.173451  0.250000  1
  Os  Os7  1  0.826549  0.660394  0.250000  1
  Os  Os8  1  0.658193  0.830196  0.750000  1
  Ru  Ru9  1  0.004066  0.995934  0.000813  1
  Ru  Ru10  1  0.827114  0.172886  0.250000  1
  Ru  Ru11  1  0.004066  0.995934  0.499187  1
