# generated using pymatgen
data_Sr6Li7In9N
_symmetry_space_group_name_H-M   'P 1'
_cell_length_a   9.14222861
_cell_length_b   9.12506186
_cell_length_c   9.12506201
_cell_angle_alpha   109.28186426
_cell_angle_beta   109.52774385
_cell_angle_gamma   109.52774944
_symmetry_Int_Tables_number   1
_chemical_formula_structural   Sr6Li7In9N
_chemical_formula_sum   'Sr6 Li7 In9 N1'
_cell_volume   586.55417529
_cell_formula_units_Z   1
loop_
 _symmetry_equiv_pos_site_id
 _symmetry_equiv_pos_as_xyz
  1  'x, y, z'
loop_
 _atom_site_type_symbol
 _atom_site_label
 _atom_site_symmetry_multiplicity
 _atom_site_fract_x
 _atom_site_fract_y
 _atom_site_fract_z
 _atom_site_occupancy
  Sr  Sr0  1  0.997628  0.244933  0.244933  1
  Sr  Sr1  1  0.242753  0.998033  0.244720  1
  Sr  Sr2  1  0.753093  0.999405  0.753687  1
  Sr  Sr3  1  0.753093  0.753687  0.999405  1
  Sr  Sr4  1  0.242753  0.244720  0.998033  1
  Sr  Sr5  1  0.997628  0.752695  0.752695  1
  Li  Li6  1  0.670076  0.335038  0.335038  1
  Li  Li7  1  0.346791  0.006352  0.667182  1
  Li  Li8  1  0.346791  0.679609  0.340440  1
  Li  Li9  1  0.346791  0.340440  0.679609  1
  Li  Li10  1  0.346791  0.667182  0.006352  1
  Li  Li11  1  0.002796  0.342472  0.660324  1
  Li  Li12  1  0.002796  0.660324  0.342472  1
  In  In13  1  0.491410  0.493314  0.493314  1
  In  In14  1  0.491410  0.998096  0.998096  1
  In  In15  1  0.014469  0.507234  0.007234  1
  In  In16  1  0.014469  0.007234  0.507234  1
  In  In17  1  0.661820  0.656654  0.314353  1
  In  In18  1  0.661820  0.005165  0.347467  1
  In  In19  1  0.661820  0.347467  0.005165  1
  In  In20  1  0.661820  0.314353  0.656654  1
  In  In21  1  0.295367  0.647682  0.647682  1
  N  N22  1  0.995815  0.997907  0.997907  1
