# generated using pymatgen
data_Lu2As2Br2O5
_symmetry_space_group_name_H-M   'P 1'
_cell_length_a   6.92299001
_cell_length_b   7.70279469
_cell_length_c   9.82306360
_cell_angle_alpha   109.18306406
_cell_angle_beta   102.54870495
_cell_angle_gamma   101.91521561
_symmetry_Int_Tables_number   1
_chemical_formula_structural   Lu2As2Br2O5
_chemical_formula_sum   'Lu4 As4 Br4 O10'
_cell_volume   460.46777298
_cell_formula_units_Z   2
loop_
 _symmetry_equiv_pos_site_id
 _symmetry_equiv_pos_as_xyz
  1  'x, y, z'
loop_
 _atom_site_type_symbol
 _atom_site_label
 _atom_site_symmetry_multiplicity
 _atom_site_fract_x
 _atom_site_fract_y
 _atom_site_fract_z
 _atom_site_occupancy
  Lu  Lu0  1  0.402864  0.693473  0.513131  1
  Lu  Lu1  1  0.597136  0.306527  0.486869  1
  Lu  Lu2  1  0.862340  0.779375  0.347970  1
  Lu  Lu3  1  0.137660  0.220625  0.652030  1
  As  As4  1  0.874101  0.841930  0.729693  1
  As  As5  1  0.125899  0.158070  0.270307  1
  As  As6  1  0.689437  0.219731  0.777069  1
  As  As7  1  0.310563  0.780269  0.222931  1
  Br  Br8  1  0.235661  0.631077  0.734335  1
  Br  Br9  1  0.764339  0.368923  0.265665  1
  Br  Br10  1  0.794116  0.737462  0.053596  1
  Br  Br11  1  0.205884  0.262538  0.946404  1
  O  O12  1  0.831790  0.263778  0.650006  1
  O  O13  1  0.168210  0.736222  0.349994  1
  O  O14  1  0.546850  0.783313  0.351582  1
  O  O15  1  0.453150  0.216687  0.648418  1
  O  O16  1  0.644352  0.952100  0.703352  1
  O  O17  1  0.355648  0.047900  0.296648  1
  O  O18  1  0.687365  0.616643  0.589482  1
  O  O19  1  0.312635  0.383357  0.410518  1
  O  O20  1  0.982891  0.914687  0.597788  1
  O  O21  1  0.017109  0.085313  0.402212  1
