# generated using pymatgen
data_Pr3LuZn2Ir3
_symmetry_space_group_name_H-M   'P 1'
_cell_length_a   7.48105800
_cell_length_b   7.49325817
_cell_length_c   4.10330300
_cell_angle_alpha   90.00000000
_cell_angle_beta   90.00000000
_cell_angle_gamma   119.94615572
_symmetry_Int_Tables_number   1
_chemical_formula_structural   Pr3LuZn2Ir3
_chemical_formula_sum   'Pr3 Lu1 Zn2 Ir3'
_cell_volume   199.31194032
_cell_formula_units_Z   1
loop_
 _symmetry_equiv_pos_site_id
 _symmetry_equiv_pos_as_xyz
  1  'x, y, z'
loop_
 _atom_site_type_symbol
 _atom_site_label
 _atom_site_symmetry_multiplicity
 _atom_site_fract_x
 _atom_site_fract_y
 _atom_site_fract_z
 _atom_site_occupancy
  Pr  Pr0  1  0.388129  0.000000  0.499999  1
  Pr  Pr1  1  0.017190  0.438272  0.499999  1
  Pr  Pr2  1  0.578918  0.561727  0.499999  1
  Lu  Lu3  1  0.762690  0.000000  0.000000  1
  Zn  Zn4  1  0.239817  0.246017  0.000000  1
  Zn  Zn5  1  0.993801  0.753983  0.000000  1
  Ir  Ir6  1  0.670803  0.326197  0.000000  1
  Ir  Ir7  1  0.344607  0.673803  0.000000  1
  Ir  Ir8  1  0.004044  0.000000  0.499999  1
