# generated using pymatgen
data_Y3Si2IrOs
_symmetry_space_group_name_H-M   'P 1'
_cell_length_a   5.57512657
_cell_length_b   5.57512710
_cell_length_c   13.22285900
_cell_angle_alpha   90.00000000
_cell_angle_beta   90.00000000
_cell_angle_gamma   136.33395617
_symmetry_Int_Tables_number   1
_chemical_formula_structural   Y3Si2IrOs
_chemical_formula_sum   'Y6 Si4 Ir2 Os2'
_cell_volume   283.77198028
_cell_formula_units_Z   2
loop_
 _symmetry_equiv_pos_site_id
 _symmetry_equiv_pos_as_xyz
  1  'x, y, z'
loop_
 _atom_site_type_symbol
 _atom_site_label
 _atom_site_symmetry_multiplicity
 _atom_site_fract_x
 _atom_site_fract_y
 _atom_site_fract_z
 _atom_site_occupancy
  Y  Y0  1  0.773650  0.226350  0.602698  1
  Y  Y1  1  0.516848  0.483152  0.250000  1
  Y  Y2  1  0.226350  0.773650  0.397302  1
  Y  Y3  1  0.773650  0.226350  0.897302  1
  Y  Y4  1  0.483152  0.516848  0.750000  1
  Y  Y5  1  0.226350  0.773650  0.102698  1
  Si  Si6  1  0.062451  0.937549  0.589118  1
  Si  Si7  1  0.062451  0.937549  0.910882  1
  Si  Si8  1  0.937549  0.062451  0.410882  1
  Si  Si9  1  0.937549  0.062451  0.089118  1
  Ir  Ir10  1  0.811847  0.188153  0.250000  1
  Ir  Ir11  1  0.188153  0.811847  0.750000  1
  Os  Os12  1  0.500000  0.500000  0.000000  1
  Os  Os13  1  0.500000  0.500000  0.500000  1
