# generated using pymatgen
data_Dy6Tm4Sn5Bi
_symmetry_space_group_name_H-M   'P 1'
_cell_length_a   6.49850700
_cell_length_b   8.93472320
_cell_length_c   8.95836812
_cell_angle_alpha   119.91272377
_cell_angle_beta   89.99991764
_cell_angle_gamma   90.00016649
_symmetry_Int_Tables_number   1
_chemical_formula_structural   Dy6Tm4Sn5Bi
_chemical_formula_sum   'Dy6 Tm4 Sn5 Bi1'
_cell_volume   450.85355658
_cell_formula_units_Z   1
loop_
 _symmetry_equiv_pos_site_id
 _symmetry_equiv_pos_as_xyz
  1  'x, y, z'
loop_
 _atom_site_type_symbol
 _atom_site_label
 _atom_site_symmetry_multiplicity
 _atom_site_fract_x
 _atom_site_fract_y
 _atom_site_fract_z
 _atom_site_occupancy
  Dy  Dy0  1  0.750002  0.235409  0.000000  1
  Dy  Dy1  1  0.749998  0.762571  0.757184  1
  Dy  Dy2  1  0.749998  0.005387  0.242816  1
  Dy  Dy3  1  0.249999  0.762306  0.000000  1
  Dy  Dy4  1  0.250000  0.239276  0.239574  1
  Dy  Dy5  1  0.250000  0.999702  0.760426  1
  Tm  Tm6  1  0.498155  0.330272  0.663111  1
  Tm  Tm7  1  0.498155  0.667160  0.336889  1
  Tm  Tm8  1  0.001848  0.667168  0.336887  1
  Tm  Tm9  1  0.001848  0.330282  0.663113  1
  Sn  Sn10  1  0.750000  0.396516  0.395974  1
  Sn  Sn11  1  0.750000  0.000541  0.604026  1
  Sn  Sn12  1  0.249998  0.395507  0.000000  1
  Sn  Sn13  1  0.250001  0.604072  0.605332  1
  Sn  Sn14  1  0.250001  0.998739  0.394668  1
  Bi  Bi15  1  0.749996  0.605091  0.000000  1
