# generated using pymatgen
data_Er4Lu8Co5Pb
_symmetry_space_group_name_H-M   'P 1'
_cell_length_a   8.13489300
_cell_length_b   8.13489200
_cell_length_c   8.13489103
_cell_angle_alpha   110.83427458
_cell_angle_beta   111.11749118
_cell_angle_gamma   106.50220124
_symmetry_Int_Tables_number   1
_chemical_formula_structural   Er4Lu8Co5Pb
_chemical_formula_sum   'Er4 Lu8 Co5 Pb1'
_cell_volume   413.58136744
_cell_formula_units_Z   1
loop_
 _symmetry_equiv_pos_site_id
 _symmetry_equiv_pos_as_xyz
  1  'x, y, z'
loop_
 _atom_site_type_symbol
 _atom_site_label
 _atom_site_symmetry_multiplicity
 _atom_site_fract_x
 _atom_site_fract_y
 _atom_site_fract_z
 _atom_site_occupancy
  Er  Er0  1  0.212646  0.407456  0.194811  1
  Er  Er1  1  0.787354  0.592544  0.805189  1
  Er  Er2  1  0.212646  0.017835  0.805189  1
  Er  Er3  1  0.787354  0.982165  0.194811  1
  Lu  Lu4  1  0.286888  0.183345  0.470233  1
  Lu  Lu5  1  0.713112  0.816655  0.529767  1
  Lu  Lu6  1  0.286888  0.816655  0.103543  1
  Lu  Lu7  1  0.713112  0.183345  0.896457  1
  Lu  Lu8  1  0.621033  0.313665  0.307367  1
  Lu  Lu9  1  0.378967  0.686335  0.692633  1
  Lu  Lu10  1  0.006299  0.313665  0.692633  1
  Lu  Lu11  1  0.993701  0.686335  0.307367  1
  Co  Co12  1  0.000000  0.375185  0.375185  1
  Co  Co13  1  0.000000  0.624815  0.624815  1
  Co  Co14  1  0.387174  0.887174  0.500000  1
  Co  Co15  1  0.612826  0.112826  0.500000  1
  Co  Co16  1  0.000000  0.000000  0.000000  1
  Pb  Pb17  1  0.500000  0.500000  0.000000  1
