# generated using pymatgen
data_Ba2La(CuO2)4
_symmetry_space_group_name_H-M   'P 1'
_cell_length_a   13.80265448
_cell_length_b   13.80265414
_cell_length_c   3.91401500
_cell_angle_alpha   90.00000000
_cell_angle_beta   90.00000000
_cell_angle_gamma   163.33056830
_symmetry_Int_Tables_number   1
_chemical_formula_structural   Ba2La(CuO2)4
_chemical_formula_sum   'Ba2 La1 Cu4 O8'
_cell_volume   213.89555044
_cell_formula_units_Z   1
loop_
 _symmetry_equiv_pos_site_id
 _symmetry_equiv_pos_as_xyz
  1  'x, y, z'
loop_
 _atom_site_type_symbol
 _atom_site_label
 _atom_site_symmetry_multiplicity
 _atom_site_fract_x
 _atom_site_fract_y
 _atom_site_fract_z
 _atom_site_occupancy
  Ba  Ba0  1  0.362230  0.637770  0.500000  1
  Ba  Ba1  1  0.637770  0.362230  0.500000  1
  La  La2  1  0.500000  0.500000  0.500000  1
  Cu  Cu3  1  0.064494  0.935506  0.000000  1
  Cu  Cu4  1  0.935506  0.064494  0.000000  1
  Cu  Cu5  1  0.213783  0.786217  0.000000  1
  Cu  Cu6  1  0.786217  0.213783  0.000000  1
  O  O7  1  0.146618  0.853382  0.000000  1
  O  O8  1  0.853382  0.146618  0.000000  1
  O  O9  1  0.558381  0.441619  0.000000  1
  O  O10  1  0.441619  0.558381  0.000000  1
  O  O11  1  0.056532  0.943468  0.500000  1
  O  O12  1  0.943468  0.056532  0.500000  1
  O  O13  1  0.717696  0.282304  0.000000  1
  O  O14  1  0.282304  0.717696  0.000000  1
