# generated using pymatgen
data_Sm6Zr3Mo(WN4)6
_symmetry_space_group_name_H-M   'P 1'
_cell_length_a   11.36230034
_cell_length_b   11.36230030
_cell_length_c   11.36230007
_cell_angle_alpha   109.66882296
_cell_angle_beta   109.66882193
_cell_angle_gamma   109.66881580
_symmetry_Int_Tables_number   1
_chemical_formula_structural   Sm6Zr3Mo(WN4)6
_chemical_formula_sum   'Sm12 Zr6 Mo2 W12 N48'
_cell_volume   1120.87829901
_cell_formula_units_Z   2
loop_
 _symmetry_equiv_pos_site_id
 _symmetry_equiv_pos_as_xyz
  1  'x, y, z'
loop_
 _atom_site_type_symbol
 _atom_site_label
 _atom_site_symmetry_multiplicity
 _atom_site_fract_x
 _atom_site_fract_y
 _atom_site_fract_z
 _atom_site_occupancy
  Sm  Sm0  1  0.250000  0.374436  0.125564  1
  Sm  Sm1  1  0.375962  0.750000  0.124039  1
  Sm  Sm2  1  0.374436  0.125564  0.250000  1
  Sm  Sm3  1  0.875962  0.624038  0.250000  1
  Sm  Sm4  1  0.750000  0.124039  0.375962  1
  Sm  Sm5  1  0.125564  0.250000  0.374436  1
  Sm  Sm6  1  0.874436  0.750000  0.625564  1
  Sm  Sm7  1  0.250000  0.875962  0.624038  1
  Sm  Sm8  1  0.124039  0.375962  0.750000  1
  Sm  Sm9  1  0.625564  0.874436  0.750000  1
  Sm  Sm10  1  0.624038  0.250000  0.875962  1
  Sm  Sm11  1  0.750000  0.625564  0.874436  1
  Zr  Zr12  1  0.500000  0.000000  0.000000  1
  Zr  Zr13  1  0.000000  0.500000  0.000000  1
  Zr  Zr14  1  0.500000  0.500000  0.000000  1
  Zr  Zr15  1  0.000000  0.000000  0.500000  1
  Zr  Zr16  1  0.500000  0.000000  0.500000  1
  Zr  Zr17  1  0.000000  0.500000  0.500000  1
  Mo  Mo18  1  0.000000  0.000000  0.000000  1
  Mo  Mo19  1  0.500000  0.500000  0.500000  1
  W  W20  1  0.875686  0.248175  0.121936  1
  W  W21  1  0.751824  0.878064  0.124314  1
  W  W22  1  0.624314  0.378064  0.251824  1
  W  W23  1  0.121936  0.875686  0.248175  1
  W  W24  1  0.251824  0.624314  0.378064  1
  W  W25  1  0.621935  0.748176  0.375686  1
  W  W26  1  0.378064  0.251824  0.624314  1
  W  W27  1  0.748176  0.375686  0.621935  1
  W  W28  1  0.878064  0.124314  0.751824  1
  W  W29  1  0.375686  0.621935  0.748176  1
  W  W30  1  0.248175  0.121936  0.875686  1
  W  W31  1  0.124314  0.751824  0.878064  1
  N  N32  1  0.311992  0.901757  0.022608  1
  N  N33  1  0.195872  0.113081  0.017873  1
  N  N34  1  0.878473  0.399268  0.087932  1
  N  N35  1  0.711199  0.691526  0.087082  1
  N  N36  1  0.621527  0.412068  0.100732  1
  N  N37  1  0.977392  0.688007  0.098243  1
  N  N38  1  0.600731  0.912068  0.121526  1
  N  N39  1  0.017873  0.195872  0.113081  1
  N  N40  1  0.211198  0.587082  0.191526  1
  N  N41  1  0.477392  0.598243  0.188007  1
  N  N42  1  0.113081  0.017873  0.195872  1
  N  N43  1  0.587082  0.191526  0.211198  1
  N  N44  1  0.482128  0.386919  0.304128  1
  N  N45  1  0.308473  0.912918  0.288801  1
  N  N46  1  0.901757  0.022608  0.311992  1
  N  N47  1  0.912918  0.288801  0.308473  1
  N  N48  1  0.304128  0.482128  0.386919  1
  N  N49  1  0.587932  0.899269  0.378473  1
  N  N50  1  0.811993  0.522608  0.401758  1
  N  N51  1  0.087932  0.878473  0.399268  1
  N  N52  1  0.100732  0.621527  0.412068  1
  N  N53  1  0.808473  0.788801  0.412918  1
  N  N54  1  0.598243  0.188007  0.477392  1
  N  N55  1  0.386919  0.304128  0.482128  1
  N  N56  1  0.613080  0.695871  0.517872  1
  N  N57  1  0.401758  0.811993  0.522608  1
  N  N58  1  0.191526  0.211198  0.587082  1
  N  N59  1  0.899269  0.378473  0.587932  1
  N  N60  1  0.912068  0.121526  0.600731  1
  N  N61  1  0.188007  0.477392  0.598243  1
  N  N62  1  0.412068  0.100732  0.621527  1
  N  N63  1  0.695871  0.517872  0.613080  1
  N  N64  1  0.087082  0.711199  0.691526  1
  N  N65  1  0.098243  0.977392  0.688007  1
  N  N66  1  0.691526  0.087082  0.711199  1
  N  N67  1  0.517872  0.613080  0.695871  1
  N  N68  1  0.412918  0.808473  0.788801  1
  N  N69  1  0.886920  0.982128  0.804129  1
  N  N70  1  0.522608  0.401758  0.811993  1
  N  N71  1  0.788801  0.412918  0.808473  1
  N  N72  1  0.399268  0.087932  0.878473  1
  N  N73  1  0.982128  0.804129  0.886920  1
  N  N74  1  0.022608  0.311992  0.901757  1
  N  N75  1  0.378473  0.587932  0.899269  1
  N  N76  1  0.288801  0.308473  0.912918  1
  N  N77  1  0.121526  0.600731  0.912068  1
  N  N78  1  0.688007  0.098243  0.977392  1
  N  N79  1  0.804129  0.886920  0.982128  1
