# generated using pymatgen
data_Pr2Ho3Sn3Hg
_symmetry_space_group_name_H-M   'P 1'
_cell_length_a   7.96907300
_cell_length_b   8.46663000
_cell_length_c   15.66574300
_cell_angle_alpha   90.00000000
_cell_angle_beta   90.00000000
_cell_angle_gamma   90.00000000
_symmetry_Int_Tables_number   1
_chemical_formula_structural   Pr2Ho3Sn3Hg
_chemical_formula_sum   'Pr8 Ho12 Sn12 Hg4'
_cell_volume   1056.98636214
_cell_formula_units_Z   4
loop_
 _symmetry_equiv_pos_site_id
 _symmetry_equiv_pos_as_xyz
  1  'x, y, z'
loop_
 _atom_site_type_symbol
 _atom_site_label
 _atom_site_symmetry_multiplicity
 _atom_site_fract_x
 _atom_site_fract_y
 _atom_site_fract_z
 _atom_site_occupancy
  Pr  Pr0  1  0.502661  0.316835  0.907964  1
  Pr  Pr1  1  0.002661  0.183165  0.592036  1
  Pr  Pr2  1  0.497339  0.683165  0.407964  1
  Pr  Pr3  1  0.997339  0.816835  0.092036  1
  Pr  Pr4  1  0.497339  0.683165  0.092036  1
  Pr  Pr5  1  0.997339  0.816835  0.407964  1
  Pr  Pr6  1  0.502661  0.316835  0.592036  1
  Pr  Pr7  1  0.002661  0.183165  0.907964  1
  Ho  Ho8  1  0.337402  0.832306  0.873981  1
  Ho  Ho9  1  0.837402  0.667694  0.626019  1
  Ho  Ho10  1  0.662598  0.167694  0.373981  1
  Ho  Ho11  1  0.162598  0.332306  0.126019  1
  Ho  Ho12  1  0.662598  0.167694  0.126019  1
  Ho  Ho13  1  0.162598  0.332306  0.373981  1
  Ho  Ho14  1  0.337402  0.832306  0.626019  1
  Ho  Ho15  1  0.837402  0.667694  0.873981  1
  Ho  Ho16  1  0.180357  0.495534  0.750000  1
  Ho  Ho17  1  0.680357  0.004466  0.750000  1
  Ho  Ho18  1  0.819643  0.504466  0.250000  1
  Ho  Ho19  1  0.319643  0.995534  0.250000  1
  Sn  Sn20  1  0.318600  0.037865  0.041553  1
  Sn  Sn21  1  0.818600  0.462135  0.458447  1
  Sn  Sn22  1  0.681400  0.962135  0.541553  1
  Sn  Sn23  1  0.181400  0.537865  0.958447  1
  Sn  Sn24  1  0.681400  0.962135  0.958447  1
  Sn  Sn25  1  0.181400  0.537865  0.541553  1
  Sn  Sn26  1  0.318600  0.037865  0.458447  1
  Sn  Sn27  1  0.818600  0.462135  0.041553  1
  Sn  Sn28  1  0.301548  0.136045  0.750000  1
  Sn  Sn29  1  0.801548  0.363955  0.750000  1
  Sn  Sn30  1  0.698452  0.863955  0.250000  1
  Sn  Sn31  1  0.198452  0.636045  0.250000  1
  Hg  Hg32  1  0.537841  0.620916  0.750000  1
  Hg  Hg33  1  0.037841  0.879084  0.750000  1
  Hg  Hg34  1  0.462159  0.379084  0.250000  1
  Hg  Hg35  1  0.962159  0.120916  0.250000  1
