# generated using pymatgen
data_Pu3ZrH12
_symmetry_space_group_name_H-M   'P 1'
_cell_length_a   6.50677300
_cell_length_b   6.50677300
_cell_length_c   6.50677300
_cell_angle_alpha   90.00000000
_cell_angle_beta   90.00000000
_cell_angle_gamma   90.00000000
_symmetry_Int_Tables_number   1
_chemical_formula_structural   Pu3ZrH12
_chemical_formula_sum   'Pu6 Zr2 H24'
_cell_volume   275.48437259
_cell_formula_units_Z   2
loop_
 _symmetry_equiv_pos_site_id
 _symmetry_equiv_pos_as_xyz
  1  'x, y, z'
loop_
 _atom_site_type_symbol
 _atom_site_label
 _atom_site_symmetry_multiplicity
 _atom_site_fract_x
 _atom_site_fract_y
 _atom_site_fract_z
 _atom_site_occupancy
  Pu  Pu0  1  0.250000  0.000000  0.500000  1
  Pu  Pu1  1  0.750000  0.000000  0.500000  1
  Pu  Pu2  1  0.000000  0.500000  0.250000  1
  Pu  Pu3  1  0.000000  0.500000  0.750000  1
  Pu  Pu4  1  0.500000  0.750000  0.000000  1
  Pu  Pu5  1  0.500000  0.250000  0.000000  1
  Zr  Zr6  1  0.000000  0.000000  0.000000  1
  Zr  Zr7  1  0.500000  0.500000  0.500000  1
  H  H8  1  0.000000  0.152528  0.291846  1
  H  H9  1  0.500000  0.208154  0.652528  1
  H  H10  1  0.500000  0.791846  0.347472  1
  H  H11  1  0.791846  0.652528  0.500000  1
  H  H12  1  0.208154  0.652528  0.500000  1
  H  H13  1  0.347472  0.500000  0.791846  1
  H  H14  1  0.652528  0.500000  0.791846  1
  H  H15  1  0.291846  0.000000  0.152528  1
  H  H16  1  0.152528  0.291846  0.000000  1
  H  H17  1  0.847472  0.708154  0.000000  1
  H  H18  1  0.291846  0.000000  0.847472  1
  H  H19  1  0.847472  0.291846  0.000000  1
  H  H20  1  0.708154  0.000000  0.152528  1
  H  H21  1  0.708154  0.000000  0.847472  1
  H  H22  1  0.152528  0.708154  0.000000  1
  H  H23  1  0.000000  0.847472  0.708154  1
  H  H24  1  0.000000  0.152528  0.708154  1
  H  H25  1  0.000000  0.847472  0.291846  1
  H  H26  1  0.652528  0.500000  0.208154  1
  H  H27  1  0.347472  0.500000  0.208154  1
  H  H28  1  0.791846  0.347472  0.500000  1
  H  H29  1  0.208154  0.347472  0.500000  1
  H  H30  1  0.500000  0.791846  0.652528  1
  H  H31  1  0.500000  0.208154  0.347472  1
