# generated using pymatgen
data_Rb3CrS4
_symmetry_space_group_name_H-M   'P 1'
_cell_length_a   9.48428300
_cell_length_b   9.55133300
_cell_length_c   11.13373300
_cell_angle_alpha   90.00000000
_cell_angle_beta   90.00000000
_cell_angle_gamma   90.00000000
_symmetry_Int_Tables_number   1
_chemical_formula_structural   Rb3CrS4
_chemical_formula_sum   'Rb12 Cr4 S16'
_cell_volume   1008.57754137
_cell_formula_units_Z   4
loop_
 _symmetry_equiv_pos_site_id
 _symmetry_equiv_pos_as_xyz
  1  'x, y, z'
loop_
 _atom_site_type_symbol
 _atom_site_label
 _atom_site_symmetry_multiplicity
 _atom_site_fract_x
 _atom_site_fract_y
 _atom_site_fract_z
 _atom_site_occupancy
  Rb  Rb0  1  0.146612  0.082660  0.750000  1
  Rb  Rb1  1  0.353388  0.582660  0.250000  1
  Rb  Rb2  1  0.646612  0.417340  0.750000  1
  Rb  Rb3  1  0.853388  0.917340  0.250000  1
  Rb  Rb4  1  0.952360  0.705970  0.956310  1
  Rb  Rb5  1  0.547640  0.205970  0.043690  1
  Rb  Rb6  1  0.452360  0.794030  0.543690  1
  Rb  Rb7  1  0.047640  0.294030  0.456310  1
  Rb  Rb8  1  0.047640  0.294030  0.043690  1
  Rb  Rb9  1  0.452360  0.794030  0.956310  1
  Rb  Rb10  1  0.547640  0.205970  0.456310  1
  Rb  Rb11  1  0.952360  0.705970  0.543690  1
  Cr  Cr12  1  0.224297  0.516314  0.750000  1
  Cr  Cr13  1  0.275703  0.016314  0.250000  1
  Cr  Cr14  1  0.724297  0.983686  0.750000  1
  Cr  Cr15  1  0.775703  0.483686  0.250000  1
  S  S16  1  0.205069  0.739226  0.750000  1
  S  S17  1  0.294931  0.239226  0.250000  1
  S  S18  1  0.705069  0.760774  0.750000  1
  S  S19  1  0.794931  0.260774  0.250000  1
  S  S20  1  0.666556  0.545742  0.408521  1
  S  S21  1  0.833444  0.045742  0.591479  1
  S  S22  1  0.166556  0.954258  0.091479  1
  S  S23  1  0.333444  0.454258  0.908521  1
  S  S24  1  0.982499  0.574232  0.250000  1
  S  S25  1  0.517501  0.074232  0.750000  1
  S  S26  1  0.482499  0.925768  0.250000  1
  S  S27  1  0.017501  0.425768  0.750000  1
  S  S28  1  0.666556  0.545742  0.091479  1
  S  S29  1  0.833444  0.045742  0.908521  1
  S  S30  1  0.166556  0.954258  0.408521  1
  S  S31  1  0.333444  0.454258  0.591479  1
