# generated using pymatgen
data_Nb6AlGeC2
_symmetry_space_group_name_H-M   'P 1'
_cell_length_a   5.61682636
_cell_length_b   5.61682681
_cell_length_c   8.46729500
_cell_angle_alpha   90.00000000
_cell_angle_beta   90.00000000
_cell_angle_gamma   145.54966119
_symmetry_Int_Tables_number   1
_chemical_formula_structural   Nb6AlGeC2
_chemical_formula_sum   'Nb6 Al1 Ge1 C2'
_cell_volume   151.11463887
_cell_formula_units_Z   1
loop_
 _symmetry_equiv_pos_site_id
 _symmetry_equiv_pos_as_xyz
  1  'x, y, z'
loop_
 _atom_site_type_symbol
 _atom_site_label
 _atom_site_symmetry_multiplicity
 _atom_site_fract_x
 _atom_site_fract_y
 _atom_site_fract_z
 _atom_site_occupancy
  Nb  Nb0  1  0.630526  0.369475  0.049645  1
  Nb  Nb1  1  0.953128  0.046872  0.250000  1
  Nb  Nb2  1  0.630526  0.369475  0.450355  1
  Nb  Nb3  1  0.367555  0.632446  0.554203  1
  Nb  Nb4  1  0.052896  0.947104  0.750000  1
  Nb  Nb5  1  0.367555  0.632446  0.945796  1
  Al  Al6  1  0.253627  0.746374  0.250000  1
  Ge  Ge7  1  0.744710  0.255291  0.750000  1
  C  C8  1  0.999739  0.000261  0.998656  1
  C  C9  1  0.999739  0.000261  0.501344  1
