# generated using pymatgen
data_NaHf(NbSe2)8
_symmetry_space_group_name_H-M   'P 1'
_cell_length_a   7.01945500
_cell_length_b   7.01945618
_cell_length_c   14.37886000
_cell_angle_alpha   90.00000000
_cell_angle_beta   90.00000000
_cell_angle_gamma   119.99998973
_symmetry_Int_Tables_number   1
_chemical_formula_structural   NaHf(NbSe2)8
_chemical_formula_sum   'Na1 Hf1 Nb8 Se16'
_cell_volume   613.56699951
_cell_formula_units_Z   1
loop_
 _symmetry_equiv_pos_site_id
 _symmetry_equiv_pos_as_xyz
  1  'x, y, z'
loop_
 _atom_site_type_symbol
 _atom_site_label
 _atom_site_symmetry_multiplicity
 _atom_site_fract_x
 _atom_site_fract_y
 _atom_site_fract_z
 _atom_site_occupancy
  Na  Na0  1  0.000000  0.000000  0.500000  1
  Hf  Hf1  1  0.000000  0.000000  0.000000  1
  Nb  Nb2  1  0.000000  0.000000  0.231788  1
  Nb  Nb3  1  0.000000  0.000000  0.768212  1
  Nb  Nb4  1  0.506530  0.493470  0.232570  1
  Nb  Nb5  1  0.506530  0.013059  0.232570  1
  Nb  Nb6  1  0.986941  0.493470  0.232570  1
  Nb  Nb7  1  0.493470  0.506530  0.767430  1
  Nb  Nb8  1  0.493470  0.986941  0.767430  1
  Nb  Nb9  1  0.013059  0.506530  0.767430  1
  Se  Se10  1  0.333333  0.666667  0.886945  1
  Se  Se11  1  0.666667  0.333333  0.113055  1
  Se  Se12  1  0.666667  0.333333  0.351939  1
  Se  Se13  1  0.333333  0.666667  0.648061  1
  Se  Se14  1  0.167834  0.832166  0.347088  1
  Se  Se15  1  0.167834  0.335669  0.347088  1
  Se  Se16  1  0.664331  0.832166  0.347088  1
  Se  Se17  1  0.832166  0.167834  0.652912  1
  Se  Se18  1  0.832166  0.664331  0.652912  1
  Se  Se19  1  0.335669  0.167834  0.652912  1
  Se  Se20  1  0.830318  0.169682  0.884161  1
  Se  Se21  1  0.830318  0.660636  0.884161  1
  Se  Se22  1  0.339364  0.169682  0.884161  1
  Se  Se23  1  0.169682  0.830318  0.115839  1
  Se  Se24  1  0.169682  0.339364  0.115839  1
  Se  Se25  1  0.660636  0.830318  0.115839  1
