# generated using pymatgen
data_BeAl(FeRh2)2
_symmetry_space_group_name_H-M   'P 1'
_cell_length_a   4.19668500
_cell_length_b   5.92993200
_cell_length_c   12.57951300
_cell_angle_alpha   90.00000000
_cell_angle_beta   89.99980423
_cell_angle_gamma   90.00000000
_symmetry_Int_Tables_number   1
_chemical_formula_structural   BeAl(FeRh2)2
_chemical_formula_sum   'Be3 Al3 Fe6 Rh12'
_cell_volume   313.05447347
_cell_formula_units_Z   3
loop_
 _symmetry_equiv_pos_site_id
 _symmetry_equiv_pos_as_xyz
  1  'x, y, z'
loop_
 _atom_site_type_symbol
 _atom_site_label
 _atom_site_symmetry_multiplicity
 _atom_site_fract_x
 _atom_site_fract_y
 _atom_site_fract_z
 _atom_site_occupancy
  Be  Be0  1  0.499993  0.000000  0.503245  1
  Be  Be1  1  0.000378  0.500000  0.666667  1
  Be  Be2  1  0.500274  0.000000  0.830088  1
  Al  Al3  1  0.999995  0.500000  0.995751  1
  Al  Al4  1  0.499788  0.000000  0.166666  1
  Al  Al5  1  0.999733  0.500000  0.337578  1
  Fe  Fe6  1  0.999987  0.000000  0.994244  1
  Fe  Fe7  1  0.499678  0.500000  0.166665  1
  Fe  Fe8  1  0.999722  0.000000  0.339090  1
  Fe  Fe9  1  0.499959  0.500000  0.505721  1
  Fe  Fe10  1  0.000305  0.000000  0.666661  1
  Fe  Fe11  1  0.500252  0.500000  0.827630  1
  Rh  Rh12  1  0.499995  0.247264  0.996026  1
  Rh  Rh13  1  0.499995  0.752736  0.996026  1
  Rh  Rh14  1  0.999776  0.249520  0.166664  1
  Rh  Rh15  1  0.999776  0.750479  0.166664  1
  Rh  Rh16  1  0.499766  0.247268  0.337304  1
  Rh  Rh17  1  0.499766  0.752733  0.337304  1
  Rh  Rh18  1  0.999986  0.247003  0.504065  1
  Rh  Rh19  1  0.999986  0.752998  0.504065  1
  Rh  Rh20  1  0.500242  0.248186  0.666669  1
  Rh  Rh21  1  0.500242  0.751815  0.666669  1
  Rh  Rh22  1  0.000206  0.246999  0.829268  1
  Rh  Rh23  1  0.000206  0.753000  0.829268  1
