# generated using pymatgen
data_Dy6InSi2
_symmetry_space_group_name_H-M   'P 1'
_cell_length_a   8.53554615
_cell_length_b   8.53554610
_cell_length_c   8.53554640
_cell_angle_alpha   112.39391563
_cell_angle_beta   110.83397110
_cell_angle_gamma   105.26991901
_symmetry_Int_Tables_number   1
_chemical_formula_structural   Dy6InSi2
_chemical_formula_sum   'Dy12 In2 Si4'
_cell_volume   476.70190255
_cell_formula_units_Z   2
loop_
 _symmetry_equiv_pos_site_id
 _symmetry_equiv_pos_as_xyz
  1  'x, y, z'
loop_
 _atom_site_type_symbol
 _atom_site_label
 _atom_site_symmetry_multiplicity
 _atom_site_fract_x
 _atom_site_fract_y
 _atom_site_fract_z
 _atom_site_occupancy
  Dy  Dy0  1  0.442593  0.238425  0.204169  1
  Dy  Dy1  1  0.557407  0.761575  0.795831  1
  Dy  Dy2  1  0.034255  0.238425  0.795831  1
  Dy  Dy3  1  0.965745  0.761575  0.204169  1
  Dy  Dy4  1  0.186087  0.277983  0.464070  1
  Dy  Dy5  1  0.813913  0.722017  0.535930  1
  Dy  Dy6  1  0.186087  0.722017  0.908104  1
  Dy  Dy7  1  0.813913  0.277983  0.091896  1
  Dy  Dy8  1  0.319882  0.616809  0.296927  1
  Dy  Dy9  1  0.680118  0.383191  0.703073  1
  Dy  Dy10  1  0.319882  0.022956  0.703073  1
  Dy  Dy11  1  0.680118  0.977044  0.296927  1
  In  In12  1  0.500000  0.500000  0.000000  1
  In  In13  1  0.000000  0.000000  0.000000  1
  Si  Si14  1  0.369091  0.000000  0.369091  1
  Si  Si15  1  0.630909  0.000000  0.630909  1
  Si  Si16  1  0.115411  0.615411  0.500000  1
  Si  Si17  1  0.884589  0.384589  0.500000  1
