# generated using pymatgen
data_CsK2Hg11
_symmetry_space_group_name_H-M   'P 1'
_cell_length_a   10.33143305
_cell_length_b   10.33143214
_cell_length_c   10.33143173
_cell_angle_alpha   152.12557077
_cell_angle_beta   112.42037244
_cell_angle_gamma   74.61085453
_symmetry_Int_Tables_number   1
_chemical_formula_structural   CsK2Hg11
_chemical_formula_sum   'Cs1 K2 Hg11'
_cell_volume   469.98954442
_cell_formula_units_Z   1
loop_
 _symmetry_equiv_pos_site_id
 _symmetry_equiv_pos_as_xyz
  1  'x, y, z'
loop_
 _atom_site_type_symbol
 _atom_site_label
 _atom_site_symmetry_multiplicity
 _atom_site_fract_x
 _atom_site_fract_y
 _atom_site_fract_z
 _atom_site_occupancy
  Cs  Cs0  1  0.000000  0.000000  0.000000  1
  K  K1  1  0.309624  0.309624  0.000000  1
  K  K2  1  0.690376  0.690376  0.000000  1
  Hg  Hg3  1  0.439717  0.141060  0.298659  1
  Hg  Hg4  1  0.970019  0.329787  0.640230  1
  Hg  Hg5  1  0.029981  0.670213  0.359770  1
  Hg  Hg6  1  0.310443  0.670213  0.640230  1
  Hg  Hg7  1  0.689557  0.329787  0.359770  1
  Hg  Hg8  1  0.708744  0.500000  0.208744  1
  Hg  Hg9  1  0.291256  0.500000  0.791256  1
  Hg  Hg10  1  0.500000  0.000000  0.500000  1
  Hg  Hg11  1  0.560283  0.858940  0.701341  1
  Hg  Hg12  1  0.157599  0.858940  0.298659  1
  Hg  Hg13  1  0.842401  0.141060  0.701341  1
