# generated using pymatgen
data_Yb3InPd2
_symmetry_space_group_name_H-M   'P 1'
_cell_length_a   4.43776400
_cell_length_b   7.41253300
_cell_length_c   8.74529000
_cell_angle_alpha   90.00000000
_cell_angle_beta   90.00000000
_cell_angle_gamma   90.00000000
_symmetry_Int_Tables_number   1
_chemical_formula_structural   Yb3InPd2
_chemical_formula_sum   'Yb6 In2 Pd4'
_cell_volume   287.67694505
_cell_formula_units_Z   2
loop_
 _symmetry_equiv_pos_site_id
 _symmetry_equiv_pos_as_xyz
  1  'x, y, z'
loop_
 _atom_site_type_symbol
 _atom_site_label
 _atom_site_symmetry_multiplicity
 _atom_site_fract_x
 _atom_site_fract_y
 _atom_site_fract_z
 _atom_site_occupancy
  Yb  Yb0  1  0.250000  0.508612  0.178518  1
  Yb  Yb1  1  0.750000  0.450155  0.827675  1
  Yb  Yb2  1  0.250000  0.049845  0.327675  1
  Yb  Yb3  1  0.750000  0.991388  0.678518  1
  Yb  Yb4  1  0.250000  0.639006  0.559658  1
  Yb  Yb5  1  0.750000  0.860994  0.059658  1
  In  In6  1  0.250000  0.147760  0.935503  1
  In  In7  1  0.750000  0.352240  0.435503  1
  Pd  Pd8  1  0.750000  0.237752  0.126216  1
  Pd  Pd9  1  0.250000  0.262248  0.626216  1
  Pd  Pd10  1  0.750000  0.742135  0.372430  1
  Pd  Pd11  1  0.250000  0.757865  0.872430  1
