# generated using pymatgen
data_Pr2Dy3Mo2P12Ir13Ru4
_symmetry_space_group_name_H-M   'P 1'
_cell_length_a   12.58691412
_cell_length_b   12.71808759
_cell_length_c   4.01690200
_cell_angle_alpha   90.00000000
_cell_angle_beta   90.00000000
_cell_angle_gamma   119.40201468
_symmetry_Int_Tables_number   1
_chemical_formula_structural   Pr2Dy3Mo2P12Ir13Ru4
_chemical_formula_sum   'Pr2 Dy3 Mo2 P12 Ir13 Ru4'
_cell_volume   560.20691280
_cell_formula_units_Z   1
loop_
 _symmetry_equiv_pos_site_id
 _symmetry_equiv_pos_as_xyz
  1  'x, y, z'
loop_
 _atom_site_type_symbol
 _atom_site_label
 _atom_site_symmetry_multiplicity
 _atom_site_fract_x
 _atom_site_fract_y
 _atom_site_fract_z
 _atom_site_occupancy
  Pr  Pr0  1  0.813639  0.001018  0.500000  1
  Pr  Pr1  1  0.186319  0.185811  0.500000  1
  Dy  Dy2  1  0.670772  0.338468  0.000000  1
  Dy  Dy3  1  0.330723  0.661651  0.000000  1
  Dy  Dy4  1  0.999375  0.813381  0.500000  1
  Mo  Mo5  1  0.550643  0.551572  0.000000  1
  Mo  Mo6  1  0.998603  0.450152  0.000000  1
  P  P7  1  0.641967  0.004221  0.000000  1
  P  P8  1  0.368123  0.366684  0.000000  1
  P  P9  1  0.001246  0.636065  0.000000  1
  P  P10  1  0.685418  0.522028  0.500000  1
  P  P11  1  0.831867  0.311344  0.500000  1
  P  P12  1  0.306449  0.824073  0.500000  1
  P  P13  1  0.518891  0.685485  0.500000  1
  P  P14  1  0.184258  0.998794  0.000000  1
  P  P15  1  0.819738  0.819329  0.000000  1
  P  P16  1  0.997175  0.181900  0.000000  1
  P  P17  1  0.482384  0.174856  0.500000  1
  P  P18  1  0.162513  0.478018  0.500000  1
  Ir  Ir19  1  0.618936  0.803050  0.000000  1
  Ir  Ir20  1  0.181597  0.376187  0.000000  1
  Ir  Ir21  1  0.383048  0.178447  0.000000  1
  Ir  Ir22  1  0.198363  0.819949  0.000000  1
  Ir  Ir23  1  0.808784  0.628432  0.000000  1
  Ir  Ir24  1  0.863480  0.504972  0.500000  1
  Ir  Ir25  1  0.489419  0.362312  0.500000  1
  Ir  Ir26  1  0.636340  0.131837  0.500000  1
  Ir  Ir27  1  0.126414  0.638501  0.500000  1
  Ir  Ir28  1  0.359018  0.495153  0.500000  1
  Ir  Ir29  1  0.502297  0.862797  0.500000  1
  Ir  Ir30  1  0.002161  0.997772  0.000000  1
  Ir  Ir31  1  0.456167  0.995978  0.000000  1
  Ru  Ru32  1  0.714960  0.715982  0.500000  1
  Ru  Ru33  1  0.000242  0.285353  0.500000  1
  Ru  Ru34  1  0.816543  0.199735  0.000000  1
  Ru  Ru35  1  0.292126  0.998692  0.500000  1
