# generated using pymatgen
data_Tm4Zn4IrRh3
_symmetry_space_group_name_H-M   'P 1'
_cell_length_a   4.02595700
_cell_length_b   6.91877224
_cell_length_c   8.05005862
_cell_angle_alpha   89.90760917
_cell_angle_beta   90.00000000
_cell_angle_gamma   90.00000000
_symmetry_Int_Tables_number   1
_chemical_formula_structural   Tm4Zn4IrRh3
_chemical_formula_sum   'Tm4 Zn4 Ir1 Rh3'
_cell_volume   224.23151173
_cell_formula_units_Z   1
loop_
 _symmetry_equiv_pos_site_id
 _symmetry_equiv_pos_as_xyz
  1  'x, y, z'
loop_
 _atom_site_type_symbol
 _atom_site_label
 _atom_site_symmetry_multiplicity
 _atom_site_fract_x
 _atom_site_fract_y
 _atom_site_fract_z
 _atom_site_occupancy
  Tm  Tm0  1  0.250000  0.537001  0.182465  1
  Tm  Tm1  1  0.750000  0.465836  0.816950  1
  Tm  Tm2  1  0.750000  0.961880  0.684264  1
  Tm  Tm3  1  0.250000  0.036159  0.316712  1
  Zn  Zn4  1  0.250000  0.637644  0.565260  1
  Zn  Zn5  1  0.750000  0.361868  0.434983  1
  Zn  Zn6  1  0.750000  0.861861  0.065924  1
  Zn  Zn7  1  0.250000  0.138642  0.934817  1
  Ir  Ir8  1  0.250000  0.756009  0.877016  1
  Rh  Rh9  1  0.750000  0.244500  0.122778  1
  Rh  Rh10  1  0.750000  0.744316  0.377912  1
  Rh  Rh11  1  0.250000  0.254284  0.620918  1
