# generated using pymatgen
data_Ba(InPt)2
_symmetry_space_group_name_H-M   'P 1'
_cell_length_a   4.81007400
_cell_length_b   4.89909403
_cell_length_c   10.68194600
_cell_angle_alpha   88.25074940
_cell_angle_beta   90.00000000
_cell_angle_gamma   90.00000000
_symmetry_Int_Tables_number   1
_chemical_formula_structural   Ba(InPt)2
_chemical_formula_sum   'Ba2 In4 Pt4'
_cell_volume   251.60280470
_cell_formula_units_Z   2
loop_
 _symmetry_equiv_pos_site_id
 _symmetry_equiv_pos_as_xyz
  1  'x, y, z'
loop_
 _atom_site_type_symbol
 _atom_site_label
 _atom_site_symmetry_multiplicity
 _atom_site_fract_x
 _atom_site_fract_y
 _atom_site_fract_z
 _atom_site_occupancy
  Ba  Ba0  1  0.750000  0.262433  0.239933  1
  Ba  Ba1  1  0.250000  0.737768  0.761080  1
  In  In2  1  0.750000  0.207661  0.883870  1
  In  In3  1  0.250000  0.250690  0.498618  1
  In  In4  1  0.750000  0.749813  0.500473  1
  In  In5  1  0.250000  0.791674  0.116449  1
  Pt  Pt6  1  0.250000  0.302454  0.000321  1
  Pt  Pt7  1  0.750000  0.241996  0.626873  1
  Pt  Pt8  1  0.750000  0.696746  0.999970  1
  Pt  Pt9  1  0.250000  0.758762  0.372415  1
