# generated using pymatgen
data_Sc3V(SiRh5)2
_symmetry_space_group_name_H-M   'P 1'
_cell_length_a   4.01852300
_cell_length_b   5.46241999
_cell_length_c   10.66583091
_cell_angle_alpha   89.93126065
_cell_angle_beta   90.00000000
_cell_angle_gamma   90.00000000
_symmetry_Int_Tables_number   1
_chemical_formula_structural   Sc3V(SiRh5)2
_chemical_formula_sum   'Sc3 V1 Si2 Rh10'
_cell_volume   234.12399638
_cell_formula_units_Z   1
loop_
 _symmetry_equiv_pos_site_id
 _symmetry_equiv_pos_as_xyz
  1  'x, y, z'
loop_
 _atom_site_type_symbol
 _atom_site_label
 _atom_site_symmetry_multiplicity
 _atom_site_fract_x
 _atom_site_fract_y
 _atom_site_fract_z
 _atom_site_occupancy
  Sc  Sc0  1  0.500000  0.172913  0.641517  1
  Sc  Sc1  1  0.500000  0.833055  0.361193  1
  Sc  Sc2  1  0.500000  0.671309  0.859291  1
  V  V3  1  0.500000  0.341231  0.143863  1
  Si  Si4  1  0.000000  0.497683  0.498401  1
  Si  Si5  1  0.000000  0.994442  0.000694  1
  Rh  Rh6  1  0.500000  0.326686  0.386078  1
  Rh  Rh7  1  0.500000  0.673622  0.601696  1
  Rh  Rh8  1  0.500000  0.811209  0.104957  1
  Rh  Rh9  1  0.500000  0.175675  0.906966  1
  Rh  Rh10  1  0.000000  0.425475  0.744248  1
  Rh  Rh11  1  0.000000  0.575588  0.253669  1
  Rh  Rh12  1  0.000000  0.926243  0.760406  1
  Rh  Rh13  1  0.000000  0.091056  0.230034  1
  Rh  Rh14  1  0.000000  0.479996  0.008974  1
  Rh  Rh15  1  0.000000  0.003816  0.498012  1
