# generated using pymatgen
data_TaCo4Re3B4
_symmetry_space_group_name_H-M   'P 1'
_cell_length_a   3.25988500
_cell_length_b   5.72732250
_cell_length_c   6.61173596
_cell_angle_alpha   89.26554321
_cell_angle_beta   90.00000000
_cell_angle_gamma   90.00000000
_symmetry_Int_Tables_number   1
_chemical_formula_structural   TaCo4Re3B4
_chemical_formula_sum   'Ta1 Co4 Re3 B4'
_cell_volume   123.43369721
_cell_formula_units_Z   1
loop_
 _symmetry_equiv_pos_site_id
 _symmetry_equiv_pos_as_xyz
  1  'x, y, z'
loop_
 _atom_site_type_symbol
 _atom_site_label
 _atom_site_symmetry_multiplicity
 _atom_site_fract_x
 _atom_site_fract_y
 _atom_site_fract_z
 _atom_site_occupancy
  Ta  Ta0  1  0.250000  0.527536  0.675192  1
  Co  Co1  1  0.750000  0.853308  0.553017  1
  Co  Co2  1  0.250000  0.143910  0.441937  1
  Co  Co3  1  0.750000  0.355810  0.947813  1
  Co  Co4  1  0.250000  0.646802  0.055950  1
  Re  Re5  1  0.750000  0.471065  0.327748  1
  Re  Re6  1  0.250000  0.029584  0.827013  1
  Re  Re7  1  0.750000  0.970221  0.172608  1
  B  B8  1  0.250000  0.271710  0.126714  1
  B  B9  1  0.750000  0.737359  0.881171  1
  B  B10  1  0.250000  0.772455  0.367046  1
  B  B11  1  0.750000  0.220239  0.623791  1
