# generated using pymatgen
data_BeCr21TcC6
_symmetry_space_group_name_H-M   'P 1'
_cell_length_a   7.46216631
_cell_length_b   7.46210735
_cell_length_c   7.46236900
_cell_angle_alpha   60.00144228
_cell_angle_beta   60.00112734
_cell_angle_gamma   60.00045073
_symmetry_Int_Tables_number   1
_chemical_formula_structural   BeCr21TcC6
_chemical_formula_sum   'Be1 Cr21 Tc1 C6'
_cell_volume   293.83129685
_cell_formula_units_Z   1
loop_
 _symmetry_equiv_pos_site_id
 _symmetry_equiv_pos_as_xyz
  1  'x, y, z'
loop_
 _atom_site_type_symbol
 _atom_site_label
 _atom_site_symmetry_multiplicity
 _atom_site_fract_x
 _atom_site_fract_y
 _atom_site_fract_z
 _atom_site_occupancy
  Be  Be0  1  0.999984  0.000010  0.999998  1
  Cr  Cr1  1  0.250033  0.250047  0.249963  1
  Cr  Cr2  1  0.616235  0.616195  0.151220  1
  Cr  Cr3  1  0.616073  0.151314  0.616250  1
  Cr  Cr4  1  0.151378  0.616096  0.616307  1
  Cr  Cr5  1  0.616136  0.616305  0.616344  1
  Cr  Cr6  1  0.379463  0.379473  0.861825  1
  Cr  Cr7  1  0.379677  0.861703  0.379372  1
  Cr  Cr8  1  0.861602  0.379636  0.379314  1
  Cr  Cr9  1  0.379588  0.379348  0.379235  1
  Cr  Cr10  1  0.000347  0.000487  0.336690  1
  Cr  Cr11  1  0.662285  0.000496  0.336743  1
  Cr  Cr12  1  0.000408  0.662422  0.336634  1
  Cr  Cr13  1  0.662343  0.336779  0.000502  1
  Cr  Cr14  1  0.000324  0.336857  0.000415  1
  Cr  Cr15  1  0.000395  0.336760  0.662487  1
  Cr  Cr16  1  0.336853  0.662400  0.000323  1
  Cr  Cr17  1  0.336933  0.000303  0.662392  1
  Cr  Cr18  1  0.336829  0.000353  0.000311  1
  Cr  Cr19  1  0.000467  0.000366  0.662481  1
  Cr  Cr20  1  0.000451  0.662355  0.000461  1
  Cr  Cr21  1  0.662386  0.000430  0.000543  1
  Tc  Tc22  1  0.749809  0.749888  0.750188  1
  C  C23  1  0.722210  0.722253  0.277753  1
  C  C24  1  0.277906  0.722134  0.277699  1
  C  C25  1  0.722165  0.277824  0.277678  1
  C  C26  1  0.277774  0.277706  0.722258  1
  C  C27  1  0.722123  0.277851  0.722289  1
  C  C28  1  0.277824  0.722208  0.722326  1
