# generated using pymatgen
data_Gd3CdF12
_symmetry_space_group_name_H-M   'P 1'
_cell_length_a   7.05527601
_cell_length_b   4.48778568
_cell_length_c   6.58084451
_cell_angle_alpha   89.60022308
_cell_angle_beta   89.99648828
_cell_angle_gamma   89.99717770
_symmetry_Int_Tables_number   1
_chemical_formula_structural   Gd3CdF12
_chemical_formula_sum   'Gd3 Cd1 F12'
_cell_volume   208.36135519
_cell_formula_units_Z   1
loop_
 _symmetry_equiv_pos_site_id
 _symmetry_equiv_pos_as_xyz
  1  'x, y, z'
loop_
 _atom_site_type_symbol
 _atom_site_label
 _atom_site_symmetry_multiplicity
 _atom_site_fract_x
 _atom_site_fract_y
 _atom_site_fract_z
 _atom_site_occupancy
  Gd  Gd0  1  0.999985  0.572518  0.628697  1
  Gd  Gd1  1  0.500018  0.063066  0.871034  1
  Gd  Gd2  1  0.500016  0.439799  0.367592  1
  Cd  Cd3  1  0.999982  0.949556  0.137493  1
  F  F4  1  0.000014  0.086017  0.491691  1
  F  F5  1  0.999974  0.394278  0.957903  1
  F  F6  1  0.500000  0.913568  0.523564  1
  F  F7  1  0.499994  0.587563  0.020661  1
  F  F8  1  0.189706  0.622273  0.337269  1
  F  F9  1  0.807278  0.871277  0.835138  1
  F  F10  1  0.686030  0.377288  0.663806  1
  F  F11  1  0.317440  0.125991  0.164439  1
  F  F12  1  0.313980  0.377308  0.663830  1
  F  F13  1  0.682529  0.125954  0.164429  1
  F  F14  1  0.810333  0.622254  0.337294  1
  F  F15  1  0.192720  0.871292  0.835160  1
