# generated using pymatgen
data_Yb3Ga2
_symmetry_space_group_name_H-M   'P 1'
_cell_length_a   5.81086562
_cell_length_b   5.81086411
_cell_length_c   8.28825937
_cell_angle_alpha   76.34447233
_cell_angle_beta   76.34447827
_cell_angle_gamma   88.21125494
_symmetry_Int_Tables_number   1
_chemical_formula_structural   Yb3Ga2
_chemical_formula_sum   'Yb6 Ga4'
_cell_volume   264.17517712
_cell_formula_units_Z   2
loop_
 _symmetry_equiv_pos_site_id
 _symmetry_equiv_pos_as_xyz
  1  'x, y, z'
loop_
 _atom_site_type_symbol
 _atom_site_label
 _atom_site_symmetry_multiplicity
 _atom_site_fract_x
 _atom_site_fract_y
 _atom_site_fract_z
 _atom_site_occupancy
  Yb  Yb0  1  0.745031  0.661949  0.030062  1
  Yb  Yb1  1  0.338051  0.254969  0.469938  1
  Yb  Yb2  1  0.254969  0.338051  0.969938  1
  Yb  Yb3  1  0.176034  0.823966  0.250000  1
  Yb  Yb4  1  0.823966  0.176034  0.750000  1
  Yb  Yb5  1  0.661949  0.745031  0.530062  1
  Ga  Ga6  1  0.307919  0.885438  0.843527  1
  Ga  Ga7  1  0.114562  0.692081  0.656473  1
  Ga  Ga8  1  0.885438  0.307919  0.343527  1
  Ga  Ga9  1  0.692081  0.114562  0.156473  1
