# generated using pymatgen
data_ZrS23
_symmetry_space_group_name_H-M   'P 1'
_cell_length_a   5.59544714
_cell_length_b   9.59366147
_cell_length_c   16.29899500
_cell_angle_alpha   82.42591977
_cell_angle_beta   85.98404499
_cell_angle_gamma   91.36398319
_symmetry_Int_Tables_number   1
_chemical_formula_structural   ZrS23
_chemical_formula_sum   'Zr1 S23'
_cell_volume   864.69732289
_cell_formula_units_Z   1
loop_
 _symmetry_equiv_pos_site_id
 _symmetry_equiv_pos_as_xyz
  1  'x, y, z'
loop_
 _atom_site_type_symbol
 _atom_site_label
 _atom_site_symmetry_multiplicity
 _atom_site_fract_x
 _atom_site_fract_y
 _atom_site_fract_z
 _atom_site_occupancy
  Zr  Zr0  1  0.596048  0.175944  0.432940  1
  S  S1  1  0.732124  0.941570  0.400503  1
  S  S2  1  0.020819  0.302250  0.099428  1
  S  S3  1  0.790244  0.227816  0.557438  1
  S  S4  1  0.459443  0.896705  0.491689  1
  S  S5  1  0.172222  0.280084  0.982931  1
  S  S6  1  0.816347  0.741687  0.026261  1
  S  S7  1  0.142861  0.189109  0.384771  1
  S  S8  1  0.614958  0.386105  0.326745  1
  S  S9  1  0.856600  0.112671  0.150858  1
  S  S10  1  0.268070  0.874122  0.118558  1
  S  S11  1  0.699245  0.649861  0.625570  1
  S  S12  1  0.306502  0.437065  0.560972  1
  S  S13  1  0.149047  0.901713  0.860523  1
  S  S14  1  0.732348  0.140701  0.886234  1
  S  S15  1  0.062750  0.693951  0.113431  1
  S  S16  1  0.602158  0.854335  0.609223  1
  S  S17  1  0.425953  0.228312  0.584749  1
  S  S18  1  0.969285  0.715791  0.910374  1
  S  S19  1  0.924214  0.323983  0.895679  1
  S  S20  1  0.249088  0.379939  0.311997  1
  S  S21  1  0.109800  0.986390  0.206471  1
  S  S22  1  0.388449  0.526535  0.662675  1
  S  S23  1  0.911425  0.033357  0.799981  1
