# generated using pymatgen
data_Yb5TlHg4
_symmetry_space_group_name_H-M   'P 1'
_cell_length_a   3.77533700
_cell_length_b   3.77533700
_cell_length_c   18.55636500
_cell_angle_alpha   90.00000000
_cell_angle_beta   90.00000000
_cell_angle_gamma   90.00000000
_symmetry_Int_Tables_number   1
_chemical_formula_structural   Yb5TlHg4
_chemical_formula_sum   'Yb5 Tl1 Hg4'
_cell_volume   264.48701497
_cell_formula_units_Z   1
loop_
 _symmetry_equiv_pos_site_id
 _symmetry_equiv_pos_as_xyz
  1  'x, y, z'
loop_
 _atom_site_type_symbol
 _atom_site_label
 _atom_site_symmetry_multiplicity
 _atom_site_fract_x
 _atom_site_fract_y
 _atom_site_fract_z
 _atom_site_occupancy
  Yb  Yb0  1  0.500000  0.500000  0.106440  1
  Yb  Yb1  1  0.500000  0.500000  0.301974  1
  Yb  Yb2  1  0.500000  0.500000  0.500000  1
  Yb  Yb3  1  0.500000  0.500000  0.698026  1
  Yb  Yb4  1  0.500000  0.500000  0.893560  1
  Tl  Tl5  1  0.000000  0.000000  0.000000  1
  Hg  Hg6  1  0.000000  0.000000  0.204636  1
  Hg  Hg7  1  0.000000  0.000000  0.402192  1
  Hg  Hg8  1  0.000000  0.000000  0.597808  1
  Hg  Hg9  1  0.000000  0.000000  0.795364  1
