# generated using pymatgen
data_U4Tc7P6
_symmetry_space_group_name_H-M   'P 1'
_cell_length_a   7.04563464
_cell_length_b   7.04563419
_cell_length_c   7.04563400
_cell_angle_alpha   109.47122298
_cell_angle_beta   109.47122167
_cell_angle_gamma   109.47122091
_symmetry_Int_Tables_number   1
_chemical_formula_structural   U4Tc7P6
_chemical_formula_sum   'U4 Tc7 P6'
_cell_volume   269.23925357
_cell_formula_units_Z   1
loop_
 _symmetry_equiv_pos_site_id
 _symmetry_equiv_pos_as_xyz
  1  'x, y, z'
loop_
 _atom_site_type_symbol
 _atom_site_label
 _atom_site_symmetry_multiplicity
 _atom_site_fract_x
 _atom_site_fract_y
 _atom_site_fract_z
 _atom_site_occupancy
  U  U0  1  0.500000  0.500000  0.500000  1
  U  U1  1  0.000000  0.000000  0.500000  1
  U  U2  1  0.500000  0.000000  0.000000  1
  U  U3  1  0.000000  0.500000  0.000000  1
  Tc  Tc4  1  0.750000  0.250000  0.500000  1
  Tc  Tc5  1  0.500000  0.250000  0.750000  1
  Tc  Tc6  1  0.500000  0.750000  0.250000  1
  Tc  Tc7  1  0.250000  0.500000  0.750000  1
  Tc  Tc8  1  0.750000  0.500000  0.250000  1
  Tc  Tc9  1  0.250000  0.750000  0.500000  1
  Tc  Tc10  1  0.000000  0.000000  0.000000  1
  P  P11  1  0.309940  0.309940  0.000000  1
  P  P12  1  0.000000  0.309940  0.309940  1
  P  P13  1  0.000000  0.690060  0.690060  1
  P  P14  1  0.690060  0.000000  0.690060  1
  P  P15  1  0.309940  0.000000  0.309940  1
  P  P16  1  0.690060  0.690060  0.000000  1
