# generated using pymatgen
data_Tb4AlRu
_symmetry_space_group_name_H-M   'P 1'
_cell_length_a   9.54095167
_cell_length_b   9.54095105
_cell_length_c   9.54095200
_cell_angle_alpha   60.00000365
_cell_angle_beta   60.00000578
_cell_angle_gamma   59.99999973
_symmetry_Int_Tables_number   1
_chemical_formula_structural   Tb4AlRu
_chemical_formula_sum   'Tb16 Al4 Ru4'
_cell_volume   614.12970838
_cell_formula_units_Z   4
loop_
 _symmetry_equiv_pos_site_id
 _symmetry_equiv_pos_as_xyz
  1  'x, y, z'
loop_
 _atom_site_type_symbol
 _atom_site_label
 _atom_site_symmetry_multiplicity
 _atom_site_fract_x
 _atom_site_fract_y
 _atom_site_fract_z
 _atom_site_occupancy
  Tb  Tb0  1  0.101071  0.696786  0.101071  1
  Tb  Tb1  1  0.944337  0.944337  0.555663  1
  Tb  Tb2  1  0.944337  0.555663  0.944337  1
  Tb  Tb3  1  0.310488  0.689512  0.310488  1
  Tb  Tb4  1  0.944337  0.555663  0.555663  1
  Tb  Tb5  1  0.310488  0.310488  0.689512  1
  Tb  Tb6  1  0.101071  0.101071  0.101071  1
  Tb  Tb7  1  0.555663  0.555663  0.944337  1
  Tb  Tb8  1  0.101071  0.101071  0.696786  1
  Tb  Tb9  1  0.689512  0.310488  0.689512  1
  Tb  Tb10  1  0.689512  0.689512  0.310488  1
  Tb  Tb11  1  0.689512  0.310488  0.310488  1
  Tb  Tb12  1  0.310488  0.689512  0.689512  1
  Tb  Tb13  1  0.555663  0.944337  0.555663  1
  Tb  Tb14  1  0.696786  0.101071  0.101071  1
  Tb  Tb15  1  0.555663  0.944337  0.944337  1
  Al  Al16  1  0.326526  0.326526  0.326526  1
  Al  Al17  1  0.020420  0.326526  0.326526  1
  Al  Al18  1  0.326526  0.020420  0.326526  1
  Al  Al19  1  0.326526  0.326526  0.020420  1
  Ru  Ru20  1  0.889507  0.889507  0.889507  1
  Ru  Ru21  1  0.889507  0.889507  0.331478  1
  Ru  Ru22  1  0.331478  0.889507  0.889507  1
  Ru  Ru23  1  0.889507  0.331478  0.889507  1
