# generated using pymatgen
data_Pr2Al8GaIr3
_symmetry_space_group_name_H-M   'P 1'
_cell_length_a   7.62108046
_cell_length_b   7.62108033
_cell_length_c   9.67863800
_cell_angle_alpha   90.00000000
_cell_angle_beta   90.00000000
_cell_angle_gamma   119.29909058
_symmetry_Int_Tables_number   1
_chemical_formula_structural   Pr2Al8GaIr3
_chemical_formula_sum   'Pr4 Al16 Ga2 Ir6'
_cell_volume   490.23259668
_cell_formula_units_Z   2
loop_
 _symmetry_equiv_pos_site_id
 _symmetry_equiv_pos_as_xyz
  1  'x, y, z'
loop_
 _atom_site_type_symbol
 _atom_site_label
 _atom_site_symmetry_multiplicity
 _atom_site_fract_x
 _atom_site_fract_y
 _atom_site_fract_z
 _atom_site_occupancy
  Pr  Pr0  1  0.994142  0.673280  0.250000  1
  Pr  Pr1  1  0.005858  0.326720  0.750000  1
  Pr  Pr2  1  0.673280  0.994142  0.250000  1
  Pr  Pr3  1  0.326720  0.005858  0.750000  1
  Al  Al4  1  0.003252  0.335991  0.070767  1
  Al  Al5  1  0.996748  0.664009  0.929233  1
  Al  Al6  1  0.996748  0.664009  0.570767  1
  Al  Al7  1  0.335991  0.003252  0.429233  1
  Al  Al8  1  0.003252  0.335991  0.429233  1
  Al  Al9  1  0.664009  0.996748  0.570767  1
  Al  Al10  1  0.664009  0.996748  0.929233  1
  Al  Al11  1  0.335991  0.003252  0.070767  1
  Al  Al12  1  0.335287  0.335287  0.548063  1
  Al  Al13  1  0.664713  0.664713  0.451937  1
  Al  Al14  1  0.664713  0.664713  0.048063  1
  Al  Al15  1  0.335287  0.335287  0.951937  1
  Al  Al16  1  0.337556  0.545835  0.250000  1
  Al  Al17  1  0.662444  0.454165  0.750000  1
  Al  Al18  1  0.545835  0.337556  0.250000  1
  Al  Al19  1  0.454165  0.662444  0.750000  1
  Ga  Ga20  1  0.136298  0.136298  0.250000  1
  Ga  Ga21  1  0.863702  0.863702  0.750000  1
  Ir  Ir22  1  0.670446  0.329554  0.000000  1
  Ir  Ir23  1  0.329554  0.670446  0.000000  1
  Ir  Ir24  1  0.329554  0.670446  0.500000  1
  Ir  Ir25  1  0.670446  0.329554  0.500000  1
  Ir  Ir26  1  0.000000  0.000000  0.000000  1
  Ir  Ir27  1  0.000000  0.000000  0.500000  1
