# generated using pymatgen
data_La6Ir17Pt
_symmetry_space_group_name_H-M   'P 1'
_cell_length_a   5.42130600
_cell_length_b   5.42144735
_cell_length_c   17.77543600
_cell_angle_alpha   90.00097131
_cell_angle_beta   90.00080992
_cell_angle_gamma   119.99899881
_symmetry_Int_Tables_number   1
_chemical_formula_structural   La6Ir17Pt
_chemical_formula_sum   'La6 Ir17 Pt1'
_cell_volume   452.45400943
_cell_formula_units_Z   1
loop_
 _symmetry_equiv_pos_site_id
 _symmetry_equiv_pos_as_xyz
  1  'x, y, z'
loop_
 _atom_site_type_symbol
 _atom_site_label
 _atom_site_symmetry_multiplicity
 _atom_site_fract_x
 _atom_site_fract_y
 _atom_site_fract_z
 _atom_site_occupancy
  La  La0  1  0.333335  0.666670  0.541249  1
  La  La1  1  0.666669  0.333326  0.042804  1
  La  La2  1  0.666665  0.333330  0.458751  1
  La  La3  1  0.333331  0.666674  0.957196  1
  La  La4  1  0.333328  0.666666  0.749244  1
  La  La5  1  0.666672  0.333334  0.250756  1
  Ir  Ir6  1  0.166895  0.333797  0.129825  1
  Ir  Ir7  1  0.833632  0.667276  0.628695  1
  Ir  Ir8  1  0.666198  0.833091  0.129808  1
  Ir  Ir9  1  0.166895  0.833105  0.129804  1
  Ir  Ir10  1  0.833659  0.166381  0.628673  1
  Ir  Ir11  1  0.332735  0.166378  0.628679  1
  Ir  Ir12  1  0.833105  0.666203  0.870175  1
  Ir  Ir13  1  0.833105  0.166895  0.870196  1
  Ir  Ir14  1  0.333802  0.166909  0.870192  1
  Ir  Ir15  1  0.667265  0.833622  0.371321  1
  Ir  Ir16  1  0.166341  0.833619  0.371327  1
  Ir  Ir17  1  0.166368  0.332724  0.371305  1
  Ir  Ir18  1  0.999976  0.999898  0.250400  1
  Ir  Ir19  1  0.000024  0.000102  0.749600  1
  Ir  Ir20  1  0.333355  0.666753  0.249736  1
  Ir  Ir21  1  0.666645  0.333247  0.750264  1
  Ir  Ir22  1  0.000000  0.000000  0.500000  1
  Pt  Pt23  1  0.000000  0.000000  0.000000  1
