# generated using pymatgen
data_AcLa2(SnRu)2
_symmetry_space_group_name_H-M   'P 1'
_cell_length_a   6.18540300
_cell_length_b   8.69333000
_cell_length_c   13.98521700
_cell_angle_alpha   90.00000000
_cell_angle_beta   90.00000000
_cell_angle_gamma   90.00000000
_symmetry_Int_Tables_number   1
_chemical_formula_structural   AcLa2(SnRu)2
_chemical_formula_sum   'Ac4 La8 Sn8 Ru8'
_cell_volume   752.00958470
_cell_formula_units_Z   4
loop_
 _symmetry_equiv_pos_site_id
 _symmetry_equiv_pos_as_xyz
  1  'x, y, z'
loop_
 _atom_site_type_symbol
 _atom_site_label
 _atom_site_symmetry_multiplicity
 _atom_site_fract_x
 _atom_site_fract_y
 _atom_site_fract_z
 _atom_site_occupancy
  Ac  Ac0  1  0.623647  0.279673  0.750000  1
  Ac  Ac1  1  0.376353  0.720327  0.250000  1
  Ac  Ac2  1  0.623647  0.220327  0.250000  1
  Ac  Ac3  1  0.376353  0.779673  0.750000  1
  La  La4  1  0.161341  0.405486  0.587090  1
  La  La5  1  0.838659  0.594514  0.087090  1
  La  La6  1  0.161341  0.094514  0.412910  1
  La  La7  1  0.838659  0.905486  0.912910  1
  La  La8  1  0.838659  0.594514  0.412910  1
  La  La9  1  0.161341  0.405486  0.912910  1
  La  La10  1  0.838659  0.905486  0.587090  1
  La  La11  1  0.161341  0.094514  0.087090  1
  Sn  Sn12  1  0.120376  0.120564  0.750000  1
  Sn  Sn13  1  0.879624  0.879436  0.250000  1
  Sn  Sn14  1  0.120376  0.379436  0.250000  1
  Sn  Sn15  1  0.879624  0.620564  0.750000  1
  Sn  Sn16  1  0.628752  0.250000  0.500000  1
  Sn  Sn17  1  0.371248  0.750000  0.000000  1
  Sn  Sn18  1  0.371248  0.750000  0.500000  1
  Sn  Sn19  1  0.628752  0.250000  0.000000  1
  Ru  Ru20  1  0.341689  0.036316  0.582833  1
  Ru  Ru21  1  0.658311  0.963684  0.082833  1
  Ru  Ru22  1  0.341689  0.463684  0.417167  1
  Ru  Ru23  1  0.658311  0.536316  0.917167  1
  Ru  Ru24  1  0.658311  0.963684  0.417167  1
  Ru  Ru25  1  0.341689  0.036316  0.917167  1
  Ru  Ru26  1  0.658311  0.536316  0.582833  1
  Ru  Ru27  1  0.341689  0.463684  0.082833  1
