# generated using pymatgen
data_V3RuF20
_symmetry_space_group_name_H-M   'P 1'
_cell_length_a   10.08441693
_cell_length_b   5.60221440
_cell_length_c   7.47689080
_cell_angle_alpha   89.98816035
_cell_angle_beta   90.34291755
_cell_angle_gamma   90.01762899
_symmetry_Int_Tables_number   1
_chemical_formula_structural   V3RuF20
_chemical_formula_sum   'V3 Ru1 F20'
_cell_volume   422.39984312
_cell_formula_units_Z   1
loop_
 _symmetry_equiv_pos_site_id
 _symmetry_equiv_pos_as_xyz
  1  'x, y, z'
loop_
 _atom_site_type_symbol
 _atom_site_label
 _atom_site_symmetry_multiplicity
 _atom_site_fract_x
 _atom_site_fract_y
 _atom_site_fract_z
 _atom_site_occupancy
  V  V0  1  0.780581  0.515295  0.115579  1
  V  V1  1  0.279536  0.484959  0.891964  1
  V  V2  1  0.889167  0.015869  0.422532  1
  Ru  Ru3  1  0.384686  0.983864  0.580838  1
  F  F4  1  0.265505  0.989716  0.387927  1
  F  F5  1  0.486364  0.976296  0.791490  1
  F  F6  1  0.771818  0.776751  0.298893  1
  F  F7  1  0.488006  0.754345  0.472942  1
  F  F8  1  0.979922  0.778506  0.511575  1
  F  F9  1  0.785805  0.731982  0.948476  1
  F  F10  1  0.288226  0.724771  0.038547  1
  F  F11  1  0.269755  0.725260  0.686284  1
  F  F12  1  0.951737  0.522414  0.167682  1
  F  F13  1  0.607494  0.514251  0.145812  1
  F  F14  1  0.107039  0.485349  0.858302  1
  F  F15  1  0.448067  0.477049  0.832808  1
  F  F16  1  0.776120  0.273558  0.314709  1
  F  F17  1  0.787196  0.277657  0.965371  1
  F  F18  1  0.286615  0.267111  0.056690  1
  F  F19  1  0.482064  0.232118  0.486380  1
  F  F20  1  0.986107  0.235813  0.523868  1
  F  F21  1  0.265415  0.221390  0.703423  1
  F  F22  1  0.970680  0.023823  0.213632  1
  F  F23  1  0.762906  0.011852  0.584274  1
