# generated using pymatgen
data_Ce2Dy2LuAgPb3
_symmetry_space_group_name_H-M   'P 1'
_cell_length_a   9.49145902
_cell_length_b   9.49256624
_cell_length_c   6.41563500
_cell_angle_alpha   90.00000000
_cell_angle_beta   90.00000000
_cell_angle_gamma   120.00386350
_symmetry_Int_Tables_number   1
_chemical_formula_structural   Ce2Dy2LuAgPb3
_chemical_formula_sum   'Ce4 Dy4 Lu2 Ag2 Pb6'
_cell_volume   500.57595438
_cell_formula_units_Z   2
loop_
 _symmetry_equiv_pos_site_id
 _symmetry_equiv_pos_as_xyz
  1  'x, y, z'
loop_
 _atom_site_type_symbol
 _atom_site_label
 _atom_site_symmetry_multiplicity
 _atom_site_fract_x
 _atom_site_fract_y
 _atom_site_fract_z
 _atom_site_occupancy
  Ce  Ce0  1  0.666672  0.333991  0.499924  1
  Ce  Ce1  1  0.333328  0.667321  0.499924  1
  Ce  Ce2  1  0.333328  0.667321  0.000076  1
  Ce  Ce3  1  0.666672  0.333991  0.000076  1
  Dy  Dy4  1  0.000000  0.277724  0.250000  1
  Dy  Dy5  1  0.270245  0.270816  0.750000  1
  Dy  Dy6  1  0.729755  0.000571  0.750000  1
  Dy  Dy7  1  0.000000  0.726764  0.750000  1
  Lu  Lu8  1  0.720243  0.722735  0.250000  1
  Lu  Lu9  1  0.279757  0.002492  0.250000  1
  Ag  Ag10  1  0.000000  0.995217  0.486099  1
  Ag  Ag11  1  0.000000  0.995217  0.013901  1
  Pb  Pb12  1  0.373493  0.372977  0.250000  1
  Pb  Pb13  1  0.626507  0.999484  0.250000  1
  Pb  Pb14  1  0.000000  0.632193  0.250000  1
  Pb  Pb15  1  0.624961  0.625623  0.750000  1
  Pb  Pb16  1  0.375039  0.000662  0.750000  1
  Pb  Pb17  1  0.000000  0.374901  0.750000  1
