# generated using pymatgen
data_Yb2CuPdPt2
_symmetry_space_group_name_H-M   'P 1'
_cell_length_a   5.21447847
_cell_length_b   5.21923270
_cell_length_c   5.21923505
_cell_angle_alpha   63.26559577
_cell_angle_beta   63.08703310
_cell_angle_gamma   63.08703566
_symmetry_Int_Tables_number   1
_chemical_formula_structural   Yb2CuPdPt2
_chemical_formula_sum   'Yb2 Cu1 Pd1 Pt2'
_cell_volume   107.44828769
_cell_formula_units_Z   1
loop_
 _symmetry_equiv_pos_site_id
 _symmetry_equiv_pos_as_xyz
  1  'x, y, z'
loop_
 _atom_site_type_symbol
 _atom_site_label
 _atom_site_symmetry_multiplicity
 _atom_site_fract_x
 _atom_site_fract_y
 _atom_site_fract_z
 _atom_site_occupancy
  Yb  Yb0  1  0.627574  0.624464  0.624464  1
  Yb  Yb1  1  0.372426  0.375536  0.375536  1
  Cu  Cu2  1  0.000000  0.000000  0.000000  1
  Pd  Pd3  1  0.500000  0.000000  0.000000  1
  Pt  Pt4  1  0.000000  0.500000  0.000000  1
  Pt  Pt5  1  0.000000  0.000000  0.500000  1
