# generated using pymatgen
data_Ho2Tm4B14OsW
_symmetry_space_group_name_H-M   'P 1'
_cell_length_a   8.02643166
_cell_length_b   8.02643141
_cell_length_c   9.33636201
_cell_angle_alpha   89.92654975
_cell_angle_beta   90.07344953
_cell_angle_gamma   155.01163060
_symmetry_Int_Tables_number   1
_chemical_formula_structural   Ho2Tm4B14OsW
_chemical_formula_sum   'Ho2 Tm4 B14 Os1 W1'
_cell_volume   254.08643077
_cell_formula_units_Z   1
loop_
 _symmetry_equiv_pos_site_id
 _symmetry_equiv_pos_as_xyz
  1  'x, y, z'
loop_
 _atom_site_type_symbol
 _atom_site_label
 _atom_site_symmetry_multiplicity
 _atom_site_fract_x
 _atom_site_fract_y
 _atom_site_fract_z
 _atom_site_occupancy
  Ho  Ho0  1  0.893452  0.106548  0.437289  1
  Ho  Ho1  1  0.753765  0.246235  0.750163  1
  Tm  Tm2  1  0.107034  0.892966  0.557442  1
  Tm  Tm3  1  0.893813  0.106187  0.061630  1
  Tm  Tm4  1  0.107213  0.892787  0.942748  1
  Tm  Tm5  1  0.243286  0.756714  0.249802  1
  B  B6  1  0.726218  0.273782  0.464168  1
  B  B7  1  0.271185  0.728815  0.531371  1
  B  B8  1  0.726848  0.273152  0.036199  1
  B  B9  1  0.271631  0.728369  0.968972  1
  B  B10  1  0.632065  0.367935  0.150812  1
  B  B11  1  0.365269  0.634731  0.853463  1
  B  B12  1  0.632012  0.367988  0.349157  1
  B  B13  1  0.365170  0.634830  0.647487  1
  B  B14  1  0.520606  0.479394  0.095753  1
  B  B15  1  0.481315  0.518685  0.909926  1
  B  B16  1  0.520808  0.479192  0.403500  1
  B  B17  1  0.481477  0.518523  0.590762  1
  B  B18  1  0.456215  0.543785  0.249122  1
  B  B19  1  0.548374  0.451626  0.750218  1
  Os  Os20  1  0.053934  0.946066  0.249516  1
  W  W21  1  0.948310  0.051690  0.750499  1
