# generated using pymatgen
data_Ce3Pr2Fe3(P3Ru4)4
_symmetry_space_group_name_H-M   'P 1'
_cell_length_a   12.60534000
_cell_length_b   12.60534029
_cell_length_c   3.91280200
_cell_angle_alpha   90.00000000
_cell_angle_beta   90.00000000
_cell_angle_gamma   119.99999923
_symmetry_Int_Tables_number   1
_chemical_formula_structural   Ce3Pr2Fe3(P3Ru4)4
_chemical_formula_sum   'Ce3 Pr2 Fe3 P12 Ru16'
_cell_volume   538.42801102
_cell_formula_units_Z   1
loop_
 _symmetry_equiv_pos_site_id
 _symmetry_equiv_pos_as_xyz
  1  'x, y, z'
loop_
 _atom_site_type_symbol
 _atom_site_label
 _atom_site_symmetry_multiplicity
 _atom_site_fract_x
 _atom_site_fract_y
 _atom_site_fract_z
 _atom_site_occupancy
  Ce  Ce0  1  0.182421  0.182421  0.500000  1
  Ce  Ce1  1  0.817579  0.000000  0.500000  1
  Ce  Ce2  1  0.000000  0.817579  0.500000  1
  Pr  Pr3  1  0.333333  0.666667  0.000000  1
  Pr  Pr4  1  0.666667  0.333333  0.000000  1
  Fe  Fe5  1  0.717011  0.717011  0.500000  1
  Fe  Fe6  1  0.282989  0.000000  0.500000  1
  Fe  Fe7  1  0.000000  0.282989  0.500000  1
  P  P8  1  0.811259  0.811259  0.000000  1
  P  P9  1  0.188741  0.000000  0.000000  1
  P  P10  1  0.000000  0.188741  0.000000  1
  P  P11  1  0.161356  0.470544  0.500000  1
  P  P12  1  0.529456  0.690812  0.500000  1
  P  P13  1  0.309188  0.838644  0.500000  1
  P  P14  1  0.690812  0.529456  0.500000  1
  P  P15  1  0.838644  0.309188  0.500000  1
  P  P16  1  0.470544  0.161356  0.500000  1
  P  P17  1  0.376133  0.376133  0.000000  1
  P  P18  1  0.623867  0.000000  0.000000  1
  P  P19  1  0.000000  0.623867  0.000000  1
  Ru  Ru20  1  0.559410  0.559410  0.000000  1
  Ru  Ru21  1  0.440590  0.000000  0.000000  1
  Ru  Ru22  1  0.000000  0.440590  0.000000  1
  Ru  Ru23  1  0.181329  0.373752  0.000000  1
  Ru  Ru24  1  0.626248  0.807577  0.000000  1
  Ru  Ru25  1  0.192423  0.818671  0.000000  1
  Ru  Ru26  1  0.807577  0.626248  0.000000  1
  Ru  Ru27  1  0.818671  0.192423  0.000000  1
  Ru  Ru28  1  0.373752  0.181329  0.000000  1
  Ru  Ru29  1  0.363913  0.488179  0.500000  1
  Ru  Ru30  1  0.511821  0.875733  0.500000  1
  Ru  Ru31  1  0.124267  0.636087  0.500000  1
  Ru  Ru32  1  0.875733  0.511821  0.500000  1
  Ru  Ru33  1  0.636087  0.124267  0.500000  1
  Ru  Ru34  1  0.488179  0.363913  0.500000  1
  Ru  Ru35  1  0.000000  0.000000  0.000000  1
