# generated using pymatgen
data_HfTh3(Ga3Pd)8
_symmetry_space_group_name_H-M   'P 1'
_cell_length_a   8.60036277
_cell_length_b   8.60036209
_cell_length_c   8.60036167
_cell_angle_alpha   89.46843841
_cell_angle_beta   89.46844484
_cell_angle_gamma   89.46844849
_symmetry_Int_Tables_number   1
_chemical_formula_structural   HfTh3(Ga3Pd)8
_chemical_formula_sum   'Hf1 Th3 Ga24 Pd8'
_cell_volume   636.05473908
_cell_formula_units_Z   1
loop_
 _symmetry_equiv_pos_site_id
 _symmetry_equiv_pos_as_xyz
  1  'x, y, z'
loop_
 _atom_site_type_symbol
 _atom_site_label
 _atom_site_symmetry_multiplicity
 _atom_site_fract_x
 _atom_site_fract_y
 _atom_site_fract_z
 _atom_site_occupancy
  Hf  Hf0  1  0.500000  0.500000  0.500000  1
  Th  Th1  1  0.000000  0.500000  0.000000  1
  Th  Th2  1  0.500000  0.000000  0.000000  1
  Th  Th3  1  0.000000  0.000000  0.500000  1
  Ga  Ga4  1  0.988119  0.643799  0.643799  1
  Ga  Ga5  1  0.643799  0.643799  0.988119  1
  Ga  Ga6  1  0.643799  0.988119  0.643799  1
  Ga  Ga7  1  0.011881  0.356201  0.356201  1
  Ga  Ga8  1  0.356201  0.356201  0.011881  1
  Ga  Ga9  1  0.356201  0.011881  0.356201  1
  Ga  Ga10  1  0.736727  0.500000  0.263273  1
  Ga  Ga11  1  0.263273  0.500000  0.736727  1
  Ga  Ga12  1  0.500000  0.263273  0.736727  1
  Ga  Ga13  1  0.500000  0.736727  0.263273  1
  Ga  Ga14  1  0.263273  0.736727  0.500000  1
  Ga  Ga15  1  0.736727  0.263273  0.500000  1
  Ga  Ga16  1  0.837350  0.143595  0.837350  1
  Ga  Ga17  1  0.143595  0.837350  0.837350  1
  Ga  Ga18  1  0.837350  0.837350  0.143595  1
  Ga  Ga19  1  0.162650  0.856405  0.162650  1
  Ga  Ga20  1  0.856405  0.162650  0.162650  1
  Ga  Ga21  1  0.162650  0.162650  0.856405  1
  Ga  Ga22  1  0.730504  0.488643  0.730504  1
  Ga  Ga23  1  0.488643  0.730504  0.730504  1
  Ga  Ga24  1  0.730504  0.730504  0.488643  1
  Ga  Ga25  1  0.269496  0.511357  0.269496  1
  Ga  Ga26  1  0.511357  0.269496  0.269496  1
  Ga  Ga27  1  0.269496  0.269496  0.511357  1
  Pd  Pd28  1  0.840539  0.840539  0.840539  1
  Pd  Pd29  1  0.159461  0.159461  0.159461  1
  Pd  Pd30  1  0.665826  0.334174  0.000000  1
  Pd  Pd31  1  0.000000  0.334174  0.665826  1
  Pd  Pd32  1  0.334174  0.000000  0.665826  1
  Pd  Pd33  1  0.334174  0.665826  0.000000  1
  Pd  Pd34  1  0.000000  0.665826  0.334174  1
  Pd  Pd35  1  0.665826  0.000000  0.334174  1
