# generated using pymatgen
data_Er3Pa(VB4)4
_symmetry_space_group_name_H-M   'P 1'
_cell_length_a   3.46828200
_cell_length_b   5.98268287
_cell_length_c   11.57675449
_cell_angle_alpha   89.86962372
_cell_angle_beta   90.00000000
_cell_angle_gamma   90.00000000
_symmetry_Int_Tables_number   1
_chemical_formula_structural   Er3Pa(VB4)4
_chemical_formula_sum   'Er3 Pa1 V4 B16'
_cell_volume   240.21276568
_cell_formula_units_Z   1
loop_
 _symmetry_equiv_pos_site_id
 _symmetry_equiv_pos_as_xyz
  1  'x, y, z'
loop_
 _atom_site_type_symbol
 _atom_site_label
 _atom_site_symmetry_multiplicity
 _atom_site_fract_x
 _atom_site_fract_y
 _atom_site_fract_z
 _atom_site_occupancy
  Er  Er0  1  0.500000  0.874272  0.152213  1
  Er  Er1  1  0.500000  0.623094  0.648866  1
  Er  Er2  1  0.500000  0.375412  0.349458  1
  Pa  Pa3  1  0.500000  0.125944  0.848770  1
  V  V4  1  0.500000  0.125917  0.583870  1
  V  V5  1  0.500000  0.872492  0.417295  1
  V  V6  1  0.500000  0.628131  0.916344  1
  V  V7  1  0.500000  0.372326  0.082221  1
  B  B8  1  0.000000  0.285524  0.684903  1
  B  B9  1  0.000000  0.713524  0.314050  1
  B  B10  1  0.000000  0.784771  0.814551  1
  B  B11  1  0.000000  0.215128  0.186786  1
  B  B12  1  0.000000  0.365380  0.531975  1
  B  B13  1  0.000000  0.634850  0.467165  1
  B  B14  1  0.000000  0.865233  0.967874  1
  B  B15  1  0.000000  0.136663  0.033219  1
  B  B16  1  0.000000  0.023502  0.307174  1
  B  B17  1  0.000000  0.976009  0.691181  1
  B  B18  1  0.000000  0.522928  0.193630  1
  B  B19  1  0.000000  0.475502  0.807952  1
  B  B20  1  0.000000  0.114954  0.452158  1
  B  B21  1  0.000000  0.884904  0.546476  1
  B  B22  1  0.000000  0.615352  0.048221  1
  B  B23  1  0.000000  0.388188  0.953649  1
