# generated using pymatgen
data_LiCe8(Si4Pd)3
_symmetry_space_group_name_H-M   'P 1'
_cell_length_a   8.23993500
_cell_length_b   8.23993472
_cell_length_c   8.31988600
_cell_angle_alpha   90.00000000
_cell_angle_beta   90.00000000
_cell_angle_gamma   119.99999711
_symmetry_Int_Tables_number   1
_chemical_formula_structural   LiCe8(Si4Pd)3
_chemical_formula_sum   'Li1 Ce8 Si12 Pd3'
_cell_volume   489.21028254
_cell_formula_units_Z   1
loop_
 _symmetry_equiv_pos_site_id
 _symmetry_equiv_pos_as_xyz
  1  'x, y, z'
loop_
 _atom_site_type_symbol
 _atom_site_label
 _atom_site_symmetry_multiplicity
 _atom_site_fract_x
 _atom_site_fract_y
 _atom_site_fract_z
 _atom_site_occupancy
  Li  Li0  1  0.333333  0.666667  0.998550  1
  Ce  Ce1  1  0.500892  0.001785  0.249592  1
  Ce  Ce2  1  0.501143  0.002287  0.750379  1
  Ce  Ce3  1  0.998215  0.499108  0.249592  1
  Ce  Ce4  1  0.997713  0.498857  0.750379  1
  Ce  Ce5  1  0.500892  0.499108  0.249592  1
  Ce  Ce6  1  0.501143  0.498857  0.750379  1
  Ce  Ce7  1  0.000000  0.000000  0.249241  1
  Ce  Ce8  1  0.000000  0.000000  0.750845  1
  Si  Si9  1  0.166200  0.332401  0.000207  1
  Si  Si10  1  0.835824  0.671648  0.999818  1
  Si  Si11  1  0.667599  0.833800  0.000207  1
  Si  Si12  1  0.835655  0.671311  0.499617  1
  Si  Si13  1  0.328352  0.164176  0.999818  1
  Si  Si14  1  0.164470  0.328940  0.500580  1
  Si  Si15  1  0.166200  0.833800  0.000207  1
  Si  Si16  1  0.328689  0.164345  0.499617  1
  Si  Si17  1  0.835824  0.164176  0.999818  1
  Si  Si18  1  0.671060  0.835530  0.500580  1
  Si  Si19  1  0.835655  0.164345  0.499617  1
  Si  Si20  1  0.164470  0.835530  0.500580  1
  Pd  Pd21  1  0.666667  0.333333  0.999749  1
  Pd  Pd22  1  0.666667  0.333333  0.500034  1
  Pd  Pd23  1  0.333333  0.666667  0.501007  1
