# generated using pymatgen
data_Sr3Cd3Pt2Au
_symmetry_space_group_name_H-M   'P 1'
_cell_length_a   7.89864100
_cell_length_b   7.89864096
_cell_length_c   4.33157400
_cell_angle_alpha   90.00000000
_cell_angle_beta   90.00000000
_cell_angle_gamma   119.99999599
_symmetry_Int_Tables_number   1
_chemical_formula_structural   Sr3Cd3Pt2Au
_chemical_formula_sum   'Sr3 Cd3 Pt2 Au1'
_cell_volume   234.03517480
_cell_formula_units_Z   1
loop_
 _symmetry_equiv_pos_site_id
 _symmetry_equiv_pos_as_xyz
  1  'x, y, z'
loop_
 _atom_site_type_symbol
 _atom_site_label
 _atom_site_symmetry_multiplicity
 _atom_site_fract_x
 _atom_site_fract_y
 _atom_site_fract_z
 _atom_site_occupancy
  Sr  Sr0  1  0.598686  0.010994  0.500000  1
  Sr  Sr1  1  0.412309  0.401314  0.500000  1
  Sr  Sr2  1  0.989006  0.587691  0.500000  1
  Cd  Cd3  1  0.759611  0.753510  0.000000  1
  Cd  Cd4  1  0.993899  0.240389  0.000000  1
  Cd  Cd5  1  0.246490  0.006101  0.000000  1
  Pt  Pt6  1  0.000000  0.000000  0.500000  1
  Pt  Pt7  1  0.666667  0.333333  0.000000  1
  Au  Au8  1  0.333333  0.666667  0.000000  1
