# generated using pymatgen
data_Sr5W2N7
_symmetry_space_group_name_H-M   'P 1'
_cell_length_a   6.50650879
_cell_length_b   9.39645654
_cell_length_c   9.39949091
_cell_angle_alpha   115.34675658
_cell_angle_beta   96.50744359
_cell_angle_gamma   89.30010351
_symmetry_Int_Tables_number   1
_chemical_formula_structural   Sr5W2N7
_chemical_formula_sum   'Sr10 W4 N14'
_cell_volume   515.57810986
_cell_formula_units_Z   2
loop_
 _symmetry_equiv_pos_site_id
 _symmetry_equiv_pos_as_xyz
  1  'x, y, z'
loop_
 _atom_site_type_symbol
 _atom_site_label
 _atom_site_symmetry_multiplicity
 _atom_site_fract_x
 _atom_site_fract_y
 _atom_site_fract_z
 _atom_site_occupancy
  Sr  Sr0  1  0.847661  0.591131  0.323543  1
  Sr  Sr1  1  0.261136  0.986869  0.555309  1
  Sr  Sr2  1  0.702924  0.416467  0.852914  1
  Sr  Sr3  1  0.297076  0.583533  0.147086  1
  Sr  Sr4  1  0.403880  0.792550  0.922530  1
  Sr  Sr5  1  0.596120  0.207450  0.077470  1
  Sr  Sr6  1  0.152339  0.408869  0.676457  1
  Sr  Sr7  1  0.898269  0.847329  0.761390  1
  Sr  Sr8  1  0.101731  0.152671  0.238610  1
  Sr  Sr9  1  0.738864  0.013131  0.444691  1
  W  W10  1  0.579717  0.353754  0.474132  1
  W  W11  1  0.420283  0.646246  0.525868  1
  W  W12  1  0.120475  0.215344  0.914567  1
  W  W13  1  0.879525  0.784656  0.085433  1
  N  N14  1  0.529909  0.549599  0.673277  1
  N  N15  1  0.470091  0.450401  0.326723  1
  N  N16  1  0.149226  0.705160  0.549593  1
  N  N17  1  0.850774  0.294840  0.450407  1
  N  N18  1  0.413192  0.188222  0.462191  1
  N  N19  1  0.586808  0.811778  0.537809  1
  N  N20  1  0.953807  0.134497  0.716304  1
  N  N21  1  0.046193  0.865503  0.283696  1
  N  N22  1  0.231799  0.051669  0.960746  1
  N  N23  1  0.768201  0.948331  0.039254  1
  N  N24  1  0.351410  0.328241  0.901039  1
  N  N25  1  0.964174  0.346525  0.078761  1
  N  N26  1  0.035826  0.653475  0.921239  1
  N  N27  1  0.648590  0.671759  0.098961  1
