# generated using pymatgen
data_Tm8Ti11Si16Tc
_symmetry_space_group_name_H-M   'P 1'
_cell_length_a   6.98115149
_cell_length_b   6.97350138
_cell_length_c   12.83603654
_cell_angle_alpha   90.08106427
_cell_angle_beta   90.10641413
_cell_angle_gamma   90.01741003
_symmetry_Int_Tables_number   1
_chemical_formula_structural   Tm8Ti11Si16Tc
_chemical_formula_sum   'Tm8 Ti11 Si16 Tc1'
_cell_volume   624.89592659
_cell_formula_units_Z   1
loop_
 _symmetry_equiv_pos_site_id
 _symmetry_equiv_pos_as_xyz
  1  'x, y, z'
loop_
 _atom_site_type_symbol
 _atom_site_label
 _atom_site_symmetry_multiplicity
 _atom_site_fract_x
 _atom_site_fract_y
 _atom_site_fract_z
 _atom_site_occupancy
  Tm  Tm0  1  0.998508  0.658338  0.034796  1
  Tm  Tm1  1  0.001795  0.341466  0.530964  1
  Tm  Tm2  1  0.660549  0.996627  0.967173  1
  Tm  Tm3  1  0.158333  0.501235  0.783359  1
  Tm  Tm4  1  0.841682  0.496484  0.283148  1
  Tm  Tm5  1  0.501091  0.160366  0.218564  1
  Tm  Tm6  1  0.497280  0.839498  0.715498  1
  Tm  Tm7  1  0.340857  0.001748  0.466968  1
  Ti  Ti8  1  0.846517  0.992098  0.375884  1
  Ti  Ti9  1  0.009167  0.154928  0.127024  1
  Ti  Ti10  1  0.995182  0.844889  0.621943  1
  Ti  Ti11  1  0.506975  0.346856  0.625697  1
  Ti  Ti12  1  0.151693  0.007346  0.875029  1
  Ti  Ti13  1  0.669162  0.670267  0.498358  1
  Ti  Ti14  1  0.826668  0.172788  0.749978  1
  Ti  Ti15  1  0.176685  0.824386  0.251032  1
  Ti  Ti16  1  0.328190  0.328272  0.000892  1
  Ti  Ti17  1  0.496196  0.653430  0.124335  1
  Ti  Ti18  1  0.652645  0.493777  0.875061  1
  Si  Si19  1  0.047617  0.708238  0.434918  1
  Si  Si20  1  0.954517  0.292303  0.935938  1
  Si  Si21  1  0.707300  0.046902  0.564638  1
  Si  Si22  1  0.209182  0.455590  0.187300  1
  Si  Si23  1  0.791810  0.546100  0.684843  1
  Si  Si24  1  0.454611  0.207120  0.815258  1
  Si  Si25  1  0.543587  0.789586  0.313709  1
  Si  Si26  1  0.293428  0.953445  0.064704  1
  Si  Si27  1  0.797251  0.869121  0.183460  1
  Si  Si28  1  0.298156  0.631180  0.564312  1
  Si  Si29  1  0.702696  0.366934  0.067319  1
  Si  Si30  1  0.626803  0.300874  0.432899  1
  Si  Si31  1  0.367950  0.703059  0.933055  1
  Si  Si32  1  0.131394  0.206337  0.318555  1
  Si  Si33  1  0.201828  0.131668  0.682388  1
  Si  Si34  1  0.868271  0.797040  0.815957  1
  Tc  Tc35  1  0.344429  0.509703  0.375045  1
