# generated using pymatgen
data_SrP2OsRh
_symmetry_space_group_name_H-M   'P 1'
_cell_length_a   6.53931537
_cell_length_b   6.53931558
_cell_length_c   6.53931524
_cell_angle_alpha   144.19442546
_cell_angle_beta   144.19442752
_cell_angle_gamma   51.53665511
_symmetry_Int_Tables_number   1
_chemical_formula_structural   SrP2OsRh
_chemical_formula_sum   'Sr1 P2 Os1 Rh1'
_cell_volume   95.18862341
_cell_formula_units_Z   1
loop_
 _symmetry_equiv_pos_site_id
 _symmetry_equiv_pos_as_xyz
  1  'x, y, z'
loop_
 _atom_site_type_symbol
 _atom_site_label
 _atom_site_symmetry_multiplicity
 _atom_site_fract_x
 _atom_site_fract_y
 _atom_site_fract_z
 _atom_site_occupancy
  Sr  Sr0  1  0.000000  0.000000  0.000000  1
  P  P1  1  0.354115  0.354115  0.000000  1
  P  P2  1  0.645885  0.645885  0.000000  1
  Os  Os3  1  0.250000  0.750000  0.500000  1
  Rh  Rh4  1  0.750000  0.250000  0.500000  1
