# generated using pymatgen
data_Li4PrDy(HoSi3)2
_symmetry_space_group_name_H-M   'P 1'
_cell_length_a   9.31511022
_cell_length_b   9.31510870
_cell_length_c   6.78489400
_cell_angle_alpha   90.00000000
_cell_angle_beta   90.00000000
_cell_angle_gamma   153.47669360
_symmetry_Int_Tables_number   1
_chemical_formula_structural   Li4PrDy(HoSi3)2
_chemical_formula_sum   'Li4 Pr1 Dy1 Ho2 Si6'
_cell_volume   262.90604590
_cell_formula_units_Z   1
loop_
 _symmetry_equiv_pos_site_id
 _symmetry_equiv_pos_as_xyz
  1  'x, y, z'
loop_
 _atom_site_type_symbol
 _atom_site_label
 _atom_site_symmetry_multiplicity
 _atom_site_fract_x
 _atom_site_fract_y
 _atom_site_fract_z
 _atom_site_occupancy
  Li  Li0  1  0.190641  0.809359  0.059553  1
  Li  Li1  1  0.190641  0.809359  0.440447  1
  Li  Li2  1  0.809763  0.190237  0.939379  1
  Li  Li3  1  0.809763  0.190237  0.560621  1
  Pr  Pr4  1  0.553379  0.446621  0.250000  1
  Dy  Dy5  1  0.446254  0.553746  0.750000  1
  Ho  Ho6  1  0.344502  0.655498  0.250000  1
  Ho  Ho7  1  0.655661  0.344339  0.750000  1
  Si  Si8  1  0.723705  0.276295  0.250000  1
  Si  Si9  1  0.278708  0.721292  0.750000  1
  Si  Si10  1  0.058597  0.941403  0.923374  1
  Si  Si11  1  0.939894  0.060106  0.071801  1
  Si  Si12  1  0.939894  0.060106  0.428199  1
  Si  Si13  1  0.058597  0.941403  0.576626  1
