# generated using pymatgen
data_Ce12FeSi8Tc7
_symmetry_space_group_name_H-M   'P 1'
_cell_length_a   5.59313276
_cell_length_b   7.93016485
_cell_length_c   13.19897322
_cell_angle_alpha   90.05316029
_cell_angle_beta   89.72333901
_cell_angle_gamma   89.79363184
_symmetry_Int_Tables_number   1
_chemical_formula_structural   Ce12FeSi8Tc7
_chemical_formula_sum   'Ce12 Fe1 Si8 Tc7'
_cell_volume   585.42250882
_cell_formula_units_Z   1
loop_
 _symmetry_equiv_pos_site_id
 _symmetry_equiv_pos_as_xyz
  1  'x, y, z'
loop_
 _atom_site_type_symbol
 _atom_site_label
 _atom_site_symmetry_multiplicity
 _atom_site_fract_x
 _atom_site_fract_y
 _atom_site_fract_z
 _atom_site_occupancy
  Ce  Ce0  1  0.126541  0.269555  0.749595  1
  Ce  Ce1  1  0.878434  0.730157  0.250742  1
  Ce  Ce2  1  0.120145  0.230914  0.251881  1
  Ce  Ce3  1  0.879891  0.768445  0.747145  1
  Ce  Ce4  1  0.656486  0.408474  0.595619  1
  Ce  Ce5  1  0.339848  0.588975  0.096779  1
  Ce  Ce6  1  0.664180  0.087782  0.408624  1
  Ce  Ce7  1  0.343197  0.911258  0.901378  1
  Ce  Ce8  1  0.333291  0.590413  0.404120  1
  Ce  Ce9  1  0.664436  0.408520  0.900915  1
  Ce  Ce10  1  0.339491  0.909108  0.596428  1
  Ce  Ce11  1  0.661654  0.089162  0.097601  1
  Fe  Fe12  1  0.841337  0.032355  0.583370  1
  Si  Si13  1  0.108025  0.248024  0.504204  1
  Si  Si14  1  0.887962  0.750370  0.999071  1
  Si  Si15  1  0.882095  0.756948  0.504047  1
  Si  Si16  1  0.112729  0.249000  0.999721  1
  Si  Si17  1  0.639087  0.112797  0.741550  1
  Si  Si18  1  0.370541  0.884232  0.251290  1
  Si  Si19  1  0.627703  0.383237  0.251831  1
  Si  Si20  1  0.372629  0.617326  0.750043  1
  Tc  Tc21  1  0.152292  0.970558  0.090384  1
  Tc  Tc22  1  0.841885  0.470344  0.413323  1
  Tc  Tc23  1  0.156184  0.528774  0.910197  1
  Tc  Tc24  1  0.153085  0.970565  0.413641  1
  Tc  Tc25  1  0.851692  0.029578  0.904837  1
  Tc  Tc26  1  0.149710  0.533608  0.590722  1
  Tc  Tc27  1  0.845448  0.469522  0.090940  1
