# generated using pymatgen
data_Li7ZrTc11Ge16Mo
_symmetry_space_group_name_H-M   'P 1'
_cell_length_a   6.55776734
_cell_length_b   6.78176849
_cell_length_c   12.55748300
_cell_angle_alpha   89.97184114
_cell_angle_beta   90.05779584
_cell_angle_gamma   90.18585342
_symmetry_Int_Tables_number   1
_chemical_formula_structural   Li7ZrTc11Ge16Mo
_chemical_formula_sum   'Li7 Zr1 Tc11 Ge16 Mo1'
_cell_volume   558.46891593
_cell_formula_units_Z   1
loop_
 _symmetry_equiv_pos_site_id
 _symmetry_equiv_pos_as_xyz
  1  'x, y, z'
loop_
 _atom_site_type_symbol
 _atom_site_label
 _atom_site_symmetry_multiplicity
 _atom_site_fract_x
 _atom_site_fract_y
 _atom_site_fract_z
 _atom_site_occupancy
  Li  Li0  1  0.471512  0.678824  0.583950  1
  Li  Li1  1  0.966211  0.828036  0.919690  1
  Li  Li2  1  0.530375  0.327595  0.082434  1
  Li  Li3  1  0.034849  0.173806  0.411649  1
  Li  Li4  1  0.526328  0.330553  0.411464  1
  Li  Li5  1  0.029431  0.171108  0.082333  1
  Li  Li6  1  0.473854  0.666764  0.924078  1
  Zr  Zr7  1  0.990163  0.823201  0.590590  1
  Tc  Tc8  1  0.677192  0.149550  0.627191  1
  Tc  Tc9  1  0.171587  0.340676  0.873970  1
  Tc  Tc10  1  0.326042  0.840553  0.128661  1
  Tc  Tc11  1  0.832909  0.662400  0.370558  1
  Tc  Tc12  1  0.322624  0.841148  0.370295  1
  Tc  Tc13  1  0.828376  0.661823  0.128340  1
  Tc  Tc14  1  0.667532  0.163494  0.872257  1
  Tc  Tc15  1  0.837075  0.500314  0.745836  1
  Tc  Tc16  1  0.332683  0.000733  0.748514  1
  Tc  Tc17  1  0.160127  0.505586  0.250161  1
  Tc  Tc18  1  0.659990  0.997761  0.248548  1
  Ge  Ge19  1  0.677527  0.968991  0.448698  1
  Ge  Ge20  1  0.177573  0.533467  0.047057  1
  Ge  Ge21  1  0.320001  0.032016  0.954018  1
  Ge  Ge22  1  0.813841  0.452867  0.539834  1
  Ge  Ge23  1  0.330283  0.045018  0.541167  1
  Ge  Ge24  1  0.823434  0.466546  0.954397  1
  Ge  Ge25  1  0.675047  0.965922  0.044886  1
  Ge  Ge26  1  0.181986  0.529702  0.452438  1
  Ge  Ge27  1  0.474581  0.385571  0.747455  1
  Ge  Ge28  1  0.969647  0.112466  0.757986  1
  Ge  Ge29  1  0.526850  0.610917  0.249765  1
  Ge  Ge30  1  0.025498  0.898436  0.246818  1
  Ge  Ge31  1  0.669439  0.830254  0.757625  1
  Ge  Ge32  1  0.191749  0.658844  0.763485  1
  Ge  Ge33  1  0.319723  0.169685  0.247438  1
  Ge  Ge34  1  0.819007  0.333972  0.247591  1
  Mo  Mo35  1  0.164954  0.341398  0.628828  1
