# generated using pymatgen
data_Tb7SmHf11Si16Hg
_symmetry_space_group_name_H-M   'P 1'
_cell_length_a   7.31886566
_cell_length_b   7.32035890
_cell_length_c   13.32066755
_cell_angle_alpha   89.73178663
_cell_angle_beta   90.19383485
_cell_angle_gamma   89.79269238
_symmetry_Int_Tables_number   1
_chemical_formula_structural   Tb7SmHf11Si16Hg
_chemical_formula_sum   'Tb7 Sm1 Hf11 Si16 Hg1'
_cell_volume   713.66110450
_cell_formula_units_Z   1
loop_
 _symmetry_equiv_pos_site_id
 _symmetry_equiv_pos_as_xyz
  1  'x, y, z'
loop_
 _atom_site_type_symbol
 _atom_site_label
 _atom_site_symmetry_multiplicity
 _atom_site_fract_x
 _atom_site_fract_y
 _atom_site_fract_z
 _atom_site_occupancy
  Tb  Tb0  1  0.004397  0.655914  0.715835  1
  Tb  Tb1  1  0.154909  0.495996  0.465407  1
  Tb  Tb2  1  0.498691  0.847117  0.032589  1
  Tb  Tb3  1  0.847119  0.499065  0.966842  1
  Tb  Tb4  1  0.495968  0.154485  0.535092  1
  Tb  Tb5  1  0.346583  0.997071  0.788215  1
  Tb  Tb6  1  0.655688  0.004127  0.284335  1
  Sm  Sm7  1  0.996288  0.345453  0.211224  1
  Hf  Hf8  1  0.824236  0.824649  0.500240  1
  Hf  Hf9  1  0.323819  0.677217  0.249935  1
  Hf  Hf10  1  0.676853  0.323194  0.750151  1
  Hf  Hf11  1  0.146004  0.997189  0.375548  1
  Hf  Hf12  1  0.856045  0.002498  0.878119  1
  Hf  Hf13  1  0.504879  0.647072  0.626505  1
  Hf  Hf14  1  0.356091  0.491206  0.877252  1
  Hf  Hf15  1  0.490889  0.355991  0.122350  1
  Hf  Hf16  1  0.647103  0.505545  0.374047  1
  Hf  Hf17  1  0.997110  0.145190  0.624926  1
  Hf  Hf18  1  0.002588  0.855714  0.121596  1
  Si  Si19  1  0.362010  0.295852  0.317568  1
  Si  Si20  1  0.640202  0.703468  0.819278  1
  Si  Si21  1  0.207228  0.860935  0.568737  1
  Si  Si22  1  0.131097  0.772887  0.926224  1
  Si  Si23  1  0.770585  0.129242  0.072594  1
  Si  Si24  1  0.860950  0.206826  0.431968  1
  Si  Si25  1  0.296382  0.359911  0.682893  1
  Si  Si26  1  0.702002  0.641592  0.180797  1
  Si  Si27  1  0.298552  0.047686  0.192664  1
  Si  Si28  1  0.705866  0.950620  0.686462  1
  Si  Si29  1  0.449800  0.794614  0.436362  1
  Si  Si30  1  0.212296  0.571478  0.064348  1
  Si  Si31  1  0.569493  0.211000  0.934854  1
  Si  Si32  1  0.794565  0.449803  0.563941  1
  Si  Si33  1  0.048787  0.297502  0.807476  1
  Si  Si34  1  0.949963  0.707810  0.314143  1
  Hg  Hg35  1  0.174962  0.174078  0.999485  1
