# generated using pymatgen
data_Tb4DyY7Er8(CoSb2)4
_symmetry_space_group_name_H-M   'P 1'
_cell_length_a   7.89009033
_cell_length_b   8.75101700
_cell_length_c   12.20699306
_cell_angle_alpha   90.00000000
_cell_angle_beta   90.08547992
_cell_angle_gamma   90.00000000
_symmetry_Int_Tables_number   1
_chemical_formula_structural   Tb4DyY7Er8(CoSb2)4
_chemical_formula_sum   'Tb4 Dy1 Y7 Er8 Co4 Sb8'
_cell_volume   842.84694564
_cell_formula_units_Z   1
loop_
 _symmetry_equiv_pos_site_id
 _symmetry_equiv_pos_as_xyz
  1  'x, y, z'
loop_
 _atom_site_type_symbol
 _atom_site_label
 _atom_site_symmetry_multiplicity
 _atom_site_fract_x
 _atom_site_fract_y
 _atom_site_fract_z
 _atom_site_occupancy
  Tb  Tb0  1  0.623944  0.750000  0.307366  1
  Tb  Tb1  1  0.124087  0.250000  0.193009  1
  Tb  Tb2  1  0.375762  0.250000  0.692536  1
  Tb  Tb3  1  0.876186  0.750000  0.807594  1
  Dy  Dy4  1  0.154011  0.750000  0.202604  1
  Y  Y5  1  0.654141  0.250000  0.296175  1
  Y  Y6  1  0.845454  0.250000  0.796184  1
  Y  Y7  1  0.346056  0.750000  0.703741  1
  Y  Y8  1  0.454933  0.750000  0.998171  1
  Y  Y9  1  0.954407  0.250000  0.501890  1
  Y  Y10  1  0.545379  0.250000  0.002005  1
  Y  Y11  1  0.045623  0.750000  0.497783  1
  Er  Er12  1  0.823911  0.965191  0.065295  1
  Er  Er13  1  0.323984  0.034811  0.434182  1
  Er  Er14  1  0.176227  0.465470  0.935046  1
  Er  Er15  1  0.676059  0.534327  0.565595  1
  Er  Er16  1  0.176227  0.034530  0.935046  1
  Er  Er17  1  0.676059  0.965673  0.565595  1
  Er  Er18  1  0.823911  0.534809  0.065295  1
  Er  Er19  1  0.323984  0.465189  0.434182  1
  Co  Co20  1  0.439062  0.750000  0.491186  1
  Co  Co21  1  0.939045  0.250000  0.009016  1
  Co  Co22  1  0.560874  0.250000  0.508842  1
  Co  Co23  1  0.061166  0.750000  0.991901  1
  Sb  Sb24  1  0.930014  0.992184  0.326954  1
  Sb  Sb25  1  0.429696  0.007686  0.172457  1
  Sb  Sb26  1  0.069908  0.492422  0.672932  1
  Sb  Sb27  1  0.570136  0.507707  0.827537  1
  Sb  Sb28  1  0.069908  0.007578  0.672932  1
  Sb  Sb29  1  0.570136  0.992293  0.827537  1
  Sb  Sb30  1  0.930014  0.507816  0.326954  1
  Sb  Sb31  1  0.429696  0.492314  0.172457  1
