# generated using pymatgen
data_Tb4YbSm3(B6Os)4
_symmetry_space_group_name_H-M   'P 1'
_cell_length_a   3.69008400
_cell_length_b   9.21070091
_cell_length_c   11.60166700
_cell_angle_alpha   90.03721135
_cell_angle_beta   90.00000000
_cell_angle_gamma   90.00000000
_symmetry_Int_Tables_number   1
_chemical_formula_structural   Tb4YbSm3(B6Os)4
_chemical_formula_sum   'Tb4 Yb1 Sm3 B24 Os4'
_cell_volume   394.32039183
_cell_formula_units_Z   1
loop_
 _symmetry_equiv_pos_site_id
 _symmetry_equiv_pos_as_xyz
  1  'x, y, z'
loop_
 _atom_site_type_symbol
 _atom_site_label
 _atom_site_symmetry_multiplicity
 _atom_site_fract_x
 _atom_site_fract_y
 _atom_site_fract_z
 _atom_site_occupancy
  Tb  Tb0  1  0.000000  0.178000  0.912729  1
  Tb  Tb1  1  0.000000  0.943530  0.372036  1
  Tb  Tb2  1  0.000000  0.056439  0.628461  1
  Tb  Tb3  1  0.000000  0.443928  0.125735  1
  Yb  Yb4  1  0.000000  0.556468  0.871750  1
  Sm  Sm5  1  0.000000  0.323288  0.414872  1
  Sm  Sm6  1  0.000000  0.676174  0.588646  1
  Sm  Sm7  1  0.000000  0.822200  0.084072  1
  B  B8  1  0.500000  0.554365  0.431737  1
  B  B9  1  0.500000  0.445438  0.569698  1
  B  B10  1  0.500000  0.055148  0.067094  1
  B  B11  1  0.500000  0.945770  0.931506  1
  B  B12  1  0.500000  0.747698  0.418811  1
  B  B13  1  0.500000  0.252430  0.582168  1
  B  B14  1  0.500000  0.248232  0.079532  1
  B  B15  1  0.500000  0.751090  0.918154  1
  B  B16  1  0.500000  0.789639  0.266938  1
  B  B17  1  0.500000  0.210536  0.733805  1
  B  B18  1  0.500000  0.290315  0.231697  1
  B  B19  1  0.500000  0.708965  0.768420  1
  B  B20  1  0.500000  0.631384  0.185238  1
  B  B21  1  0.500000  0.369489  0.814893  1
  B  B22  1  0.500000  0.131835  0.313393  1
  B  B23  1  0.500000  0.868294  0.687498  1
  B  B24  1  0.500000  0.985197  0.212585  1
  B  B25  1  0.500000  0.016047  0.787769  1
  B  B26  1  0.500000  0.484719  0.286213  1
  B  B27  1  0.500000  0.515220  0.714872  1
  B  B28  1  0.500000  0.605717  0.028718  1
  B  B29  1  0.500000  0.393257  0.969604  1
  B  B30  1  0.500000  0.107779  0.470255  1
  B  B31  1  0.500000  0.892050  0.530112  1
  Os  Os32  1  0.000000  0.637542  0.321203  1
  Os  Os33  1  0.000000  0.361561  0.680021  1
  Os  Os34  1  0.000000  0.138219  0.178607  1
  Os  Os35  1  0.000000  0.862034  0.821159  1
