# generated using pymatgen
data_CaSm2(BPt2)3
_symmetry_space_group_name_H-M   'P 1'
_cell_length_a   5.46142900
_cell_length_b   5.47239672
_cell_length_c   7.80255800
_cell_angle_alpha   90.00000000
_cell_angle_beta   90.00000000
_cell_angle_gamma   120.06645063
_symmetry_Int_Tables_number   1
_chemical_formula_structural   CaSm2(BPt2)3
_chemical_formula_sum   'Ca1 Sm2 B3 Pt6'
_cell_volume   201.81819147
_cell_formula_units_Z   1
loop_
 _symmetry_equiv_pos_site_id
 _symmetry_equiv_pos_as_xyz
  1  'x, y, z'
loop_
 _atom_site_type_symbol
 _atom_site_label
 _atom_site_symmetry_multiplicity
 _atom_site_fract_x
 _atom_site_fract_y
 _atom_site_fract_z
 _atom_site_occupancy
  Ca  Ca0  1  0.000000  0.500000  0.166667  1
  Sm  Sm1  1  0.500000  0.500000  0.838066  1
  Sm  Sm2  1  0.500000  0.000000  0.495267  1
  B  B3  1  0.500000  0.500000  0.329778  1
  B  B4  1  0.500000  0.000000  0.003555  1
  B  B5  1  0.000000  0.500000  0.666667  1
  Pt  Pt6  1  0.153291  0.850518  0.833329  1
  Pt  Pt7  1  0.153291  0.302772  0.500004  1
  Pt  Pt8  1  0.705203  0.852602  0.166667  1
  Pt  Pt9  1  0.846709  0.149482  0.833329  1
  Pt  Pt10  1  0.846709  0.697228  0.500004  1
  Pt  Pt11  1  0.294797  0.147398  0.166667  1
