# generated using pymatgen
data_Ho2Pa(AlNi)3
_symmetry_space_group_name_H-M   'P 1'
_cell_length_a   7.05790230
_cell_length_b   7.10213620
_cell_length_c   3.75899500
_cell_angle_alpha   90.00000000
_cell_angle_beta   90.00000000
_cell_angle_gamma   120.20752592
_symmetry_Int_Tables_number   1
_chemical_formula_structural   Ho2Pa(AlNi)3
_chemical_formula_sum   'Ho2 Pa1 Al3 Ni3'
_cell_volume   162.83772706
_cell_formula_units_Z   1
loop_
 _symmetry_equiv_pos_site_id
 _symmetry_equiv_pos_as_xyz
  1  'x, y, z'
loop_
 _atom_site_type_symbol
 _atom_site_label
 _atom_site_symmetry_multiplicity
 _atom_site_fract_x
 _atom_site_fract_y
 _atom_site_fract_z
 _atom_site_occupancy
  Ho  Ho0  1  0.584568  0.001498  0.500000  1
  Ho  Ho1  1  0.415432  0.416930  0.500000  1
  Pa  Pa2  1  0.000000  0.576362  0.500000  1
  Al  Al3  1  0.241032  0.003065  0.000000  1
  Al  Al4  1  0.758968  0.762033  0.000000  1
  Al  Al5  1  0.000000  0.227136  0.000000  1
  Ni  Ni6  1  0.305465  0.665153  0.000000  1
  Ni  Ni7  1  0.694535  0.359687  0.000000  1
  Ni  Ni8  1  0.000000  0.988136  0.500000  1
