# generated using pymatgen
data_TbHo4(Hg2Pd)2
_symmetry_space_group_name_H-M   'P 1'
_cell_length_a   3.64439000
_cell_length_b   7.92263800
_cell_length_c   18.19387500
_cell_angle_alpha   90.00000000
_cell_angle_beta   90.00000000
_cell_angle_gamma   90.00000000
_symmetry_Int_Tables_number   1
_chemical_formula_structural   TbHo4(Hg2Pd)2
_chemical_formula_sum   'Tb2 Ho8 Hg8 Pd4'
_cell_volume   525.31507691
_cell_formula_units_Z   2
loop_
 _symmetry_equiv_pos_site_id
 _symmetry_equiv_pos_as_xyz
  1  'x, y, z'
loop_
 _atom_site_type_symbol
 _atom_site_label
 _atom_site_symmetry_multiplicity
 _atom_site_fract_x
 _atom_site_fract_y
 _atom_site_fract_z
 _atom_site_occupancy
  Tb  Tb0  1  0.000000  0.500000  0.500000  1
  Tb  Tb1  1  0.000000  0.000000  0.000000  1
  Ho  Ho2  1  0.000000  0.736237  0.283559  1
  Ho  Ho3  1  0.000000  0.263763  0.716441  1
  Ho  Ho4  1  0.000000  0.763763  0.783559  1
  Ho  Ho5  1  0.000000  0.236237  0.216441  1
  Ho  Ho6  1  0.000000  0.614010  0.084279  1
  Ho  Ho7  1  0.000000  0.385990  0.915721  1
  Ho  Ho8  1  0.000000  0.885990  0.584279  1
  Ho  Ho9  1  0.000000  0.114010  0.415721  1
  Hg  Hg10  1  0.500000  0.710905  0.933765  1
  Hg  Hg11  1  0.500000  0.289095  0.066235  1
  Hg  Hg12  1  0.500000  0.789095  0.433765  1
  Hg  Hg13  1  0.500000  0.210905  0.566235  1
  Hg  Hg14  1  0.500000  0.581629  0.648482  1
  Hg  Hg15  1  0.500000  0.418371  0.351518  1
  Hg  Hg16  1  0.500000  0.918371  0.148482  1
  Hg  Hg17  1  0.500000  0.081629  0.851518  1
  Pd  Pd18  1  0.500000  0.525615  0.195459  1
  Pd  Pd19  1  0.500000  0.474385  0.804541  1
  Pd  Pd20  1  0.500000  0.974385  0.695459  1
  Pd  Pd21  1  0.500000  0.025615  0.304541  1
