# generated using pymatgen
data_Er5Tm11(InPt)4
_symmetry_space_group_name_H-M   'P 1'
_cell_length_a   9.60353856
_cell_length_b   9.60379154
_cell_length_c   9.60379000
_cell_angle_alpha   60.01074629
_cell_angle_beta   59.99091690
_cell_angle_gamma   59.99091801
_symmetry_Int_Tables_number   1
_chemical_formula_structural   Er5Tm11(InPt)4
_chemical_formula_sum   'Er5 Tm11 In4 Pt4'
_cell_volume   626.29260058
_cell_formula_units_Z   1
loop_
 _symmetry_equiv_pos_site_id
 _symmetry_equiv_pos_as_xyz
  1  'x, y, z'
loop_
 _atom_site_type_symbol
 _atom_site_label
 _atom_site_symmetry_multiplicity
 _atom_site_fract_x
 _atom_site_fract_y
 _atom_site_fract_z
 _atom_site_occupancy
  Er  Er0  1  0.062284  0.062502  0.437589  1
  Er  Er1  1  0.437685  0.062277  0.437757  1
  Er  Er2  1  0.062284  0.437589  0.062502  1
  Er  Er3  1  0.053081  0.648947  0.648947  1
  Er  Er4  1  0.437685  0.437757  0.062277  1
  Tm  Tm5  1  0.649093  0.052629  0.649194  1
  Tm  Tm6  1  0.189615  0.810468  0.189441  1
  Tm  Tm7  1  0.189615  0.189441  0.810468  1
  Tm  Tm8  1  0.810392  0.810248  0.189670  1
  Tm  Tm9  1  0.438201  0.061787  0.061787  1
  Tm  Tm10  1  0.810390  0.189655  0.189655  1
  Tm  Tm11  1  0.061825  0.438060  0.438060  1
  Tm  Tm12  1  0.810392  0.189670  0.810248  1
  Tm  Tm13  1  0.189571  0.810507  0.810507  1
  Tm  Tm14  1  0.649093  0.649194  0.052629  1
  Tm  Tm15  1  0.649225  0.649086  0.649086  1
  In  In16  1  0.416787  0.416711  0.416711  1
  In  In17  1  0.749783  0.416811  0.416811  1
  In  In18  1  0.417014  0.749832  0.416481  1
  In  In19  1  0.417014  0.416481  0.749832  1
  Pt  Pt20  1  0.857077  0.857449  0.427670  1
  Pt  Pt21  1  0.856743  0.857802  0.857802  1
  Pt  Pt22  1  0.428073  0.857424  0.857424  1
  Pt  Pt23  1  0.857077  0.427670  0.857449  1
