# generated using pymatgen
data_Zr6Be14SiNi8
_symmetry_space_group_name_H-M   'P 1'
_cell_length_a   7.84654362
_cell_length_b   7.84654367
_cell_length_c   7.84654400
_cell_angle_alpha   59.99999862
_cell_angle_beta   59.99999841
_cell_angle_gamma   59.99999916
_symmetry_Int_Tables_number   1
_chemical_formula_structural   Zr6Be14SiNi8
_chemical_formula_sum   'Zr6 Be14 Si1 Ni8'
_cell_volume   341.60183424
_cell_formula_units_Z   1
loop_
 _symmetry_equiv_pos_site_id
 _symmetry_equiv_pos_as_xyz
  1  'x, y, z'
loop_
 _atom_site_type_symbol
 _atom_site_label
 _atom_site_symmetry_multiplicity
 _atom_site_fract_x
 _atom_site_fract_y
 _atom_site_fract_z
 _atom_site_occupancy
  Zr  Zr0  1  0.710251  0.289749  0.289749  1
  Zr  Zr1  1  0.289749  0.710251  0.710251  1
  Zr  Zr2  1  0.289749  0.710251  0.289749  1
  Zr  Zr3  1  0.710251  0.289749  0.710251  1
  Zr  Zr4  1  0.289749  0.289749  0.710251  1
  Zr  Zr5  1  0.710251  0.710251  0.289749  1
  Be  Be6  1  0.322586  0.322586  0.322586  1
  Be  Be7  1  0.677414  0.677414  0.677414  1
  Be  Be8  1  0.322586  0.322586  0.032241  1
  Be  Be9  1  0.322586  0.032241  0.322586  1
  Be  Be10  1  0.677414  0.677414  0.967759  1
  Be  Be11  1  0.677414  0.967759  0.677414  1
  Be  Be12  1  0.032241  0.322586  0.322586  1
  Be  Be13  1  0.967759  0.677414  0.677414  1
  Be  Be14  1  0.500000  0.000000  0.000000  1
  Be  Be15  1  0.000000  0.500000  0.500000  1
  Be  Be16  1  0.000000  0.500000  0.000000  1
  Be  Be17  1  0.500000  0.000000  0.500000  1
  Be  Be18  1  0.000000  0.000000  0.500000  1
  Be  Be19  1  0.500000  0.500000  0.000000  1
  Si  Si20  1  0.000000  0.000000  0.000000  1
  Ni  Ni21  1  0.125909  0.125909  0.125909  1
  Ni  Ni22  1  0.874091  0.874091  0.874091  1
  Ni  Ni23  1  0.125909  0.125909  0.622271  1
  Ni  Ni24  1  0.125909  0.622271  0.125909  1
  Ni  Ni25  1  0.874091  0.874091  0.377729  1
  Ni  Ni26  1  0.874091  0.377729  0.874091  1
  Ni  Ni27  1  0.622271  0.125909  0.125909  1
  Ni  Ni28  1  0.377729  0.874091  0.874091  1
