# generated using pymatgen
data_MgMn4InPd10
_symmetry_space_group_name_H-M   'P 1'
_cell_length_a   4.10248800
_cell_length_b   5.54019681
_cell_length_c   10.97984495
_cell_angle_alpha   88.94350848
_cell_angle_beta   90.00000000
_cell_angle_gamma   90.00000000
_symmetry_Int_Tables_number   1
_chemical_formula_structural   MgMn4InPd10
_chemical_formula_sum   'Mg1 Mn4 In1 Pd10'
_cell_volume   249.51398036
_cell_formula_units_Z   1
loop_
 _symmetry_equiv_pos_site_id
 _symmetry_equiv_pos_as_xyz
  1  'x, y, z'
loop_
 _atom_site_type_symbol
 _atom_site_label
 _atom_site_symmetry_multiplicity
 _atom_site_fract_x
 _atom_site_fract_y
 _atom_site_fract_z
 _atom_site_occupancy
  Mg  Mg0  1  0.000000  0.500000  0.500000  1
  Mn  Mn1  1  0.500000  0.302898  0.860857  1
  Mn  Mn2  1  0.500000  0.802121  0.633814  1
  Mn  Mn3  1  0.500000  0.697102  0.139143  1
  Mn  Mn4  1  0.500000  0.197879  0.366186  1
  In  In5  1  0.000000  0.000000  0.000000  1
  Pd  Pd6  1  0.500000  0.707844  0.384919  1
  Pd  Pd7  1  0.500000  0.292156  0.615081  1
  Pd  Pd8  1  0.000000  0.055015  0.750576  1
  Pd  Pd9  1  0.500000  0.785719  0.880037  1
  Pd  Pd10  1  0.000000  0.444871  0.255762  1
  Pd  Pd11  1  0.000000  0.944985  0.249424  1
  Pd  Pd12  1  0.000000  0.555129  0.744238  1
  Pd  Pd13  1  0.000000  0.500000  0.000000  1
  Pd  Pd14  1  0.000000  0.000000  0.500000  1
  Pd  Pd15  1  0.500000  0.214281  0.119963  1
