# generated using pymatgen
data_Nd4Sn5AsRh7
_symmetry_space_group_name_H-M   'P 1'
_cell_length_a   7.68952806
_cell_length_b   7.68952935
_cell_length_c   7.68952793
_cell_angle_alpha   109.88596319
_cell_angle_beta   108.64489019
_cell_angle_gamma   109.88596083
_symmetry_Int_Tables_number   1
_chemical_formula_structural   Nd4Sn5AsRh7
_chemical_formula_sum   'Nd4 Sn5 As1 Rh7'
_cell_volume   349.95287469
_cell_formula_units_Z   1
loop_
 _symmetry_equiv_pos_site_id
 _symmetry_equiv_pos_as_xyz
  1  'x, y, z'
loop_
 _atom_site_type_symbol
 _atom_site_label
 _atom_site_symmetry_multiplicity
 _atom_site_fract_x
 _atom_site_fract_y
 _atom_site_fract_z
 _atom_site_occupancy
  Nd  Nd0  1  0.479362  0.472240  0.479362  1
  Nd  Nd1  1  0.007121  0.527760  0.007121  1
  Nd  Nd2  1  0.479362  0.000000  0.007121  1
  Nd  Nd3  1  0.007121  0.000000  0.479362  1
  Sn  Sn4  1  0.701158  0.000000  0.701158  1
  Sn  Sn5  1  0.667055  0.679292  0.987764  1
  Sn  Sn6  1  0.308472  0.320708  0.987764  1
  Sn  Sn7  1  0.987764  0.679292  0.667055  1
  Sn  Sn8  1  0.987764  0.320708  0.308472  1
  As  As9  1  0.349078  0.000000  0.349078  1
  Rh  Rh10  1  0.506166  0.755339  0.261505  1
  Rh  Rh11  1  0.750826  0.244661  0.506166  1
  Rh  Rh12  1  0.261505  0.755339  0.506166  1
  Rh  Rh13  1  0.240533  0.500000  0.740533  1
  Rh  Rh14  1  0.020012  0.000000  0.020012  1
  Rh  Rh15  1  0.506166  0.244661  0.750826  1
  Rh  Rh16  1  0.740533  0.500000  0.240533  1
