# generated using pymatgen
data_Sc3U2Si4(GePt3)3
_symmetry_space_group_name_H-M   'P 1'
_cell_length_a   10.13658000
_cell_length_b   10.13657961
_cell_length_c   4.04652600
_cell_angle_alpha   90.00000000
_cell_angle_beta   90.00000000
_cell_angle_gamma   119.99999380
_symmetry_Int_Tables_number   1
_chemical_formula_structural   Sc3U2Si4(GePt3)3
_chemical_formula_sum   'Sc3 U2 Si4 Ge3 Pt9'
_cell_volume   360.07741484
_cell_formula_units_Z   1
loop_
 _symmetry_equiv_pos_site_id
 _symmetry_equiv_pos_as_xyz
  1  'x, y, z'
loop_
 _atom_site_type_symbol
 _atom_site_label
 _atom_site_symmetry_multiplicity
 _atom_site_fract_x
 _atom_site_fract_y
 _atom_site_fract_z
 _atom_site_occupancy
  Sc  Sc0  1  0.891296  0.456719  0.500000  1
  Sc  Sc1  1  0.565423  0.108704  0.500000  1
  Sc  Sc2  1  0.543281  0.434577  0.500000  1
  U  U3  1  0.000000  0.000000  0.000000  1
  U  U4  1  0.333333  0.666667  0.500000  1
  Si  Si5  1  0.554280  0.643443  0.000000  1
  Si  Si6  1  0.356557  0.910837  0.000000  1
  Si  Si7  1  0.089163  0.445720  0.000000  1
  Si  Si8  1  0.666667  0.333333  0.000000  1
  Ge  Ge9  1  0.239302  0.191410  0.500000  1
  Ge  Ge10  1  0.808590  0.047893  0.500000  1
  Ge  Ge11  1  0.952107  0.760698  0.500000  1
  Pt  Pt12  1  0.235644  0.934035  0.500000  1
  Pt  Pt13  1  0.065965  0.301611  0.500000  1
  Pt  Pt14  1  0.698389  0.764356  0.500000  1
  Pt  Pt15  1  0.313164  0.413080  0.000000  1
  Pt  Pt16  1  0.586920  0.900083  0.000000  1
  Pt  Pt17  1  0.099917  0.686836  0.000000  1
  Pt  Pt18  1  0.389527  0.172168  0.000000  1
  Pt  Pt19  1  0.827832  0.217359  0.000000  1
  Pt  Pt20  1  0.782641  0.610473  0.000000  1
