# generated using pymatgen
data_LiAc3SnS7
_symmetry_space_group_name_H-M   'P 1'
_cell_length_a   10.69321501
_cell_length_b   10.69332941
_cell_length_c   6.18220300
_cell_angle_alpha   90.00081979
_cell_angle_beta   90.00284517
_cell_angle_gamma   119.99974188
_symmetry_Int_Tables_number   1
_chemical_formula_structural   LiAc3SnS7
_chemical_formula_sum   'Li2 Ac6 Sn2 S14'
_cell_volume   612.20414678
_cell_formula_units_Z   2
loop_
 _symmetry_equiv_pos_site_id
 _symmetry_equiv_pos_as_xyz
  1  'x, y, z'
loop_
 _atom_site_type_symbol
 _atom_site_label
 _atom_site_symmetry_multiplicity
 _atom_site_fract_x
 _atom_site_fract_y
 _atom_site_fract_z
 _atom_site_occupancy
  Li  Li0  1  0.000008  0.000241  0.487009  1
  Li  Li1  1  0.999824  0.999613  0.986517  1
  Ac  Ac2  1  0.130710  0.356760  0.233360  1
  Ac  Ac3  1  0.643087  0.773895  0.233208  1
  Ac  Ac4  1  0.226212  0.869397  0.233477  1
  Ac  Ac5  1  0.773910  0.130758  0.733232  1
  Ac  Ac6  1  0.356926  0.226148  0.733606  1
  Ac  Ac7  1  0.869349  0.643140  0.732931  1
  Sn  Sn8  1  0.666460  0.333268  0.159281  1
  Sn  Sn9  1  0.333241  0.666607  0.659416  1
  S  S10  1  0.517173  0.097222  0.997232  1
  S  S11  1  0.580376  0.482951  0.997185  1
  S  S12  1  0.902481  0.419812  0.997532  1
  S  S13  1  0.333230  0.666645  0.044242  1
  S  S14  1  0.910657  0.759619  0.262243  1
  S  S15  1  0.848568  0.089649  0.262219  1
  S  S16  1  0.241539  0.151742  0.262379  1
  S  S17  1  0.482839  0.902598  0.497350  1
  S  S18  1  0.419704  0.517211  0.497484  1
  S  S19  1  0.097329  0.580109  0.497265  1
  S  S20  1  0.666519  0.333161  0.544111  1
  S  S21  1  0.089464  0.240587  0.762170  1
  S  S22  1  0.758891  0.848514  0.762153  1
  S  S23  1  0.151505  0.910347  0.762395  1
