# generated using pymatgen
data_DyEr11Tc4
_symmetry_space_group_name_H-M   'P 1'
_cell_length_a   6.20898946
_cell_length_b   7.37708411
_cell_length_c   9.08423200
_cell_angle_alpha   90.00000000
_cell_angle_beta   90.00000000
_cell_angle_gamma   89.98796299
_symmetry_Int_Tables_number   1
_chemical_formula_structural   DyEr11Tc4
_chemical_formula_sum   'Dy1 Er11 Tc4'
_cell_volume   416.09631090
_cell_formula_units_Z   1
loop_
 _symmetry_equiv_pos_site_id
 _symmetry_equiv_pos_as_xyz
  1  'x, y, z'
loop_
 _atom_site_type_symbol
 _atom_site_label
 _atom_site_symmetry_multiplicity
 _atom_site_fract_x
 _atom_site_fract_y
 _atom_site_fract_z
 _atom_site_occupancy
  Dy  Dy0  1  0.873634  0.540297  0.250000  1
  Er  Er1  1  0.339095  0.675524  0.061981  1
  Er  Er2  1  0.161698  0.175592  0.437869  1
  Er  Er3  1  0.661169  0.324036  0.562694  1
  Er  Er4  1  0.838682  0.824950  0.937284  1
  Er  Er5  1  0.661169  0.324036  0.937306  1
  Er  Er6  1  0.838682  0.824950  0.562716  1
  Er  Er7  1  0.339095  0.675524  0.438019  1
  Er  Er8  1  0.161698  0.175592  0.062131  1
  Er  Er9  1  0.626470  0.039865  0.250000  1
  Er  Er10  1  0.125929  0.460315  0.750000  1
  Er  Er11  1  0.373385  0.959662  0.750000  1
  Tc  Tc12  1  0.042065  0.885213  0.250000  1
  Tc  Tc13  1  0.457401  0.384645  0.250000  1
  Tc  Tc14  1  0.957827  0.115093  0.750000  1
  Tc  Tc15  1  0.542000  0.614706  0.750000  1
