# generated using pymatgen
data_Er5Co2Au
_symmetry_space_group_name_H-M   'P 1'
_cell_length_a   8.43668149
_cell_length_b   8.43668114
_cell_length_c   8.44995357
_cell_angle_alpha   128.47692950
_cell_angle_beta   128.47693129
_cell_angle_gamma   75.71246302
_symmetry_Int_Tables_number   1
_chemical_formula_structural   Er5Co2Au
_chemical_formula_sum   'Er10 Co4 Au2'
_cell_volume   358.81288310
_cell_formula_units_Z   2
loop_
 _symmetry_equiv_pos_site_id
 _symmetry_equiv_pos_as_xyz
  1  'x, y, z'
loop_
 _atom_site_type_symbol
 _atom_site_label
 _atom_site_symmetry_multiplicity
 _atom_site_fract_x
 _atom_site_fract_y
 _atom_site_fract_z
 _atom_site_occupancy
  Er  Er0  1  0.695725  0.530474  0.499822  1
  Er  Er1  1  0.469923  0.969923  0.165773  1
  Er  Er2  1  0.804130  0.304130  0.834306  1
  Er  Er3  1  0.530077  0.030077  0.834227  1
  Er  Er4  1  0.000000  0.000000  0.000000  1
  Er  Er5  1  0.030474  0.195725  0.499822  1
  Er  Er6  1  0.304275  0.469526  0.500178  1
  Er  Er7  1  0.195870  0.695870  0.165694  1
  Er  Er8  1  0.969526  0.804275  0.500178  1
  Er  Er9  1  0.500000  0.500000  0.000000  1
  Co  Co10  1  0.122949  0.622949  0.745780  1
  Co  Co11  1  0.877051  0.377051  0.254220  1
  Co  Co12  1  0.623141  0.876859  0.500000  1
  Co  Co13  1  0.376859  0.123141  0.500000  1
  Au  Au14  1  0.249996  0.250004  0.000000  1
  Au  Au15  1  0.750004  0.749996  0.000000  1
