# generated using pymatgen
data_Ho2Er7Th3Ru4
_symmetry_space_group_name_H-M   'P 1'
_cell_length_a   6.31333998
_cell_length_b   7.20664600
_cell_length_c   9.44119312
_cell_angle_alpha   89.99796621
_cell_angle_beta   90.05558634
_cell_angle_gamma   90.48931776
_symmetry_Int_Tables_number   1
_chemical_formula_structural   Ho2Er7Th3Ru4
_chemical_formula_sum   'Ho2 Er7 Th3 Ru4'
_cell_volume   429.53959707
_cell_formula_units_Z   1
loop_
 _symmetry_equiv_pos_site_id
 _symmetry_equiv_pos_as_xyz
  1  'x, y, z'
loop_
 _atom_site_type_symbol
 _atom_site_label
 _atom_site_symmetry_multiplicity
 _atom_site_fract_x
 _atom_site_fract_y
 _atom_site_fract_z
 _atom_site_occupancy
  Ho  Ho0  1  0.334915  0.677726  0.063498  1
  Ho  Ho1  1  0.164840  0.175346  0.435835  1
  Er  Er2  1  0.667252  0.323393  0.567204  1
  Er  Er3  1  0.829486  0.823769  0.931038  1
  Er  Er4  1  0.667342  0.323197  0.932795  1
  Er  Er5  1  0.829383  0.823669  0.568988  1
  Er  Er6  1  0.335098  0.677572  0.436582  1
  Er  Er7  1  0.164605  0.175186  0.064082  1
  Er  Er8  1  0.362007  0.963578  0.749934  1
  Th  Th9  1  0.850731  0.547047  0.250034  1
  Th  Th10  1  0.646615  0.045146  0.249978  1
  Th  Th11  1  0.150429  0.453137  0.750012  1
  Ru  Ru12  1  0.036446  0.871719  0.250122  1
  Ru  Ru13  1  0.465684  0.370247  0.250023  1
  Ru  Ru14  1  0.961293  0.131156  0.750297  1
  Ru  Ru15  1  0.533877  0.618113  0.749577  1
