# generated using pymatgen
data_Hf2Zr4Ga7Ni16
_symmetry_space_group_name_H-M   'P 1'
_cell_length_a   8.25455082
_cell_length_b   8.25580035
_cell_length_c   8.24909713
_cell_angle_alpha   60.01130255
_cell_angle_beta   60.00428380
_cell_angle_gamma   60.10186387
_symmetry_Int_Tables_number   1
_chemical_formula_structural   Hf2Zr4Ga7Ni16
_chemical_formula_sum   'Hf2 Zr4 Ga7 Ni16'
_cell_volume   397.85836180
_cell_formula_units_Z   1
loop_
 _symmetry_equiv_pos_site_id
 _symmetry_equiv_pos_as_xyz
  1  'x, y, z'
loop_
 _atom_site_type_symbol
 _atom_site_label
 _atom_site_symmetry_multiplicity
 _atom_site_fract_x
 _atom_site_fract_y
 _atom_site_fract_z
 _atom_site_occupancy
  Hf  Hf0  1  0.208097  0.791964  0.792454  1
  Hf  Hf1  1  0.208043  0.791921  0.207533  1
  Zr  Zr2  1  0.793090  0.206846  0.207336  1
  Zr  Zr3  1  0.793141  0.206904  0.792677  1
  Zr  Zr4  1  0.794589  0.793690  0.205908  1
  Zr  Zr5  1  0.206324  0.205401  0.794083  1
  Ga  Ga6  1  0.000474  0.999539  0.499977  1
  Ga  Ga7  1  0.500585  0.999430  0.500015  1
  Ga  Ga8  1  0.500760  0.499257  0.499969  1
  Ga  Ga9  1  0.000556  0.499414  0.000014  1
  Ga  Ga10  1  0.500627  0.499334  0.999998  1
  Ga  Ga11  1  0.500589  0.999422  0.999972  1
  Ga  Ga12  1  0.000605  0.499427  0.499960  1
  Ni  Ni13  1  0.379007  0.381479  0.379141  1
  Ni  Ni14  1  0.503282  0.831128  0.832758  1
  Ni  Ni15  1  0.618515  0.621146  0.139378  1
  Ni  Ni16  1  0.169399  0.167503  0.494184  1
  Ni  Ni17  1  0.832530  0.830534  0.505872  1
  Ni  Ni18  1  0.169447  0.167465  0.168836  1
  Ni  Ni19  1  0.832587  0.830624  0.831190  1
  Ni  Ni20  1  0.378900  0.381393  0.860501  1
  Ni  Ni21  1  0.830760  0.508645  0.830281  1
  Ni  Ni22  1  0.618493  0.621121  0.620880  1
  Ni  Ni23  1  0.378377  0.859736  0.380939  1
  Ni  Ni24  1  0.139956  0.621870  0.619170  1
  Ni  Ni25  1  0.620180  0.139239  0.620365  1
  Ni  Ni26  1  0.168814  0.496613  0.167261  1
  Ni  Ni27  1  0.861000  0.379663  0.379596  1
  Ni  Ni28  1  0.491273  0.169289  0.169752  1
