# generated using pymatgen
data_Ti3Re2SiTcGe2
_symmetry_space_group_name_H-M   'P 1'
_cell_length_a   6.89730007
_cell_length_b   6.89730064
_cell_length_c   3.25429700
_cell_angle_alpha   90.00000000
_cell_angle_beta   90.00000000
_cell_angle_gamma   119.94043346
_symmetry_Int_Tables_number   1
_chemical_formula_structural   Ti3Re2SiTcGe2
_chemical_formula_sum   'Ti3 Re2 Si1 Tc1 Ge2'
_cell_volume   134.15487514
_cell_formula_units_Z   1
loop_
 _symmetry_equiv_pos_site_id
 _symmetry_equiv_pos_as_xyz
  1  'x, y, z'
loop_
 _atom_site_type_symbol
 _atom_site_label
 _atom_site_symmetry_multiplicity
 _atom_site_fract_x
 _atom_site_fract_y
 _atom_site_fract_z
 _atom_site_occupancy
  Ti  Ti0  1  0.395938  0.395938  0.500000  1
  Ti  Ti1  1  0.601109  0.002323  0.500000  1
  Ti  Ti2  1  0.002323  0.601109  0.500000  1
  Re  Re3  1  0.258384  0.000696  0.000000  1
  Re  Re4  1  0.000696  0.258384  0.000000  1
  Si  Si5  1  0.996165  0.996165  0.500000  1
  Tc  Tc6  1  0.742158  0.742158  0.000000  1
  Ge  Ge7  1  0.667470  0.335757  0.000000  1
  Ge  Ge8  1  0.335757  0.667470  0.000000  1
