# generated using pymatgen
data_Ho19Tm(Ir2Rh)4
_symmetry_space_group_name_H-M   'P 1'
_cell_length_a   10.82674800
_cell_length_b   10.82674800
_cell_length_c   6.36412600
_cell_angle_alpha   90.00000000
_cell_angle_beta   90.00000000
_cell_angle_gamma   90.00000000
_symmetry_Int_Tables_number   1
_chemical_formula_structural   Ho19Tm(Ir2Rh)4
_chemical_formula_sum   'Ho19 Tm1 Ir8 Rh4'
_cell_volume   745.99312696
_cell_formula_units_Z   1
loop_
 _symmetry_equiv_pos_site_id
 _symmetry_equiv_pos_as_xyz
  1  'x, y, z'
loop_
 _atom_site_type_symbol
 _atom_site_label
 _atom_site_symmetry_multiplicity
 _atom_site_fract_x
 _atom_site_fract_y
 _atom_site_fract_z
 _atom_site_occupancy
  Ho  Ho0  1  0.290187  0.088694  0.379247  1
  Ho  Ho1  1  0.290416  0.911257  0.879083  1
  Ho  Ho2  1  0.709584  0.088743  0.879083  1
  Ho  Ho3  1  0.709813  0.911306  0.379247  1
  Ho  Ho4  1  0.588736  0.790507  0.879162  1
  Ho  Ho5  1  0.588798  0.209485  0.379118  1
  Ho  Ho6  1  0.411202  0.790515  0.379118  1
  Ho  Ho7  1  0.411264  0.209493  0.879162  1
  Ho  Ho8  1  0.209485  0.411202  0.620882  1
  Ho  Ho9  1  0.209493  0.588736  0.120838  1
  Ho  Ho10  1  0.790507  0.411264  0.120838  1
  Ho  Ho11  1  0.790515  0.588798  0.620882  1
  Ho  Ho12  1  0.911257  0.709584  0.120917  1
  Ho  Ho13  1  0.911306  0.290187  0.620753  1
  Ho  Ho14  1  0.088694  0.709813  0.620753  1
  Ho  Ho15  1  0.088743  0.290416  0.120917  1
  Ho  Ho16  1  0.000000  0.000000  0.000000  1
  Ho  Ho17  1  0.500000  0.500000  0.000000  1
  Ho  Ho18  1  0.500000  0.500000  0.500000  1
  Tm  Tm19  1  0.000000  0.000000  0.500000  1
  Ir  Ir20  1  0.846418  0.153575  0.250683  1
  Ir  Ir21  1  0.846425  0.846418  0.749317  1
  Ir  Ir22  1  0.153575  0.153582  0.749317  1
  Ir  Ir23  1  0.153582  0.846425  0.250683  1
  Ir  Ir24  1  0.654083  0.345890  0.750023  1
  Ir  Ir25  1  0.654110  0.654083  0.249977  1
  Ir  Ir26  1  0.345890  0.345917  0.249977  1
  Ir  Ir27  1  0.345917  0.654110  0.750023  1
  Rh  Rh28  1  0.500000  0.000000  0.122800  1
  Rh  Rh29  1  0.500000  0.000000  0.622818  1
  Rh  Rh30  1  0.000000  0.500000  0.877200  1
  Rh  Rh31  1  0.000000  0.500000  0.377182  1
