# generated using pymatgen
data_Er(ZnAu)6
_symmetry_space_group_name_H-M   'P 1'
_cell_length_a   7.04680567
_cell_length_b   7.04683356
_cell_length_c   7.04680418
_cell_angle_alpha   95.83295617
_cell_angle_beta   100.20348330
_cell_angle_gamma   136.15557806
_symmetry_Int_Tables_number   1
_chemical_formula_structural   Er(ZnAu)6
_chemical_formula_sum   'Er1 Zn6 Au6'
_cell_volume   224.65258686
_cell_formula_units_Z   1
loop_
 _symmetry_equiv_pos_site_id
 _symmetry_equiv_pos_as_xyz
  1  'x, y, z'
loop_
 _atom_site_type_symbol
 _atom_site_label
 _atom_site_symmetry_multiplicity
 _atom_site_fract_x
 _atom_site_fract_y
 _atom_site_fract_z
 _atom_site_occupancy
  Er  Er0  1  0.000000  0.000000  0.000000  1
  Zn  Zn1  1  0.000000  0.000000  0.500000  1
  Zn  Zn2  1  0.500000  0.500000  0.500000  1
  Zn  Zn3  1  0.500000  0.000000  0.000000  1
  Zn  Zn4  1  0.000000  0.500000  0.000000  1
  Zn  Zn5  1  0.742996  0.500000  0.242996  1
  Zn  Zn6  1  0.257004  0.500000  0.757004  1
  Au  Au7  1  0.999999  0.336952  0.336953  1
  Au  Au8  1  0.000001  0.663048  0.663047  1
  Au  Au9  1  0.667435  0.000000  0.667435  1
  Au  Au10  1  0.332565  0.000000  0.332565  1
  Au  Au11  1  0.500009  0.327195  0.827186  1
  Au  Au12  1  0.499991  0.672805  0.172814  1
