# generated using pymatgen
data_DyYHo2(Al3Ir)6
_symmetry_space_group_name_H-M   'P 1'
_cell_length_a   7.55622426
_cell_length_b   7.55661886
_cell_length_c   9.47884200
_cell_angle_alpha   90.00000000
_cell_angle_beta   90.00000000
_cell_angle_gamma   119.50046291
_symmetry_Int_Tables_number   1
_chemical_formula_structural   DyYHo2(Al3Ir)6
_chemical_formula_sum   'Dy1 Y1 Ho2 Al18 Ir6'
_cell_volume   471.06672906
_cell_formula_units_Z   1
loop_
 _symmetry_equiv_pos_site_id
 _symmetry_equiv_pos_as_xyz
  1  'x, y, z'
loop_
 _atom_site_type_symbol
 _atom_site_label
 _atom_site_symmetry_multiplicity
 _atom_site_fract_x
 _atom_site_fract_y
 _atom_site_fract_z
 _atom_site_occupancy
  Dy  Dy0  1  0.994643  0.671461  0.250000  1
  Y  Y1  1  0.671320  0.994812  0.250000  1
  Ho  Ho2  1  0.005202  0.328620  0.750000  1
  Ho  Ho3  1  0.328638  0.005219  0.750000  1
  Al  Al4  1  0.129426  0.129527  0.250000  1
  Al  Al5  1  0.870768  0.870863  0.750000  1
  Al  Al6  1  0.000958  0.335094  0.073836  1
  Al  Al7  1  0.999194  0.664816  0.925534  1
  Al  Al8  1  0.999194  0.664816  0.574466  1
  Al  Al9  1  0.335239  0.000983  0.426147  1
  Al  Al10  1  0.000958  0.335094  0.426164  1
  Al  Al11  1  0.664841  0.999200  0.574290  1
  Al  Al12  1  0.664841  0.999200  0.925710  1
  Al  Al13  1  0.335239  0.000983  0.073853  1
  Al  Al14  1  0.333178  0.333165  0.551280  1
  Al  Al15  1  0.666655  0.666708  0.449282  1
  Al  Al16  1  0.666655  0.666708  0.050718  1
  Al  Al17  1  0.333178  0.333165  0.948720  1
  Al  Al18  1  0.339838  0.548644  0.250000  1
  Al  Al19  1  0.660224  0.451113  0.750000  1
  Al  Al20  1  0.548474  0.339471  0.250000  1
  Al  Al21  1  0.451230  0.660334  0.750000  1
  Ir  Ir22  1  0.671867  0.328062  0.999867  1
  Ir  Ir23  1  0.328118  0.671861  0.999858  1
  Ir  Ir24  1  0.328118  0.671861  0.500142  1
  Ir  Ir25  1  0.671867  0.328062  0.500133  1
  Ir  Ir26  1  0.000067  0.000079  0.999884  1
  Ir  Ir27  1  0.000067  0.000079  0.500116  1
