# generated using pymatgen
data_Er(NpI4)3
_symmetry_space_group_name_H-M   'P 1'
_cell_length_a   13.55635186
_cell_length_b   7.87550652
_cell_length_c   8.90477200
_cell_angle_alpha   64.27198800
_cell_angle_beta   90.45521462
_cell_angle_gamma   89.77274103
_symmetry_Int_Tables_number   1
_chemical_formula_structural   Er(NpI4)3
_chemical_formula_sum   'Er1 Np3 I12'
_cell_volume   856.39746950
_cell_formula_units_Z   1
loop_
 _symmetry_equiv_pos_site_id
 _symmetry_equiv_pos_as_xyz
  1  'x, y, z'
loop_
 _atom_site_type_symbol
 _atom_site_label
 _atom_site_symmetry_multiplicity
 _atom_site_fract_x
 _atom_site_fract_y
 _atom_site_fract_z
 _atom_site_occupancy
  Er  Er0  1  0.166896  0.961778  0.026418  1
  Np  Np1  1  0.331573  0.459653  0.028939  1
  Np  Np2  1  0.835071  0.039944  0.972633  1
  Np  Np3  1  0.666143  0.537337  0.973075  1
  I  I4  1  0.519394  0.262262  0.236121  1
  I  I5  1  0.023037  0.241103  0.777722  1
  I  I6  1  0.478525  0.733214  0.766532  1
  I  I7  1  0.988301  0.757970  0.222282  1
  I  I8  1  0.328790  0.219138  0.826188  1
  I  I9  1  0.831724  0.263759  0.188959  1
  I  I10  1  0.670775  0.765224  0.184798  1
  I  I11  1  0.168456  0.745898  0.815807  1
  I  I12  1  0.183902  0.153780  0.254387  1
  I  I13  1  0.691395  0.351223  0.729847  1
  I  I14  1  0.809020  0.845773  0.735133  1
  I  I15  1  0.306995  0.661946  0.261160  1
