# generated using pymatgen
data_CeCoH3N
_symmetry_space_group_name_H-M   'P 1'
_cell_length_a   6.18954900
_cell_length_b   6.18954748
_cell_length_c   4.68384000
_cell_angle_alpha   90.00000000
_cell_angle_beta   90.00000000
_cell_angle_gamma   143.41068281
_symmetry_Int_Tables_number   1
_chemical_formula_structural   CeCoH3N
_chemical_formula_sum   'Ce2 Co2 H6 N2'
_cell_volume   106.95990120
_cell_formula_units_Z   2
loop_
 _symmetry_equiv_pos_site_id
 _symmetry_equiv_pos_as_xyz
  1  'x, y, z'
loop_
 _atom_site_type_symbol
 _atom_site_label
 _atom_site_symmetry_multiplicity
 _atom_site_fract_x
 _atom_site_fract_y
 _atom_site_fract_z
 _atom_site_occupancy
  Ce  Ce0  1  0.883543  0.116457  0.750000  1
  Ce  Ce1  1  0.116457  0.883543  0.250000  1
  Co  Co2  1  0.602809  0.397191  0.750000  1
  Co  Co3  1  0.397191  0.602809  0.250000  1
  H  H4  1  0.691217  0.308783  0.494574  1
  H  H5  1  0.308783  0.691217  0.505426  1
  H  H6  1  0.691217  0.308783  0.005426  1
  H  H7  1  0.308783  0.691217  0.994574  1
  H  H8  1  0.500000  0.500000  0.000000  1
  H  H9  1  0.500000  0.500000  0.500000  1
  N  N10  1  0.076491  0.923509  0.750000  1
  N  N11  1  0.923509  0.076491  0.250000  1
