# generated using pymatgen
data_PrNdY2(NCl3)2
_symmetry_space_group_name_H-M   'P 1'
_cell_length_a   8.57206444
_cell_length_b   8.57206461
_cell_length_c   10.98257853
_cell_angle_alpha   60.25942608
_cell_angle_beta   60.25942671
_cell_angle_gamma   26.74910263
_symmetry_Int_Tables_number   1
_chemical_formula_structural   PrNdY2(NCl3)2
_chemical_formula_sum   'Pr1 Nd1 Y2 N2 Cl6'
_cell_volume   312.45305513
_cell_formula_units_Z   1
loop_
 _symmetry_equiv_pos_site_id
 _symmetry_equiv_pos_as_xyz
  1  'x, y, z'
loop_
 _atom_site_type_symbol
 _atom_site_label
 _atom_site_symmetry_multiplicity
 _atom_site_fract_x
 _atom_site_fract_y
 _atom_site_fract_z
 _atom_site_occupancy
  Pr  Pr0  1  0.862262  0.862262  0.292323  1
  Nd  Nd1  1  0.136995  0.136995  0.708912  1
  Y  Y2  1  0.583186  0.583186  0.043781  1
  Y  Y3  1  0.417615  0.417615  0.954859  1
  N  N4  1  0.427211  0.427211  0.151202  1
  N  N5  1  0.573688  0.573688  0.847058  1
  Cl  Cl6  1  0.051585  0.051585  0.240291  1
  Cl  Cl7  1  0.949596  0.949596  0.758972  1
  Cl  Cl8  1  0.663203  0.663203  0.488666  1
  Cl  Cl9  1  0.334850  0.334850  0.515267  1
  Cl  Cl10  1  0.784641  0.784641  0.105309  1
  Cl  Cl11  1  0.215169  0.215169  0.893361  1
