# generated using pymatgen
data_Ca6P13Rh20
_symmetry_space_group_name_H-M   'P 1'
_cell_length_a   13.43691600
_cell_length_b   13.43691498
_cell_length_c   3.90409200
_cell_angle_alpha   90.00000000
_cell_angle_beta   90.00000000
_cell_angle_gamma   119.99999760
_symmetry_Int_Tables_number   1
_chemical_formula_structural   Ca6P13Rh20
_chemical_formula_sum   'Ca6 P13 Rh20'
_cell_volume   610.44966090
_cell_formula_units_Z   1
loop_
 _symmetry_equiv_pos_site_id
 _symmetry_equiv_pos_as_xyz
  1  'x, y, z'
loop_
 _atom_site_type_symbol
 _atom_site_label
 _atom_site_symmetry_multiplicity
 _atom_site_fract_x
 _atom_site_fract_y
 _atom_site_fract_z
 _atom_site_occupancy
  Ca  Ca0  1  0.527150  0.718236  0.249277  1
  Ca  Ca1  1  0.281764  0.808914  0.249277  1
  Ca  Ca2  1  0.191086  0.472850  0.249277  1
  Ca  Ca3  1  0.472850  0.281764  0.750723  1
  Ca  Ca4  1  0.718236  0.191086  0.750723  1
  Ca  Ca5  1  0.808914  0.527150  0.750723  1
  P  P6  1  0.523368  0.137065  0.250776  1
  P  P7  1  0.862935  0.386304  0.250776  1
  P  P8  1  0.613696  0.476632  0.250776  1
  P  P9  1  0.948891  0.719072  0.253506  1
  P  P10  1  0.280928  0.229819  0.253506  1
  P  P11  1  0.770181  0.051109  0.253506  1
  P  P12  1  0.386304  0.523368  0.749224  1
  P  P13  1  0.476632  0.862935  0.749224  1
  P  P14  1  0.137065  0.613696  0.749224  1
  P  P15  1  0.719072  0.770181  0.746494  1
  P  P16  1  0.229819  0.948891  0.746494  1
  P  P17  1  0.051109  0.280928  0.746494  1
  P  P18  1  0.000000  0.000000  0.000000  1
  Rh  Rh19  1  0.333333  0.666667  0.751365  1
  Rh  Rh20  1  0.923699  0.249352  0.253821  1
  Rh  Rh21  1  0.750648  0.674347  0.253821  1
  Rh  Rh22  1  0.325653  0.076301  0.253821  1
  Rh  Rh23  1  0.441263  0.025698  0.750621  1
  Rh  Rh24  1  0.974302  0.415566  0.750621  1
  Rh  Rh25  1  0.584434  0.558737  0.750621  1
  Rh  Rh26  1  0.666667  0.333333  0.248635  1
  Rh  Rh27  1  0.090522  0.183342  0.246630  1
  Rh  Rh28  1  0.816658  0.907179  0.246630  1
  Rh  Rh29  1  0.092821  0.909478  0.246630  1
  Rh  Rh30  1  0.025698  0.584434  0.249379  1
  Rh  Rh31  1  0.415566  0.441263  0.249379  1
  Rh  Rh32  1  0.558737  0.974302  0.249379  1
  Rh  Rh33  1  0.674347  0.923699  0.746179  1
  Rh  Rh34  1  0.076301  0.750648  0.746179  1
  Rh  Rh35  1  0.249352  0.325653  0.746179  1
  Rh  Rh36  1  0.909478  0.816658  0.753370  1
  Rh  Rh37  1  0.183342  0.092821  0.753370  1
  Rh  Rh38  1  0.907179  0.090522  0.753370  1
