# generated using pymatgen
data_Np(Pa2Br5)3
_symmetry_space_group_name_H-M   'P 1'
_cell_length_a   9.96704381
_cell_length_b   9.96704343
_cell_length_c   9.96704400
_cell_angle_alpha   109.47122179
_cell_angle_beta   109.47122102
_cell_angle_gamma   109.47121814
_symmetry_Int_Tables_number   1
_chemical_formula_structural   Np(Pa2Br5)3
_chemical_formula_sum   'Np1 Pa6 Br15'
_cell_volume   762.21450264
_cell_formula_units_Z   1
loop_
 _symmetry_equiv_pos_site_id
 _symmetry_equiv_pos_as_xyz
  1  'x, y, z'
loop_
 _atom_site_type_symbol
 _atom_site_label
 _atom_site_symmetry_multiplicity
 _atom_site_fract_x
 _atom_site_fract_y
 _atom_site_fract_z
 _atom_site_occupancy
  Np  Np0  1  0.000000  0.000000  0.000000  1
  Pa  Pa1  1  0.221214  0.000000  0.221214  1
  Pa  Pa2  1  0.221214  0.221214  0.000000  1
  Pa  Pa3  1  0.778786  0.000000  0.778786  1
  Pa  Pa4  1  0.000000  0.221214  0.221214  1
  Pa  Pa5  1  0.000000  0.778786  0.778786  1
  Pa  Pa6  1  0.778786  0.778786  0.000000  1
  Br  Br7  1  0.000000  0.752184  0.247816  1
  Br  Br8  1  0.247816  0.752184  0.000000  1
  Br  Br9  1  0.504368  0.752184  0.752184  1
  Br  Br10  1  0.000000  0.247816  0.752184  1
  Br  Br11  1  0.752184  0.000000  0.247816  1
  Br  Br12  1  0.247816  0.495632  0.247816  1
  Br  Br13  1  0.752184  0.247816  0.000000  1
  Br  Br14  1  0.500000  0.500000  0.000000  1
  Br  Br15  1  0.247816  0.247816  0.495632  1
  Br  Br16  1  0.752184  0.504368  0.752184  1
  Br  Br17  1  0.752184  0.752184  0.504368  1
  Br  Br18  1  0.495632  0.247816  0.247816  1
  Br  Br19  1  0.247816  0.000000  0.752184  1
  Br  Br20  1  0.000000  0.500000  0.500000  1
  Br  Br21  1  0.500000  0.000000  0.500000  1
