# generated using pymatgen
data_Sc3Ga2NiC
_symmetry_space_group_name_H-M   'P 1'
_cell_length_a   8.52072661
_cell_length_b   8.52077771
_cell_length_c   8.52090300
_cell_angle_alpha   59.99930221
_cell_angle_beta   59.99866601
_cell_angle_gamma   59.99854404
_symmetry_Int_Tables_number   1
_chemical_formula_structural   Sc3Ga2NiC
_chemical_formula_sum   'Sc12 Ga8 Ni4 C4'
_cell_volume   437.43652481
_cell_formula_units_Z   4
loop_
 _symmetry_equiv_pos_site_id
 _symmetry_equiv_pos_as_xyz
  1  'x, y, z'
loop_
 _atom_site_type_symbol
 _atom_site_label
 _atom_site_symmetry_multiplicity
 _atom_site_fract_x
 _atom_site_fract_y
 _atom_site_fract_z
 _atom_site_occupancy
  Sc  Sc0  1  0.801838  0.801844  0.198160  1
  Sc  Sc1  1  0.198173  0.198143  0.801842  1
  Sc  Sc2  1  0.801852  0.198143  0.801856  1
  Sc  Sc3  1  0.198164  0.801845  0.198149  1
  Sc  Sc4  1  0.198170  0.801840  0.801839  1
  Sc  Sc5  1  0.801850  0.198142  0.198154  1
  Sc  Sc6  1  0.448162  0.448156  0.051840  1
  Sc  Sc7  1  0.051827  0.051857  0.448158  1
  Sc  Sc8  1  0.448148  0.051857  0.448144  1
  Sc  Sc9  1  0.051836  0.448155  0.051851  1
  Sc  Sc10  1  0.051830  0.448160  0.448161  1
  Sc  Sc11  1  0.448150  0.051858  0.051846  1
  Ga  Ga12  1  0.740413  0.419851  0.419870  1
  Ga  Ga13  1  0.419857  0.740420  0.419863  1
  Ga  Ga14  1  0.419865  0.419855  0.740414  1
  Ga  Ga15  1  0.419864  0.419851  0.419870  1
  Ga  Ga16  1  0.509587  0.830149  0.830130  1
  Ga  Ga17  1  0.830143  0.509580  0.830137  1
  Ga  Ga18  1  0.830135  0.830145  0.509586  1
  Ga  Ga19  1  0.830136  0.830149  0.830130  1
  Ni  Ni20  1  0.125000  0.625000  0.625000  1
  Ni  Ni21  1  0.625000  0.125000  0.625000  1
  Ni  Ni22  1  0.625000  0.625000  0.125000  1
  Ni  Ni23  1  0.625000  0.625000  0.625000  1
  C  C24  1  0.625000  0.125000  0.125000  1
  C  C25  1  0.125000  0.625000  0.125000  1
  C  C26  1  0.125000  0.125000  0.625000  1
  C  C27  1  0.125000  0.125000  0.125000  1
