# generated using pymatgen
data_Dy3YMo4F28
_symmetry_space_group_name_H-M   'P 1'
_cell_length_a   5.68973301
_cell_length_b   9.05070495
_cell_length_c   12.18451600
_cell_angle_alpha   62.31392871
_cell_angle_beta   90.00392731
_cell_angle_gamma   90.00287560
_symmetry_Int_Tables_number   1
_chemical_formula_structural   Dy3YMo4F28
_chemical_formula_sum   'Dy3 Y1 Mo4 F28'
_cell_volume   555.61553612
_cell_formula_units_Z   1
loop_
 _symmetry_equiv_pos_site_id
 _symmetry_equiv_pos_as_xyz
  1  'x, y, z'
loop_
 _atom_site_type_symbol
 _atom_site_label
 _atom_site_symmetry_multiplicity
 _atom_site_fract_x
 _atom_site_fract_y
 _atom_site_fract_z
 _atom_site_occupancy
  Dy  Dy0  1  0.251257  0.186127  0.732241  1
  Dy  Dy1  1  0.248843  0.185867  0.232238  1
  Dy  Dy2  1  0.749080  0.814363  0.267796  1
  Y  Y3  1  0.750882  0.814296  0.767790  1
  Mo  Mo4  1  0.755868  0.272919  0.955454  1
  Mo  Mo5  1  0.255706  0.726665  0.544488  1
  Mo  Mo6  1  0.244140  0.726687  0.045142  1
  Mo  Mo7  1  0.744109  0.273569  0.455051  1
  F  F8  1  0.464449  0.707515  0.919892  1
  F  F9  1  0.965660  0.292083  0.580135  1
  F  F10  1  0.534265  0.292064  0.080058  1
  F  F11  1  0.034419  0.707939  0.419540  1
  F  F12  1  0.457606  0.278873  0.547981  1
  F  F13  1  0.957858  0.720703  0.952561  1
  F  F14  1  0.542661  0.721133  0.451875  1
  F  F15  1  0.042932  0.278568  0.048097  1
  F  F16  1  0.775761  0.519015  0.859949  1
  F  F17  1  0.275538  0.480405  0.639792  1
  F  F18  1  0.224583  0.480418  0.140196  1
  F  F19  1  0.724640  0.519823  0.359905  1
  F  F20  1  0.760544  0.027560  0.053004  1
  F  F21  1  0.260429  0.972007  0.446864  1
  F  F22  1  0.239322  0.971906  0.946949  1
  F  F23  1  0.739221  0.028326  0.552234  1
  F  F24  1  0.981071  0.733372  0.642007  1
  F  F25  1  0.481010  0.266277  0.857742  1
  F  F26  1  0.018343  0.266294  0.357329  1
  F  F27  1  0.518240  0.734009  0.142775  1
  F  F28  1  0.029605  0.746003  0.173072  1
  F  F29  1  0.528818  0.254427  0.327315  1
  F  F30  1  0.971208  0.253796  0.827856  1
  F  F31  1  0.470209  0.745502  0.672519  1
  F  F32  1  0.428409  0.971376  0.234274  1
  F  F33  1  0.928154  0.028994  0.265787  1
  F  F34  1  0.572290  0.029956  0.765855  1
  F  F35  1  0.072866  0.971162  0.734242  1
