# generated using pymatgen
data_Lu4TcB16W3
_symmetry_space_group_name_H-M   'P 1'
_cell_length_a   3.57905300
_cell_length_b   5.97703222
_cell_length_c   11.54603882
_cell_angle_alpha   90.05106816
_cell_angle_beta   90.00000000
_cell_angle_gamma   90.00000000
_symmetry_Int_Tables_number   1
_chemical_formula_structural   Lu4TcB16W3
_chemical_formula_sum   'Lu4 Tc1 B16 W3'
_cell_volume   246.99409321
_cell_formula_units_Z   1
loop_
 _symmetry_equiv_pos_site_id
 _symmetry_equiv_pos_as_xyz
  1  'x, y, z'
loop_
 _atom_site_type_symbol
 _atom_site_label
 _atom_site_symmetry_multiplicity
 _atom_site_fract_x
 _atom_site_fract_y
 _atom_site_fract_z
 _atom_site_occupancy
  Lu  Lu0  1  0.000000  0.627511  0.350045  1
  Lu  Lu1  1  0.000000  0.374102  0.649817  1
  Lu  Lu2  1  0.000000  0.127418  0.149230  1
  Lu  Lu3  1  0.000000  0.872971  0.850001  1
  Tc  Tc4  1  0.000000  0.867513  0.585580  1
  B  B5  1  0.500000  0.790643  0.186916  1
  B  B6  1  0.500000  0.208421  0.812007  1
  B  B7  1  0.500000  0.289563  0.313661  1
  B  B8  1  0.500000  0.713166  0.685203  1
  B  B9  1  0.500000  0.868300  0.031744  1
  B  B10  1  0.500000  0.131636  0.967326  1
  B  B11  1  0.500000  0.368013  0.469827  1
  B  B12  1  0.500000  0.634466  0.532820  1
  B  B13  1  0.500000  0.882460  0.453427  1
  B  B14  1  0.500000  0.113104  0.550041  1
  B  B15  1  0.500000  0.383982  0.047612  1
  B  B16  1  0.500000  0.615765  0.951345  1
  B  B17  1  0.500000  0.976876  0.306280  1
  B  B18  1  0.500000  0.020199  0.693608  1
  B  B19  1  0.500000  0.477290  0.194656  1
  B  B20  1  0.500000  0.524128  0.804363  1
  W  W21  1  0.000000  0.631899  0.085109  1
  W  W22  1  0.000000  0.368069  0.913666  1
  W  W23  1  0.000000  0.132507  0.415715  1
