# generated using pymatgen
data_Tb6Al24Tc3Pt5
_symmetry_space_group_name_H-M   'P 1'
_cell_length_a   8.87176700
_cell_length_b   8.92194418
_cell_length_c   9.57894738
_cell_angle_alpha   90.36104710
_cell_angle_beta   90.00000000
_cell_angle_gamma   119.81413641
_symmetry_Int_Tables_number   1
_chemical_formula_structural   Tb6Al24Tc3Pt5
_chemical_formula_sum   'Tb6 Al24 Tc3 Pt5'
_cell_volume   657.83493680
_cell_formula_units_Z   1
loop_
 _symmetry_equiv_pos_site_id
 _symmetry_equiv_pos_as_xyz
  1  'x, y, z'
loop_
 _atom_site_type_symbol
 _atom_site_label
 _atom_site_symmetry_multiplicity
 _atom_site_fract_x
 _atom_site_fract_y
 _atom_site_fract_z
 _atom_site_occupancy
  Tb  Tb0  1  0.382566  0.188981  0.249126  1
  Tb  Tb1  1  0.806415  0.188981  0.249126  1
  Tb  Tb2  1  0.809524  0.619047  0.249213  1
  Tb  Tb3  1  0.617434  0.811019  0.750874  1
  Tb  Tb4  1  0.193585  0.811019  0.750874  1
  Tb  Tb5  1  0.190476  0.380953  0.750787  1
  Al  Al6  1  0.436500  0.873000  0.247107  1
  Al  Al7  1  0.127906  0.565044  0.250493  1
  Al  Al8  1  0.437138  0.565044  0.250493  1
  Al  Al9  1  0.563500  0.127000  0.752893  1
  Al  Al10  1  0.872094  0.434956  0.749507  1
  Al  Al11  1  0.562862  0.434956  0.749507  1
  Al  Al12  1  0.160626  0.837133  0.420393  1
  Al  Al13  1  0.161038  0.322077  0.422851  1
  Al  Al14  1  0.676506  0.837133  0.420393  1
  Al  Al15  1  0.839374  0.162867  0.579607  1
  Al  Al16  1  0.838962  0.677923  0.577149  1
  Al  Al17  1  0.323494  0.162867  0.579607  1
  Al  Al18  1  0.832243  0.157240  0.923319  1
  Al  Al19  1  0.838162  0.676322  0.923708  1
  Al  Al20  1  0.324997  0.157240  0.923319  1
  Al  Al21  1  0.167757  0.842760  0.076681  1
  Al  Al22  1  0.161838  0.323678  0.076292  1
  Al  Al23  1  0.675003  0.842760  0.076681  1
  Al  Al24  1  0.333204  0.666408  0.531479  1
  Al  Al25  1  0.666796  0.333592  0.468521  1
  Al  Al26  1  0.663891  0.327781  0.030041  1
  Al  Al27  1  0.336109  0.672219  0.969959  1
  Al  Al28  1  0.998678  0.997356  0.249860  1
  Al  Al29  1  0.001322  0.002644  0.750140  1
  Tc  Tc30  1  0.000000  0.000000  0.500000  1
  Tc  Tc31  1  0.000000  0.000000  0.000000  1
  Tc  Tc32  1  0.500000  0.000000  0.000000  1
  Pt  Pt33  1  0.500000  0.000000  0.500000  1
  Pt  Pt34  1  0.000000  0.500000  0.500000  1
  Pt  Pt35  1  0.500000  0.500000  0.500000  1
  Pt  Pt36  1  0.000000  0.500000  0.000000  1
  Pt  Pt37  1  0.500000  0.500000  0.000000  1
