# generated using pymatgen
data_Yb2HoGa2Co9B4
_symmetry_space_group_name_H-M   'P 1'
_cell_length_a   5.18184960
_cell_length_b   5.17249878
_cell_length_c   9.51717500
_cell_angle_alpha   90.00000290
_cell_angle_beta   89.99997199
_cell_angle_gamma   119.96164017
_symmetry_Int_Tables_number   1
_chemical_formula_structural   Yb2HoGa2Co9B4
_chemical_formula_sum   'Yb2 Ho1 Ga2 Co9 B4'
_cell_volume   220.99967236
_cell_formula_units_Z   1
loop_
 _symmetry_equiv_pos_site_id
 _symmetry_equiv_pos_as_xyz
  1  'x, y, z'
loop_
 _atom_site_type_symbol
 _atom_site_label
 _atom_site_symmetry_multiplicity
 _atom_site_fract_x
 _atom_site_fract_y
 _atom_site_fract_z
 _atom_site_occupancy
  Yb  Yb0  1  0.999992  0.000000  0.004124  1
  Yb  Yb1  1  0.999997  0.000000  0.335342  1
  Ho  Ho2  1  0.000000  0.000005  0.657686  1
  Ga  Ga3  1  0.333587  0.666894  0.000281  1
  Ga  Ga4  1  0.666395  0.333103  0.000281  1
  Co  Co5  1  0.499996  0.000000  0.499420  1
  Co  Co6  1  0.499996  0.500001  0.499409  1
  Co  Co7  1  0.999994  0.499998  0.499405  1
  Co  Co8  1  0.499991  0.999999  0.211384  1
  Co  Co9  1  0.499992  0.499998  0.211400  1
  Co  Co10  1  0.999992  0.499999  0.211412  1
  Co  Co11  1  0.500000  0.000000  0.789607  1
  Co  Co12  1  0.499996  0.500003  0.789605  1
  Co  Co13  1  0.999996  0.500000  0.789582  1
  B  B14  1  0.333323  0.666630  0.351420  1
  B  B15  1  0.666662  0.333368  0.351420  1
  B  B16  1  0.666563  0.333298  0.649111  1
  B  B17  1  0.333425  0.666702  0.649110  1
