# generated using pymatgen
data_Pr4Zn4Ir3Pt
_symmetry_space_group_name_H-M   'P 1'
_cell_length_a   4.18204700
_cell_length_b   7.21408617
_cell_length_c   8.37671268
_cell_angle_alpha   89.81200279
_cell_angle_beta   90.00000000
_cell_angle_gamma   90.00000000
_symmetry_Int_Tables_number   1
_chemical_formula_structural   Pr4Zn4Ir3Pt
_chemical_formula_sum   'Pr4 Zn4 Ir3 Pt1'
_cell_volume   252.72110749
_cell_formula_units_Z   1
loop_
 _symmetry_equiv_pos_site_id
 _symmetry_equiv_pos_as_xyz
  1  'x, y, z'
loop_
 _atom_site_type_symbol
 _atom_site_label
 _atom_site_symmetry_multiplicity
 _atom_site_fract_x
 _atom_site_fract_y
 _atom_site_fract_z
 _atom_site_occupancy
  Pr  Pr0  1  0.250000  0.034643  0.317153  1
  Pr  Pr1  1  0.250000  0.542464  0.187853  1
  Pr  Pr2  1  0.750000  0.962749  0.689135  1
  Pr  Pr3  1  0.750000  0.466614  0.808410  1
  Zn  Zn4  1  0.250000  0.640709  0.564850  1
  Zn  Zn5  1  0.250000  0.137753  0.930899  1
  Zn  Zn6  1  0.750000  0.361237  0.437929  1
  Zn  Zn7  1  0.750000  0.855415  0.066431  1
  Ir  Ir8  1  0.250000  0.261901  0.618259  1
  Ir  Ir9  1  0.250000  0.762545  0.882901  1
  Ir  Ir10  1  0.750000  0.737897  0.380683  1
  Pt  Pt11  1  0.750000  0.236073  0.115497  1
