# generated using pymatgen
data_Ba2AgSn4Au3
_symmetry_space_group_name_H-M   'P 1'
_cell_length_a   4.89192100
_cell_length_b   4.93658460
_cell_length_c   11.27852949
_cell_angle_alpha   88.78054035
_cell_angle_beta   90.00000000
_cell_angle_gamma   90.00000000
_symmetry_Int_Tables_number   1
_chemical_formula_structural   Ba2AgSn4Au3
_chemical_formula_sum   'Ba2 Ag1 Sn4 Au3'
_cell_volume   272.30782756
_cell_formula_units_Z   1
loop_
 _symmetry_equiv_pos_site_id
 _symmetry_equiv_pos_as_xyz
  1  'x, y, z'
loop_
 _atom_site_type_symbol
 _atom_site_label
 _atom_site_symmetry_multiplicity
 _atom_site_fract_x
 _atom_site_fract_y
 _atom_site_fract_z
 _atom_site_occupancy
  Ba  Ba0  1  0.250000  0.741045  0.754182  1
  Ba  Ba1  1  0.750000  0.257722  0.245561  1
  Ag  Ag2  1  0.750000  0.704513  0.999510  1
  Sn  Sn3  1  0.750000  0.749604  0.500443  1
  Sn  Sn4  1  0.250000  0.251052  0.499567  1
  Sn  Sn5  1  0.250000  0.786853  0.124802  1
  Sn  Sn6  1  0.750000  0.211849  0.875397  1
  Au  Au7  1  0.750000  0.245534  0.630028  1
  Au  Au8  1  0.250000  0.755868  0.370018  1
  Au  Au9  1  0.250000  0.295960  0.000493  1
