# generated using pymatgen
data_Mg3V3P6(PbO12)2
_symmetry_space_group_name_H-M   'P 1'
_cell_length_a   9.19008514
_cell_length_b   9.19008582
_cell_length_c   9.18977993
_cell_angle_alpha   137.41714851
_cell_angle_beta   109.91723850
_cell_angle_gamma   85.58809425
_symmetry_Int_Tables_number   1
_chemical_formula_structural   Mg3V3P6(PbO12)2
_chemical_formula_sum   'Mg3 V3 P6 Pb2 O24'
_cell_volume   474.96482995
_cell_formula_units_Z   1
loop_
 _symmetry_equiv_pos_site_id
 _symmetry_equiv_pos_as_xyz
  1  'x, y, z'
loop_
 _atom_site_type_symbol
 _atom_site_label
 _atom_site_symmetry_multiplicity
 _atom_site_fract_x
 _atom_site_fract_y
 _atom_site_fract_z
 _atom_site_occupancy
  Mg  Mg0  1  0.617566  0.617566  0.500000  1
  Mg  Mg1  1  0.883558  0.383558  0.000000  1
  Mg  Mg2  1  0.115918  0.615918  0.000000  1
  V  V3  1  0.382468  0.382468  0.500000  1
  V  V4  1  0.500164  0.000595  0.501257  1
  V  V5  1  0.999338  0.498906  0.498743  1
  P  P6  1  0.752058  0.345606  0.595674  1
  P  P7  1  0.249931  0.656384  0.404326  1
  P  P8  1  0.822328  0.822328  0.500000  1
  P  P9  1  0.678153  0.178153  0.000000  1
  P  P10  1  0.321258  0.821258  0.000000  1
  P  P11  1  0.175119  0.175119  0.500000  1
  Pb  Pb12  1  0.749229  0.856357  0.105689  1
  Pb  Pb13  1  0.250668  0.143540  0.894311  1
  O  O14  1  0.655819  0.119548  0.461046  1
  O  O15  1  0.341455  0.885578  0.540595  1
  O  O16  1  0.158503  0.694773  0.538954  1
  O  O17  1  0.844981  0.300860  0.459405  1
  O  O18  1  0.638379  0.491423  0.620140  1
  O  O19  1  0.130403  0.515750  0.145926  1
  O  O20  1  0.371286  0.518242  0.379860  1
  O  O21  1  0.869824  0.484477  0.854074  1
  O  O22  1  0.922474  0.067599  0.721404  1
  O  O23  1  0.653949  0.932947  0.855088  1
  O  O24  1  0.424922  0.704833  0.860243  1
  O  O25  1  0.151691  0.297437  0.721588  1
  O  O26  1  0.075848  0.930104  0.278412  1
  O  O27  1  0.344590  0.064679  0.139757  1
  O  O28  1  0.577858  0.298862  0.144912  1
  O  O29  1  0.846196  0.701071  0.278596  1
  O  O30  1  0.635120  0.792126  0.435995  1
  O  O31  1  0.644869  0.208753  0.843437  1
  O  O32  1  0.134747  0.696525  0.841950  1
  O  O33  1  0.140282  0.296794  0.433773  1
  O  O34  1  0.363022  0.206509  0.566227  1
  O  O35  1  0.354575  0.792797  0.158050  1
  O  O36  1  0.865316  0.301432  0.156563  1
  O  O37  1  0.856131  0.699125  0.564005  1
