# generated using pymatgen
data_DyLu9Ru4
_symmetry_space_group_name_H-M   'P 1'
_cell_length_a   6.19544033
_cell_length_b   7.21991217
_cell_length_c   8.28003855
_cell_angle_alpha   97.03106973
_cell_angle_beta   111.92108947
_cell_angle_gamma   89.90095816
_symmetry_Int_Tables_number   1
_chemical_formula_structural   DyLu9Ru4
_chemical_formula_sum   'Dy1 Lu9 Ru4'
_cell_volume   340.61943984
_cell_formula_units_Z   1
loop_
 _symmetry_equiv_pos_site_id
 _symmetry_equiv_pos_as_xyz
  1  'x, y, z'
loop_
 _atom_site_type_symbol
 _atom_site_label
 _atom_site_symmetry_multiplicity
 _atom_site_fract_x
 _atom_site_fract_y
 _atom_site_fract_z
 _atom_site_occupancy
  Dy  Dy0  1  0.523511  0.082898  0.812511  1
  Lu  Lu1  1  0.477447  0.916393  0.187025  1
  Lu  Lu2  1  0.707906  0.416036  0.186549  1
  Lu  Lu3  1  0.291244  0.583746  0.815273  1
  Lu  Lu4  1  0.295556  0.317364  0.434242  1
  Lu  Lu5  1  0.704398  0.683908  0.564980  1
  Lu  Lu6  1  0.862009  0.183826  0.564508  1
  Lu  Lu7  1  0.138312  0.814734  0.434228  1
  Lu  Lu8  1  0.081195  0.251161  0.000889  1
  Lu  Lu9  1  0.919104  0.748894  0.000469  1
  Ru  Ru10  1  0.322695  0.577944  0.218998  1
  Ru  Ru11  1  0.678523  0.424019  0.778467  1
  Ru  Ru12  1  0.099565  0.921480  0.779979  1
  Ru  Ru13  1  0.898534  0.077596  0.221880  1
