# generated using pymatgen
data_CaTbSc2(NiAs2)2
_symmetry_space_group_name_H-M   'P 1'
_cell_length_a   4.10593600
_cell_length_b   4.10593574
_cell_length_c   13.44551000
_cell_angle_alpha   90.00000000
_cell_angle_beta   90.00000000
_cell_angle_gamma   120.00001824
_symmetry_Int_Tables_number   1
_chemical_formula_structural   CaTbSc2(NiAs2)2
_chemical_formula_sum   'Ca1 Tb1 Sc2 Ni2 As4'
_cell_volume   196.30535882
_cell_formula_units_Z   1
loop_
 _symmetry_equiv_pos_site_id
 _symmetry_equiv_pos_as_xyz
  1  'x, y, z'
loop_
 _atom_site_type_symbol
 _atom_site_label
 _atom_site_symmetry_multiplicity
 _atom_site_fract_x
 _atom_site_fract_y
 _atom_site_fract_z
 _atom_site_occupancy
  Ca  Ca0  1  0.666667  0.333333  0.345210  1
  Tb  Tb1  1  0.333333  0.666667  0.849228  1
  Sc  Sc2  1  0.666667  0.333333  0.617051  1
  Sc  Sc3  1  0.333333  0.666667  0.116775  1
  Ni  Ni4  1  0.000000  0.000000  0.020299  1
  Ni  Ni5  1  0.000000  0.000000  0.527929  1
  As  As6  1  0.666667  0.333333  0.977829  1
  As  As7  1  0.333333  0.666667  0.486972  1
  As  As8  1  0.000000  0.000000  0.717837  1
  As  As9  1  0.000000  0.000000  0.209529  1
