# generated using pymatgen
data_La6Pr7Nd3(CdIr)4
_symmetry_space_group_name_H-M   'P 1'
_cell_length_a   10.02089402
_cell_length_b   10.08907096
_cell_length_c   10.07400049
_cell_angle_alpha   59.60237972
_cell_angle_beta   60.27357554
_cell_angle_gamma   60.29263318
_symmetry_Int_Tables_number   1
_chemical_formula_structural   La6Pr7Nd3(CdIr)4
_chemical_formula_sum   'La6 Pr7 Nd3 Cd4 Ir4'
_cell_volume   721.03569379
_cell_formula_units_Z   1
loop_
 _symmetry_equiv_pos_site_id
 _symmetry_equiv_pos_as_xyz
  1  'x, y, z'
loop_
 _atom_site_type_symbol
 _atom_site_label
 _atom_site_symmetry_multiplicity
 _atom_site_fract_x
 _atom_site_fract_y
 _atom_site_fract_z
 _atom_site_occupancy
  La  La0  1  0.345350  0.348574  0.348443  1
  La  La1  1  0.348574  0.345350  0.957632  1
  La  La2  1  0.348582  0.956904  0.345667  1
  La  La3  1  0.956904  0.348582  0.348846  1
  La  La4  1  0.812402  0.187605  0.187902  1
  La  La5  1  0.187605  0.812402  0.812090  1
  Pr  Pr6  1  0.808218  0.808218  0.191782  1
  Pr  Pr7  1  0.936738  0.563070  0.563947  1
  Pr  Pr8  1  0.563070  0.936738  0.936245  1
  Pr  Pr9  1  0.561249  0.938735  0.561820  1
  Pr  Pr10  1  0.938735  0.561249  0.938195  1
  Pr  Pr11  1  0.561652  0.561652  0.938348  1
  Pr  Pr12  1  0.938581  0.938581  0.561419  1
  Nd  Nd13  1  0.191571  0.808379  0.191731  1
  Nd  Nd14  1  0.808379  0.191571  0.808318  1
  Nd  Nd15  1  0.191347  0.191347  0.808653  1
  Cd  Cd16  1  0.580599  0.579369  0.579571  1
  Cd  Cd17  1  0.579369  0.580599  0.260461  1
  Cd  Cd18  1  0.579530  0.260205  0.580766  1
  Cd  Cd19  1  0.260205  0.579530  0.579498  1
  Ir  Ir20  1  0.136826  0.143957  0.143099  1
  Ir  Ir21  1  0.143957  0.136826  0.576118  1
  Ir  Ir22  1  0.144802  0.575750  0.136181  1
  Ir  Ir23  1  0.575750  0.144802  0.143265  1
