# generated using pymatgen
data_Ce5Fe2Mo3(P6Ru7)2
_symmetry_space_group_name_H-M   'P 1'
_cell_length_a   12.66914202
_cell_length_b   12.66782193
_cell_length_c   3.91930500
_cell_angle_alpha   90.00000000
_cell_angle_beta   90.00000000
_cell_angle_gamma   119.99655930
_symmetry_Int_Tables_number   1
_chemical_formula_structural   Ce5Fe2Mo3(P6Ru7)2
_chemical_formula_sum   'Ce5 Fe2 Mo3 P12 Ru14'
_cell_volume   544.75836032
_cell_formula_units_Z   1
loop_
 _symmetry_equiv_pos_site_id
 _symmetry_equiv_pos_as_xyz
  1  'x, y, z'
loop_
 _atom_site_type_symbol
 _atom_site_label
 _atom_site_symmetry_multiplicity
 _atom_site_fract_x
 _atom_site_fract_y
 _atom_site_fract_z
 _atom_site_occupancy
  Ce  Ce0  1  0.186333  0.182564  0.500000  1
  Ce  Ce1  1  0.813667  0.996231  0.500000  1
  Ce  Ce2  1  0.000000  0.817297  0.500000  1
  Ce  Ce3  1  0.334651  0.668517  0.000000  1
  Ce  Ce4  1  0.665349  0.333865  0.000000  1
  Fe  Fe5  1  0.717419  0.717502  0.500000  1
  Fe  Fe6  1  0.282581  0.000083  0.500000  1
  Mo  Mo7  1  0.565482  0.565153  0.000000  1
  Mo  Mo8  1  0.434518  0.999671  0.000000  1
  Mo  Mo9  1  0.000000  0.439414  0.000000  1
  P  P10  1  0.811157  0.811072  0.000000  1
  P  P11  1  0.188843  0.999915  0.000000  1
  P  P12  1  0.000000  0.181943  0.000000  1
  P  P13  1  0.166135  0.476646  0.500000  1
  P  P14  1  0.529034  0.689222  0.500000  1
  P  P15  1  0.311171  0.840002  0.500000  1
  P  P16  1  0.688829  0.528831  0.500000  1
  P  P17  1  0.833865  0.310511  0.500000  1
  P  P18  1  0.470966  0.160188  0.500000  1
  P  P19  1  0.374326  0.374543  0.000000  1
  P  P20  1  0.625674  0.000217  0.000000  1
  P  P21  1  0.000000  0.628063  0.000000  1
  Ru  Ru22  1  0.000000  0.279633  0.500000  1
  Ru  Ru23  1  0.183748  0.374599  0.000000  1
  Ru  Ru24  1  0.626256  0.807774  0.000000  1
  Ru  Ru25  1  0.192314  0.818935  0.000000  1
  Ru  Ru26  1  0.807686  0.626622  0.000000  1
  Ru  Ru27  1  0.816252  0.190851  0.000000  1
  Ru  Ru28  1  0.373744  0.181518  0.000000  1
  Ru  Ru29  1  0.362536  0.489799  0.500000  1
  Ru  Ru30  1  0.510997  0.871867  0.500000  1
  Ru  Ru31  1  0.128184  0.640086  0.500000  1
  Ru  Ru32  1  0.871816  0.511903  0.500000  1
  Ru  Ru33  1  0.637464  0.127263  0.500000  1
  Ru  Ru34  1  0.489003  0.360871  0.500000  1
  Ru  Ru35  1  0.000000  0.996829  0.000000  1
