# generated using pymatgen
data_BaFeNi(Sb6Os)2
_symmetry_space_group_name_H-M   'P 1'
_cell_length_a   8.13842869
_cell_length_b   8.09577163
_cell_length_c   8.14581807
_cell_angle_alpha   109.48818559
_cell_angle_beta   109.62099479
_cell_angle_gamma   109.51066994
_symmetry_Int_Tables_number   1
_chemical_formula_structural   BaFeNi(Sb6Os)2
_chemical_formula_sum   'Ba1 Fe1 Ni1 Sb12 Os2'
_cell_volume   412.09852533
_cell_formula_units_Z   1
loop_
 _symmetry_equiv_pos_site_id
 _symmetry_equiv_pos_as_xyz
  1  'x, y, z'
loop_
 _atom_site_type_symbol
 _atom_site_label
 _atom_site_symmetry_multiplicity
 _atom_site_fract_x
 _atom_site_fract_y
 _atom_site_fract_z
 _atom_site_occupancy
  Ba  Ba0  1  0.000000  0.000000  0.000000  1
  Fe  Fe1  1  0.000000  0.000000  0.500000  1
  Ni  Ni2  1  0.500000  0.000000  0.000000  1
  Sb  Sb3  1  0.334396  0.178286  0.834046  1
  Sb  Sb4  1  0.665604  0.821714  0.165954  1
  Sb  Sb5  1  0.657561  0.498800  0.841690  1
  Sb  Sb6  1  0.342439  0.501200  0.158310  1
  Sb  Sb7  1  0.176803  0.844512  0.344658  1
  Sb  Sb8  1  0.823197  0.155488  0.655342  1
  Sb  Sb9  1  0.498405  0.843738  0.658767  1
  Sb  Sb10  1  0.501595  0.156262  0.341233  1
  Sb  Sb11  1  0.839783  0.341365  0.184554  1
  Sb  Sb12  1  0.160217  0.658635  0.815446  1
  Sb  Sb13  1  0.843663  0.666972  0.500129  1
  Sb  Sb14  1  0.156337  0.333028  0.499871  1
  Os  Os15  1  0.000000  0.500000  0.000000  1
  Os  Os16  1  0.500000  0.500000  0.500000  1
