# generated using pymatgen
data_YbZr3(Nb3Ge4)2
_symmetry_space_group_name_H-M   'P 1'
_cell_length_a   7.08295100
_cell_length_b   7.08564780
_cell_length_c   13.10820000
_cell_angle_alpha   90.00000000
_cell_angle_beta   90.00000000
_cell_angle_gamma   90.26850238
_symmetry_Int_Tables_number   1
_chemical_formula_structural   YbZr3(Nb3Ge4)2
_chemical_formula_sum   'Yb2 Zr6 Nb12 Ge16'
_cell_volume   657.85789234
_cell_formula_units_Z   2
loop_
 _symmetry_equiv_pos_site_id
 _symmetry_equiv_pos_as_xyz
  1  'x, y, z'
loop_
 _atom_site_type_symbol
 _atom_site_label
 _atom_site_symmetry_multiplicity
 _atom_site_fract_x
 _atom_site_fract_y
 _atom_site_fract_z
 _atom_site_occupancy
  Yb  Yb0  1  0.997208  0.338110  0.222252  1
  Yb  Yb1  1  0.002792  0.661890  0.722252  1
  Zr  Zr2  1  0.159525  0.502830  0.469417  1
  Zr  Zr3  1  0.497570  0.840060  0.028340  1
  Zr  Zr4  1  0.840475  0.497170  0.969417  1
  Zr  Zr5  1  0.502430  0.159940  0.528340  1
  Zr  Zr6  1  0.343606  0.005203  0.778363  1
  Zr  Zr7  1  0.656394  0.994797  0.278363  1
  Nb  Nb8  1  0.168214  0.166717  0.998991  1
  Nb  Nb9  1  0.831786  0.833283  0.498991  1
  Nb  Nb10  1  0.335415  0.672539  0.249632  1
  Nb  Nb11  1  0.664585  0.327461  0.749632  1
  Nb  Nb12  1  0.159708  0.996764  0.378542  1
  Nb  Nb13  1  0.840292  0.003236  0.878542  1
  Nb  Nb14  1  0.503329  0.654215  0.625955  1
  Nb  Nb15  1  0.344788  0.492236  0.875112  1
  Nb  Nb16  1  0.496671  0.345785  0.125955  1
  Nb  Nb17  1  0.655212  0.507764  0.375112  1
  Nb  Nb18  1  0.993572  0.154409  0.622854  1
  Nb  Nb19  1  0.006428  0.845591  0.122854  1
  Ge  Ge20  1  0.298068  0.040977  0.183805  1
  Ge  Ge21  1  0.701932  0.959023  0.683805  1
  Ge  Ge22  1  0.461880  0.799483  0.434042  1
  Ge  Ge23  1  0.199882  0.536548  0.067317  1
  Ge  Ge24  1  0.538120  0.200517  0.934042  1
  Ge  Ge25  1  0.800118  0.463452  0.567317  1
  Ge  Ge26  1  0.036793  0.295462  0.815479  1
  Ge  Ge27  1  0.963207  0.704538  0.315479  1
  Ge  Ge28  1  0.366993  0.299397  0.325869  1
  Ge  Ge29  1  0.633007  0.700603  0.825869  1
  Ge  Ge30  1  0.203420  0.865522  0.575397  1
  Ge  Ge31  1  0.135151  0.798244  0.924970  1
  Ge  Ge32  1  0.796580  0.134478  0.075397  1
  Ge  Ge33  1  0.864849  0.201756  0.424970  1
  Ge  Ge34  1  0.297104  0.364181  0.673659  1
  Ge  Ge35  1  0.702896  0.635819  0.173659  1
