# generated using pymatgen
data_Nb12Fe5Si7N4
_symmetry_space_group_name_H-M   'P 1'
_cell_length_a   8.02660420
_cell_length_b   8.02660436
_cell_length_c   8.02660361
_cell_angle_alpha   60.33539884
_cell_angle_beta   60.33539907
_cell_angle_gamma   60.33539617
_symmetry_Int_Tables_number   1
_chemical_formula_structural   Nb12Fe5Si7N4
_chemical_formula_sum   'Nb12 Fe5 Si7 N4'
_cell_volume   368.43725451
_cell_formula_units_Z   1
loop_
 _symmetry_equiv_pos_site_id
 _symmetry_equiv_pos_as_xyz
  1  'x, y, z'
loop_
 _atom_site_type_symbol
 _atom_site_label
 _atom_site_symmetry_multiplicity
 _atom_site_fract_x
 _atom_site_fract_y
 _atom_site_fract_z
 _atom_site_occupancy
  Nb  Nb0  1  0.803980  0.803980  0.195419  1
  Nb  Nb1  1  0.194611  0.194611  0.805632  1
  Nb  Nb2  1  0.803980  0.195419  0.803980  1
  Nb  Nb3  1  0.194611  0.805632  0.194611  1
  Nb  Nb4  1  0.195419  0.803980  0.803980  1
  Nb  Nb5  1  0.805632  0.194611  0.194611  1
  Nb  Nb6  1  0.445078  0.445078  0.056231  1
  Nb  Nb7  1  0.052923  0.052923  0.448321  1
  Nb  Nb8  1  0.445078  0.056231  0.445078  1
  Nb  Nb9  1  0.052923  0.448321  0.052923  1
  Nb  Nb10  1  0.056231  0.445078  0.445078  1
  Nb  Nb11  1  0.448321  0.052923  0.052923  1
  Fe  Fe12  1  0.137168  0.618362  0.618362  1
  Fe  Fe13  1  0.618362  0.137168  0.618362  1
  Fe  Fe14  1  0.618362  0.618362  0.137168  1
  Fe  Fe15  1  0.623771  0.623771  0.623771  1
  Fe  Fe16  1  0.827229  0.827229  0.827229  1
  Si  Si17  1  0.750688  0.416079  0.416079  1
  Si  Si18  1  0.416079  0.750688  0.416079  1
  Si  Si19  1  0.416079  0.416079  0.750688  1
  Si  Si20  1  0.416455  0.416455  0.416455  1
  Si  Si21  1  0.508608  0.834335  0.834335  1
  Si  Si22  1  0.834335  0.508608  0.834335  1
  Si  Si23  1  0.834335  0.834335  0.508608  1
  N  N24  1  0.627841  0.123287  0.123287  1
  N  N25  1  0.123287  0.627841  0.123287  1
  N  N26  1  0.123287  0.123287  0.627841  1
  N  N27  1  0.125328  0.125328  0.125328  1
