# generated using pymatgen
data_Hf4InSi5Ir7
_symmetry_space_group_name_H-M   'P 1'
_cell_length_a   7.01552316
_cell_length_b   7.01552321
_cell_length_c   7.01552300
_cell_angle_alpha   108.03884550
_cell_angle_beta   110.19211150
_cell_angle_gamma   110.19212215
_symmetry_Int_Tables_number   1
_chemical_formula_structural   Hf4InSi5Ir7
_chemical_formula_sum   'Hf4 In1 Si5 Ir7'
_cell_volume   265.67784521
_cell_formula_units_Z   1
loop_
 _symmetry_equiv_pos_site_id
 _symmetry_equiv_pos_as_xyz
  1  'x, y, z'
loop_
 _atom_site_type_symbol
 _atom_site_label
 _atom_site_symmetry_multiplicity
 _atom_site_fract_x
 _atom_site_fract_y
 _atom_site_fract_z
 _atom_site_occupancy
  Hf  Hf0  1  0.540894  0.537304  0.537304  1
  Hf  Hf1  1  0.000000  0.996410  0.537304  1
  Hf  Hf2  1  0.000000  0.537304  0.996410  1
  Hf  Hf3  1  0.459106  0.996410  0.996410  1
  In  In4  1  0.000000  0.278751  0.278751  1
  Si  Si5  1  0.317311  0.009712  0.327023  1
  Si  Si6  1  0.317311  0.327023  0.009712  1
  Si  Si7  1  0.000000  0.652545  0.652545  1
  Si  Si8  1  0.682689  0.009712  0.692400  1
  Si  Si9  1  0.682689  0.692400  0.009712  1
  Ir  Ir10  1  0.500000  0.752320  0.252320  1
  Ir  Ir11  1  0.256337  0.501669  0.758007  1
  Ir  Ir12  1  0.743663  0.245332  0.501669  1
  Ir  Ir13  1  0.743663  0.501669  0.245332  1
  Ir  Ir14  1  0.500000  0.252320  0.752320  1
  Ir  Ir15  1  0.256337  0.758007  0.501669  1
  Ir  Ir16  1  0.000000  0.951112  0.951112  1
