# generated using pymatgen
data_DyY3Al24IrPt8
_symmetry_space_group_name_H-M   'P 1'
_cell_length_a   7.52396190
_cell_length_b   7.54796271
_cell_length_c   13.17466632
_cell_angle_alpha   84.61692608
_cell_angle_beta   79.10670804
_cell_angle_gamma   59.90410467
_symmetry_Int_Tables_number   1
_chemical_formula_structural   DyY3Al24IrPt8
_chemical_formula_sum   'Dy1 Y3 Al24 Ir1 Pt8'
_cell_volume   635.66582337
_cell_formula_units_Z   1
loop_
 _symmetry_equiv_pos_site_id
 _symmetry_equiv_pos_as_xyz
  1  'x, y, z'
loop_
 _atom_site_type_symbol
 _atom_site_label
 _atom_site_symmetry_multiplicity
 _atom_site_fract_x
 _atom_site_fract_y
 _atom_site_fract_z
 _atom_site_occupancy
  Dy  Dy0  1  0.266182  0.501548  0.191319  1
  Y  Y1  1  0.393455  0.168409  0.808828  1
  Y  Y2  1  0.606534  0.831580  0.191175  1
  Y  Y3  1  0.733786  0.498461  0.808744  1
  Al  Al4  1  0.686939  0.830737  0.945629  1
  Al  Al5  1  0.313045  0.169321  0.054419  1
  Al  Al6  1  0.146669  0.832141  0.561628  1
  Al  Al7  1  0.853338  0.167855  0.438365  1
  Al  Al8  1  0.480032  0.166740  0.558956  1
  Al  Al9  1  0.519968  0.833253  0.441038  1
  Al  Al10  1  0.217192  0.165123  0.328814  1
  Al  Al11  1  0.782816  0.834917  0.671149  1
  Al  Al12  1  0.436784  0.506945  0.671077  1
  Al  Al13  1  0.563175  0.493066  0.328888  1
  Al  Al14  1  0.109547  0.160078  0.669235  1
  Al  Al15  1  0.890518  0.839873  0.330728  1
  Al  Al16  1  0.349601  0.499229  0.945782  1
  Al  Al17  1  0.650297  0.500785  0.054308  1
  Al  Al18  1  0.014948  0.171172  0.954762  1
  Al  Al19  1  0.985107  0.828763  0.045286  1
  Al  Al20  1  0.186464  0.499295  0.441170  1
  Al  Al21  1  0.813550  0.500713  0.558783  1
  Al  Al22  1  0.734651  0.163699  0.183182  1
  Al  Al23  1  0.265284  0.836385  0.816816  1
  Al  Al24  1  0.061096  0.629832  0.817336  1
  Al  Al25  1  0.938986  0.370152  0.182663  1
  Al  Al26  1  0.855640  0.041588  0.816398  1
  Al  Al27  1  0.144345  0.958341  0.183605  1
  Ir  Ir28  1  0.000029  0.500002  0.000016  1
  Pt  Pt29  1  0.120139  0.492438  0.638499  1
  Pt  Pt30  1  0.879978  0.507560  0.361453  1
  Pt  Pt31  1  0.657396  0.171267  0.999941  1
  Pt  Pt32  1  0.342565  0.828733  0.000083  1
  Pt  Pt33  1  0.537600  0.166884  0.361876  1
  Pt  Pt34  1  0.462333  0.833189  0.638084  1
  Pt  Pt35  1  0.779154  0.174869  0.636832  1
  Pt  Pt36  1  0.220855  0.825059  0.363131  1
