# generated using pymatgen
data_Ho(TiRe6)4
_symmetry_space_group_name_H-M   'P 1'
_cell_length_a   8.40625890
_cell_length_b   8.40625806
_cell_length_c   8.40625800
_cell_angle_alpha   109.47122050
_cell_angle_beta   109.47121847
_cell_angle_gamma   109.47122141
_symmetry_Int_Tables_number   1
_chemical_formula_structural   Ho(TiRe6)4
_chemical_formula_sum   'Ho1 Ti4 Re24'
_cell_volume   457.28432187
_cell_formula_units_Z   1
loop_
 _symmetry_equiv_pos_site_id
 _symmetry_equiv_pos_as_xyz
  1  'x, y, z'
loop_
 _atom_site_type_symbol
 _atom_site_label
 _atom_site_symmetry_multiplicity
 _atom_site_fract_x
 _atom_site_fract_y
 _atom_site_fract_z
 _atom_site_occupancy
  Ho  Ho0  1  0.000000  0.000000  0.000000  1
  Ti  Ti1  1  0.629754  0.000000  0.000000  1
  Ti  Ti2  1  0.000000  0.629754  0.000000  1
  Ti  Ti3  1  0.000000  0.000000  0.629754  1
  Ti  Ti4  1  0.370246  0.370246  0.370246  1
  Re  Re5  1  0.399731  0.681432  0.000000  1
  Re  Re6  1  0.718299  0.318568  0.318568  1
  Re  Re7  1  0.399731  0.000000  0.681432  1
  Re  Re8  1  0.681432  0.399731  0.000000  1
  Re  Re9  1  0.000000  0.399731  0.681432  1
  Re  Re10  1  0.318568  0.718299  0.318568  1
  Re  Re11  1  0.318568  0.318568  0.718299  1
  Re  Re12  1  0.000000  0.681432  0.399731  1
  Re  Re13  1  0.681432  0.000000  0.399731  1
  Re  Re14  1  0.600269  0.600269  0.281701  1
  Re  Re15  1  0.281701  0.600269  0.600269  1
  Re  Re16  1  0.600269  0.281701  0.600269  1
  Re  Re17  1  0.378026  0.194578  0.000000  1
  Re  Re18  1  0.183448  0.805422  0.805422  1
  Re  Re19  1  0.378026  0.000000  0.194578  1
  Re  Re20  1  0.194578  0.378026  0.000000  1
  Re  Re21  1  0.000000  0.378026  0.194578  1
  Re  Re22  1  0.805422  0.183448  0.805422  1
  Re  Re23  1  0.805422  0.805422  0.183448  1
  Re  Re24  1  0.000000  0.194578  0.378026  1
  Re  Re25  1  0.194578  0.000000  0.378026  1
  Re  Re26  1  0.621974  0.621974  0.816552  1
  Re  Re27  1  0.816552  0.621974  0.621974  1
  Re  Re28  1  0.621974  0.816552  0.621974  1
