# generated using pymatgen
data_DyY2Er3FeBi2
_symmetry_space_group_name_H-M   'P 1'
_cell_length_a   8.30417008
_cell_length_b   8.30416919
_cell_length_c   4.17277300
_cell_angle_alpha   90.00000000
_cell_angle_beta   90.00000000
_cell_angle_gamma   120.09873811
_symmetry_Int_Tables_number   1
_chemical_formula_structural   DyY2Er3FeBi2
_chemical_formula_sum   'Dy1 Y2 Er3 Fe1 Bi2'
_cell_volume   248.95156114
_cell_formula_units_Z   1
loop_
 _symmetry_equiv_pos_site_id
 _symmetry_equiv_pos_as_xyz
  1  'x, y, z'
loop_
 _atom_site_type_symbol
 _atom_site_label
 _atom_site_symmetry_multiplicity
 _atom_site_fract_x
 _atom_site_fract_y
 _atom_site_fract_z
 _atom_site_occupancy
  Dy  Dy0  1  0.392339  0.392339  0.000000  1
  Y  Y1  1  0.607355  0.000062  0.000000  1
  Y  Y2  1  0.000062  0.607355  0.000000  1
  Er  Er3  1  0.229219  0.000207  0.500000  1
  Er  Er4  1  0.000207  0.229219  0.500000  1
  Er  Er5  1  0.770698  0.770698  0.500000  1
  Fe  Fe6  1  0.000179  0.000179  0.000000  1
  Bi  Bi7  1  0.333270  0.666672  0.500000  1
  Bi  Bi8  1  0.666672  0.333270  0.500000  1
