# generated using pymatgen
data_CdBi2F12
_symmetry_space_group_name_H-M   'P 1'
_cell_length_a   5.67857585
_cell_length_b   5.99411494
_cell_length_c   9.80858739
_cell_angle_alpha   73.75931747
_cell_angle_beta   88.67043947
_cell_angle_gamma   62.21911568
_symmetry_Int_Tables_number   1
_chemical_formula_structural   CdBi2F12
_chemical_formula_sum   'Cd1 Bi2 F12'
_cell_volume   281.33011821
_cell_formula_units_Z   1
loop_
 _symmetry_equiv_pos_site_id
 _symmetry_equiv_pos_as_xyz
  1  'x, y, z'
loop_
 _atom_site_type_symbol
 _atom_site_label
 _atom_site_symmetry_multiplicity
 _atom_site_fract_x
 _atom_site_fract_y
 _atom_site_fract_z
 _atom_site_occupancy
  Cd  Cd0  1  0.500000  0.500000  0.500000  1
  Bi  Bi1  1  0.774375  0.004340  0.241039  1
  Bi  Bi2  1  0.225625  0.995660  0.758961  1
  F  F3  1  0.950249  0.236441  0.207017  1
  F  F4  1  0.049751  0.763559  0.792983  1
  F  F5  1  0.023722  0.753689  0.138935  1
  F  F6  1  0.461496  0.778178  0.626355  1
  F  F7  1  0.538504  0.221822  0.373645  1
  F  F8  1  0.946942  0.240727  0.572768  1
  F  F9  1  0.053058  0.759273  0.427232  1
  F  F10  1  0.402256  0.238322  0.682078  1
  F  F11  1  0.597744  0.761678  0.317922  1
  F  F12  1  0.520471  0.773280  0.923774  1
  F  F13  1  0.479529  0.226720  0.076226  1
  F  F14  1  0.976278  0.246311  0.861065  1
