# generated using pymatgen
data_Ho10Ga3B16Pt
_symmetry_space_group_name_H-M   'P 1'
_cell_length_a   7.18677769
_cell_length_b   7.18677769
_cell_length_c   8.29580000
_cell_angle_alpha   90.00000000
_cell_angle_beta   90.00000000
_cell_angle_gamma   90.15635452
_symmetry_Int_Tables_number   1
_chemical_formula_structural   Ho10Ga3B16Pt
_chemical_formula_sum   'Ho10 Ga3 B16 Pt1'
_cell_volume   428.47459612
_cell_formula_units_Z   1
loop_
 _symmetry_equiv_pos_site_id
 _symmetry_equiv_pos_as_xyz
  1  'x, y, z'
loop_
 _atom_site_type_symbol
 _atom_site_label
 _atom_site_symmetry_multiplicity
 _atom_site_fract_x
 _atom_site_fract_y
 _atom_site_fract_z
 _atom_site_occupancy
  Ho  Ho0  1  0.681524  0.181524  0.215292  1
  Ho  Ho1  1  0.316531  0.816531  0.785415  1
  Ho  Ho2  1  0.316531  0.816531  0.214585  1
  Ho  Ho3  1  0.817544  0.681350  0.216387  1
  Ho  Ho4  1  0.817544  0.681350  0.783613  1
  Ho  Ho5  1  0.681524  0.181524  0.784708  1
  Ho  Ho6  1  0.181350  0.317544  0.783613  1
  Ho  Ho7  1  0.181350  0.317544  0.216387  1
  Ho  Ho8  1  0.004202  0.989800  0.500000  1
  Ho  Ho9  1  0.489800  0.504202  0.500000  1
  Ga  Ga10  1  0.883707  0.383707  0.500000  1
  Ga  Ga11  1  0.380485  0.119787  0.500000  1
  Ga  Ga12  1  0.619787  0.880485  0.500000  1
  B  B13  1  0.171495  0.040164  0.000000  1
  B  B14  1  0.828358  0.959869  0.000000  1
  B  B15  1  0.959717  0.172403  0.000000  1
  B  B16  1  0.327805  0.540029  0.000000  1
  B  B17  1  0.040029  0.827805  0.000000  1
  B  B18  1  0.672403  0.459717  0.000000  1
  B  B19  1  0.540164  0.671495  0.000000  1
  B  B20  1  0.459869  0.328358  0.000000  1
  B  B21  1  0.090514  0.590514  0.000000  1
  B  B22  1  0.909746  0.409746  0.000000  1
  B  B23  1  0.409751  0.090267  0.000000  1
  B  B24  1  0.590267  0.909751  0.000000  1
  B  B25  1  0.999887  0.000324  0.159384  1
  B  B26  1  0.999887  0.000324  0.840616  1
  B  B27  1  0.500324  0.499887  0.840616  1
  B  B28  1  0.500324  0.499887  0.159384  1
  Pt  Pt29  1  0.127583  0.627583  0.500000  1
