# generated using pymatgen
data_La8Pr8Cd4RuPt3
_symmetry_space_group_name_H-M   'P 1'
_cell_length_a   10.13617005
_cell_length_b   10.13613152
_cell_length_c   10.16488381
_cell_angle_alpha   59.63612129
_cell_angle_beta   59.63765144
_cell_angle_gamma   59.88665825
_symmetry_Int_Tables_number   1
_chemical_formula_structural   La8Pr8Cd4RuPt3
_chemical_formula_sum   'La8 Pr8 Cd4 Ru1 Pt3'
_cell_volume   733.76796994
_cell_formula_units_Z   1
loop_
 _symmetry_equiv_pos_site_id
 _symmetry_equiv_pos_as_xyz
  1  'x, y, z'
loop_
 _atom_site_type_symbol
 _atom_site_label
 _atom_site_symmetry_multiplicity
 _atom_site_fract_x
 _atom_site_fract_y
 _atom_site_fract_z
 _atom_site_occupancy
  La  La0  1  0.351200  0.351211  0.351432  1
  La  La1  1  0.343760  0.343784  0.958514  1
  La  La2  1  0.346609  0.955759  0.345014  1
  La  La3  1  0.955777  0.346627  0.345001  1
  La  La4  1  0.817970  0.188706  0.189674  1
  La  La5  1  0.190765  0.807834  0.807419  1
  La  La6  1  0.188744  0.817947  0.189606  1
  La  La7  1  0.807838  0.190701  0.807371  1
  Pr  Pr8  1  0.192494  0.192508  0.811059  1
  Pr  Pr9  1  0.804498  0.804484  0.194097  1
  Pr  Pr10  1  0.934473  0.564308  0.564660  1
  Pr  Pr11  1  0.562416  0.935325  0.933359  1
  Pr  Pr12  1  0.564302  0.934468  0.564641  1
  Pr  Pr13  1  0.935308  0.562413  0.933395  1
  Pr  Pr14  1  0.563539  0.563571  0.934902  1
  Pr  Pr15  1  0.935642  0.935651  0.561334  1
  Cd  Cd16  1  0.580095  0.580097  0.578703  1
  Cd  Cd17  1  0.581490  0.581495  0.258918  1
  Cd  Cd18  1  0.579912  0.258735  0.581635  1
  Cd  Cd19  1  0.258738  0.579907  0.581648  1
  Ru  Ru20  1  0.139045  0.139045  0.148711  1
  Pt  Pt21  1  0.143420  0.143446  0.573337  1
  Pt  Pt22  1  0.147438  0.574540  0.142774  1
  Pt  Pt23  1  0.574527  0.147435  0.142792  1
