# generated using pymatgen
data_DyHo5Er2(WO6)4
_symmetry_space_group_name_H-M   'P 1'
_cell_length_a   5.37862100
_cell_length_b   7.68547489
_cell_length_c   11.43216301
_cell_angle_alpha   75.39774220
_cell_angle_beta   90.00000000
_cell_angle_gamma   90.00000000
_symmetry_Int_Tables_number   1
_chemical_formula_structural   DyHo5Er2(WO6)4
_chemical_formula_sum   'Dy1 Ho5 Er2 W4 O24'
_cell_volume   457.30974698
_cell_formula_units_Z   1
loop_
 _symmetry_equiv_pos_site_id
 _symmetry_equiv_pos_as_xyz
  1  'x, y, z'
loop_
 _atom_site_type_symbol
 _atom_site_label
 _atom_site_symmetry_multiplicity
 _atom_site_fract_x
 _atom_site_fract_y
 _atom_site_fract_z
 _atom_site_occupancy
  Dy  Dy0  1  0.315972  0.500000  0.750000  1
  Ho  Ho1  1  0.183531  0.205748  0.421960  1
  Ho  Ho2  1  0.183531  0.794252  0.078040  1
  Ho  Ho3  1  0.684172  0.500000  0.250000  1
  Ho  Ho4  1  0.740359  0.000000  0.250000  1
  Ho  Ho5  1  0.259705  0.000000  0.750000  1
  Er  Er6  1  0.816380  0.794020  0.578201  1
  Er  Er7  1  0.816380  0.205980  0.921799  1
  W  W8  1  0.256093  0.276470  0.114627  1
  W  W9  1  0.256093  0.723530  0.385373  1
  W  W10  1  0.744149  0.723575  0.885085  1
  W  W11  1  0.744149  0.276425  0.614915  1
  O  O12  1  0.458657  0.208639  0.273147  1
  O  O13  1  0.458657  0.791361  0.226853  1
  O  O14  1  0.542194  0.791463  0.726203  1
  O  O15  1  0.542194  0.208537  0.773797  1
  O  O16  1  0.043867  0.060330  0.104203  1
  O  O17  1  0.043867  0.939670  0.395797  1
  O  O18  1  0.955011  0.940542  0.895563  1
  O  O19  1  0.955011  0.059458  0.604437  1
  O  O20  1  0.980070  0.289850  0.228550  1
  O  O21  1  0.980070  0.710150  0.271450  1
  O  O22  1  0.019498  0.711173  0.771013  1
  O  O23  1  0.019498  0.288827  0.728987  1
  O  O24  1  0.848455  0.365845  0.451292  1
  O  O25  1  0.848455  0.634155  0.048708  1
  O  O26  1  0.150249  0.634390  0.548734  1
  O  O27  1  0.150249  0.365610  0.951266  1
  O  O28  1  0.639912  0.510963  0.614471  1
  O  O29  1  0.639912  0.489037  0.885529  1
  O  O30  1  0.361778  0.489577  0.385451  1
  O  O31  1  0.361778  0.510423  0.114549  1
  O  O32  1  0.464351  0.153563  0.569671  1
  O  O33  1  0.464351  0.846437  0.930329  1
  O  O34  1  0.535699  0.846487  0.431266  1
  O  O35  1  0.535699  0.153513  0.068734  1
