# generated using pymatgen
data_Tb2B(PtRh2)2
_symmetry_space_group_name_H-M   'P 1'
_cell_length_a   5.87954694
_cell_length_b   5.87954796
_cell_length_c   5.85710100
_cell_angle_alpha   60.12620616
_cell_angle_beta   60.12620042
_cell_angle_gamma   59.84306364
_symmetry_Int_Tables_number   1
_chemical_formula_structural   Tb2B(PtRh2)2
_chemical_formula_sum   'Tb2 B1 Pt2 Rh4'
_cell_volume   143.27210394
_cell_formula_units_Z   1
loop_
 _symmetry_equiv_pos_site_id
 _symmetry_equiv_pos_as_xyz
  1  'x, y, z'
loop_
 _atom_site_type_symbol
 _atom_site_label
 _atom_site_symmetry_multiplicity
 _atom_site_fract_x
 _atom_site_fract_y
 _atom_site_fract_z
 _atom_site_occupancy
  Tb  Tb0  1  0.249786  0.249786  0.251300  1
  Tb  Tb1  1  0.750214  0.750214  0.750873  1
  B  B2  1  0.000000  0.000000  0.992653  1
  Pt  Pt3  1  0.743043  0.256958  0.257859  1
  Pt  Pt4  1  0.256958  0.743043  0.257859  1
  Rh  Rh5  1  0.744754  0.744754  0.256656  1
  Rh  Rh6  1  0.255246  0.255246  0.746164  1
  Rh  Rh7  1  0.741943  0.258058  0.743319  1
  Rh  Rh8  1  0.258058  0.741943  0.743319  1
