# generated using pymatgen
data_TbEr(Be11Cu2)2
_symmetry_space_group_name_H-M   'P 1'
_cell_length_a   7.34953148
_cell_length_b   7.36246623
_cell_length_c   7.31877210
_cell_angle_alpha   60.07945707
_cell_angle_beta   60.25516148
_cell_angle_gamma   59.66537562
_symmetry_Int_Tables_number   1
_chemical_formula_structural   TbEr(Be11Cu2)2
_chemical_formula_sum   'Tb1 Er1 Be22 Cu4'
_cell_volume   280.01543319
_cell_formula_units_Z   1
loop_
 _symmetry_equiv_pos_site_id
 _symmetry_equiv_pos_as_xyz
  1  'x, y, z'
loop_
 _atom_site_type_symbol
 _atom_site_label
 _atom_site_symmetry_multiplicity
 _atom_site_fract_x
 _atom_site_fract_y
 _atom_site_fract_z
 _atom_site_occupancy
  Tb  Tb0  1  0.250000  0.250000  0.250000  1
  Er  Er1  1  0.750000  0.750000  0.750000  1
  Be  Be2  1  0.500000  0.500000  0.500000  1
  Be  Be3  1  0.000000  0.000000  0.000000  1
  Be  Be4  1  0.280046  0.930900  0.720654  1
  Be  Be5  1  0.720654  0.068400  0.280046  1
  Be  Be6  1  0.930900  0.280046  0.068400  1
  Be  Be7  1  0.068400  0.720654  0.930900  1
  Be  Be8  1  0.200462  0.798718  0.560690  1
  Be  Be9  1  0.798718  0.200462  0.440130  1
  Be  Be10  1  0.440130  0.560690  0.798718  1
  Be  Be11  1  0.560690  0.440130  0.200462  1
  Be  Be12  1  0.714162  0.286382  0.933093  1
  Be  Be13  1  0.286382  0.714162  0.066363  1
  Be  Be14  1  0.066363  0.933093  0.286382  1
  Be  Be15  1  0.933093  0.066363  0.714162  1
  Be  Be16  1  0.566673  0.204782  0.794425  1
  Be  Be17  1  0.434120  0.794425  0.204782  1
  Be  Be18  1  0.794425  0.434120  0.566673  1
  Be  Be19  1  0.204782  0.566673  0.434120  1
  Be  Be20  1  0.939956  0.713463  0.287291  1
  Be  Be21  1  0.059290  0.287291  0.713463  1
  Be  Be22  1  0.287291  0.059290  0.939956  1
  Be  Be23  1  0.713463  0.939956  0.059290  1
  Cu  Cu24  1  0.803786  0.558730  0.194240  1
  Cu  Cu25  1  0.194240  0.443243  0.803786  1
  Cu  Cu26  1  0.558730  0.803786  0.443243  1
  Cu  Cu27  1  0.443243  0.194240  0.558730  1
