# generated using pymatgen
data_SmDy3Al5Tc3
_symmetry_space_group_name_H-M   'P 1'
_cell_length_a   5.52796650
_cell_length_b   5.58780231
_cell_length_c   8.78926629
_cell_angle_alpha   90.00000356
_cell_angle_beta   90.02538574
_cell_angle_gamma   120.35868398
_symmetry_Int_Tables_number   1
_chemical_formula_structural   SmDy3Al5Tc3
_chemical_formula_sum   'Sm1 Dy3 Al5 Tc3'
_cell_volume   234.26562751
_cell_formula_units_Z   1
loop_
 _symmetry_equiv_pos_site_id
 _symmetry_equiv_pos_as_xyz
  1  'x, y, z'
loop_
 _atom_site_type_symbol
 _atom_site_label
 _atom_site_symmetry_multiplicity
 _atom_site_fract_x
 _atom_site_fract_y
 _atom_site_fract_z
 _atom_site_occupancy
  Sm  Sm0  1  0.336048  0.668024  0.443269  1
  Dy  Dy1  1  0.663494  0.331747  0.556413  1
  Dy  Dy2  1  0.664201  0.332100  0.943368  1
  Dy  Dy3  1  0.338003  0.669002  0.055849  1
  Al  Al4  1  0.839080  0.162304  0.248757  1
  Al  Al5  1  0.839080  0.676775  0.248757  1
  Al  Al6  1  0.322230  0.161115  0.249120  1
  Al  Al7  1  0.182091  0.842539  0.751486  1
  Al  Al8  1  0.182091  0.339553  0.751486  1
  Tc  Tc9  1  0.978371  0.989186  0.510328  1
  Tc  Tc10  1  0.977108  0.988554  0.990274  1
  Tc  Tc11  1  0.678206  0.839102  0.750895  1
