# generated using pymatgen
data_Dy10In8Pd3Au
_symmetry_space_group_name_H-M   'P 1'
_cell_length_a   3.64217300
_cell_length_b   8.18532739
_cell_length_c   18.31748200
_cell_angle_alpha   90.03342412
_cell_angle_beta   90.00000000
_cell_angle_gamma   90.00000000
_symmetry_Int_Tables_number   1
_chemical_formula_structural   Dy10In8Pd3Au
_chemical_formula_sum   'Dy10 In8 Pd3 Au1'
_cell_volume   546.08761228
_cell_formula_units_Z   1
loop_
 _symmetry_equiv_pos_site_id
 _symmetry_equiv_pos_as_xyz
  1  'x, y, z'
loop_
 _atom_site_type_symbol
 _atom_site_label
 _atom_site_symmetry_multiplicity
 _atom_site_fract_x
 _atom_site_fract_y
 _atom_site_fract_z
 _atom_site_occupancy
  Dy  Dy0  1  0.000000  0.120796  0.419830  1
  Dy  Dy1  1  0.000000  0.882832  0.585088  1
  Dy  Dy2  1  0.000000  0.382875  0.915366  1
  Dy  Dy3  1  0.000000  0.617350  0.082970  1
  Dy  Dy4  1  0.000000  0.250504  0.217285  1
  Dy  Dy5  1  0.000000  0.755688  0.780369  1
  Dy  Dy6  1  0.000000  0.256011  0.720214  1
  Dy  Dy7  1  0.000000  0.733764  0.279905  1
  Dy  Dy8  1  0.000000  0.999713  0.999130  1
  Dy  Dy9  1  0.000000  0.499446  0.500459  1
  In  In10  1  0.500000  0.423928  0.352081  1
  In  In11  1  0.500000  0.575609  0.649164  1
  In  In12  1  0.500000  0.075719  0.851005  1
  In  In13  1  0.500000  0.922334  0.147413  1
  In  In14  1  0.500000  0.291995  0.066094  1
  In  In15  1  0.500000  0.707833  0.932417  1
  In  In16  1  0.500000  0.208475  0.568440  1
  In  In17  1  0.500000  0.790796  0.433897  1
  Pd  Pd18  1  0.500000  0.974441  0.697114  1
  Pd  Pd19  1  0.500000  0.474786  0.803190  1
  Pd  Pd20  1  0.500000  0.526978  0.196380  1
  Au  Au21  1  0.500000  0.028129  0.302190  1
