# generated using pymatgen
data_La3DyTm2Ta2O14
_symmetry_space_group_name_H-M   'P 1'
_cell_length_a   6.53931227
_cell_length_b   6.61477937
_cell_length_c   7.66159400
_cell_angle_alpha   90.00000000
_cell_angle_beta   90.00000000
_cell_angle_gamma   109.92377181
_symmetry_Int_Tables_number   1
_chemical_formula_structural   La3DyTm2Ta2O14
_chemical_formula_sum   'La3 Dy1 Tm2 Ta2 O14'
_cell_volume   311.57475185
_cell_formula_units_Z   1
loop_
 _symmetry_equiv_pos_site_id
 _symmetry_equiv_pos_as_xyz
  1  'x, y, z'
loop_
 _atom_site_type_symbol
 _atom_site_label
 _atom_site_symmetry_multiplicity
 _atom_site_fract_x
 _atom_site_fract_y
 _atom_site_fract_z
 _atom_site_occupancy
  La  La0  1  0.520988  0.065519  0.250000  1
  La  La1  1  0.002330  0.999683  0.996807  1
  La  La2  1  0.002330  0.999683  0.503193  1
  Dy  Dy3  1  0.949634  0.485648  0.750000  1
  Tm  Tm4  1  0.484221  0.977189  0.750000  1
  Tm  Tm5  1  0.052306  0.510548  0.250000  1
  Ta  Ta6  1  0.499526  0.506126  0.996820  1
  Ta  Ta7  1  0.499526  0.506126  0.503180  1
  O  O8  1  0.900977  0.155839  0.250000  1
  O  O9  1  0.839733  0.126967  0.750000  1
  O  O10  1  0.806023  0.535198  0.049111  1
  O  O11  1  0.806023  0.535198  0.450889  1
  O  O12  1  0.418309  0.178964  0.966328  1
  O  O13  1  0.418309  0.178964  0.533672  1
  O  O14  1  0.596567  0.534102  0.750000  1
  O  O15  1  0.419683  0.454320  0.250000  1
  O  O16  1  0.570531  0.822349  0.003051  1
  O  O17  1  0.182319  0.451204  0.534822  1
  O  O18  1  0.182319  0.451204  0.965178  1
  O  O19  1  0.570531  0.822349  0.496949  1
  O  O20  1  0.122296  0.839233  0.750000  1
  O  O21  1  0.155514  0.863591  0.250000  1
