# generated using pymatgen
data_La3DyPa2(SnRh)6
_symmetry_space_group_name_H-M   'P 1'
_cell_length_a   7.56821133
_cell_length_b   7.50160626
_cell_length_c   8.21389300
_cell_angle_alpha   90.00000000
_cell_angle_beta   90.00000000
_cell_angle_gamma   119.76460841
_symmetry_Int_Tables_number   1
_chemical_formula_structural   La3DyPa2(SnRh)6
_chemical_formula_sum   'La3 Dy1 Pa2 Sn6 Rh6'
_cell_volume   404.81112536
_cell_formula_units_Z   1
loop_
 _symmetry_equiv_pos_site_id
 _symmetry_equiv_pos_as_xyz
  1  'x, y, z'
loop_
 _atom_site_type_symbol
 _atom_site_label
 _atom_site_symmetry_multiplicity
 _atom_site_fract_x
 _atom_site_fract_y
 _atom_site_fract_z
 _atom_site_occupancy
  La  La0  1  0.584175  0.995515  0.750000  1
  La  La1  1  0.415405  0.411121  0.750000  1
  La  La2  1  0.999748  0.585540  0.750000  1
  Dy  Dy3  1  0.999851  0.596814  0.250000  1
  Pa  Pa4  1  0.587926  0.003557  0.250000  1
  Pa  Pa5  1  0.412032  0.415475  0.250000  1
  Sn  Sn6  1  0.245862  0.994552  0.005495  1
  Sn  Sn7  1  0.754410  0.748768  0.494472  1
  Sn  Sn8  1  0.999959  0.258474  0.495138  1
  Sn  Sn9  1  0.999959  0.258474  0.004862  1
  Sn  Sn10  1  0.754410  0.748768  0.005528  1
  Sn  Sn11  1  0.245862  0.994552  0.494505  1
  Rh  Rh12  1  0.649006  0.317614  0.037104  1
  Rh  Rh13  1  0.649006  0.317614  0.462896  1
  Rh  Rh14  1  0.351191  0.668895  0.037181  1
  Rh  Rh15  1  0.351191  0.668895  0.462819  1
  Rh  Rh16  1  0.000039  0.001904  0.750000  1
  Rh  Rh17  1  0.999963  0.013472  0.250000  1
