# generated using pymatgen
data_Y2TmLu5(WO6)4
_symmetry_space_group_name_H-M   'P 1'
_cell_length_a   5.33741400
_cell_length_b   7.62029692
_cell_length_c   11.34758570
_cell_angle_alpha   75.29505409
_cell_angle_beta   90.00000000
_cell_angle_gamma   90.00000000
_symmetry_Int_Tables_number   1
_chemical_formula_structural   Y2TmLu5(WO6)4
_chemical_formula_sum   'Y2 Tm1 Lu5 W4 O24'
_cell_volume   446.41947045
_cell_formula_units_Z   1
loop_
 _symmetry_equiv_pos_site_id
 _symmetry_equiv_pos_as_xyz
  1  'x, y, z'
loop_
 _atom_site_type_symbol
 _atom_site_label
 _atom_site_symmetry_multiplicity
 _atom_site_fract_x
 _atom_site_fract_y
 _atom_site_fract_z
 _atom_site_occupancy
  Y  Y0  1  0.315609  0.500000  0.750000  1
  Y  Y1  1  0.684645  0.500000  0.250000  1
  Tm  Tm2  1  0.258564  0.000000  0.750000  1
  Lu  Lu3  1  0.184687  0.796306  0.078605  1
  Lu  Lu4  1  0.740967  0.000000  0.250000  1
  Lu  Lu5  1  0.184687  0.203694  0.421395  1
  Lu  Lu6  1  0.815048  0.203882  0.921773  1
  Lu  Lu7  1  0.815048  0.796118  0.578227  1
  W  W8  1  0.745018  0.725164  0.885553  1
  W  W9  1  0.255063  0.725557  0.385337  1
  W  W10  1  0.745018  0.274836  0.614447  1
  W  W11  1  0.255063  0.274443  0.114663  1
  O  O12  1  0.855258  0.363137  0.450534  1
  O  O13  1  0.461132  0.847100  0.931448  1
  O  O14  1  0.855258  0.636863  0.049466  1
  O  O15  1  0.019130  0.285240  0.730614  1
  O  O16  1  0.980885  0.284827  0.230719  1
  O  O17  1  0.145072  0.362707  0.950709  1
  O  O18  1  0.643598  0.487535  0.887147  1
  O  O19  1  0.539219  0.152237  0.069143  1
  O  O20  1  0.145072  0.637293  0.549291  1
  O  O21  1  0.019130  0.714760  0.769386  1
  O  O22  1  0.458918  0.204556  0.274980  1
  O  O23  1  0.040539  0.943344  0.395209  1
  O  O24  1  0.461132  0.152900  0.568552  1
  O  O25  1  0.980885  0.715173  0.269281  1
  O  O26  1  0.957935  0.056888  0.603965  1
  O  O27  1  0.542393  0.205626  0.774958  1
  O  O28  1  0.542393  0.794374  0.725042  1
  O  O29  1  0.040539  0.056656  0.104791  1
  O  O30  1  0.643598  0.512465  0.612853  1
  O  O31  1  0.356213  0.512133  0.113074  1
  O  O32  1  0.458918  0.795444  0.225020  1
  O  O33  1  0.356213  0.487867  0.386926  1
  O  O34  1  0.539219  0.847763  0.430857  1
  O  O35  1  0.957935  0.943112  0.896035  1
