# generated using pymatgen
data_Ba3ScBiSe6
_symmetry_space_group_name_H-M   'P 1'
_cell_length_a   8.81336283
_cell_length_b   8.81336217
_cell_length_c   8.81336239
_cell_angle_alpha   91.91075272
_cell_angle_beta   91.91074721
_cell_angle_gamma   91.91074389
_symmetry_Int_Tables_number   1
_chemical_formula_structural   Ba3ScBiSe6
_chemical_formula_sum   'Ba6 Sc2 Bi2 Se12'
_cell_volume   683.41310368
_cell_formula_units_Z   2
loop_
 _symmetry_equiv_pos_site_id
 _symmetry_equiv_pos_as_xyz
  1  'x, y, z'
loop_
 _atom_site_type_symbol
 _atom_site_label
 _atom_site_symmetry_multiplicity
 _atom_site_fract_x
 _atom_site_fract_y
 _atom_site_fract_z
 _atom_site_occupancy
  Ba  Ba0  1  0.367426  0.750000  0.132574  1
  Ba  Ba1  1  0.132574  0.367426  0.750000  1
  Ba  Ba2  1  0.750000  0.132574  0.367426  1
  Ba  Ba3  1  0.632574  0.250000  0.867426  1
  Ba  Ba4  1  0.867426  0.632574  0.250000  1
  Ba  Ba5  1  0.250000  0.867426  0.632574  1
  Sc  Sc6  1  0.500000  0.500000  0.500000  1
  Sc  Sc7  1  0.000000  0.000000  0.000000  1
  Bi  Bi8  1  0.250000  0.250000  0.250000  1
  Bi  Bi9  1  0.750000  0.750000  0.750000  1
  Se  Se10  1  0.543850  0.416356  0.201475  1
  Se  Se11  1  0.201475  0.543850  0.416356  1
  Se  Se12  1  0.416356  0.201475  0.543850  1
  Se  Se13  1  0.956150  0.298525  0.083644  1
  Se  Se14  1  0.083644  0.956150  0.298525  1
  Se  Se15  1  0.298525  0.083644  0.956150  1
  Se  Se16  1  0.456150  0.583644  0.798525  1
  Se  Se17  1  0.798525  0.456150  0.583644  1
  Se  Se18  1  0.583644  0.798525  0.456150  1
  Se  Se19  1  0.043850  0.701475  0.916356  1
  Se  Se20  1  0.701475  0.916356  0.043850  1
  Se  Se21  1  0.916356  0.043850  0.701475  1
