# generated using pymatgen
data_Hf7ZrCo16(SiP5)2
_symmetry_space_group_name_H-M   'P 1'
_cell_length_a   12.13354993
_cell_length_b   12.11985484
_cell_length_c   3.63928800
_cell_angle_alpha   90.00000000
_cell_angle_beta   90.00000000
_cell_angle_gamma   119.96712585
_symmetry_Int_Tables_number   1
_chemical_formula_structural   Hf7ZrCo16(SiP5)2
_chemical_formula_sum   'Hf7 Zr1 Co16 Si2 P10'
_cell_volume   463.63490741
_cell_formula_units_Z   1
loop_
 _symmetry_equiv_pos_site_id
 _symmetry_equiv_pos_as_xyz
  1  'x, y, z'
loop_
 _atom_site_type_symbol
 _atom_site_label
 _atom_site_symmetry_multiplicity
 _atom_site_fract_x
 _atom_site_fract_y
 _atom_site_fract_z
 _atom_site_occupancy
  Hf  Hf0  1  0.442961  0.443290  0.000000  1
  Hf  Hf1  1  0.557413  0.001055  0.000000  1
  Hf  Hf2  1  0.999633  0.554088  0.000000  1
  Hf  Hf3  1  0.666196  0.334066  0.000000  1
  Hf  Hf4  1  0.827218  0.826590  0.500000  1
  Hf  Hf5  1  0.172800  0.999427  0.500000  1
  Hf  Hf6  1  0.999976  0.174515  0.500000  1
  Zr  Zr7  1  0.333646  0.667680  0.000000  1
  Co  Co8  1  0.192317  0.369975  0.000000  1
  Co  Co9  1  0.174017  0.802698  0.000000  1
  Co  Co10  1  0.825601  0.628128  0.000000  1
  Co  Co11  1  0.807672  0.178097  0.000000  1
  Co  Co12  1  0.370827  0.196506  0.000000  1
  Co  Co13  1  0.125333  0.479134  0.500000  1
  Co  Co14  1  0.355155  0.873598  0.500000  1
  Co  Co15  1  0.517927  0.644920  0.500000  1
  Co  Co16  1  0.644693  0.516639  0.500000  1
  Co  Co17  1  0.872914  0.354066  0.500000  1
  Co  Co18  1  0.483879  0.128623  0.500000  1
  Co  Co19  1  0.999974  0.000565  0.000000  1
  Co  Co20  1  0.723170  0.002298  0.500000  1
  Co  Co21  1  0.999809  0.720861  0.500000  1
  Co  Co22  1  0.629671  0.826063  0.000000  1
  Co  Co23  1  0.277021  0.278894  0.500000  1
  Si  Si24  1  0.655703  0.655334  0.000000  1
  Si  Si25  1  0.344304  0.999605  0.000000  1
  P  P26  1  0.000117  0.344174  0.000000  1
  P  P27  1  0.482407  0.308885  0.500000  1
  P  P28  1  0.691003  0.174235  0.500000  1
  P  P29  1  0.826177  0.516841  0.500000  1
  P  P30  1  0.518723  0.827316  0.500000  1
  P  P31  1  0.172973  0.691003  0.500000  1
  P  P32  1  0.825668  0.999578  0.000000  1
  P  P33  1  0.999814  0.825384  0.000000  1
  P  P34  1  0.308803  0.482159  0.500000  1
  P  P35  1  0.174488  0.173711  0.000000  1
