# generated using pymatgen
data_SrNdSm5OsBr12
_symmetry_space_group_name_H-M   'P 1'
_cell_length_a   9.58525981
_cell_length_b   9.46606069
_cell_length_c   9.45326529
_cell_angle_alpha   105.94730563
_cell_angle_beta   106.38657799
_cell_angle_gamma   106.38375440
_symmetry_Int_Tables_number   1
_chemical_formula_structural   SrNdSm5OsBr12
_chemical_formula_sum   'Sr1 Nd1 Sm5 Os1 Br12'
_cell_volume   728.63876673
_cell_formula_units_Z   1
loop_
 _symmetry_equiv_pos_site_id
 _symmetry_equiv_pos_as_xyz
  1  'x, y, z'
loop_
 _atom_site_type_symbol
 _atom_site_label
 _atom_site_symmetry_multiplicity
 _atom_site_fract_x
 _atom_site_fract_y
 _atom_site_fract_z
 _atom_site_occupancy
  Sr  Sr0  1  0.500080  0.499855  0.500234  1
  Nd  Nd1  1  0.100563  0.308852  0.018699  1
  Sm  Sm2  1  0.315311  0.019606  0.103301  1
  Sm  Sm3  1  0.018155  0.099862  0.305338  1
  Sm  Sm4  1  0.981519  0.898665  0.694252  1
  Sm  Sm5  1  0.684502  0.980151  0.896826  1
  Sm  Sm6  1  0.899860  0.693810  0.980772  1
  Os  Os7  1  0.999942  0.000144  0.999644  1
  Br  Br8  1  0.218349  0.682435  0.072512  1
  Br  Br9  1  0.449220  0.364884  0.148227  1
  Br  Br10  1  0.680424  0.072501  0.219180  1
  Br  Br11  1  0.928037  0.780977  0.319422  1
  Br  Br12  1  0.148157  0.447141  0.368413  1
  Br  Br13  1  0.362660  0.145103  0.444945  1
  Br  Br14  1  0.637322  0.854693  0.554985  1
  Br  Br15  1  0.852384  0.553163  0.635530  1
  Br  Br16  1  0.071152  0.216365  0.676239  1
  Br  Br17  1  0.319571  0.927305  0.780789  1
  Br  Br18  1  0.554877  0.635065  0.853874  1
  Br  Br19  1  0.777916  0.319424  0.926818  1
