# generated using pymatgen
data_TbYEr14(CdPd)4
_symmetry_space_group_name_H-M   'P 1'
_cell_length_a   9.63881869
_cell_length_b   9.63881964
_cell_length_c   9.63933600
_cell_angle_alpha   59.99822789
_cell_angle_beta   59.99822461
_cell_angle_gamma   59.93680706
_symmetry_Int_Tables_number   1
_chemical_formula_structural   TbYEr14(CdPd)4
_chemical_formula_sum   'Tb1 Y1 Er14 Cd4 Pd4'
_cell_volume   632.93675085
_cell_formula_units_Z   1
loop_
 _symmetry_equiv_pos_site_id
 _symmetry_equiv_pos_as_xyz
  1  'x, y, z'
loop_
 _atom_site_type_symbol
 _atom_site_label
 _atom_site_symmetry_multiplicity
 _atom_site_fract_x
 _atom_site_fract_y
 _atom_site_fract_z
 _atom_site_occupancy
  Tb  Tb0  1  0.933954  0.933954  0.566046  1
  Y  Y1  1  0.566672  0.566672  0.933328  1
  Er  Er2  1  0.353756  0.353756  0.353042  1
  Er  Er3  1  0.353756  0.353756  0.939447  1
  Er  Er4  1  0.355584  0.937216  0.353601  1
  Er  Er5  1  0.937216  0.355584  0.353601  1
  Er  Er6  1  0.810908  0.189101  0.189302  1
  Er  Er7  1  0.189101  0.810908  0.810689  1
  Er  Er8  1  0.189101  0.810908  0.189302  1
  Er  Er9  1  0.810908  0.189101  0.810689  1
  Er  Er10  1  0.189588  0.189588  0.810412  1
  Er  Er11  1  0.811079  0.811079  0.188921  1
  Er  Er12  1  0.934607  0.565213  0.565516  1
  Er  Er13  1  0.565213  0.934607  0.934664  1
  Er  Er14  1  0.565213  0.934607  0.565516  1
  Er  Er15  1  0.934607  0.565213  0.934664  1
  Cd  Cd16  1  0.582146  0.582146  0.581941  1
  Cd  Cd17  1  0.582146  0.582146  0.253767  1
  Cd  Cd18  1  0.581491  0.253452  0.582528  1
  Cd  Cd19  1  0.253452  0.581491  0.582528  1
  Pd  Pd20  1  0.144636  0.144636  0.144766  1
  Pd  Pd21  1  0.144636  0.144636  0.565963  1
  Pd  Pd22  1  0.143605  0.566626  0.144885  1
  Pd  Pd23  1  0.566626  0.143605  0.144885  1
