# generated using pymatgen
data_LiAg2P11
_symmetry_space_group_name_H-M   'P 1'
_cell_length_a   7.56575391
_cell_length_b   7.56575399
_cell_length_c   6.66605445
_cell_angle_alpha   66.10104882
_cell_angle_beta   66.10104825
_cell_angle_gamma   60.51341842
_symmetry_Int_Tables_number   1
_chemical_formula_structural   LiAg2P11
_chemical_formula_sum   'Li1 Ag2 P11'
_cell_volume   293.34697395
_cell_formula_units_Z   1
loop_
 _symmetry_equiv_pos_site_id
 _symmetry_equiv_pos_as_xyz
  1  'x, y, z'
loop_
 _atom_site_type_symbol
 _atom_site_label
 _atom_site_symmetry_multiplicity
 _atom_site_fract_x
 _atom_site_fract_y
 _atom_site_fract_z
 _atom_site_occupancy
  Li  Li0  1  0.290954  0.290954  0.974640  1
  Ag  Ag1  1  0.589807  0.589807  0.194967  1
  Ag  Ag2  1  0.999555  0.999555  0.998118  1
  P  P3  1  0.811095  0.811095  0.954191  1
  P  P4  1  0.492523  0.492523  0.942225  1
  P  P5  1  0.082509  0.082509  0.275718  1
  P  P6  1  0.263385  0.775701  0.469316  1
  P  P7  1  0.775701  0.263385  0.469316  1
  P  P8  1  0.613099  0.909979  0.498726  1
  P  P9  1  0.909979  0.613099  0.498726  1
  P  P10  1  0.610243  0.056940  0.727806  1
  P  P11  1  0.056940  0.610243  0.727806  1
  P  P12  1  0.351694  0.808518  0.734023  1
  P  P13  1  0.808518  0.351694  0.734023  1
