# generated using pymatgen
data_Ho5LuCo16(MoP6)2
_symmetry_space_group_name_H-M   'P 1'
_cell_length_a   3.70457700
_cell_length_b   10.53371001
_cell_length_c   12.20303602
_cell_angle_alpha   90.00584601
_cell_angle_beta   90.00000000
_cell_angle_gamma   90.00000000
_symmetry_Int_Tables_number   1
_chemical_formula_structural   Ho5LuCo16(MoP6)2
_chemical_formula_sum   'Ho5 Lu1 Co16 Mo2 P12'
_cell_volume   476.19833785
_cell_formula_units_Z   1
loop_
 _symmetry_equiv_pos_site_id
 _symmetry_equiv_pos_as_xyz
  1  'x, y, z'
loop_
 _atom_site_type_symbol
 _atom_site_label
 _atom_site_symmetry_multiplicity
 _atom_site_fract_x
 _atom_site_fract_y
 _atom_site_fract_z
 _atom_site_occupancy
  Ho  Ho0  1  0.000000  0.500039  0.524845  1
  Ho  Ho1  1  0.500000  0.999923  0.475004  1
  Ho  Ho2  1  0.500000  0.180704  0.205014  1
  Ho  Ho3  1  0.000000  0.681025  0.794970  1
  Ho  Ho4  1  0.000000  0.319002  0.795026  1
  Lu  Lu5  1  0.500000  0.819115  0.204931  1
  Co  Co6  1  0.000000  0.500538  0.986481  1
  Co  Co7  1  0.500000  0.999375  0.014186  1
  Co  Co8  1  0.500000  0.295795  0.431521  1
  Co  Co9  1  0.500000  0.704378  0.430924  1
  Co  Co10  1  0.000000  0.204144  0.568432  1
  Co  Co11  1  0.000000  0.795803  0.568152  1
  Co  Co12  1  0.500000  0.877936  0.706528  1
  Co  Co13  1  0.500000  0.122045  0.706609  1
  Co  Co14  1  0.000000  0.623089  0.292828  1
  Co  Co15  1  0.000000  0.378090  0.293388  1
  Co  Co16  1  0.500000  0.332486  0.990142  1
  Co  Co17  1  0.500000  0.667932  0.990506  1
  Co  Co18  1  0.000000  0.167166  0.010120  1
  Co  Co19  1  0.000000  0.832392  0.010786  1
  Co  Co20  1  0.500000  0.500055  0.701057  1
  Co  Co21  1  0.000000  0.998930  0.298378  1
  Mo  Mo22  1  0.500000  0.500338  0.156555  1
  Mo  Mo23  1  0.000000  0.999888  0.843636  1
  P  P24  1  0.500000  0.311636  0.616040  1
  P  P25  1  0.500000  0.688474  0.615863  1
  P  P26  1  0.000000  0.188090  0.383874  1
  P  P27  1  0.000000  0.811797  0.382813  1
  P  P28  1  0.500000  0.500043  0.880599  1
  P  P29  1  0.000000  0.999089  0.120002  1
  P  P30  1  0.500000  0.844520  0.892557  1
  P  P31  1  0.500000  0.155466  0.892898  1
  P  P32  1  0.000000  0.656447  0.108135  1
  P  P33  1  0.000000  0.344404  0.107271  1
  P  P34  1  0.500000  0.499834  0.349775  1
  P  P35  1  0.000000  0.000011  0.650152  1
