# generated using pymatgen
data_Cs2Tm2FeCuSe6
_symmetry_space_group_name_H-M   'P 1'
_cell_length_a   8.42024706
_cell_length_b   8.42024704
_cell_length_c   10.71768100
_cell_angle_alpha   90.00000000
_cell_angle_beta   90.00000000
_cell_angle_gamma   151.60905488
_symmetry_Int_Tables_number   1
_chemical_formula_structural   Cs2Tm2FeCuSe6
_chemical_formula_sum   'Cs2 Tm2 Fe1 Cu1 Se6'
_cell_volume   361.31624238
_cell_formula_units_Z   1
loop_
 _symmetry_equiv_pos_site_id
 _symmetry_equiv_pos_as_xyz
  1  'x, y, z'
loop_
 _atom_site_type_symbol
 _atom_site_label
 _atom_site_symmetry_multiplicity
 _atom_site_fract_x
 _atom_site_fract_y
 _atom_site_fract_z
 _atom_site_occupancy
  Cs  Cs0  1  0.238833  0.761166  0.250000  1
  Cs  Cs1  1  0.754932  0.245067  0.750000  1
  Tm  Tm2  1  0.505042  0.494956  0.986035  1
  Tm  Tm3  1  0.505042  0.494956  0.513965  1
  Fe  Fe4  1  0.964506  0.035493  0.250000  1
  Cu  Cu5  1  0.033355  0.966644  0.750000  1
  Se  Se6  1  0.887672  0.112327  0.062790  1
  Se  Se7  1  0.550945  0.449053  0.250000  1
  Se  Se8  1  0.887672  0.112327  0.437210  1
  Se  Se9  1  0.115790  0.884209  0.557292  1
  Se  Se10  1  0.440412  0.559586  0.750000  1
  Se  Se11  1  0.115790  0.884209  0.942709  1
