# generated using pymatgen
data_HoEr2PaNiB14
_symmetry_space_group_name_H-M   'P 1'
_cell_length_a   7.20836693
_cell_length_b   7.20960305
_cell_length_c   7.48909100
_cell_angle_alpha   90.00000000
_cell_angle_beta   90.00000000
_cell_angle_gamma   89.96420900
_symmetry_Int_Tables_number   1
_chemical_formula_structural   HoEr2PaNiB14
_chemical_formula_sum   'Ho2 Er4 Pa2 Ni2 B28'
_cell_volume   389.20397073
_cell_formula_units_Z   2
loop_
 _symmetry_equiv_pos_site_id
 _symmetry_equiv_pos_as_xyz
  1  'x, y, z'
loop_
 _atom_site_type_symbol
 _atom_site_label
 _atom_site_symmetry_multiplicity
 _atom_site_fract_x
 _atom_site_fract_y
 _atom_site_fract_z
 _atom_site_occupancy
  Ho  Ho0  1  0.833216  0.694162  0.500000  1
  Ho  Ho1  1  0.166641  0.306529  0.500000  1
  Er  Er2  1  0.334316  0.807563  0.000000  1
  Er  Er3  1  0.694265  0.167396  0.500000  1
  Er  Er4  1  0.306163  0.833422  0.500000  1
  Er  Er5  1  0.808106  0.665189  0.000000  1
  Pa  Pa6  1  0.193667  0.329411  0.000000  1
  Pa  Pa7  1  0.670812  0.193511  0.000000  1
  Ni  Ni8  1  0.999500  0.996810  0.000000  1
  Ni  Ni9  1  0.499789  0.501417  0.500000  1
  B  B10  1  0.174051  0.038882  0.232311  1
  B  B11  1  0.960676  0.172941  0.233659  1
  B  B12  1  0.040170  0.823830  0.231256  1
  B  B13  1  0.675089  0.461718  0.268571  1
  B  B14  1  0.325178  0.541423  0.269223  1
  B  B15  1  0.824407  0.959890  0.232895  1
  B  B16  1  0.539757  0.675870  0.270889  1
  B  B17  1  0.460294  0.326390  0.267947  1
  B  B18  1  0.824407  0.959890  0.767105  1
  B  B19  1  0.040170  0.823830  0.768744  1
  B  B20  1  0.960676  0.172941  0.766341  1
  B  B21  1  0.325178  0.541423  0.730777  1
  B  B22  1  0.675089  0.461718  0.731429  1
  B  B23  1  0.174051  0.038882  0.767689  1
  B  B24  1  0.460294  0.326390  0.732053  1
  B  B25  1  0.539757  0.675870  0.729111  1
  B  B26  1  0.088627  0.588881  0.246505  1
  B  B27  1  0.410078  0.090081  0.243794  1
  B  B28  1  0.588070  0.912237  0.247946  1
  B  B29  1  0.910255  0.410430  0.244406  1
  B  B30  1  0.910255  0.410430  0.755594  1
  B  B31  1  0.588070  0.912237  0.752054  1
  B  B32  1  0.410078  0.090081  0.756206  1
  B  B33  1  0.088627  0.588881  0.753495  1
  B  B34  1  0.000249  0.997288  0.390757  1
  B  B35  1  0.499863  0.502435  0.110814  1
  B  B36  1  0.000249  0.997288  0.609243  1
  B  B37  1  0.499863  0.502435  0.889186  1
