# generated using pymatgen
data_La17Dy3(Sn3Bi)4
_symmetry_space_group_name_H-M   'P 1'
_cell_length_a   8.59177642
_cell_length_b   8.61241600
_cell_length_c   16.46290100
_cell_angle_alpha   89.84640904
_cell_angle_beta   91.22368184
_cell_angle_gamma   90.00955874
_symmetry_Int_Tables_number   1
_chemical_formula_structural   La17Dy3(Sn3Bi)4
_chemical_formula_sum   'La17 Dy3 Sn12 Bi4'
_cell_volume   1217.90584297
_cell_formula_units_Z   1
loop_
 _symmetry_equiv_pos_site_id
 _symmetry_equiv_pos_as_xyz
  1  'x, y, z'
loop_
 _atom_site_type_symbol
 _atom_site_label
 _atom_site_symmetry_multiplicity
 _atom_site_fract_x
 _atom_site_fract_y
 _atom_site_fract_z
 _atom_site_occupancy
  La  La0  1  0.057404  0.168454  0.390750  1
  La  La1  1  0.383485  0.838103  0.118593  1
  La  La2  1  0.109364  0.334469  0.617890  1
  La  La3  1  0.465397  0.673070  0.898860  1
  La  La4  1  0.882732  0.660705  0.119730  1
  La  La5  1  0.117315  0.343096  0.881605  1
  La  La6  1  0.445527  0.675628  0.609934  1
  La  La7  1  0.604243  0.159600  0.617278  1
  La  La8  1  0.780916  0.500639  0.756510  1
  La  La9  1  0.892082  0.661342  0.380733  1
  La  La10  1  0.032241  0.181034  0.102599  1
  La  La11  1  0.958232  0.821347  0.897597  1
  La  La12  1  0.619769  0.159947  0.883264  1
  La  La13  1  0.540453  0.327685  0.104738  1
  La  La14  1  0.389322  0.842280  0.382739  1
  La  La15  1  0.951560  0.830970  0.609722  1
  La  La16  1  0.550934  0.326582  0.389456  1
  Dy  Dy17  1  0.221223  0.500382  0.243715  1
  Dy  Dy18  1  0.720735  0.000310  0.243218  1
  Dy  Dy19  1  0.279837  0.999756  0.748584  1
  Sn  Sn20  1  0.647411  0.862381  0.751215  1
  Sn  Sn21  1  0.850705  0.355732  0.250596  1
  Sn  Sn22  1  0.780550  0.468351  0.957378  1
  Sn  Sn23  1  0.582621  0.627691  0.252238  1
  Sn  Sn24  1  0.222418  0.525822  0.047883  1
  Sn  Sn25  1  0.411806  0.371705  0.749580  1
  Sn  Sn26  1  0.155073  0.645106  0.751615  1
  Sn  Sn27  1  0.916847  0.121887  0.749950  1
  Sn  Sn28  1  0.266697  0.015105  0.550321  1
  Sn  Sn29  1  0.722551  0.972794  0.048291  1
  Sn  Sn30  1  0.349541  0.143485  0.248313  1
  Sn  Sn31  1  0.084104  0.875229  0.250269  1
  Bi  Bi32  1  0.765284  0.484953  0.547174  1
  Bi  Bi33  1  0.733399  0.985183  0.448413  1
  Bi  Bi34  1  0.232632  0.514849  0.448366  1
  Bi  Bi35  1  0.275589  0.024332  0.950884  1
