# generated using pymatgen
data_La6Pr4Al3ZnRu6
_symmetry_space_group_name_H-M   'P 1'
_cell_length_a   8.64735970
_cell_length_b   8.64735868
_cell_length_c   8.64735863
_cell_angle_alpha   109.66724562
_cell_angle_beta   109.66724314
_cell_angle_gamma   109.66725359
_symmetry_Int_Tables_number   1
_chemical_formula_structural   La6Pr4Al3ZnRu6
_chemical_formula_sum   'La6 Pr4 Al3 Zn1 Ru6'
_cell_volume   494.12416368
_cell_formula_units_Z   1
loop_
 _symmetry_equiv_pos_site_id
 _symmetry_equiv_pos_as_xyz
  1  'x, y, z'
loop_
 _atom_site_type_symbol
 _atom_site_label
 _atom_site_symmetry_multiplicity
 _atom_site_fract_x
 _atom_site_fract_y
 _atom_site_fract_z
 _atom_site_occupancy
  La  La0  1  0.251173  0.687087  0.438791  1
  La  La1  1  0.747077  0.810992  0.060488  1
  La  La2  1  0.438791  0.251173  0.687087  1
  La  La3  1  0.687087  0.438791  0.251173  1
  La  La4  1  0.060488  0.747077  0.810992  1
  La  La5  1  0.810992  0.060488  0.747077  1
  Pr  Pr6  1  0.218664  0.218664  0.218664  1
  Pr  Pr7  1  0.500448  0.000202  0.283639  1
  Pr  Pr8  1  0.283639  0.500448  0.000202  1
  Pr  Pr9  1  0.000202  0.283639  0.500448  1
  Al  Al10  1  0.498902  0.001300  0.911096  1
  Al  Al11  1  0.911096  0.498902  0.001300  1
  Al  Al12  1  0.001300  0.911096  0.498902  1
  Zn  Zn13  1  0.585804  0.585804  0.585804  1
  Ru  Ru14  1  0.249873  0.114506  0.865646  1
  Ru  Ru15  1  0.756121  0.380886  0.637305  1
  Ru  Ru16  1  0.865645  0.249873  0.114506  1
  Ru  Ru17  1  0.114506  0.865645  0.249873  1
  Ru  Ru18  1  0.637305  0.756121  0.380886  1
  Ru  Ru19  1  0.380886  0.637305  0.756121  1
