# generated using pymatgen
data_Ba3SmPd2O9
_symmetry_space_group_name_H-M   'P 1'
_cell_length_a   5.98564600
_cell_length_b   5.99099234
_cell_length_c   15.10397500
_cell_angle_alpha   90.00000000
_cell_angle_beta   90.00000000
_cell_angle_gamma   119.97048414
_symmetry_Int_Tables_number   1
_chemical_formula_structural   Ba3SmPd2O9
_chemical_formula_sum   'Ba6 Sm2 Pd4 O18'
_cell_volume   469.20299360
_cell_formula_units_Z   2
loop_
 _symmetry_equiv_pos_site_id
 _symmetry_equiv_pos_as_xyz
  1  'x, y, z'
loop_
 _atom_site_type_symbol
 _atom_site_label
 _atom_site_symmetry_multiplicity
 _atom_site_fract_x
 _atom_site_fract_y
 _atom_site_fract_z
 _atom_site_occupancy
  Ba  Ba0  1  0.666725  0.333451  0.092962  1
  Ba  Ba1  1  0.999822  0.999644  0.250000  1
  Ba  Ba2  1  0.666725  0.333451  0.407038  1
  Ba  Ba3  1  0.333275  0.666550  0.592962  1
  Ba  Ba4  1  0.000178  0.000356  0.750000  1
  Ba  Ba5  1  0.333275  0.666550  0.907038  1
  Sm  Sm6  1  0.000000  0.000000  0.000000  1
  Sm  Sm7  1  0.000000  0.000000  0.500000  1
  Pd  Pd8  1  0.333259  0.666518  0.160557  1
  Pd  Pd9  1  0.333259  0.666518  0.339444  1
  Pd  Pd10  1  0.666740  0.333481  0.660556  1
  Pd  Pd11  1  0.666740  0.333481  0.839444  1
  O  O12  1  0.175958  0.351916  0.086758  1
  O  O13  1  0.175576  0.824240  0.087017  1
  O  O14  1  0.648665  0.824240  0.087017  1
  O  O15  1  0.032911  0.516721  0.250000  1
  O  O16  1  0.483810  0.516721  0.250000  1
  O  O17  1  0.483213  0.966427  0.250000  1
  O  O18  1  0.175576  0.824240  0.412983  1
  O  O19  1  0.648665  0.824240  0.412983  1
  O  O20  1  0.175958  0.351916  0.413242  1
  O  O21  1  0.351334  0.175758  0.587017  1
  O  O22  1  0.824423  0.175758  0.587017  1
  O  O23  1  0.824040  0.648083  0.586758  1
  O  O24  1  0.516787  0.033574  0.750000  1
  O  O25  1  0.516191  0.483279  0.750000  1
  O  O26  1  0.967089  0.483279  0.750000  1
  O  O27  1  0.351334  0.175758  0.912983  1
  O  O28  1  0.824423  0.175758  0.912983  1
  O  O29  1  0.824040  0.648083  0.913242  1
