# generated using pymatgen
data_Zr7(CoSe)2
_symmetry_space_group_name_H-M   'P 1'
_cell_length_a   8.48370687
_cell_length_b   8.48370834
_cell_length_c   8.48370739
_cell_angle_alpha   156.16224513
_cell_angle_beta   117.44001435
_cell_angle_gamma   67.94396331
_symmetry_Int_Tables_number   1
_chemical_formula_structural   Zr7(CoSe)2
_chemical_formula_sum   'Zr7 Co2 Se2'
_cell_volume   217.20127800
_cell_formula_units_Z   1
loop_
 _symmetry_equiv_pos_site_id
 _symmetry_equiv_pos_as_xyz
  1  'x, y, z'
loop_
 _atom_site_type_symbol
 _atom_site_label
 _atom_site_symmetry_multiplicity
 _atom_site_fract_x
 _atom_site_fract_y
 _atom_site_fract_z
 _atom_site_occupancy
  Zr  Zr0  1  0.308871  0.682275  0.626594  1
  Zr  Zr1  1  0.944320  0.317725  0.626594  1
  Zr  Zr2  1  0.997801  0.000000  0.997801  1
  Zr  Zr3  1  0.546044  0.126580  0.419463  1
  Zr  Zr4  1  0.292883  0.873420  0.419463  1
  Zr  Zr5  1  0.615731  0.354517  0.261214  1
  Zr  Zr6  1  0.906696  0.645483  0.261214  1
  Co  Co7  1  0.174111  0.237850  0.936260  1
  Co  Co8  1  0.698410  0.762150  0.936260  1
  Se  Se9  1  0.668714  0.000000  0.668714  1
  Se  Se10  1  0.258217  0.500000  0.758217  1
