# generated using pymatgen
data_Dy20IrOs4Rh7
_symmetry_space_group_name_H-M   'P 1'
_cell_length_a   10.87920061
_cell_length_b   10.87920061
_cell_length_c   6.40417703
_cell_angle_alpha   90.00842413
_cell_angle_beta   90.00842413
_cell_angle_gamma   90.03746588
_symmetry_Int_Tables_number   1
_chemical_formula_structural   Dy20IrOs4Rh7
_chemical_formula_sum   'Dy20 Ir1 Os4 Rh7'
_cell_volume   757.97904083
_cell_formula_units_Z   1
loop_
 _symmetry_equiv_pos_site_id
 _symmetry_equiv_pos_as_xyz
  1  'x, y, z'
loop_
 _atom_site_type_symbol
 _atom_site_label
 _atom_site_symmetry_multiplicity
 _atom_site_fract_x
 _atom_site_fract_y
 _atom_site_fract_z
 _atom_site_occupancy
  Dy  Dy0  1  0.294563  0.086296  0.377507  1
  Dy  Dy1  1  0.294661  0.912505  0.877054  1
  Dy  Dy2  1  0.705398  0.086353  0.877329  1
  Dy  Dy3  1  0.705373  0.913626  0.377229  1
  Dy  Dy4  1  0.585162  0.794073  0.876987  1
  Dy  Dy5  1  0.586388  0.205311  0.377579  1
  Dy  Dy6  1  0.413139  0.793912  0.378469  1
  Dy  Dy7  1  0.413460  0.205251  0.877285  1
  Dy  Dy8  1  0.205927  0.414838  0.623013  1
  Dy  Dy9  1  0.206088  0.586861  0.121531  1
  Dy  Dy10  1  0.794689  0.413612  0.122421  1
  Dy  Dy11  1  0.794749  0.586540  0.622715  1
  Dy  Dy12  1  0.913704  0.705437  0.122493  1
  Dy  Dy13  1  0.913647  0.294602  0.622671  1
  Dy  Dy14  1  0.087495  0.705339  0.622946  1
  Dy  Dy15  1  0.086374  0.294627  0.122771  1
  Dy  Dy16  1  0.999991  0.000014  0.499996  1
  Dy  Dy17  1  0.999986  0.000009  0.000004  1
  Dy  Dy18  1  0.499834  0.500268  0.999831  1
  Dy  Dy19  1  0.499732  0.500166  0.500169  1
  Ir  Ir20  1  0.348260  0.651740  0.750000  1
  Os  Os21  1  0.500277  0.000450  0.124065  1
  Os  Os22  1  0.500296  0.000503  0.623808  1
  Os  Os23  1  0.999497  0.499704  0.876192  1
  Os  Os24  1  0.999550  0.499723  0.375935  1
  Rh  Rh25  1  0.848298  0.151702  0.250000  1
  Rh  Rh26  1  0.848372  0.848399  0.749906  1
  Rh  Rh27  1  0.151601  0.151628  0.750094  1
  Rh  Rh28  1  0.151344  0.848656  0.250000  1
  Rh  Rh29  1  0.651720  0.348280  0.750000  1
  Rh  Rh30  1  0.652152  0.651729  0.250088  1
  Rh  Rh31  1  0.348271  0.347848  0.249912  1
