# generated using pymatgen
data_ErHfMn12P7
_symmetry_space_group_name_H-M   'P 1'
_cell_length_a   9.23605900
_cell_length_b   9.23605999
_cell_length_c   3.56022100
_cell_angle_alpha   90.00000000
_cell_angle_beta   90.00000000
_cell_angle_gamma   120.00000721
_symmetry_Int_Tables_number   1
_chemical_formula_structural   ErHfMn12P7
_chemical_formula_sum   'Er1 Hf1 Mn12 P7'
_cell_volume   263.01529301
_cell_formula_units_Z   1
loop_
 _symmetry_equiv_pos_site_id
 _symmetry_equiv_pos_as_xyz
  1  'x, y, z'
loop_
 _atom_site_type_symbol
 _atom_site_label
 _atom_site_symmetry_multiplicity
 _atom_site_fract_x
 _atom_site_fract_y
 _atom_site_fract_z
 _atom_site_occupancy
  Er  Er0  1  0.000000  0.000000  0.500000  1
  Hf  Hf1  1  0.333333  0.666667  0.000000  1
  Mn  Mn2  1  0.045202  0.286110  0.000000  1
  Mn  Mn3  1  0.713890  0.759092  0.000000  1
  Mn  Mn4  1  0.240908  0.954798  0.000000  1
  Mn  Mn5  1  0.545743  0.054069  0.000000  1
  Mn  Mn6  1  0.945931  0.491674  0.000000  1
  Mn  Mn7  1  0.508326  0.454257  0.000000  1
  Mn  Mn8  1  0.618274  0.892946  0.500000  1
  Mn  Mn9  1  0.107054  0.725328  0.500000  1
  Mn  Mn10  1  0.274672  0.381726  0.500000  1
  Mn  Mn11  1  0.792101  0.229931  0.500000  1
  Mn  Mn12  1  0.770069  0.562170  0.500000  1
  Mn  Mn13  1  0.437830  0.207899  0.500000  1
  P  P14  1  0.787717  0.042961  0.000000  1
  P  P15  1  0.957039  0.744757  0.000000  1
  P  P16  1  0.255243  0.212283  0.000000  1
  P  P17  1  0.384889  0.919510  0.500000  1
  P  P18  1  0.080490  0.465380  0.500000  1
  P  P19  1  0.534620  0.615111  0.500000  1
  P  P20  1  0.666667  0.333333  0.000000  1
