# generated using pymatgen
data_Ti8Al14GeOs4Rh3
_symmetry_space_group_name_H-M   'P 1'
_cell_length_a   8.63794683
_cell_length_b   8.65423820
_cell_length_c   8.66193050
_cell_angle_alpha   119.97927536
_cell_angle_beta   119.85987635
_cell_angle_gamma   90.01126684
_symmetry_Int_Tables_number   1
_chemical_formula_structural   Ti8Al14GeOs4Rh3
_chemical_formula_sum   'Ti8 Al14 Ge1 Os4 Rh3'
_cell_volume   458.93242388
_cell_formula_units_Z   1
loop_
 _symmetry_equiv_pos_site_id
 _symmetry_equiv_pos_as_xyz
  1  'x, y, z'
loop_
 _atom_site_type_symbol
 _atom_site_label
 _atom_site_symmetry_multiplicity
 _atom_site_fract_x
 _atom_site_fract_y
 _atom_site_fract_z
 _atom_site_occupancy
  Ti  Ti0  1  0.783345  0.290221  0.077301  1
  Ti  Ti1  1  0.220733  0.298186  0.507761  1
  Ti  Ti2  1  0.212991  0.712395  0.509790  1
  Ti  Ti3  1  0.222428  0.716879  0.922808  1
  Ti  Ti4  1  0.791987  0.713603  0.495056  1
  Ti  Ti5  1  0.779541  0.279642  0.488740  1
  Ti  Ti6  1  0.375665  0.121373  0.743110  1
  Ti  Ti7  1  0.383120  0.635140  0.260253  1
  Al  Al8  1  0.152232  0.341553  0.184033  1
  Al  Al9  1  0.156314  0.975228  0.818154  1
  Al  Al10  1  0.151573  0.343806  0.811089  1
  Al  Al11  1  0.526552  0.342379  0.186553  1
  Al  Al12  1  0.845862  0.654214  0.809528  1
  Al  Al13  1  0.846650  0.030280  0.187472  1
  Al  Al14  1  0.842239  0.656271  0.181395  1
  Al  Al15  1  0.481327  0.660063  0.820801  1
  Al  Al16  1  0.378915  0.120646  0.259682  1
  Al  Al17  1  0.858921  0.120903  0.739571  1
  Al  Al18  1  0.620788  0.876544  0.256568  1
  Al  Al19  1  0.621207  0.362568  0.742540  1
  Al  Al20  1  0.619471  0.877705  0.740598  1
  Al  Al21  1  0.138243  0.879166  0.259833  1
  Ge  Ge22  1  0.997729  0.496823  0.499969  1
  Os  Os23  1  0.999937  0.998627  0.500914  1
  Os  Os24  1  0.499412  0.000589  0.000057  1
  Os  Os25  1  0.497751  0.497934  0.999583  1
  Os  Os26  1  0.497094  0.499259  0.498189  1
  Rh  Rh27  1  0.000035  0.500028  0.000235  1
  Rh  Rh28  1  0.999056  0.999231  0.998938  1
  Rh  Rh29  1  0.498881  0.998743  0.499479  1
