# generated using pymatgen
data_K4BaTi3O9
_symmetry_space_group_name_H-M   'P 1'
_cell_length_a   7.64499694
_cell_length_b   7.64486268
_cell_length_c   11.89145633
_cell_angle_alpha   89.73600527
_cell_angle_beta   89.73278281
_cell_angle_gamma   110.40674024
_symmetry_Int_Tables_number   1
_chemical_formula_structural   K4BaTi3O9
_chemical_formula_sum   'K8 Ba2 Ti6 O18'
_cell_volume   651.35685609
_cell_formula_units_Z   2
loop_
 _symmetry_equiv_pos_site_id
 _symmetry_equiv_pos_as_xyz
  1  'x, y, z'
loop_
 _atom_site_type_symbol
 _atom_site_label
 _atom_site_symmetry_multiplicity
 _atom_site_fract_x
 _atom_site_fract_y
 _atom_site_fract_z
 _atom_site_occupancy
  K  K0  1  0.303726  0.174983  0.750568  1
  K  K1  1  0.055406  0.944603  0.000000  1
  K  K2  1  0.825043  0.696283  0.249429  1
  K  K3  1  0.574549  0.425459  0.999990  1
  K  K4  1  0.580466  0.419533  0.499999  1
  K  K5  1  0.288014  0.580668  0.249452  1
  K  K6  1  0.005265  0.994706  0.500016  1
  K  K7  1  0.419337  0.711998  0.750544  1
  Ba  Ba8  1  0.809431  0.190432  0.232790  1
  Ba  Ba9  1  0.809566  0.190572  0.767212  1
  Ti  Ti10  1  0.869921  0.659342  0.740945  1
  Ti  Ti11  1  0.340649  0.130077  0.259058  1
  Ti  Ti12  1  0.490014  0.912087  0.479743  1
  Ti  Ti13  1  0.105848  0.493582  0.970882  1
  Ti  Ti14  1  0.087919  0.509974  0.520257  1
  Ti  Ti15  1  0.506424  0.894157  0.029116  1
  O  O16  1  0.343310  0.656690  0.500005  1
  O  O17  1  0.107658  0.112662  0.234339  1
  O  O18  1  0.887329  0.892340  0.765650  1
  O  O19  1  0.959879  0.647254  0.594631  1
  O  O20  1  0.355970  0.644032  0.999996  1
  O  O21  1  0.514984  0.041502  0.909216  1
  O  O22  1  0.405478  0.980229  0.152821  1
  O  O23  1  0.352728  0.040119  0.405372  1
  O  O24  1  0.019761  0.594522  0.847184  1
  O  O25  1  0.725208  0.894397  0.077679  1
  O  O26  1  0.509648  0.362928  0.248998  1
  O  O27  1  0.081566  0.314813  0.605549  1
  O  O28  1  0.685177  0.918439  0.394451  1
  O  O29  1  0.549428  0.025592  0.612771  1
  O  O30  1  0.958510  0.485014  0.090789  1
  O  O31  1  0.105601  0.274788  0.922319  1
  O  O32  1  0.974416  0.450571  0.387229  1
  O  O33  1  0.637069  0.490355  0.751000  1
