# generated using pymatgen
data_Tb9Th(In2Pt)4
_symmetry_space_group_name_H-M   'P 1'
_cell_length_a   3.68110300
_cell_length_b   8.08669511
_cell_length_c   18.33309200
_cell_angle_alpha   90.23168638
_cell_angle_beta   90.00000000
_cell_angle_gamma   90.00000000
_symmetry_Int_Tables_number   1
_chemical_formula_structural   Tb9Th(In2Pt)4
_chemical_formula_sum   'Tb9 Th1 In8 Pt4'
_cell_volume   545.73424437
_cell_formula_units_Z   1
loop_
 _symmetry_equiv_pos_site_id
 _symmetry_equiv_pos_as_xyz
  1  'x, y, z'
loop_
 _atom_site_type_symbol
 _atom_site_label
 _atom_site_symmetry_multiplicity
 _atom_site_fract_x
 _atom_site_fract_y
 _atom_site_fract_z
 _atom_site_occupancy
  Tb  Tb0  1  0.000000  0.499370  0.500052  1
  Tb  Tb1  1  0.000000  0.000088  0.998005  1
  Tb  Tb2  1  0.000000  0.257155  0.720221  1
  Tb  Tb3  1  0.000000  0.756589  0.779603  1
  Tb  Tb4  1  0.000000  0.241984  0.220632  1
  Tb  Tb5  1  0.000000  0.618096  0.082793  1
  Tb  Tb6  1  0.000000  0.382648  0.914441  1
  Tb  Tb7  1  0.000000  0.882094  0.586202  1
  Tb  Tb8  1  0.000000  0.117633  0.417496  1
  Th  Th9  1  0.000000  0.741275  0.279656  1
  In  In10  1  0.500000  0.708120  0.932271  1
  In  In11  1  0.500000  0.292237  0.066687  1
  In  In12  1  0.500000  0.792556  0.437209  1
  In  In13  1  0.500000  0.208141  0.567721  1
  In  In14  1  0.500000  0.573618  0.648826  1
  In  In15  1  0.500000  0.418072  0.352386  1
  In  In16  1  0.500000  0.933594  0.144607  1
  In  In17  1  0.500000  0.074233  0.850510  1
  Pt  Pt18  1  0.500000  0.528467  0.196260  1
  Pt  Pt19  1  0.500000  0.475479  0.803561  1
  Pt  Pt20  1  0.500000  0.975432  0.696736  1
  Pt  Pt21  1  0.500000  0.023121  0.304125  1
