# generated using pymatgen
data_Tm7Th(Sc3Sn4)4
_symmetry_space_group_name_H-M   'P 1'
_cell_length_a   7.66230204
_cell_length_b   7.91718197
_cell_length_c   14.78547700
_cell_angle_alpha   89.99425391
_cell_angle_beta   90.10156108
_cell_angle_gamma   89.95999748
_symmetry_Int_Tables_number   1
_chemical_formula_structural   Tm7Th(Sc3Sn4)4
_chemical_formula_sum   'Tm7 Th1 Sc12 Sn16'
_cell_volume   896.94217197
_cell_formula_units_Z   1
loop_
 _symmetry_equiv_pos_site_id
 _symmetry_equiv_pos_as_xyz
  1  'x, y, z'
loop_
 _atom_site_type_symbol
 _atom_site_label
 _atom_site_symmetry_multiplicity
 _atom_site_fract_x
 _atom_site_fract_y
 _atom_site_fract_z
 _atom_site_occupancy
  Tm  Tm0  1  0.991418  0.178288  0.093592  1
  Tm  Tm1  1  0.008484  0.822286  0.908362  1
  Tm  Tm2  1  0.510171  0.678091  0.905874  1
  Tm  Tm3  1  0.009564  0.822332  0.593076  1
  Tm  Tm4  1  0.490628  0.321909  0.093737  1
  Tm  Tm5  1  0.990160  0.178061  0.405078  1
  Tm  Tm6  1  0.491576  0.322726  0.405835  1
  Th  Th7  1  0.507196  0.676203  0.592937  1
  Sc  Sc8  1  0.169729  0.494642  0.750536  1
  Sc  Sc9  1  0.831337  0.504093  0.249730  1
  Sc  Sc10  1  0.330788  0.995691  0.249445  1
  Sc  Sc11  1  0.669308  0.003797  0.750339  1
  Sc  Sc12  1  0.341083  0.159872  0.627219  1
  Sc  Sc13  1  0.659660  0.840228  0.372489  1
  Sc  Sc14  1  0.159481  0.660649  0.372158  1
  Sc  Sc15  1  0.658933  0.839264  0.127149  1
  Sc  Sc16  1  0.840717  0.339140  0.627678  1
  Sc  Sc17  1  0.341334  0.160816  0.873576  1
  Sc  Sc18  1  0.841636  0.339695  0.873210  1
  Sc  Sc19  1  0.158910  0.660303  0.127438  1
  Sn  Sn20  1  0.032006  0.122887  0.750294  1
  Sn  Sn21  1  0.967915  0.877585  0.249496  1
  Sn  Sn22  1  0.467745  0.622946  0.249666  1
  Sn  Sn23  1  0.532797  0.374693  0.750352  1
  Sn  Sn24  1  0.307787  0.850480  0.753139  1
  Sn  Sn25  1  0.687716  0.152972  0.249696  1
  Sn  Sn26  1  0.188186  0.347221  0.249828  1
  Sn  Sn27  1  0.815741  0.652872  0.751546  1
  Sn  Sn28  1  0.179760  0.453585  0.541345  1
  Sn  Sn29  1  0.817219  0.541649  0.456240  1
  Sn  Sn30  1  0.312826  0.959719  0.456854  1
  Sn  Sn31  1  0.814169  0.542196  0.042394  1
  Sn  Sn32  1  0.687249  0.044983  0.541888  1
  Sn  Sn33  1  0.186944  0.458169  0.957769  1
  Sn  Sn34  1  0.685574  0.042864  0.957644  1
  Sn  Sn35  1  0.314251  0.957098  0.042387  1
