# generated using pymatgen
data_LaYFe2(WO6)2
_symmetry_space_group_name_H-M   'P 1'
_cell_length_a   5.35737397
_cell_length_b   7.53583684
_cell_length_c   11.12361500
_cell_angle_alpha   90.00000000
_cell_angle_beta   90.00000000
_cell_angle_gamma   90.09890950
_symmetry_Int_Tables_number   1
_chemical_formula_structural   LaYFe2(WO6)2
_chemical_formula_sum   'La2 Y2 Fe4 W4 O24'
_cell_volume   449.08520985
_cell_formula_units_Z   2
loop_
 _symmetry_equiv_pos_site_id
 _symmetry_equiv_pos_as_xyz
  1  'x, y, z'
loop_
 _atom_site_type_symbol
 _atom_site_label
 _atom_site_symmetry_multiplicity
 _atom_site_fract_x
 _atom_site_fract_y
 _atom_site_fract_z
 _atom_site_occupancy
  La  La0  1  0.540054  0.251516  0.042286  1
  La  La1  1  0.040053  0.751516  0.457715  1
  Y  Y2  1  0.949650  0.251246  0.546304  1
  Y  Y3  1  0.449649  0.751246  0.953696  1
  Fe  Fe4  1  0.041862  0.993818  0.138574  1
  Fe  Fe5  1  0.541862  0.493818  0.361426  1
  Fe  Fe6  1  0.454625  0.999314  0.641047  1
  Fe  Fe7  1  0.954626  0.499314  0.858953  1
  W  W8  1  0.049586  0.509880  0.140970  1
  W  W9  1  0.549586  0.009879  0.359029  1
  W  W10  1  0.447799  0.502781  0.644146  1
  W  W11  1  0.947800  0.002780  0.855854  1
  O  O12  1  0.762155  0.955848  0.017967  1
  O  O13  1  0.767262  0.550689  0.027370  1
  O  O14  1  0.175296  0.749787  0.119017  1
  O  O15  1  0.955258  0.261094  0.138707  1
  O  O16  1  0.363909  0.443806  0.211484  1
  O  O17  1  0.376849  0.063252  0.217895  1
  O  O18  1  0.876850  0.563252  0.282105  1
  O  O19  1  0.863910  0.943806  0.288516  1
  O  O20  1  0.455258  0.761095  0.361293  1
  O  O21  1  0.675297  0.249787  0.380984  1
  O  O22  1  0.267261  0.050689  0.472630  1
  O  O23  1  0.262156  0.455848  0.482033  1
  O  O24  1  0.736133  0.972221  0.522079  1
  O  O25  1  0.730447  0.534294  0.530269  1
  O  O26  1  0.346171  0.745869  0.621533  1
  O  O27  1  0.564816  0.257678  0.648062  1
  O  O28  1  0.127817  0.435119  0.706603  1
  O  O29  1  0.110308  0.061988  0.710519  1
  O  O30  1  0.610309  0.561988  0.789481  1
  O  O31  1  0.627818  0.935119  0.793397  1
  O  O32  1  0.064815  0.757679  0.851938  1
  O  O33  1  0.846170  0.245869  0.878468  1
  O  O34  1  0.230448  0.034294  0.969731  1
  O  O35  1  0.236133  0.472221  0.977921  1
