# generated using pymatgen
data_Ca2YbSnHg2Pd3
_symmetry_space_group_name_H-M   'P 1'
_cell_length_a   7.67791800
_cell_length_b   7.71708500
_cell_length_c   3.98269000
_cell_angle_alpha   90.00000000
_cell_angle_beta   90.00000000
_cell_angle_gamma   119.83224992
_symmetry_Int_Tables_number   1
_chemical_formula_structural   Ca2YbSnHg2Pd3
_chemical_formula_sum   'Ca2 Yb1 Sn1 Hg2 Pd3'
_cell_volume   204.70833413
_cell_formula_units_Z   1
loop_
 _symmetry_equiv_pos_site_id
 _symmetry_equiv_pos_as_xyz
  1  'x, y, z'
loop_
 _atom_site_type_symbol
 _atom_site_label
 _atom_site_symmetry_multiplicity
 _atom_site_fract_x
 _atom_site_fract_y
 _atom_site_fract_z
 _atom_site_occupancy
  Ca  Ca0  1  0.993695  0.594285  0.000000  1
  Ca  Ca1  1  0.399409  0.405715  0.000000  1
  Yb  Yb2  1  0.611414  0.000000  0.000000  1
  Sn  Sn3  1  0.261347  0.000000  0.500000  1
  Hg  Hg4  1  0.732249  0.733240  0.500000  1
  Hg  Hg5  1  0.999009  0.266760  0.500000  1
  Pd  Pd6  1  0.336190  0.688519  0.500000  1
  Pd  Pd7  1  0.019017  0.000000  0.000000  1
  Pd  Pd8  1  0.647672  0.311481  0.500000  1
