# generated using pymatgen
data_Sc2SnB2Ir4Ru
_symmetry_space_group_name_H-M   'P 1'
_cell_length_a   9.56382352
_cell_length_b   9.53793254
_cell_length_c   3.13122100
_cell_angle_alpha   90.00000000
_cell_angle_beta   90.00000000
_cell_angle_gamma   89.90148409
_symmetry_Int_Tables_number   1
_chemical_formula_structural   Sc2SnB2Ir4Ru
_chemical_formula_sum   'Sc4 Sn2 B4 Ir8 Ru2'
_cell_volume   285.62675042
_cell_formula_units_Z   2
loop_
 _symmetry_equiv_pos_site_id
 _symmetry_equiv_pos_as_xyz
  1  'x, y, z'
loop_
 _atom_site_type_symbol
 _atom_site_label
 _atom_site_symmetry_multiplicity
 _atom_site_fract_x
 _atom_site_fract_y
 _atom_site_fract_z
 _atom_site_occupancy
  Sc  Sc0  1  0.676273  0.171258  0.000000  1
  Sc  Sc1  1  0.323727  0.828742  0.000000  1
  Sc  Sc2  1  0.176262  0.320115  0.000000  1
  Sc  Sc3  1  0.823738  0.679885  0.000000  1
  Sn  Sn4  1  0.000000  0.000000  0.000000  1
  Sn  Sn5  1  0.500000  0.500000  0.000000  1
  B  B6  1  0.121155  0.622383  0.000000  1
  B  B7  1  0.878845  0.377617  0.000000  1
  B  B8  1  0.625071  0.880789  0.000000  1
  B  B9  1  0.374929  0.119211  0.000000  1
  Ir  Ir10  1  0.072838  0.776034  0.500000  1
  Ir  Ir11  1  0.723027  0.429762  0.500000  1
  Ir  Ir12  1  0.927162  0.223966  0.500000  1
  Ir  Ir13  1  0.276973  0.570238  0.500000  1
  Ir  Ir14  1  0.570410  0.723518  0.500000  1
  Ir  Ir15  1  0.429590  0.276482  0.500000  1
  Ir  Ir16  1  0.500000  0.000000  0.500000  1
  Ir  Ir17  1  0.000000  0.500000  0.500000  1
  Ru  Ru18  1  0.221401  0.071131  0.500000  1
  Ru  Ru19  1  0.778599  0.928869  0.500000  1
