# generated using pymatgen
data_Y6Tm9Th(CdPt)4
_symmetry_space_group_name_H-M   'P 1'
_cell_length_a   9.63979469
_cell_length_b   9.63979568
_cell_length_c   9.63979552
_cell_angle_alpha   60.14022078
_cell_angle_beta   60.14021441
_cell_angle_gamma   60.14021111
_symmetry_Int_Tables_number   1
_chemical_formula_structural   Y6Tm9Th(CdPt)4
_chemical_formula_sum   'Y6 Tm9 Th1 Cd4 Pt4'
_cell_volume   635.42699774
_cell_formula_units_Z   1
loop_
 _symmetry_equiv_pos_site_id
 _symmetry_equiv_pos_as_xyz
  1  'x, y, z'
loop_
 _atom_site_type_symbol
 _atom_site_label
 _atom_site_symmetry_multiplicity
 _atom_site_fract_x
 _atom_site_fract_y
 _atom_site_fract_z
 _atom_site_occupancy
  Y  Y0  1  0.936575  0.565089  0.565089  1
  Y  Y1  1  0.562122  0.938247  0.938247  1
  Y  Y2  1  0.565089  0.936575  0.565089  1
  Y  Y3  1  0.938247  0.562122  0.938247  1
  Y  Y4  1  0.565089  0.565089  0.936575  1
  Y  Y5  1  0.938247  0.938247  0.562122  1
  Tm  Tm6  1  0.353843  0.353843  0.939116  1
  Tm  Tm7  1  0.353843  0.939116  0.353843  1
  Tm  Tm8  1  0.939116  0.353843  0.353843  1
  Tm  Tm9  1  0.814487  0.187390  0.187390  1
  Tm  Tm10  1  0.189223  0.811885  0.811885  1
  Tm  Tm11  1  0.187390  0.814487  0.187390  1
  Tm  Tm12  1  0.811885  0.189223  0.811885  1
  Tm  Tm13  1  0.187390  0.187390  0.814487  1
  Tm  Tm14  1  0.811885  0.811885  0.189223  1
  Th  Th15  1  0.349956  0.349956  0.349956  1
  Cd  Cd16  1  0.581395  0.581395  0.581395  1
  Cd  Cd17  1  0.582888  0.582888  0.253430  1
  Cd  Cd18  1  0.582888  0.253430  0.582888  1
  Cd  Cd19  1  0.253430  0.582888  0.582888  1
  Pt  Pt20  1  0.144256  0.144256  0.144256  1
  Pt  Pt21  1  0.139811  0.139811  0.571133  1
  Pt  Pt22  1  0.139811  0.571133  0.139811  1
  Pt  Pt23  1  0.571133  0.139811  0.139811  1
