# generated using pymatgen
data_Tb12InFe4Cu
_symmetry_space_group_name_H-M   'P 1'
_cell_length_a   8.35555795
_cell_length_b   8.35555876
_cell_length_c   8.35555881
_cell_angle_alpha   110.94896136
_cell_angle_beta   110.80693343
_cell_angle_gamma   106.69301689
_symmetry_Int_Tables_number   1
_chemical_formula_structural   Tb12InFe4Cu
_chemical_formula_sum   'Tb12 In1 Fe4 Cu1'
_cell_volume   448.27244888
_cell_formula_units_Z   1
loop_
 _symmetry_equiv_pos_site_id
 _symmetry_equiv_pos_as_xyz
  1  'x, y, z'
loop_
 _atom_site_type_symbol
 _atom_site_label
 _atom_site_symmetry_multiplicity
 _atom_site_fract_x
 _atom_site_fract_y
 _atom_site_fract_z
 _atom_site_occupancy
  Tb  Tb0  1  0.417968  0.216875  0.201093  1
  Tb  Tb1  1  0.582032  0.783125  0.798907  1
  Tb  Tb2  1  0.015781  0.216875  0.798907  1
  Tb  Tb3  1  0.984219  0.783125  0.201093  1
  Tb  Tb4  1  0.187071  0.289299  0.476370  1
  Tb  Tb5  1  0.812929  0.710701  0.523630  1
  Tb  Tb6  1  0.187071  0.710701  0.897772  1
  Tb  Tb7  1  0.812929  0.289299  0.102228  1
  Tb  Tb8  1  0.312907  0.612475  0.299569  1
  Tb  Tb9  1  0.687093  0.387525  0.700431  1
  Tb  Tb10  1  0.312907  0.013339  0.700431  1
  Tb  Tb11  1  0.687093  0.986661  0.299569  1
  In  In12  1  0.500000  0.500000  0.000000  1
  Fe  Fe13  1  0.384521  0.000000  0.384521  1
  Fe  Fe14  1  0.615479  0.000000  0.615479  1
  Fe  Fe15  1  0.107952  0.607952  0.500000  1
  Fe  Fe16  1  0.892048  0.392048  0.500000  1
  Cu  Cu17  1  0.000000  0.000000  0.000000  1
