# generated using pymatgen
data_Rb4LaPaO6
_symmetry_space_group_name_H-M   'P 1'
_cell_length_a   6.52042813
_cell_length_b   6.52042746
_cell_length_c   6.98651309
_cell_angle_alpha   99.12880855
_cell_angle_beta   99.12881006
_cell_angle_gamma   119.78078104
_symmetry_Int_Tables_number   1
_chemical_formula_structural   Rb4LaPaO6
_chemical_formula_sum   'Rb4 La1 Pa1 O6'
_cell_volume   244.57636408
_cell_formula_units_Z   1
loop_
 _symmetry_equiv_pos_site_id
 _symmetry_equiv_pos_as_xyz
  1  'x, y, z'
loop_
 _atom_site_type_symbol
 _atom_site_label
 _atom_site_symmetry_multiplicity
 _atom_site_fract_x
 _atom_site_fract_y
 _atom_site_fract_z
 _atom_site_occupancy
  Rb  Rb0  1  0.500400  0.499599  0.000000  1
  Rb  Rb1  1  0.000365  0.999635  0.499998  1
  Rb  Rb2  1  0.656425  0.343573  0.500000  1
  Rb  Rb3  1  0.341005  0.658993  0.500000  1
  La  La4  1  0.832959  0.167040  0.000000  1
  Pa  Pa5  1  0.167288  0.832712  0.000000  1
  O  O6  1  0.973262  0.590487  0.185850  1
  O  O7  1  0.536051  0.944757  0.186414  1
  O  O8  1  0.182191  0.154706  0.183462  1
  O  O9  1  0.845296  0.817812  0.816540  1
  O  O10  1  0.055246  0.463952  0.813588  1
  O  O11  1  0.409516  0.026741  0.814152  1
