# generated using pymatgen
data_Ce11Er5(CdTc)4
_symmetry_space_group_name_H-M   'P 1'
_cell_length_a   9.69103705
_cell_length_b   9.68162895
_cell_length_c   9.68163007
_cell_angle_alpha   60.01470251
_cell_angle_beta   59.96784617
_cell_angle_gamma   59.96785087
_symmetry_Int_Tables_number   1
_chemical_formula_structural   Ce11Er5(CdTc)4
_chemical_formula_sum   'Ce11 Er5 Cd4 Tc4'
_cell_volume   642.07999025
_cell_formula_units_Z   1
loop_
 _symmetry_equiv_pos_site_id
 _symmetry_equiv_pos_as_xyz
  1  'x, y, z'
loop_
 _atom_site_type_symbol
 _atom_site_label
 _atom_site_symmetry_multiplicity
 _atom_site_fract_x
 _atom_site_fract_y
 _atom_site_fract_z
 _atom_site_occupancy
  Ce  Ce0  1  0.344076  0.348995  0.348995  1
  Ce  Ce1  1  0.347733  0.346605  0.957929  1
  Ce  Ce2  1  0.347733  0.957929  0.346605  1
  Ce  Ce3  1  0.957935  0.348995  0.348995  1
  Ce  Ce4  1  0.810524  0.189476  0.189476  1
  Ce  Ce5  1  0.189171  0.810829  0.810829  1
  Ce  Ce6  1  0.189148  0.811643  0.188855  1
  Ce  Ce7  1  0.810353  0.188855  0.811643  1
  Ce  Ce8  1  0.189148  0.188855  0.811643  1
  Ce  Ce9  1  0.810353  0.811643  0.188855  1
  Ce  Ce10  1  0.941498  0.558502  0.558502  1
  Er  Er11  1  0.563535  0.936465  0.936465  1
  Er  Er12  1  0.561280  0.938453  0.564474  1
  Er  Er13  1  0.935793  0.564474  0.938453  1
  Er  Er14  1  0.561280  0.564474  0.938453  1
  Er  Er15  1  0.935793  0.938453  0.564474  1
  Cd  Cd16  1  0.578836  0.581689  0.581689  1
  Cd  Cd17  1  0.582026  0.581540  0.254406  1
  Cd  Cd18  1  0.582026  0.254406  0.581540  1
  Cd  Cd19  1  0.257785  0.581689  0.581689  1
  Tc  Tc20  1  0.133683  0.134853  0.134853  1
  Tc  Tc21  1  0.136838  0.129457  0.596867  1
  Tc  Tc22  1  0.136838  0.596867  0.129457  1
  Tc  Tc23  1  0.596612  0.134853  0.134853  1
