# generated using pymatgen
data_Zr7Nb3Sn6C
_symmetry_space_group_name_H-M   'P 1'
_cell_length_a   8.42530200
_cell_length_b   8.42530101
_cell_length_c   5.68037700
_cell_angle_alpha   90.00000000
_cell_angle_beta   90.00000000
_cell_angle_gamma   119.99999604
_symmetry_Int_Tables_number   1
_chemical_formula_structural   Zr7Nb3Sn6C
_chemical_formula_sum   'Zr7 Nb3 Sn6 C1'
_cell_volume   349.20359975
_cell_formula_units_Z   1
loop_
 _symmetry_equiv_pos_site_id
 _symmetry_equiv_pos_as_xyz
  1  'x, y, z'
loop_
 _atom_site_type_symbol
 _atom_site_label
 _atom_site_symmetry_multiplicity
 _atom_site_fract_x
 _atom_site_fract_y
 _atom_site_fract_z
 _atom_site_occupancy
  Zr  Zr0  1  0.999947  0.767583  0.259938  1
  Zr  Zr1  1  0.232417  0.232365  0.259938  1
  Zr  Zr2  1  0.767635  0.000053  0.259938  1
  Zr  Zr3  1  0.999947  0.232365  0.740062  1
  Zr  Zr4  1  0.767635  0.767583  0.740062  1
  Zr  Zr5  1  0.232417  0.000053  0.740062  1
  Zr  Zr6  1  0.333333  0.666667  0.000000  1
  Nb  Nb7  1  0.666667  0.333333  0.000000  1
  Nb  Nb8  1  0.666667  0.333333  0.500000  1
  Nb  Nb9  1  0.333333  0.666667  0.500000  1
  Sn  Sn10  1  0.996981  0.400156  0.249237  1
  Sn  Sn11  1  0.599844  0.596824  0.249237  1
  Sn  Sn12  1  0.403176  0.003019  0.249237  1
  Sn  Sn13  1  0.996981  0.596824  0.750763  1
  Sn  Sn14  1  0.403176  0.400156  0.750763  1
  Sn  Sn15  1  0.599844  0.003019  0.750763  1
  C  C16  1  0.000000  0.000000  0.500000  1
