# generated using pymatgen
data_BaHo3(ZnSn)4
_symmetry_space_group_name_H-M   'P 1'
_cell_length_a   4.55340300
_cell_length_b   4.55340303
_cell_length_c   16.83590900
_cell_angle_alpha   90.00000000
_cell_angle_beta   90.00000000
_cell_angle_gamma   119.99999249
_symmetry_Int_Tables_number   1
_chemical_formula_structural   BaHo3(ZnSn)4
_chemical_formula_sum   'Ba1 Ho3 Zn4 Sn4'
_cell_volume   302.30088334
_cell_formula_units_Z   1
loop_
 _symmetry_equiv_pos_site_id
 _symmetry_equiv_pos_as_xyz
  1  'x, y, z'
loop_
 _atom_site_type_symbol
 _atom_site_label
 _atom_site_symmetry_multiplicity
 _atom_site_fract_x
 _atom_site_fract_y
 _atom_site_fract_z
 _atom_site_occupancy
  Ba  Ba0  1  0.000000  0.000000  0.000000  1
  Ho  Ho1  1  0.000000  0.000000  0.265443  1
  Ho  Ho2  1  0.000000  0.000000  0.734557  1
  Ho  Ho3  1  0.000000  0.000000  0.500000  1
  Zn  Zn4  1  0.333333  0.666667  0.182696  1
  Zn  Zn5  1  0.666667  0.333333  0.817304  1
  Zn  Zn6  1  0.666667  0.333333  0.652316  1
  Zn  Zn7  1  0.333333  0.666667  0.347684  1
  Sn  Sn8  1  0.333333  0.666667  0.604506  1
  Sn  Sn9  1  0.666667  0.333333  0.395494  1
  Sn  Sn10  1  0.666667  0.333333  0.140711  1
  Sn  Sn11  1  0.333333  0.666667  0.859289  1
