# generated using pymatgen
data_Zr6Ta2Al15Rh7
_symmetry_space_group_name_H-M   'P 1'
_cell_length_a   8.85126478
_cell_length_b   8.85126419
_cell_length_c   8.85126407
_cell_angle_alpha   119.91707867
_cell_angle_beta   119.80209822
_cell_angle_gamma   90.24340097
_symmetry_Int_Tables_number   1
_chemical_formula_structural   Zr6Ta2Al15Rh7
_chemical_formula_sum   'Zr6 Ta2 Al15 Rh7'
_cell_volume   491.37933019
_cell_formula_units_Z   1
loop_
 _symmetry_equiv_pos_site_id
 _symmetry_equiv_pos_as_xyz
  1  'x, y, z'
loop_
 _atom_site_type_symbol
 _atom_site_label
 _atom_site_symmetry_multiplicity
 _atom_site_fract_x
 _atom_site_fract_y
 _atom_site_fract_z
 _atom_site_occupancy
  Zr  Zr0  1  0.794826  0.291586  0.077558  1
  Zr  Zr1  1  0.214028  0.291586  0.496760  1
  Zr  Zr2  1  0.206398  0.706398  0.500000  1
  Zr  Zr3  1  0.214028  0.717267  0.922442  1
  Zr  Zr4  1  0.794826  0.717267  0.503240  1
  Zr  Zr5  1  0.783328  0.283328  0.500000  1
  Ta  Ta6  1  0.379403  0.123516  0.744113  1
  Ta  Ta7  1  0.379403  0.635290  0.255887  1
  Al  Al8  1  0.994383  0.494383  0.500000  1
  Al  Al9  1  0.160251  0.336407  0.176154  1
  Al  Al10  1  0.160251  0.984098  0.823846  1
  Al  Al11  1  0.153642  0.340465  0.813176  1
  Al  Al12  1  0.527287  0.340465  0.186824  1
  Al  Al13  1  0.839273  0.658429  0.819157  1
  Al  Al14  1  0.839273  0.020115  0.180843  1
  Al  Al15  1  0.838080  0.660784  0.177297  1
  Al  Al16  1  0.483487  0.660784  0.822703  1
  Al  Al17  1  0.378619  0.121760  0.256859  1
  Al  Al18  1  0.864902  0.121760  0.743141  1
  Al  Al19  1  0.621569  0.877049  0.255479  1
  Al  Al20  1  0.621569  0.366090  0.744521  1
  Al  Al21  1  0.621874  0.878022  0.743853  1
  Al  Al22  1  0.134168  0.878022  0.256147  1
  Rh  Rh23  1  0.002842  0.999334  0.501607  1
  Rh  Rh24  1  0.497727  0.999334  0.996492  1
  Rh  Rh25  1  0.496654  0.496654  0.000000  1
  Rh  Rh26  1  0.497727  0.501235  0.498393  1
  Rh  Rh27  1  0.002842  0.501235  0.003508  1
  Rh  Rh28  1  0.999911  0.999911  0.000000  1
  Rh  Rh29  1  0.497423  0.997423  0.500000  1
