# generated using pymatgen
data_AsPtO5
_symmetry_space_group_name_H-M   'P 1'
_cell_length_a   4.95234300
_cell_length_b   8.73776500
_cell_length_c   9.13902000
_cell_angle_alpha   90.00000000
_cell_angle_beta   90.00000000
_cell_angle_gamma   90.00000000
_symmetry_Int_Tables_number   1
_chemical_formula_structural   AsPtO5
_chemical_formula_sum   'As4 Pt4 O20'
_cell_volume   395.46741435
_cell_formula_units_Z   4
loop_
 _symmetry_equiv_pos_site_id
 _symmetry_equiv_pos_as_xyz
  1  'x, y, z'
loop_
 _atom_site_type_symbol
 _atom_site_label
 _atom_site_symmetry_multiplicity
 _atom_site_fract_x
 _atom_site_fract_y
 _atom_site_fract_z
 _atom_site_occupancy
  As  As0  1  0.895802  0.028109  0.716207  1
  As  As1  1  0.395802  0.471891  0.283793  1
  As  As2  1  0.104198  0.528109  0.783793  1
  As  As3  1  0.604198  0.971891  0.216207  1
  Pt  Pt4  1  0.886603  0.653962  0.102312  1
  Pt  Pt5  1  0.386603  0.846038  0.897688  1
  Pt  Pt6  1  0.113397  0.153962  0.397688  1
  Pt  Pt7  1  0.613397  0.346038  0.602312  1
  O  O8  1  0.063784  0.498731  0.971493  1
  O  O9  1  0.563784  0.001269  0.028507  1
  O  O10  1  0.936216  0.998731  0.528507  1
  O  O11  1  0.436216  0.501269  0.471493  1
  O  O12  1  0.227986  0.709250  0.740581  1
  O  O13  1  0.727986  0.790750  0.259419  1
  O  O14  1  0.772014  0.209250  0.759419  1
  O  O15  1  0.272014  0.290750  0.240581  1
  O  O16  1  0.933722  0.333361  0.479747  1
  O  O17  1  0.433722  0.166639  0.520253  1
  O  O18  1  0.066278  0.833361  0.020253  1
  O  O19  1  0.566278  0.666639  0.979747  1
  O  O20  1  0.201320  0.630542  0.240991  1
  O  O21  1  0.701320  0.869458  0.759009  1
  O  O22  1  0.798680  0.130542  0.259009  1
  O  O23  1  0.298680  0.369458  0.740991  1
  O  O24  1  0.705460  0.470239  0.193960  1
  O  O25  1  0.205460  0.029761  0.806040  1
  O  O26  1  0.294540  0.970239  0.306040  1
  O  O27  1  0.794540  0.529761  0.693960  1
