# generated using pymatgen
data_Zr6Si2Ni20P11
_symmetry_space_group_name_H-M   'P 1'
_cell_length_a   12.45259782
_cell_length_b   12.51586597
_cell_length_c   3.64345400
_cell_angle_alpha   90.00000000
_cell_angle_beta   90.00000000
_cell_angle_gamma   119.78518171
_symmetry_Int_Tables_number   1
_chemical_formula_structural   Zr6Si2Ni20P11
_chemical_formula_sum   'Zr6 Si2 Ni20 P11'
_cell_volume   492.83418026
_cell_formula_units_Z   1
loop_
 _symmetry_equiv_pos_site_id
 _symmetry_equiv_pos_as_xyz
  1  'x, y, z'
loop_
 _atom_site_type_symbol
 _atom_site_label
 _atom_site_symmetry_multiplicity
 _atom_site_fract_x
 _atom_site_fract_y
 _atom_site_fract_z
 _atom_site_occupancy
  Zr  Zr0  1  0.282486  0.476076  0.000000  1
  Zr  Zr1  1  0.191415  0.715650  0.000000  1
  Zr  Zr2  1  0.525525  0.808806  0.000000  1
  Zr  Zr3  1  0.475183  0.193440  0.500000  1
  Zr  Zr4  1  0.807487  0.281650  0.500000  1
  Zr  Zr5  1  0.716566  0.525153  0.500000  1
  Si  Si6  1  0.003209  0.000330  0.000000  1
  Si  Si7  1  0.281476  0.054247  0.000000  1
  Ni  Ni8  1  0.756208  0.079349  0.000000  1
  Ni  Ni9  1  0.107181  0.203669  0.000000  1
  Ni  Ni10  1  0.325780  0.251633  0.000000  1
  Ni  Ni11  1  0.666521  0.332965  0.000000  1
  Ni  Ni12  1  0.020636  0.437628  0.000000  1
  Ni  Ni13  1  0.561716  0.582759  0.000000  1
  Ni  Ni14  1  0.917659  0.672282  0.000000  1
  Ni  Ni15  1  0.091847  0.886061  0.000000  1
  Ni  Ni16  1  0.798126  0.903753  0.000000  1
  Ni  Ni17  1  0.416666  0.979326  0.000000  1
  Ni  Ni18  1  0.586388  0.021410  0.500000  1
  Ni  Ni19  1  0.161748  0.080145  0.500000  1
  Ni  Ni20  1  0.925886  0.076898  0.500000  1
  Ni  Ni21  1  0.070493  0.322400  0.500000  1
  Ni  Ni22  1  0.437028  0.417813  0.500000  1
  Ni  Ni23  1  0.977508  0.562485  0.500000  1
  Ni  Ni24  1  0.333329  0.668030  0.500000  1
  Ni  Ni25  1  0.677693  0.749122  0.500000  1
  Ni  Ni26  1  0.921178  0.843448  0.500000  1
  Ni  Ni27  1  0.249323  0.925433  0.500000  1
  P  P28  1  0.612152  0.139268  0.000000  1
  P  P29  1  0.946931  0.233379  0.000000  1
  P  P30  1  0.526609  0.387437  0.000000  1
  P  P31  1  0.859482  0.472091  0.000000  1
  P  P32  1  0.766297  0.713454  0.000000  1
  P  P33  1  0.233606  0.287097  0.500000  1
  P  P34  1  0.140130  0.526852  0.500000  1
  P  P35  1  0.473469  0.614677  0.500000  1
  P  P36  1  0.051164  0.764482  0.500000  1
  P  P37  1  0.387391  0.861193  0.500000  1
  P  P38  1  0.716514  0.948121  0.500000  1
