# generated using pymatgen
data_Nd3Sc5Pt4
_symmetry_space_group_name_H-M   'P 1'
_cell_length_a   4.65190000
_cell_length_b   7.01584175
_cell_length_c   8.48442591
_cell_angle_alpha   90.74299605
_cell_angle_beta   90.00000000
_cell_angle_gamma   90.00000000
_symmetry_Int_Tables_number   1
_chemical_formula_structural   Nd3Sc5Pt4
_chemical_formula_sum   'Nd3 Sc5 Pt4'
_cell_volume   276.88287717
_cell_formula_units_Z   1
loop_
 _symmetry_equiv_pos_site_id
 _symmetry_equiv_pos_as_xyz
  1  'x, y, z'
loop_
 _atom_site_type_symbol
 _atom_site_label
 _atom_site_symmetry_multiplicity
 _atom_site_fract_x
 _atom_site_fract_y
 _atom_site_fract_z
 _atom_site_occupancy
  Nd  Nd0  1  0.250000  0.985108  0.319602  1
  Nd  Nd1  1  0.750000  0.017508  0.682276  1
  Nd  Nd2  1  0.250000  0.486179  0.175968  1
  Sc  Sc3  1  0.750000  0.516197  0.827647  1
  Sc  Sc4  1  0.750000  0.637232  0.436956  1
  Sc  Sc5  1  0.250000  0.365425  0.585990  1
  Sc  Sc6  1  0.750000  0.141742  0.066601  1
  Sc  Sc7  1  0.250000  0.849209  0.921732  1
  Pt  Pt8  1  0.250000  0.244696  0.898772  1
  Pt  Pt9  1  0.750000  0.756432  0.083640  1
  Pt  Pt10  1  0.250000  0.739157  0.596301  1
  Pt  Pt11  1  0.750000  0.261114  0.404514  1
