# generated using pymatgen
data_Rb2U3Cl7O5
_symmetry_space_group_name_H-M   'P 1'
_cell_length_a   9.43337000
_cell_length_b   10.01538770
_cell_length_c   11.74885200
_cell_angle_alpha   108.91833773
_cell_angle_beta   90.00000000
_cell_angle_gamma   118.09557978
_symmetry_Int_Tables_number   1
_chemical_formula_structural   Rb2U3Cl7O5
_chemical_formula_sum   'Rb4 U6 Cl14 O10'
_cell_volume   910.68390439
_cell_formula_units_Z   2
loop_
 _symmetry_equiv_pos_site_id
 _symmetry_equiv_pos_as_xyz
  1  'x, y, z'
loop_
 _atom_site_type_symbol
 _atom_site_label
 _atom_site_symmetry_multiplicity
 _atom_site_fract_x
 _atom_site_fract_y
 _atom_site_fract_z
 _atom_site_occupancy
  Rb  Rb0  1  0.820099  0.567585  0.138833  1
  Rb  Rb1  1  0.252514  0.432414  0.361167  1
  Rb  Rb2  1  0.747485  0.567585  0.638834  1
  Rb  Rb3  1  0.179900  0.432415  0.861166  1
  U  U4  1  0.785032  0.993545  0.042415  1
  U  U5  1  0.436439  0.000000  0.250000  1
  U  U6  1  0.791487  0.006455  0.457585  1
  U  U7  1  0.208513  0.993545  0.542414  1
  U  U8  1  0.563561  0.000000  0.750000  1
  U  U9  1  0.214968  0.006455  0.957586  1
  Cl  Cl10  1  0.365523  0.323944  0.046587  1
  Cl  Cl11  1  0.948469  0.311323  0.133909  1
  Cl  Cl12  1  0.273085  0.681809  0.160703  1
  Cl  Cl13  1  0.927568  0.000000  0.250000  1
  Cl  Cl14  1  0.591276  0.318192  0.339297  1
  Cl  Cl15  1  0.637147  0.688677  0.366091  1
  Cl  Cl16  1  0.041580  0.676057  0.453413  1
  Cl  Cl17  1  0.958422  0.323944  0.546586  1
  Cl  Cl18  1  0.362852  0.311323  0.633909  1
  Cl  Cl19  1  0.408723  0.681808  0.660703  1
  Cl  Cl20  1  0.072433  0.000000  0.750000  1
  Cl  Cl21  1  0.726915  0.318192  0.839297  1
  Cl  Cl22  1  0.051531  0.688677  0.866091  1
  Cl  Cl23  1  0.634477  0.676056  0.953414  1
  O  O24  1  0.000000  0.000000  0.000000  1
  O  O25  1  0.284776  0.002709  0.122864  1
  O  O26  1  0.595006  0.995635  0.119671  1
  O  O27  1  0.599371  0.004365  0.380329  1
  O  O28  1  0.282068  0.997291  0.377136  1
  O  O29  1  0.000000  0.000000  0.500000  1
  O  O30  1  0.717932  0.002710  0.622865  1
  O  O31  1  0.400629  0.995635  0.619671  1
  O  O32  1  0.404994  0.004365  0.880329  1
  O  O33  1  0.715224  0.997291  0.877136  1
