# generated using pymatgen
data_Cs6Rb2SnSb4
_symmetry_space_group_name_H-M   'P 1'
_cell_length_a   12.45384153
_cell_length_b   12.45384180
_cell_length_c   12.45384000
_cell_angle_alpha   59.99999948
_cell_angle_beta   59.99999874
_cell_angle_gamma   59.99999683
_symmetry_Int_Tables_number   1
_chemical_formula_structural   Cs6Rb2SnSb4
_chemical_formula_sum   'Cs12 Rb4 Sn2 Sb8'
_cell_volume   1365.82465346
_cell_formula_units_Z   2
loop_
 _symmetry_equiv_pos_site_id
 _symmetry_equiv_pos_as_xyz
  1  'x, y, z'
loop_
 _atom_site_type_symbol
 _atom_site_label
 _atom_site_symmetry_multiplicity
 _atom_site_fract_x
 _atom_site_fract_y
 _atom_site_fract_z
 _atom_site_occupancy
  Cs  Cs0  1  0.022739  0.022739  0.477261  1
  Cs  Cs1  1  0.772739  0.227261  0.227261  1
  Cs  Cs2  1  0.227261  0.772739  0.772739  1
  Cs  Cs3  1  0.772739  0.772739  0.227261  1
  Cs  Cs4  1  0.772739  0.227261  0.772739  1
  Cs  Cs5  1  0.227261  0.772739  0.227261  1
  Cs  Cs6  1  0.477261  0.022739  0.477261  1
  Cs  Cs7  1  0.477261  0.022739  0.022739  1
  Cs  Cs8  1  0.022739  0.477261  0.477261  1
  Cs  Cs9  1  0.022739  0.477261  0.022739  1
  Cs  Cs10  1  0.227261  0.227261  0.772739  1
  Cs  Cs11  1  0.477261  0.477261  0.022739  1
  Rb  Rb12  1  0.625000  0.125000  0.625000  1
  Rb  Rb13  1  0.625000  0.625000  0.125000  1
  Rb  Rb14  1  0.125000  0.625000  0.625000  1
  Rb  Rb15  1  0.625000  0.625000  0.625000  1
  Sn  Sn16  1  0.750000  0.750000  0.750000  1
  Sn  Sn17  1  0.500000  0.500000  0.500000  1
  Sb  Sb18  1  0.402782  0.791653  0.402782  1
  Sb  Sb19  1  0.847218  0.847218  0.458347  1
  Sb  Sb20  1  0.458347  0.847218  0.847218  1
  Sb  Sb21  1  0.847218  0.847218  0.847218  1
  Sb  Sb22  1  0.791653  0.402782  0.402782  1
  Sb  Sb23  1  0.402782  0.402782  0.402782  1
  Sb  Sb24  1  0.402782  0.402782  0.791653  1
  Sb  Sb25  1  0.847218  0.458347  0.847218  1
