# generated using pymatgen
data_Er2PaIn3Ir2
_symmetry_space_group_name_H-M   'P 1'
_cell_length_a   7.85925800
_cell_length_b   7.60660138
_cell_length_c   3.61743000
_cell_angle_alpha   90.00000000
_cell_angle_beta   90.00000000
_cell_angle_gamma   121.10497794
_symmetry_Int_Tables_number   1
_chemical_formula_structural   Er2PaIn3Ir2
_chemical_formula_sum   'Er2 Pa1 In3 Ir2'
_cell_volume   185.16496855
_cell_formula_units_Z   1
loop_
 _symmetry_equiv_pos_site_id
 _symmetry_equiv_pos_as_xyz
  1  'x, y, z'
loop_
 _atom_site_type_symbol
 _atom_site_label
 _atom_site_symmetry_multiplicity
 _atom_site_fract_x
 _atom_site_fract_y
 _atom_site_fract_z
 _atom_site_occupancy
  Er  Er0  1  0.421645  0.419519  0.500000  1
  Er  Er1  1  0.002126  0.580482  0.500000  1
  Pa  Pa2  1  0.566681  0.000000  0.500000  1
  In  In3  1  0.222704  0.000000  0.000000  1
  In  In4  1  0.002486  0.235379  0.000000  1
  In  In5  1  0.767106  0.764622  0.000000  1
  Ir  Ir6  1  0.662125  0.306997  0.000000  1
  Ir  Ir7  1  0.355128  0.693002  0.000000  1
