# generated using pymatgen
data_Y2Lu(GaIr2)3
_symmetry_space_group_name_H-M   'P 1'
_cell_length_a   5.56217200
_cell_length_b   5.56206327
_cell_length_c   15.81894901
_cell_angle_alpha   89.99673988
_cell_angle_beta   90.00125853
_cell_angle_gamma   119.99658180
_symmetry_Int_Tables_number   1
_chemical_formula_structural   Y2Lu(GaIr2)3
_chemical_formula_sum   'Y4 Lu2 Ga6 Ir12'
_cell_volume   423.84157456
_cell_formula_units_Z   2
loop_
 _symmetry_equiv_pos_site_id
 _symmetry_equiv_pos_as_xyz
  1  'x, y, z'
loop_
 _atom_site_type_symbol
 _atom_site_label
 _atom_site_symmetry_multiplicity
 _atom_site_fract_x
 _atom_site_fract_y
 _atom_site_fract_z
 _atom_site_occupancy
  Y  Y0  1  0.333320  0.666663  0.541796  1
  Y  Y1  1  0.666680  0.333337  0.458204  1
  Y  Y2  1  0.333333  0.666672  0.753645  1
  Y  Y3  1  0.666667  0.333328  0.246355  1
  Lu  Lu4  1  0.666681  0.333319  0.038788  1
  Lu  Lu5  1  0.333319  0.666681  0.961212  1
  Ga  Ga6  1  0.000003  0.999998  0.248185  1
  Ga  Ga7  1  0.999997  0.000002  0.751815  1
  Ga  Ga8  1  0.333326  0.666668  0.248747  1
  Ga  Ga9  1  0.666674  0.333332  0.751253  1
  Ga  Ga10  1  0.000000  0.000000  0.000000  1
  Ga  Ga11  1  0.000000  0.000000  0.500000  1
  Ir  Ir12  1  0.170176  0.340310  0.123232  1
  Ir  Ir13  1  0.829824  0.659690  0.876768  1
  Ir  Ir14  1  0.659695  0.829827  0.123237  1
  Ir  Ir15  1  0.830522  0.661058  0.626505  1
  Ir  Ir16  1  0.340305  0.170173  0.876763  1
  Ir  Ir17  1  0.169478  0.338942  0.373495  1
  Ir  Ir18  1  0.170148  0.829852  0.123226  1
  Ir  Ir19  1  0.338956  0.169475  0.626508  1
  Ir  Ir20  1  0.829852  0.170148  0.876774  1
  Ir  Ir21  1  0.661044  0.830525  0.373492  1
  Ir  Ir22  1  0.830513  0.169469  0.626493  1
  Ir  Ir23  1  0.169487  0.830531  0.373507  1
