# generated using pymatgen
data_Tb2MnPtF14
_symmetry_space_group_name_H-M   'P 1'
_cell_length_a   5.50704482
_cell_length_b   8.83389821
_cell_length_c   11.88995265
_cell_angle_alpha   62.41723109
_cell_angle_beta   90.14333883
_cell_angle_gamma   90.17121281
_symmetry_Int_Tables_number   1
_chemical_formula_structural   Tb2MnPtF14
_chemical_formula_sum   'Tb4 Mn2 Pt2 F28'
_cell_volume   512.68498441
_cell_formula_units_Z   2
loop_
 _symmetry_equiv_pos_site_id
 _symmetry_equiv_pos_as_xyz
  1  'x, y, z'
loop_
 _atom_site_type_symbol
 _atom_site_label
 _atom_site_symmetry_multiplicity
 _atom_site_fract_x
 _atom_site_fract_y
 _atom_site_fract_z
 _atom_site_occupancy
  Tb  Tb0  1  0.259627  0.815610  0.259834  1
  Tb  Tb1  1  0.740373  0.184390  0.740166  1
  Tb  Tb2  1  0.763183  0.191262  0.231329  1
  Tb  Tb3  1  0.236817  0.808738  0.768671  1
  Mn  Mn4  1  0.757668  0.725708  0.043281  1
  Mn  Mn5  1  0.242332  0.274292  0.956719  1
  Pt  Pt6  1  0.260261  0.273231  0.456464  1
  Pt  Pt7  1  0.739739  0.726769  0.543536  1
  F  F8  1  0.928676  0.702034  0.412741  1
  F  F9  1  0.071324  0.297966  0.587259  1
  F  F10  1  0.437548  0.292735  0.075159  1
  F  F11  1  0.562452  0.707265  0.924841  1
  F  F12  1  0.486877  0.732146  0.131744  1
  F  F13  1  0.513123  0.267854  0.868256  1
  F  F14  1  0.961751  0.279388  0.363138  1
  F  F15  1  0.038249  0.720612  0.636862  1
  F  F16  1  0.951378  0.743406  0.164733  1
  F  F17  1  0.048622  0.256594  0.835267  1
  F  F18  1  0.443407  0.256893  0.320125  1
  F  F19  1  0.556593  0.743107  0.679875  1
  F  F20  1  0.767597  0.490706  0.135560  1
  F  F21  1  0.232403  0.509294  0.864440  1
  F  F22  1  0.277435  0.523476  0.355515  1
  F  F23  1  0.722565  0.476524  0.644485  1
  F  F24  1  0.963206  0.283282  0.040829  1
  F  F25  1  0.036794  0.716718  0.959171  1
  F  F26  1  0.434433  0.723303  0.457823  1
  F  F27  1  0.565567  0.276697  0.542177  1
  F  F28  1  0.744046  0.977305  0.449423  1
  F  F29  1  0.255954  0.022695  0.550577  1
  F  F30  1  0.239935  0.039746  0.046886  1
  F  F31  1  0.760065  0.960254  0.953114  1
  F  F32  1  0.591536  0.969742  0.229322  1
  F  F33  1  0.408464  0.030258  0.770678  1
  F  F34  1  0.089084  0.031269  0.269873  1
  F  F35  1  0.910916  0.968731  0.730127  1
