# generated using pymatgen
data_DyHo9(InGa2)2
_symmetry_space_group_name_H-M   'P 1'
_cell_length_a   7.72654732
_cell_length_b   7.72504300
_cell_length_c   14.27940258
_cell_angle_alpha   90.00000000
_cell_angle_beta   90.03286382
_cell_angle_gamma   90.00000000
_symmetry_Int_Tables_number   1
_chemical_formula_structural   DyHo9(InGa2)2
_chemical_formula_sum   'Dy2 Ho18 In4 Ga8'
_cell_volume   852.30756015
_cell_formula_units_Z   2
loop_
 _symmetry_equiv_pos_site_id
 _symmetry_equiv_pos_as_xyz
  1  'x, y, z'
loop_
 _atom_site_type_symbol
 _atom_site_label
 _atom_site_symmetry_multiplicity
 _atom_site_fract_x
 _atom_site_fract_y
 _atom_site_fract_z
 _atom_site_occupancy
  Dy  Dy0  1  0.672449  0.661960  0.605978  1
  Dy  Dy1  1  0.672449  0.338040  0.105978  1
  Ho  Ho2  1  0.000068  0.499833  0.758407  1
  Ho  Ho3  1  0.000068  0.500167  0.258407  1
  Ho  Ho4  1  0.499996  0.999989  0.241778  1
  Ho  Ho5  1  0.499996  0.000011  0.741778  1
  Ho  Ho6  1  0.827685  0.838357  0.393673  1
  Ho  Ho7  1  0.172257  0.838416  0.893495  1
  Ho  Ho8  1  0.327628  0.338416  0.606521  1
  Ho  Ho9  1  0.327628  0.661584  0.106521  1
  Ho  Ho10  1  0.172257  0.161584  0.393495  1
  Ho  Ho11  1  0.827685  0.161643  0.893673  1
  Ho  Ho12  1  0.661815  0.327627  0.393595  1
  Ho  Ho13  1  0.338244  0.327597  0.893626  1
  Ho  Ho14  1  0.161552  0.827816  0.606401  1
  Ho  Ho15  1  0.838472  0.827980  0.106358  1
  Ho  Ho16  1  0.338244  0.672403  0.393626  1
  Ho  Ho17  1  0.661815  0.672373  0.893595  1
  Ho  Ho18  1  0.838472  0.172020  0.606358  1
  Ho  Ho19  1  0.161552  0.172184  0.106401  1
  In  In20  1  0.000971  0.499251  0.496324  1
  In  In21  1  0.000971  0.500749  0.996324  1
  In  In22  1  0.498938  0.001205  0.503104  1
  In  In23  1  0.498938  0.998795  0.003104  1
  Ga  Ga24  1  0.875829  0.875659  0.750041  1
  Ga  Ga25  1  0.875829  0.124341  0.250041  1
  Ga  Ga26  1  0.624226  0.624616  0.250394  1
  Ga  Ga27  1  0.375404  0.624408  0.749983  1
  Ga  Ga28  1  0.124467  0.124404  0.750322  1
  Ga  Ga29  1  0.124467  0.875596  0.250322  1
  Ga  Ga30  1  0.375404  0.375592  0.249983  1
  Ga  Ga31  1  0.624226  0.375384  0.750394  1
