# generated using pymatgen
data_CaSc3In2(B2Rh5)2
_symmetry_space_group_name_H-M   'P 1'
_cell_length_a   9.61210216
_cell_length_b   9.61210216
_cell_length_c   3.12528300
_cell_angle_alpha   90.00000000
_cell_angle_beta   90.00000000
_cell_angle_gamma   88.78178111
_symmetry_Int_Tables_number   1
_chemical_formula_structural   CaSc3In2(B2Rh5)2
_chemical_formula_sum   'Ca1 Sc3 In2 B4 Rh10'
_cell_volume   288.68746880
_cell_formula_units_Z   1
loop_
 _symmetry_equiv_pos_site_id
 _symmetry_equiv_pos_as_xyz
  1  'x, y, z'
loop_
 _atom_site_type_symbol
 _atom_site_label
 _atom_site_symmetry_multiplicity
 _atom_site_fract_x
 _atom_site_fract_y
 _atom_site_fract_z
 _atom_site_occupancy
  Ca  Ca0  1  0.823105  0.323105  0.000000  1
  Sc  Sc1  1  0.323047  0.172821  0.000000  1
  Sc  Sc2  1  0.672821  0.823047  0.000000  1
  Sc  Sc3  1  0.175749  0.675749  0.000000  1
  In  In4  1  0.997690  0.008728  0.000000  1
  In  In5  1  0.508728  0.497690  0.000000  1
  B  B6  1  0.614703  0.114703  0.000000  1
  B  B7  1  0.130373  0.383920  0.000000  1
  B  B8  1  0.883920  0.630373  0.000000  1
  B  B9  1  0.373793  0.873793  0.000000  1
  Rh  Rh10  1  0.085790  0.227977  0.500000  1
  Rh  Rh11  1  0.221123  0.926433  0.500000  1
  Rh  Rh12  1  0.764457  0.055322  0.500000  1
  Rh  Rh13  1  0.932050  0.781792  0.500000  1
  Rh  Rh14  1  0.426433  0.721123  0.500000  1
  Rh  Rh15  1  0.555322  0.264457  0.500000  1
  Rh  Rh16  1  0.727977  0.585790  0.500000  1
  Rh  Rh17  1  0.281792  0.432050  0.500000  1
  Rh  Rh18  1  0.493034  0.993034  0.500000  1
  Rh  Rh19  1  0.008093  0.508093  0.500000  1
