# generated using pymatgen
data_Y4Co17(Si4Ni)3
_symmetry_space_group_name_H-M   'P 1'
_cell_length_a   3.73019700
_cell_length_b   6.77856333
_cell_length_c   18.37334000
_cell_angle_alpha   89.87743551
_cell_angle_beta   90.00000000
_cell_angle_gamma   90.00000000
_symmetry_Int_Tables_number   1
_chemical_formula_structural   Y4Co17(Si4Ni)3
_chemical_formula_sum   'Y4 Co17 Si12 Ni3'
_cell_volume   464.57575845
_cell_formula_units_Z   1
loop_
 _symmetry_equiv_pos_site_id
 _symmetry_equiv_pos_as_xyz
  1  'x, y, z'
loop_
 _atom_site_type_symbol
 _atom_site_label
 _atom_site_symmetry_multiplicity
 _atom_site_fract_x
 _atom_site_fract_y
 _atom_site_fract_z
 _atom_site_occupancy
  Y  Y0  1  0.250000  0.872984  0.356948  1
  Y  Y1  1  0.750000  0.126908  0.643331  1
  Y  Y2  1  0.750000  0.373418  0.142271  1
  Y  Y3  1  0.250000  0.625285  0.857309  1
  Co  Co4  1  0.250000  0.056674  0.203510  1
  Co  Co5  1  0.750000  0.942972  0.795878  1
  Co  Co6  1  0.750000  0.557204  0.295016  1
  Co  Co7  1  0.250000  0.442471  0.705046  1
  Co  Co8  1  0.250000  0.625056  0.488626  1
  Co  Co9  1  0.750000  0.374498  0.511418  1
  Co  Co10  1  0.750000  0.121362  0.009617  1
  Co  Co11  1  0.250000  0.873960  0.990187  1
  Co  Co12  1  0.250000  0.679204  0.201986  1
  Co  Co13  1  0.750000  0.321444  0.799051  1
  Co  Co14  1  0.750000  0.178714  0.297108  1
  Co  Co15  1  0.250000  0.820917  0.702693  1
  Co  Co16  1  0.250000  0.358271  0.386494  1
  Co  Co17  1  0.750000  0.641911  0.613200  1
  Co  Co18  1  0.750000  0.864365  0.111157  1
  Co  Co19  1  0.250000  0.136420  0.889347  1
  Co  Co20  1  0.250000  0.374867  0.005119  1
  Si  Si21  1  0.250000  0.092964  0.080544  1
  Si  Si22  1  0.750000  0.911214  0.917988  1
  Si  Si23  1  0.750000  0.584020  0.417904  1
  Si  Si24  1  0.250000  0.415486  0.582105  1
  Si  Si25  1  0.250000  0.649810  0.077155  1
  Si  Si26  1  0.750000  0.349312  0.924663  1
  Si  Si27  1  0.750000  0.155950  0.422331  1
  Si  Si28  1  0.250000  0.844168  0.577411  1
  Si  Si29  1  0.250000  0.367348  0.262923  1
  Si  Si30  1  0.750000  0.631939  0.736724  1
  Si  Si31  1  0.750000  0.868090  0.235750  1
  Si  Si32  1  0.250000  0.132136  0.764407  1
  Ni  Ni33  1  0.750000  0.628724  0.995094  1
  Ni  Ni34  1  0.750000  0.874014  0.494424  1
  Ni  Ni35  1  0.250000  0.125917  0.505266  1
