# generated using pymatgen
data_Ce7ErH24
_symmetry_space_group_name_H-M   'P 1'
_cell_length_a   6.76328500
_cell_length_b   6.76328500
_cell_length_c   6.76328500
_cell_angle_alpha   90.00000000
_cell_angle_beta   90.00000000
_cell_angle_gamma   90.00000000
_symmetry_Int_Tables_number   1
_chemical_formula_structural   Ce7ErH24
_chemical_formula_sum   'Ce7 Er1 H24'
_cell_volume   309.36634473
_cell_formula_units_Z   1
loop_
 _symmetry_equiv_pos_site_id
 _symmetry_equiv_pos_as_xyz
  1  'x, y, z'
loop_
 _atom_site_type_symbol
 _atom_site_label
 _atom_site_symmetry_multiplicity
 _atom_site_fract_x
 _atom_site_fract_y
 _atom_site_fract_z
 _atom_site_occupancy
  Ce  Ce0  1  0.500000  0.500000  0.500000  1
  Ce  Ce1  1  0.246628  0.000000  0.500000  1
  Ce  Ce2  1  0.753372  0.000000  0.500000  1
  Ce  Ce3  1  0.000000  0.500000  0.246628  1
  Ce  Ce4  1  0.000000  0.500000  0.753372  1
  Ce  Ce5  1  0.500000  0.753372  0.000000  1
  Ce  Ce6  1  0.500000  0.246628  0.000000  1
  Er  Er7  1  0.000000  0.000000  0.000000  1
  H  H8  1  0.000000  0.152650  0.297358  1
  H  H9  1  0.500000  0.193356  0.654850  1
  H  H10  1  0.500000  0.806644  0.345150  1
  H  H11  1  0.806644  0.654850  0.500000  1
  H  H12  1  0.193356  0.654850  0.500000  1
  H  H13  1  0.345150  0.500000  0.806644  1
  H  H14  1  0.654850  0.500000  0.806644  1
  H  H15  1  0.297358  0.000000  0.152650  1
  H  H16  1  0.152650  0.297358  0.000000  1
  H  H17  1  0.847350  0.702642  0.000000  1
  H  H18  1  0.297358  0.000000  0.847350  1
  H  H19  1  0.847350  0.297358  0.000000  1
  H  H20  1  0.702642  0.000000  0.152650  1
  H  H21  1  0.702642  0.000000  0.847350  1
  H  H22  1  0.152650  0.702642  0.000000  1
  H  H23  1  0.000000  0.847350  0.702642  1
  H  H24  1  0.000000  0.152650  0.702642  1
  H  H25  1  0.000000  0.847350  0.297358  1
  H  H26  1  0.654850  0.500000  0.193356  1
  H  H27  1  0.345150  0.500000  0.193356  1
  H  H28  1  0.806644  0.345150  0.500000  1
  H  H29  1  0.193356  0.345150  0.500000  1
  H  H30  1  0.500000  0.806644  0.654850  1
  H  H31  1  0.500000  0.193356  0.345150  1
