# generated using pymatgen
data_Hf3Sc3Si2(Tc3As2)2
_symmetry_space_group_name_H-M   'P 1'
_cell_length_a   7.78742148
_cell_length_b   7.79159725
_cell_length_c   7.78742255
_cell_angle_alpha   126.84010633
_cell_angle_beta   127.00596786
_cell_angle_gamma   78.36387820
_symmetry_Int_Tables_number   1
_chemical_formula_structural   Hf3Sc3Si2(Tc3As2)2
_chemical_formula_sum   'Hf3 Sc3 Si2 Tc6 As4'
_cell_volume   292.46836786
_cell_formula_units_Z   1
loop_
 _symmetry_equiv_pos_site_id
 _symmetry_equiv_pos_as_xyz
  1  'x, y, z'
loop_
 _atom_site_type_symbol
 _atom_site_label
 _atom_site_symmetry_multiplicity
 _atom_site_fract_x
 _atom_site_fract_y
 _atom_site_fract_z
 _atom_site_occupancy
  Hf  Hf0  1  0.248265  0.853952  0.105686  1
  Hf  Hf1  1  0.051526  0.254501  0.702975  1
  Hf  Hf2  1  0.948302  0.648690  0.200389  1
  Sc  Sc3  1  0.450629  0.655179  0.704550  1
  Sc  Sc4  1  0.549671  0.252063  0.202392  1
  Sc  Sc5  1  0.751164  0.854463  0.603298  1
  Si  Si6  1  0.253222  0.258118  0.504898  1
  Si  Si7  1  0.747261  0.249049  0.001788  1
  Tc  Tc8  1  0.499099  0.504058  0.002794  1
  Tc  Tc9  1  0.001264  0.504058  0.504959  1
  Tc  Tc10  1  0.120678  0.252850  0.123286  1
  Tc  Tc11  1  0.882334  0.003409  0.135969  1
  Tc  Tc12  1  0.367440  0.003409  0.621075  1
  Tc  Tc13  1  0.629564  0.252850  0.632172  1
  As  As14  1  0.336099  0.586678  0.256392  1
  As  As15  1  0.665849  0.919798  0.252452  1
  As  As16  1  0.167346  0.919798  0.753950  1
  As  As17  1  0.830286  0.586678  0.750578  1
