# generated using pymatgen
data_TmNp3Ga12Rh
_symmetry_space_group_name_H-M   'P 1'
_cell_length_a   7.44049485
_cell_length_b   7.44049520
_cell_length_c   7.51949600
_cell_angle_alpha   109.68644221
_cell_angle_beta   109.68644317
_cell_angle_gamma   109.25514231
_symmetry_Int_Tables_number   1
_chemical_formula_structural   TmNp3Ga12Rh
_chemical_formula_sum   'Tm1 Np3 Ga12 Rh1'
_cell_volume   319.60242700
_cell_formula_units_Z   1
loop_
 _symmetry_equiv_pos_site_id
 _symmetry_equiv_pos_as_xyz
  1  'x, y, z'
loop_
 _atom_site_type_symbol
 _atom_site_label
 _atom_site_symmetry_multiplicity
 _atom_site_fract_x
 _atom_site_fract_y
 _atom_site_fract_z
 _atom_site_occupancy
  Tm  Tm0  1  0.000000  0.000000  0.500000  1
  Np  Np1  1  0.500000  0.500000  0.500000  1
  Np  Np2  1  0.000000  0.500000  0.000000  1
  Np  Np3  1  0.500000  0.000000  0.000000  1
  Ga  Ga4  1  0.749911  0.250089  0.500000  1
  Ga  Ga5  1  0.000000  0.709795  0.709751  1
  Ga  Ga6  1  0.290205  0.000000  0.290249  1
  Ga  Ga7  1  0.500179  0.250089  0.750089  1
  Ga  Ga8  1  0.749911  0.499821  0.249911  1
  Ga  Ga9  1  0.250089  0.749911  0.500000  1
  Ga  Ga10  1  0.250089  0.500179  0.750089  1
  Ga  Ga11  1  0.709795  0.000000  0.709751  1
  Ga  Ga12  1  0.499821  0.749911  0.249911  1
  Ga  Ga13  1  0.709795  0.709795  0.000044  1
  Ga  Ga14  1  0.290205  0.290205  0.999956  1
  Ga  Ga15  1  0.000000  0.290205  0.290249  1
  Rh  Rh16  1  0.000000  0.000000  0.000000  1
