# generated using pymatgen
data_Zr3Co7(P3Ru)2
_symmetry_space_group_name_H-M   'P 1'
_cell_length_a   3.67766300
_cell_length_b   10.36635000
_cell_length_c   12.09597300
_cell_angle_alpha   90.00000000
_cell_angle_beta   90.00000000
_cell_angle_gamma   90.00000000
_symmetry_Int_Tables_number   1
_chemical_formula_structural   Zr3Co7(P3Ru)2
_chemical_formula_sum   'Zr6 Co14 P12 Ru4'
_cell_volume   461.14617115
_cell_formula_units_Z   2
loop_
 _symmetry_equiv_pos_site_id
 _symmetry_equiv_pos_as_xyz
  1  'x, y, z'
loop_
 _atom_site_type_symbol
 _atom_site_label
 _atom_site_symmetry_multiplicity
 _atom_site_fract_x
 _atom_site_fract_y
 _atom_site_fract_z
 _atom_site_occupancy
  Zr  Zr0  1  0.000000  0.500000  0.533406  1
  Zr  Zr1  1  0.500000  0.000000  0.471099  1
  Zr  Zr2  1  0.500000  0.821376  0.205913  1
  Zr  Zr3  1  0.500000  0.178624  0.205913  1
  Zr  Zr4  1  0.000000  0.680216  0.793396  1
  Zr  Zr5  1  0.000000  0.319784  0.793396  1
  Co  Co6  1  0.000000  0.500000  0.986912  1
  Co  Co7  1  0.500000  0.000000  0.013120  1
  Co  Co8  1  0.000000  0.197791  0.571622  1
  Co  Co9  1  0.000000  0.802209  0.571622  1
  Co  Co10  1  0.500000  0.876733  0.708240  1
  Co  Co11  1  0.500000  0.123267  0.708240  1
  Co  Co12  1  0.000000  0.623926  0.287599  1
  Co  Co13  1  0.000000  0.376074  0.287599  1
  Co  Co14  1  0.500000  0.331860  0.989562  1
  Co  Co15  1  0.500000  0.668140  0.989562  1
  Co  Co16  1  0.000000  0.166870  0.008765  1
  Co  Co17  1  0.000000  0.833130  0.008765  1
  Co  Co18  1  0.500000  0.500000  0.707221  1
  Co  Co19  1  0.000000  0.000000  0.293644  1
  P  P20  1  0.500000  0.316455  0.623388  1
  P  P21  1  0.500000  0.683545  0.623388  1
  P  P22  1  0.000000  0.178808  0.380856  1
  P  P23  1  0.000000  0.821192  0.380856  1
  P  P24  1  0.500000  0.500000  0.880695  1
  P  P25  1  0.000000  0.000000  0.119438  1
  P  P26  1  0.500000  0.844480  0.890650  1
  P  P27  1  0.500000  0.155520  0.890650  1
  P  P28  1  0.000000  0.657218  0.107641  1
  P  P29  1  0.000000  0.342782  0.107641  1
  P  P30  1  0.500000  0.500000  0.351656  1
  P  P31  1  0.000000  0.000000  0.644089  1
  Ru  Ru32  1  0.500000  0.298070  0.433282  1
  Ru  Ru33  1  0.500000  0.701930  0.433282  1
  Ru  Ru34  1  0.500000  0.500000  0.160924  1
  Ru  Ru35  1  0.000000  0.000000  0.835967  1
