# generated using pymatgen
data_La3Ge6N11
_symmetry_space_group_name_H-M   'P 1'
_cell_length_a   10.60609500
_cell_length_b   10.60609500
_cell_length_c   5.17008500
_cell_angle_alpha   90.00000000
_cell_angle_beta   90.00000000
_cell_angle_gamma   90.00000000
_symmetry_Int_Tables_number   1
_chemical_formula_structural   La3Ge6N11
_chemical_formula_sum   'La6 Ge12 N22'
_cell_volume   581.57899003
_cell_formula_units_Z   2
loop_
 _symmetry_equiv_pos_site_id
 _symmetry_equiv_pos_as_xyz
  1  'x, y, z'
loop_
 _atom_site_type_symbol
 _atom_site_label
 _atom_site_symmetry_multiplicity
 _atom_site_fract_x
 _atom_site_fract_y
 _atom_site_fract_z
 _atom_site_occupancy
  La  La0  1  0.320022  0.820022  0.986066  1
  La  La1  1  0.679978  0.179978  0.986066  1
  La  La2  1  0.179978  0.320022  0.986066  1
  La  La3  1  0.820022  0.679978  0.986066  1
  La  La4  1  0.500000  0.500000  0.979235  1
  La  La5  1  0.000000  0.000000  0.979235  1
  Ge  Ge6  1  0.420311  0.292346  0.528518  1
  Ge  Ge7  1  0.579689  0.707654  0.528518  1
  Ge  Ge8  1  0.079689  0.792346  0.528518  1
  Ge  Ge9  1  0.920311  0.207654  0.528518  1
  Ge  Ge10  1  0.292346  0.579689  0.528518  1
  Ge  Ge11  1  0.707654  0.420311  0.528518  1
  Ge  Ge12  1  0.792346  0.920311  0.528518  1
  Ge  Ge13  1  0.207654  0.079689  0.528518  1
  Ge  Ge14  1  0.880780  0.380780  0.046106  1
  Ge  Ge15  1  0.119220  0.619220  0.046106  1
  Ge  Ge16  1  0.619220  0.880780  0.046106  1
  Ge  Ge17  1  0.380780  0.119220  0.046106  1
  N  N18  1  0.317376  0.420398  0.662858  1
  N  N19  1  0.682624  0.579602  0.662858  1
  N  N20  1  0.182624  0.920398  0.662858  1
  N  N21  1  0.817376  0.079602  0.662858  1
  N  N22  1  0.420398  0.682624  0.662858  1
  N  N23  1  0.579602  0.317376  0.662858  1
  N  N24  1  0.920398  0.817376  0.662858  1
  N  N25  1  0.079602  0.182624  0.662858  1
  N  N26  1  0.420112  0.280216  0.169208  1
  N  N27  1  0.579888  0.719784  0.169208  1
  N  N28  1  0.079888  0.780216  0.169208  1
  N  N29  1  0.920112  0.219784  0.169208  1
  N  N30  1  0.280216  0.579888  0.169208  1
  N  N31  1  0.719784  0.420112  0.169208  1
  N  N32  1  0.780216  0.920112  0.169208  1
  N  N33  1  0.219784  0.079888  0.169208  1
  N  N34  1  0.847253  0.347253  0.694628  1
  N  N35  1  0.152747  0.652747  0.694628  1
  N  N36  1  0.652747  0.847253  0.694628  1
  N  N37  1  0.347253  0.152747  0.694628  1
  N  N38  1  0.500000  0.000000  0.093367  1
  N  N39  1  0.000000  0.500000  0.093367  1
