# generated using pymatgen
data_Ba5TaNbI2O9
_symmetry_space_group_name_H-M   'P 1'
_cell_length_a   6.07626500
_cell_length_b   6.07626538
_cell_length_c   26.97519300
_cell_angle_alpha   90.00000000
_cell_angle_beta   90.00000000
_cell_angle_gamma   120.00000338
_symmetry_Int_Tables_number   1
_chemical_formula_structural   Ba5TaNbI2O9
_chemical_formula_sum   'Ba10 Ta2 Nb2 I4 O18'
_cell_volume   862.51889348
_cell_formula_units_Z   2
loop_
 _symmetry_equiv_pos_site_id
 _symmetry_equiv_pos_as_xyz
  1  'x, y, z'
loop_
 _atom_site_type_symbol
 _atom_site_label
 _atom_site_symmetry_multiplicity
 _atom_site_fract_x
 _atom_site_fract_y
 _atom_site_fract_z
 _atom_site_occupancy
  Ba  Ba0  1  0.333333  0.666667  0.907374  1
  Ba  Ba1  1  0.666667  0.333333  0.407374  1
  Ba  Ba2  1  0.666667  0.333333  0.093790  1
  Ba  Ba3  1  0.333333  0.666667  0.177941  1
  Ba  Ba4  1  0.666667  0.333333  0.677941  1
  Ba  Ba5  1  0.333333  0.666667  0.320698  1
  Ba  Ba6  1  0.666667  0.333333  0.820698  1
  Ba  Ba7  1  0.666667  0.333333  0.248997  1
  Ba  Ba8  1  0.333333  0.666667  0.593790  1
  Ba  Ba9  1  0.333333  0.666667  0.748997  1
  Ta  Ta10  1  0.000000  0.000000  0.694232  1
  Ta  Ta11  1  0.000000  0.000000  0.194232  1
  Nb  Nb12  1  0.000000  0.000000  0.807385  1
  Nb  Nb13  1  0.000000  0.000000  0.307385  1
  I  I14  1  0.333333  0.666667  0.452198  1
  I  I15  1  0.333333  0.666667  0.047011  1
  I  I16  1  0.666667  0.333333  0.547011  1
  I  I17  1  0.666667  0.333333  0.952198  1
  O  O18  1  0.161599  0.838401  0.662003  1
  O  O19  1  0.674544  0.837271  0.838418  1
  O  O20  1  0.161599  0.323195  0.662003  1
  O  O21  1  0.851539  0.148461  0.749704  1
  O  O22  1  0.296923  0.148461  0.749704  1
  O  O23  1  0.148461  0.296923  0.249704  1
  O  O24  1  0.148461  0.851539  0.249704  1
  O  O25  1  0.703077  0.851539  0.249704  1
  O  O26  1  0.837271  0.162729  0.338418  1
  O  O27  1  0.323195  0.161599  0.162003  1
  O  O28  1  0.851539  0.703077  0.749704  1
  O  O29  1  0.838401  0.676805  0.162003  1
  O  O30  1  0.325456  0.162729  0.338418  1
  O  O31  1  0.838401  0.161599  0.162003  1
  O  O32  1  0.162729  0.325456  0.838418  1
  O  O33  1  0.837271  0.674544  0.338418  1
  O  O34  1  0.676805  0.838401  0.662003  1
  O  O35  1  0.162729  0.837271  0.838418  1
