# generated using pymatgen
data_Gd2ReB8Mo
_symmetry_space_group_name_H-M   'P 1'
_cell_length_a   3.63960600
_cell_length_b   6.02658877
_cell_length_c   11.65896444
_cell_angle_alpha   90.08796517
_cell_angle_beta   90.00000000
_cell_angle_gamma   90.00000000
_symmetry_Int_Tables_number   1
_chemical_formula_structural   Gd2ReB8Mo
_chemical_formula_sum   'Gd4 Re2 B16 Mo2'
_cell_volume   255.73218917
_cell_formula_units_Z   2
loop_
 _symmetry_equiv_pos_site_id
 _symmetry_equiv_pos_as_xyz
  1  'x, y, z'
loop_
 _atom_site_type_symbol
 _atom_site_label
 _atom_site_symmetry_multiplicity
 _atom_site_fract_x
 _atom_site_fract_y
 _atom_site_fract_z
 _atom_site_occupancy
  Gd  Gd0  1  0.000000  0.626357  0.350242  1
  Gd  Gd1  1  0.000000  0.373643  0.649758  1
  Gd  Gd2  1  0.000000  0.126497  0.150932  1
  Gd  Gd3  1  0.000000  0.873503  0.849068  1
  Re  Re4  1  0.000000  0.133338  0.414091  1
  Re  Re5  1  0.000000  0.866662  0.585909  1
  B  B6  1  0.500000  0.787981  0.185911  1
  B  B7  1  0.500000  0.212019  0.814089  1
  B  B8  1  0.500000  0.284498  0.315822  1
  B  B9  1  0.500000  0.715502  0.684178  1
  B  B10  1  0.500000  0.866155  0.032217  1
  B  B11  1  0.500000  0.133845  0.967783  1
  B  B12  1  0.500000  0.362473  0.468690  1
  B  B13  1  0.500000  0.637527  0.531310  1
  B  B14  1  0.500000  0.887099  0.453098  1
  B  B15  1  0.500000  0.112901  0.546902  1
  B  B16  1  0.500000  0.385704  0.047257  1
  B  B17  1  0.500000  0.614296  0.952743  1
  B  B18  1  0.500000  0.977188  0.308929  1
  B  B19  1  0.500000  0.022812  0.691071  1
  B  B20  1  0.500000  0.476032  0.193492  1
  B  B21  1  0.500000  0.523968  0.806508  1
  Mo  Mo22  1  0.000000  0.628670  0.084413  1
  Mo  Mo23  1  0.000000  0.371330  0.915587  1
