# generated using pymatgen
data_Li3AcEu2Pd3
_symmetry_space_group_name_H-M   'P 1'
_cell_length_a   7.49223300
_cell_length_b   7.49223429
_cell_length_c   4.25534000
_cell_angle_alpha   90.00000000
_cell_angle_beta   90.00000000
_cell_angle_gamma   119.81243237
_symmetry_Int_Tables_number   1
_chemical_formula_structural   Li3AcEu2Pd3
_chemical_formula_sum   'Li3 Ac1 Eu2 Pd3'
_cell_volume   207.25511814
_cell_formula_units_Z   1
loop_
 _symmetry_equiv_pos_site_id
 _symmetry_equiv_pos_as_xyz
  1  'x, y, z'
loop_
 _atom_site_type_symbol
 _atom_site_label
 _atom_site_symmetry_multiplicity
 _atom_site_fract_x
 _atom_site_fract_y
 _atom_site_fract_z
 _atom_site_occupancy
  Li  Li0  1  0.228870  0.991216  0.500000  1
  Li  Li1  1  0.991216  0.228870  0.500000  1
  Li  Li2  1  0.777649  0.777649  0.500000  1
  Ac  Ac3  1  0.411331  0.411331  0.000000  1
  Eu  Eu4  1  0.587532  0.000601  0.000000  1
  Eu  Eu5  1  0.000601  0.587532  0.000000  1
  Pd  Pd6  1  0.334205  0.663417  0.500000  1
  Pd  Pd7  1  0.663417  0.334205  0.500000  1
  Pd  Pd8  1  0.005182  0.005182  0.000000  1
