# generated using pymatgen
data_Nd16Cd4CoNi3
_symmetry_space_group_name_H-M   'P 1'
_cell_length_a   9.87165036
_cell_length_b   9.87164990
_cell_length_c   9.87165006
_cell_angle_alpha   59.98960126
_cell_angle_beta   59.98959969
_cell_angle_gamma   59.98960682
_symmetry_Int_Tables_number   1
_chemical_formula_structural   Nd16Cd4CoNi3
_chemical_formula_sum   'Nd16 Cd4 Co1 Ni3'
_cell_volume   680.06725809
_cell_formula_units_Z   1
loop_
 _symmetry_equiv_pos_site_id
 _symmetry_equiv_pos_as_xyz
  1  'x, y, z'
loop_
 _atom_site_type_symbol
 _atom_site_label
 _atom_site_symmetry_multiplicity
 _atom_site_fract_x
 _atom_site_fract_y
 _atom_site_fract_z
 _atom_site_occupancy
  Nd  Nd0  1  0.596844  0.596844  0.596844  1
  Nd  Nd1  1  0.596469  0.596469  0.207444  1
  Nd  Nd2  1  0.596469  0.207444  0.596469  1
  Nd  Nd3  1  0.207444  0.596469  0.596469  1
  Nd  Nd4  1  0.065108  0.439413  0.439413  1
  Nd  Nd5  1  0.439172  0.059641  0.059641  1
  Nd  Nd6  1  0.439413  0.065108  0.439413  1
  Nd  Nd7  1  0.059641  0.439172  0.059641  1
  Nd  Nd8  1  0.439413  0.439413  0.065108  1
  Nd  Nd9  1  0.059641  0.059641  0.439172  1
  Nd  Nd10  1  0.188890  0.812934  0.812934  1
  Nd  Nd11  1  0.810082  0.187473  0.187473  1
  Nd  Nd12  1  0.812934  0.188890  0.812934  1
  Nd  Nd13  1  0.187473  0.810082  0.187473  1
  Nd  Nd14  1  0.812934  0.812934  0.188890  1
  Nd  Nd15  1  0.187473  0.187473  0.810082  1
  Cd  Cd16  1  0.829726  0.829726  0.829726  1
  Cd  Cd17  1  0.829914  0.829914  0.509924  1
  Cd  Cd18  1  0.829914  0.509924  0.829914  1
  Cd  Cd19  1  0.509924  0.829914  0.829914  1
  Co  Co20  1  0.392398  0.392398  0.392398  1
  Ni  Ni21  1  0.392140  0.392140  0.824443  1
  Ni  Ni22  1  0.392140  0.824443  0.392140  1
  Ni  Ni23  1  0.824443  0.392140  0.392140  1
