# generated using pymatgen
data_Tb9LuTl8(PtAu)2
_symmetry_space_group_name_H-M   'P 1'
_cell_length_a   3.67336000
_cell_length_b   8.27266026
_cell_length_c   18.71853578
_cell_angle_alpha   90.49609608
_cell_angle_beta   90.00000000
_cell_angle_gamma   90.00000000
_symmetry_Int_Tables_number   1
_chemical_formula_structural   Tb9LuTl8(PtAu)2
_chemical_formula_sum   'Tb9 Lu1 Tl8 Pt2 Au2'
_cell_volume   568.80614069
_cell_formula_units_Z   1
loop_
 _symmetry_equiv_pos_site_id
 _symmetry_equiv_pos_as_xyz
  1  'x, y, z'
loop_
 _atom_site_type_symbol
 _atom_site_label
 _atom_site_symmetry_multiplicity
 _atom_site_fract_x
 _atom_site_fract_y
 _atom_site_fract_z
 _atom_site_occupancy
  Tb  Tb0  1  0.000000  0.115046  0.415895  1
  Tb  Tb1  1  0.000000  0.881825  0.582384  1
  Tb  Tb2  1  0.000000  0.385985  0.914129  1
  Tb  Tb3  1  0.000000  0.616037  0.087249  1
  Tb  Tb4  1  0.000000  0.257952  0.217208  1
  Tb  Tb5  1  0.000000  0.743984  0.784110  1
  Tb  Tb6  1  0.000000  0.269168  0.719468  1
  Tb  Tb7  1  0.000000  0.001067  0.000704  1
  Tb  Tb8  1  0.000000  0.499178  0.500094  1
  Lu  Lu9  1  0.000000  0.730797  0.279059  1
  Tl  Tl10  1  0.500000  0.420526  0.354577  1
  Tl  Tl11  1  0.500000  0.580906  0.645509  1
  Tl  Tl12  1  0.500000  0.078929  0.853805  1
  Tl  Tl13  1  0.500000  0.922125  0.146253  1
  Tl  Tl14  1  0.500000  0.295132  0.063573  1
  Tl  Tl15  1  0.500000  0.707532  0.937529  1
  Tl  Tl16  1  0.500000  0.208116  0.565124  1
  Tl  Tl17  1  0.500000  0.788005  0.432457  1
  Pt  Pt18  1  0.500000  0.470436  0.803079  1
  Pt  Pt19  1  0.500000  0.534713  0.198905  1
  Au  Au20  1  0.500000  0.023232  0.299861  1
  Au  Au21  1  0.500000  0.969305  0.699030  1
