# generated using pymatgen
data_Cs7KLi4(InAs2)4
_symmetry_space_group_name_H-M   'P 1'
_cell_length_a   10.97712625
_cell_length_b   10.97712719
_cell_length_c   6.61427212
_cell_angle_alpha   89.82343719
_cell_angle_beta   90.17656659
_cell_angle_gamma   105.70537611
_symmetry_Int_Tables_number   1
_chemical_formula_structural   Cs7KLi4(InAs2)4
_chemical_formula_sum   'Cs7 K1 Li4 In4 As8'
_cell_volume   767.24127913
_cell_formula_units_Z   1
loop_
 _symmetry_equiv_pos_site_id
 _symmetry_equiv_pos_as_xyz
  1  'x, y, z'
loop_
 _atom_site_type_symbol
 _atom_site_label
 _atom_site_symmetry_multiplicity
 _atom_site_fract_x
 _atom_site_fract_y
 _atom_site_fract_z
 _atom_site_occupancy
  Cs  Cs0  1  0.574287  0.922479  0.750112  1
  Cs  Cs1  1  0.925809  0.575970  0.250238  1
  Cs  Cs2  1  0.424030  0.074191  0.250238  1
  Cs  Cs3  1  0.077521  0.425713  0.750112  1
  Cs  Cs4  1  0.671790  0.328210  0.776307  1
  Cs  Cs5  1  0.828821  0.171179  0.275988  1
  Cs  Cs6  1  0.326881  0.673119  0.223727  1
  K  K7  1  0.151493  0.848507  0.726664  1
  Li  Li8  1  0.621044  0.620604  0.001579  1
  Li  Li9  1  0.880469  0.877715  0.498563  1
  Li  Li10  1  0.379396  0.378956  0.001579  1
  Li  Li11  1  0.122285  0.119531  0.498563  1
  In  In12  1  0.869422  0.867176  0.001194  1
  In  In13  1  0.632841  0.631281  0.499618  1
  In  In14  1  0.132824  0.130578  0.001194  1
  In  In15  1  0.368719  0.367159  0.499618  1
  As  As16  1  0.337563  0.158043  0.748878  1
  As  As17  1  0.162211  0.336743  0.250306  1
  As  As18  1  0.663257  0.837789  0.250306  1
  As  As19  1  0.841957  0.662437  0.748878  1
  As  As20  1  0.916409  0.083591  0.771900  1
  As  As21  1  0.585986  0.414014  0.271954  1
  As  As22  1  0.089409  0.910591  0.224758  1
  As  As23  1  0.415574  0.584426  0.727723  1
