# generated using pymatgen
data_Yb(AuF6)2
_symmetry_space_group_name_H-M   'P 1'
_cell_length_a   7.27384450
_cell_length_b   7.27384500
_cell_length_c   10.31465757
_cell_angle_alpha   68.36148139
_cell_angle_beta   68.36148286
_cell_angle_gamma   76.30825588
_symmetry_Int_Tables_number   1
_chemical_formula_structural   Yb(AuF6)2
_chemical_formula_sum   'Yb2 Au4 F24'
_cell_volume   468.31434281
_cell_formula_units_Z   2
loop_
 _symmetry_equiv_pos_site_id
 _symmetry_equiv_pos_as_xyz
  1  'x, y, z'
loop_
 _atom_site_type_symbol
 _atom_site_label
 _atom_site_symmetry_multiplicity
 _atom_site_fract_x
 _atom_site_fract_y
 _atom_site_fract_z
 _atom_site_occupancy
  Yb  Yb0  1  0.173929  0.826071  0.750000  1
  Yb  Yb1  1  0.826071  0.173929  0.250000  1
  Au  Au2  1  0.248103  0.252382  0.370914  1
  Au  Au3  1  0.252382  0.248103  0.870914  1
  Au  Au4  1  0.751897  0.747618  0.629086  1
  Au  Au5  1  0.747618  0.751897  0.129086  1
  F  F6  1  0.858930  0.873157  0.223163  1
  F  F7  1  0.141070  0.126843  0.776837  1
  F  F8  1  0.292294  0.982274  0.507442  1
  F  F9  1  0.986467  0.281813  0.507728  1
  F  F10  1  0.281813  0.986467  0.007728  1
  F  F11  1  0.368595  0.357143  0.462667  1
  F  F12  1  0.357143  0.368595  0.962667  1
  F  F13  1  0.873157  0.858930  0.723163  1
  F  F14  1  0.783075  0.481938  0.267140  1
  F  F15  1  0.017726  0.707706  0.992558  1
  F  F16  1  0.707706  0.017726  0.492558  1
  F  F17  1  0.982274  0.292294  0.007442  1
  F  F18  1  0.514147  0.204019  0.739583  1
  F  F19  1  0.631405  0.642857  0.537333  1
  F  F20  1  0.216925  0.518062  0.732860  1
  F  F21  1  0.642857  0.631405  0.037333  1
  F  F22  1  0.481938  0.783075  0.767140  1
  F  F23  1  0.795981  0.485853  0.760417  1
  F  F24  1  0.518062  0.216925  0.232860  1
  F  F25  1  0.485853  0.795981  0.260417  1
  F  F26  1  0.204019  0.514147  0.239583  1
  F  F27  1  0.718187  0.013533  0.992272  1
  F  F28  1  0.126843  0.141070  0.276837  1
  F  F29  1  0.013533  0.718187  0.492272  1
