# generated using pymatgen
data_Sm9Dy(SiHg)4
_symmetry_space_group_name_H-M   'P 1'
_cell_length_a   8.97726951
_cell_length_b   8.97726960
_cell_length_c   7.70440810
_cell_angle_alpha   89.97376176
_cell_angle_beta   89.97376275
_cell_angle_gamma   129.33730721
_symmetry_Int_Tables_number   1
_chemical_formula_structural   Sm9Dy(SiHg)4
_chemical_formula_sum   'Sm9 Dy1 Si4 Hg4'
_cell_volume   480.22774185
_cell_formula_units_Z   1
loop_
 _symmetry_equiv_pos_site_id
 _symmetry_equiv_pos_as_xyz
  1  'x, y, z'
loop_
 _atom_site_type_symbol
 _atom_site_label
 _atom_site_symmetry_multiplicity
 _atom_site_fract_x
 _atom_site_fract_y
 _atom_site_fract_z
 _atom_site_occupancy
  Sm  Sm0  1  0.056902  0.311794  0.323650  1
  Sm  Sm1  1  0.943098  0.688206  0.676350  1
  Sm  Sm2  1  0.443977  0.188960  0.822845  1
  Sm  Sm3  1  0.811040  0.556023  0.177155  1
  Sm  Sm4  1  0.556023  0.811040  0.177155  1
  Sm  Sm5  1  0.188960  0.443977  0.822845  1
  Sm  Sm6  1  0.688206  0.943098  0.676350  1
  Sm  Sm7  1  0.311794  0.056902  0.323650  1
  Sm  Sm8  1  0.000000  0.000000  0.000000  1
  Dy  Dy9  1  0.500000  0.500000  0.500000  1
  Si  Si10  1  0.384889  0.384889  0.120260  1
  Si  Si11  1  0.615111  0.615111  0.879740  1
  Si  Si12  1  0.117435  0.117435  0.618010  1
  Si  Si13  1  0.882565  0.882565  0.381990  1
  Hg  Hg14  1  0.781603  0.218397  0.000000  1
  Hg  Hg15  1  0.218397  0.781603  0.000000  1
  Hg  Hg16  1  0.718056  0.281944  0.500000  1
  Hg  Hg17  1  0.281944  0.718056  0.500000  1
