# generated using pymatgen
data_Tb3Lu7In8(PtAu)2
_symmetry_space_group_name_H-M   'P 1'
_cell_length_a   3.61084500
_cell_length_b   8.09415281
_cell_length_c   18.18550300
_cell_angle_alpha   90.04775500
_cell_angle_beta   90.00000000
_cell_angle_gamma   90.00000000
_symmetry_Int_Tables_number   1
_chemical_formula_structural   Tb3Lu7In8(PtAu)2
_chemical_formula_sum   'Tb3 Lu7 In8 Pt2 Au2'
_cell_volume   531.50262360
_cell_formula_units_Z   1
loop_
 _symmetry_equiv_pos_site_id
 _symmetry_equiv_pos_as_xyz
  1  'x, y, z'
loop_
 _atom_site_type_symbol
 _atom_site_label
 _atom_site_symmetry_multiplicity
 _atom_site_fract_x
 _atom_site_fract_y
 _atom_site_fract_z
 _atom_site_occupancy
  Tb  Tb0  1  0.000000  0.120320  0.420122  1
  Tb  Tb1  1  0.000000  0.000060  0.999902  1
  Tb  Tb2  1  0.000000  0.500173  0.500085  1
  Lu  Lu3  1  0.000000  0.880410  0.581743  1
  Lu  Lu4  1  0.000000  0.383672  0.915530  1
  Lu  Lu5  1  0.000000  0.616436  0.084443  1
  Lu  Lu6  1  0.000000  0.257032  0.217158  1
  Lu  Lu7  1  0.000000  0.743261  0.782707  1
  Lu  Lu8  1  0.000000  0.266127  0.722435  1
  Lu  Lu9  1  0.000000  0.733613  0.277349  1
  In  In10  1  0.500000  0.425030  0.351275  1
  In  In11  1  0.500000  0.577218  0.648151  1
  In  In12  1  0.500000  0.076680  0.852648  1
  In  In13  1  0.500000  0.923108  0.147044  1
  In  In14  1  0.500000  0.294893  0.065388  1
  In  In15  1  0.500000  0.705029  0.934605  1
  In  In16  1  0.500000  0.208059  0.568669  1
  In  In17  1  0.500000  0.790011  0.432558  1
  Pt  Pt18  1  0.500000  0.470814  0.804359  1
  Pt  Pt19  1  0.500000  0.529627  0.195618  1
  Au  Au20  1  0.500000  0.028696  0.300164  1
  Au  Au21  1  0.500000  0.969730  0.698046  1
