# generated using pymatgen
data_Nd2Pd3AuO8
_symmetry_space_group_name_H-M   'P 1'
_cell_length_a   6.62142040
_cell_length_b   6.64498029
_cell_length_c   6.68277441
_cell_angle_alpha   127.19022660
_cell_angle_beta   125.48642255
_cell_angle_gamma   79.00053509
_symmetry_Int_Tables_number   1
_chemical_formula_structural   Nd2Pd3AuO8
_chemical_formula_sum   'Nd2 Pd3 Au1 O8'
_cell_volume   184.82963636
_cell_formula_units_Z   1
loop_
 _symmetry_equiv_pos_site_id
 _symmetry_equiv_pos_as_xyz
  1  'x, y, z'
loop_
 _atom_site_type_symbol
 _atom_site_label
 _atom_site_symmetry_multiplicity
 _atom_site_fract_x
 _atom_site_fract_y
 _atom_site_fract_z
 _atom_site_occupancy
  Nd  Nd0  1  0.743797  0.246417  0.491163  1
  Nd  Nd1  1  0.006203  0.003583  0.008837  1
  Pd  Pd2  1  0.375000  0.625000  0.250000  1
  Pd  Pd3  1  0.375000  0.625000  0.750000  1
  Pd  Pd4  1  0.375000  0.125000  0.750000  1
  Au  Au5  1  0.875000  0.625000  0.250000  1
  O  O6  1  0.601797  0.956814  0.952786  1
  O  O7  1  0.399038  0.851589  0.149180  1
  O  O8  1  0.704967  0.248595  0.850782  1
  O  O9  1  0.001948  0.643865  0.043153  1
  O  O10  1  0.148203  0.293186  0.547214  1
  O  O11  1  0.350962  0.398411  0.350820  1
  O  O12  1  0.748052  0.606135  0.456847  1
  O  O13  1  0.045033  0.001405  0.649218  1
