# generated using pymatgen
data_Ho5CoAuO12
_symmetry_space_group_name_H-M   'P 1'
_cell_length_a   6.82414838
_cell_length_b   6.82414846
_cell_length_c   7.17519613
_cell_angle_alpha   74.62284824
_cell_angle_beta   74.62284900
_cell_angle_gamma   50.92443234
_symmetry_Int_Tables_number   1
_chemical_formula_structural   Ho5CoAuO12
_chemical_formula_sum   'Ho5 Co1 Au1 O12'
_cell_volume   247.95928754
_cell_formula_units_Z   1
loop_
 _symmetry_equiv_pos_site_id
 _symmetry_equiv_pos_as_xyz
  1  'x, y, z'
loop_
 _atom_site_type_symbol
 _atom_site_label
 _atom_site_symmetry_multiplicity
 _atom_site_fract_x
 _atom_site_fract_y
 _atom_site_fract_z
 _atom_site_occupancy
  Ho  Ho0  1  0.294394  0.306698  0.359397  1
  Ho  Ho1  1  0.693302  0.705606  0.640603  1
  Ho  Ho2  1  0.306500  0.304893  0.834115  1
  Ho  Ho3  1  0.695107  0.693500  0.165885  1
  Ho  Ho4  1  0.003323  0.996677  0.500000  1
  Co  Co5  1  0.249107  0.750893  0.000000  1
  Au  Au6  1  0.755895  0.244105  0.000000  1
  O  O7  1  0.906474  0.433956  0.914750  1
  O  O8  1  0.419803  0.899047  0.919089  1
  O  O9  1  0.100953  0.580197  0.080911  1
  O  O10  1  0.566044  0.093526  0.085250  1
  O  O11  1  0.096453  0.599207  0.574119  1
  O  O12  1  0.598095  0.098604  0.574522  1
  O  O13  1  0.901396  0.401905  0.425478  1
  O  O14  1  0.400793  0.903547  0.425881  1
  O  O15  1  0.017408  0.982728  0.818888  1
  O  O16  1  0.017272  0.982592  0.181112  1
  O  O17  1  0.489243  0.511562  0.815689  1
  O  O18  1  0.488438  0.510757  0.184311  1
