# generated using pymatgen
data_Dy4Er5TmIr4
_symmetry_space_group_name_H-M   'P 1'
_cell_length_a   6.45028207
_cell_length_b   7.18339280
_cell_length_c   8.45767380
_cell_angle_alpha   96.59275888
_cell_angle_beta   112.41591460
_cell_angle_gamma   89.99999123
_symmetry_Int_Tables_number   1
_chemical_formula_structural   Dy4Er5TmIr4
_chemical_formula_sum   'Dy4 Er5 Tm1 Ir4'
_cell_volume   359.46991241
_cell_formula_units_Z   1
loop_
 _symmetry_equiv_pos_site_id
 _symmetry_equiv_pos_as_xyz
  1  'x, y, z'
loop_
 _atom_site_type_symbol
 _atom_site_label
 _atom_site_symmetry_multiplicity
 _atom_site_fract_x
 _atom_site_fract_y
 _atom_site_fract_z
 _atom_site_occupancy
  Dy  Dy0  1  0.970781  0.919271  0.183929  1
  Dy  Dy1  1  0.786852  0.580729  0.816071  1
  Dy  Dy2  1  0.029145  0.080924  0.816120  1
  Dy  Dy3  1  0.213027  0.419076  0.183880  1
  Er  Er4  1  0.652798  0.817649  0.441358  1
  Er  Er5  1  0.211438  0.682351  0.558642  1
  Er  Er6  1  0.347403  0.182423  0.558814  1
  Er  Er7  1  0.788590  0.317577  0.441186  1
  Er  Er8  1  0.427541  0.750000  0.000000  1
  Tm  Tm9  1  0.572204  0.250000  0.000000  1
  Ir  Ir10  1  0.823326  0.573028  0.219791  1
  Ir  Ir11  1  0.603535  0.926972  0.780209  1
  Ir  Ir12  1  0.176802  0.426577  0.780242  1
  Ir  Ir13  1  0.396559  0.073423  0.219758  1
