# generated using pymatgen
data_Sc3SiTc2P2Ru
_symmetry_space_group_name_H-M   'P 1'
_cell_length_a   6.80136546
_cell_length_b   6.80136598
_cell_length_c   3.45882300
_cell_angle_alpha   90.00000000
_cell_angle_beta   90.00000000
_cell_angle_gamma   120.26720305
_symmetry_Int_Tables_number   1
_chemical_formula_structural   Sc3SiTc2P2Ru
_chemical_formula_sum   'Sc3 Si1 Tc2 P2 Ru1'
_cell_volume   138.18966794
_cell_formula_units_Z   1
loop_
 _symmetry_equiv_pos_site_id
 _symmetry_equiv_pos_as_xyz
  1  'x, y, z'
loop_
 _atom_site_type_symbol
 _atom_site_label
 _atom_site_symmetry_multiplicity
 _atom_site_fract_x
 _atom_site_fract_y
 _atom_site_fract_z
 _atom_site_occupancy
  Sc  Sc0  1  0.405927  0.405927  0.500000  1
  Sc  Sc1  1  0.593884  0.001653  0.500000  1
  Sc  Sc2  1  0.001653  0.593884  0.500000  1
  Si  Si3  1  0.999880  0.999880  0.500000  1
  Tc  Tc4  1  0.999945  0.254619  0.000000  1
  Tc  Tc5  1  0.254619  0.999945  0.000000  1
  P  P6  1  0.666954  0.332695  0.000000  1
  P  P7  1  0.332695  0.666954  0.000000  1
  Ru  Ru8  1  0.744443  0.744443  0.000000  1
