# generated using pymatgen
data_Ca12Yb2TlInN8
_symmetry_space_group_name_H-M   'P 1'
_cell_length_a   3.59518100
_cell_length_b   12.08482481
_cell_length_c   11.67577278
_cell_angle_alpha   89.95798906
_cell_angle_beta   90.00000000
_cell_angle_gamma   90.00000000
_symmetry_Int_Tables_number   1
_chemical_formula_structural   Ca12Yb2TlInN8
_chemical_formula_sum   'Ca12 Yb2 Tl1 In1 N8'
_cell_volume   507.27871147
_cell_formula_units_Z   1
loop_
 _symmetry_equiv_pos_site_id
 _symmetry_equiv_pos_as_xyz
  1  'x, y, z'
loop_
 _atom_site_type_symbol
 _atom_site_label
 _atom_site_symmetry_multiplicity
 _atom_site_fract_x
 _atom_site_fract_y
 _atom_site_fract_z
 _atom_site_occupancy
  Ca  Ca0  1  0.498783  0.670587  0.234184  1
  Ca  Ca1  1  0.498783  0.329413  0.765816  1
  Ca  Ca2  1  0.501150  0.170272  0.265297  1
  Ca  Ca3  1  0.501150  0.829728  0.734703  1
  Ca  Ca4  1  0.000624  0.928373  0.267656  1
  Ca  Ca5  1  0.000624  0.071627  0.732344  1
  Ca  Ca6  1  0.999280  0.428141  0.231934  1
  Ca  Ca7  1  0.999280  0.571859  0.768066  1
  Ca  Ca8  1  0.001596  0.766868  0.479051  1
  Ca  Ca9  1  0.001596  0.233132  0.520949  1
  Ca  Ca10  1  0.998316  0.266388  0.021040  1
  Ca  Ca11  1  0.998316  0.733612  0.978960  1
  Yb  Yb12  1  0.498767  0.500000  0.000000  1
  Yb  Yb13  1  0.501175  0.000000  0.500000  1
  Tl  Tl14  1  0.512518  0.500000  0.500000  1
  In  In15  1  0.488266  0.000000  0.000000  1
  N  N16  1  0.998431  0.599711  0.127837  1
  N  N17  1  0.998431  0.400289  0.872163  1
  N  N18  1  0.001512  0.099813  0.372462  1
  N  N19  1  0.001512  0.900187  0.627538  1
  N  N20  1  0.501107  0.830845  0.359148  1
  N  N21  1  0.501107  0.169155  0.640852  1
  N  N22  1  0.498839  0.331330  0.141218  1
  N  N23  1  0.498839  0.668670  0.858782  1
