# generated using pymatgen
data_Tm3Zr(Al3Ir)6
_symmetry_space_group_name_H-M   'P 1'
_cell_length_a   7.52643604
_cell_length_b   7.51806179
_cell_length_c   9.38778700
_cell_angle_alpha   90.00000000
_cell_angle_beta   90.00000000
_cell_angle_gamma   119.61914471
_symmetry_Int_Tables_number   1
_chemical_formula_structural   Tm3Zr(Al3Ir)6
_chemical_formula_sum   'Tm3 Zr1 Al18 Ir6'
_cell_volume   461.78846288
_cell_formula_units_Z   1
loop_
 _symmetry_equiv_pos_site_id
 _symmetry_equiv_pos_as_xyz
  1  'x, y, z'
loop_
 _atom_site_type_symbol
 _atom_site_label
 _atom_site_symmetry_multiplicity
 _atom_site_fract_x
 _atom_site_fract_y
 _atom_site_fract_z
 _atom_site_occupancy
  Tm  Tm0  1  0.006013  0.327332  0.750000  1
  Tm  Tm1  1  0.671315  0.995666  0.250000  1
  Tm  Tm2  1  0.328647  0.006633  0.750000  1
  Zr  Zr3  1  0.996246  0.671652  0.250000  1
  Al  Al4  1  0.125749  0.123564  0.250000  1
  Al  Al5  1  0.871060  0.869824  0.750000  1
  Al  Al6  1  0.999954  0.337314  0.078408  1
  Al  Al7  1  0.999701  0.664945  0.928422  1
  Al  Al8  1  0.999701  0.664945  0.571578  1
  Al  Al9  1  0.332893  0.998294  0.421388  1
  Al  Al10  1  0.999954  0.337314  0.421592  1
  Al  Al11  1  0.664504  0.998769  0.575225  1
  Al  Al12  1  0.664504  0.998769  0.924775  1
  Al  Al13  1  0.332893  0.998294  0.078612  1
  Al  Al14  1  0.333628  0.333703  0.552036  1
  Al  Al15  1  0.668908  0.667334  0.443018  1
  Al  Al16  1  0.668908  0.667334  0.056982  1
  Al  Al17  1  0.333628  0.333703  0.947964  1
  Al  Al18  1  0.336232  0.549971  0.250000  1
  Al  Al19  1  0.660748  0.451525  0.750000  1
  Al  Al20  1  0.554642  0.343551  0.250000  1
  Al  Al21  1  0.450390  0.659443  0.750000  1
  Ir  Ir22  1  0.672318  0.327617  0.000529  1
  Ir  Ir23  1  0.327898  0.672488  0.001188  1
  Ir  Ir24  1  0.327898  0.672488  0.498812  1
  Ir  Ir25  1  0.672318  0.327617  0.499471  1
  Ir  Ir26  1  0.999677  0.999955  0.000400  1
  Ir  Ir27  1  0.999677  0.999955  0.499600  1
