# generated using pymatgen
data_Tb6Co2Re(P4Rh5)3
_symmetry_space_group_name_H-M   'P 1'
_cell_length_a   3.87255500
_cell_length_b   11.13501500
_cell_length_c   12.79848800
_cell_angle_alpha   90.00000000
_cell_angle_beta   90.00000000
_cell_angle_gamma   90.00000000
_symmetry_Int_Tables_number   1
_chemical_formula_structural   Tb6Co2Re(P4Rh5)3
_chemical_formula_sum   'Tb6 Co2 Re1 P12 Rh15'
_cell_volume   551.88306368
_cell_formula_units_Z   1
loop_
 _symmetry_equiv_pos_site_id
 _symmetry_equiv_pos_as_xyz
  1  'x, y, z'
loop_
 _atom_site_type_symbol
 _atom_site_label
 _atom_site_symmetry_multiplicity
 _atom_site_fract_x
 _atom_site_fract_y
 _atom_site_fract_z
 _atom_site_occupancy
  Tb  Tb0  1  0.000000  0.500000  0.520450  1
  Tb  Tb1  1  0.500000  0.000000  0.477957  1
  Tb  Tb2  1  0.500000  0.814807  0.203275  1
  Tb  Tb3  1  0.500000  0.185193  0.203275  1
  Tb  Tb4  1  0.000000  0.683581  0.798888  1
  Tb  Tb5  1  0.000000  0.316419  0.798888  1
  Co  Co6  1  0.000000  0.500000  0.992081  1
  Co  Co7  1  0.500000  0.000000  0.019928  1
  Re  Re8  1  0.500000  0.500000  0.157738  1
  P  P9  1  0.500000  0.500000  0.880969  1
  P  P10  1  0.000000  0.000000  0.118354  1
  P  P11  1  0.500000  0.500000  0.345567  1
  P  P12  1  0.000000  0.000000  0.649969  1
  P  P13  1  0.500000  0.315917  0.619223  1
  P  P14  1  0.500000  0.684083  0.619223  1
  P  P15  1  0.000000  0.185529  0.380791  1
  P  P16  1  0.000000  0.814471  0.380791  1
  P  P17  1  0.500000  0.854617  0.894763  1
  P  P18  1  0.500000  0.145383  0.894763  1
  P  P19  1  0.000000  0.648530  0.106546  1
  P  P20  1  0.000000  0.351470  0.106546  1
  Rh  Rh21  1  0.000000  0.000000  0.834100  1
  Rh  Rh22  1  0.500000  0.500000  0.702673  1
  Rh  Rh23  1  0.000000  0.000000  0.296421  1
  Rh  Rh24  1  0.500000  0.335738  0.989981  1
  Rh  Rh25  1  0.500000  0.664262  0.989981  1
  Rh  Rh26  1  0.000000  0.164542  0.008815  1
  Rh  Rh27  1  0.000000  0.835458  0.008815  1
  Rh  Rh28  1  0.500000  0.294690  0.430967  1
  Rh  Rh29  1  0.500000  0.705310  0.430967  1
  Rh  Rh30  1  0.000000  0.204246  0.568859  1
  Rh  Rh31  1  0.000000  0.795754  0.568859  1
  Rh  Rh32  1  0.500000  0.873305  0.711883  1
  Rh  Rh33  1  0.500000  0.126695  0.711883  1
  Rh  Rh34  1  0.000000  0.624014  0.287906  1
  Rh  Rh35  1  0.000000  0.375986  0.287906  1
