# generated using pymatgen
data_Pr15NdCd4(TcPd)2
_symmetry_space_group_name_H-M   'P 1'
_cell_length_a   10.06364783
_cell_length_b   10.06364838
_cell_length_c   10.19416988
_cell_angle_alpha   59.53089610
_cell_angle_beta   59.53089238
_cell_angle_gamma   59.27370271
_symmetry_Int_Tables_number   1
_chemical_formula_structural   Pr15NdCd4(TcPd)2
_chemical_formula_sum   'Pr15 Nd1 Cd4 Tc2 Pd2'
_cell_volume   720.81694730
_cell_formula_units_Z   1
loop_
 _symmetry_equiv_pos_site_id
 _symmetry_equiv_pos_as_xyz
  1  'x, y, z'
loop_
 _atom_site_type_symbol
 _atom_site_label
 _atom_site_symmetry_multiplicity
 _atom_site_fract_x
 _atom_site_fract_y
 _atom_site_fract_z
 _atom_site_occupancy
  Pr  Pr0  1  0.347794  0.347794  0.948439  1
  Pr  Pr1  1  0.343017  0.958199  0.349489  1
  Pr  Pr2  1  0.958199  0.343017  0.349489  1
  Pr  Pr3  1  0.815107  0.190592  0.190978  1
  Pr  Pr4  1  0.190354  0.815171  0.803482  1
  Pr  Pr5  1  0.190592  0.815107  0.190978  1
  Pr  Pr6  1  0.815171  0.190354  0.803482  1
  Pr  Pr7  1  0.190742  0.190742  0.809113  1
  Pr  Pr8  1  0.805794  0.805794  0.194178  1
  Pr  Pr9  1  0.937234  0.556428  0.566258  1
  Pr  Pr10  1  0.556658  0.936793  0.939870  1
  Pr  Pr11  1  0.556428  0.937234  0.566258  1
  Pr  Pr12  1  0.936793  0.556658  0.939870  1
  Pr  Pr13  1  0.562295  0.562295  0.937714  1
  Pr  Pr14  1  0.939618  0.939618  0.560170  1
  Nd  Nd15  1  0.347490  0.347490  0.356111  1
  Cd  Cd16  1  0.579722  0.579722  0.579576  1
  Cd  Cd17  1  0.579378  0.579378  0.261033  1
  Cd  Cd18  1  0.580094  0.259708  0.579607  1
  Cd  Cd19  1  0.259708  0.580094  0.579607  1
  Tc  Tc20  1  0.142485  0.142485  0.132600  1
  Tc  Tc21  1  0.143113  0.143113  0.582170  1
  Pd  Pd22  1  0.147791  0.574423  0.139764  1
  Pd  Pd23  1  0.574423  0.147791  0.139764  1
