# generated using pymatgen
data_Mn15Cr5Ni(WC3)2
_symmetry_space_group_name_H-M   'P 1'
_cell_length_a   7.42651082
_cell_length_b   7.42822931
_cell_length_c   7.42358250
_cell_angle_alpha   60.06194687
_cell_angle_beta   60.01903302
_cell_angle_gamma   60.01447343
_symmetry_Int_Tables_number   1
_chemical_formula_structural   Mn15Cr5Ni(WC3)2
_chemical_formula_sum   'Mn15 Cr5 Ni1 W2 C6'
_cell_volume   289.78880189
_cell_formula_units_Z   1
loop_
 _symmetry_equiv_pos_site_id
 _symmetry_equiv_pos_as_xyz
  1  'x, y, z'
loop_
 _atom_site_type_symbol
 _atom_site_label
 _atom_site_symmetry_multiplicity
 _atom_site_fract_x
 _atom_site_fract_y
 _atom_site_fract_z
 _atom_site_occupancy
  Mn  Mn0  1  0.615586  0.614946  0.152200  1
  Mn  Mn1  1  0.616969  0.152256  0.615179  1
  Mn  Mn2  1  0.152342  0.617408  0.615369  1
  Mn  Mn3  1  0.614969  0.615991  0.616417  1
  Mn  Mn4  1  0.384047  0.382956  0.848575  1
  Mn  Mn5  1  0.383442  0.849000  0.382469  1
  Mn  Mn6  1  0.849136  0.383543  0.382935  1
  Mn  Mn7  1  0.384871  0.383129  0.383869  1
  Mn  Mn8  1  0.001084  0.999606  0.337464  1
  Mn  Mn9  1  0.663230  0.999206  0.338291  1
  Mn  Mn10  1  0.997990  0.663431  0.338643  1
  Mn  Mn11  1  0.662377  0.336854  0.999602  1
  Mn  Mn12  1  0.999792  0.337856  0.999897  1
  Mn  Mn13  1  0.998360  0.339523  0.662989  1
  Mn  Mn14  1  0.338162  0.660175  0.001097  1
  Cr  Cr15  1  0.337317  0.000112  0.663407  1
  Cr  Cr16  1  0.335402  0.001239  0.998710  1
  Cr  Cr17  1  0.000252  0.999538  0.662410  1
  Cr  Cr18  1  0.000147  0.663196  0.001339  1
  Cr  Cr19  1  0.663997  0.000460  0.000372  1
  Ni  Ni20  1  0.999976  0.999990  0.000245  1
  W  W21  1  0.750520  0.749078  0.749526  1
  W  W22  1  0.250531  0.250038  0.249889  1
  C  C23  1  0.720676  0.722314  0.280997  1
  C  C24  1  0.274824  0.721883  0.277867  1
  C  C25  1  0.725518  0.274387  0.274869  1
  C  C26  1  0.275623  0.281310  0.721138  1
  C  C27  1  0.722462  0.280120  0.722444  1
  C  C28  1  0.280397  0.720454  0.721790  1
