# generated using pymatgen
data_Tm8Re3RuC8
_symmetry_space_group_name_H-M   'P 1'
_cell_length_a   5.02629500
_cell_length_b   6.50499885
_cell_length_c   9.70719118
_cell_angle_alpha   89.91124588
_cell_angle_beta   90.00000000
_cell_angle_gamma   90.00000000
_symmetry_Int_Tables_number   1
_chemical_formula_structural   Tm8Re3RuC8
_chemical_formula_sum   'Tm8 Re3 Ru1 C8'
_cell_volume   317.38636150
_cell_formula_units_Z   1
loop_
 _symmetry_equiv_pos_site_id
 _symmetry_equiv_pos_as_xyz
  1  'x, y, z'
loop_
 _atom_site_type_symbol
 _atom_site_label
 _atom_site_symmetry_multiplicity
 _atom_site_fract_x
 _atom_site_fract_y
 _atom_site_fract_z
 _atom_site_occupancy
  Tm  Tm0  1  0.250000  0.828225  0.942549  1
  Tm  Tm1  1  0.250000  0.323110  0.559008  1
  Tm  Tm2  1  0.750000  0.176945  0.058343  1
  Tm  Tm3  1  0.750000  0.676314  0.442526  1
  Tm  Tm4  1  0.250000  0.466709  0.215101  1
  Tm  Tm5  1  0.250000  0.966564  0.283836  1
  Tm  Tm6  1  0.750000  0.531359  0.786599  1
  Tm  Tm7  1  0.750000  0.033315  0.715626  1
  Re  Re8  1  0.250000  0.782477  0.631736  1
  Re  Re9  1  0.750000  0.719332  0.131055  1
  Re  Re10  1  0.750000  0.219030  0.369458  1
  Ru  Ru11  1  0.250000  0.281929  0.868074  1
  C  C12  1  0.250000  0.047741  0.740023  1
  C  C13  1  0.250000  0.550253  0.756940  1
  C  C14  1  0.750000  0.950932  0.259693  1
  C  C15  1  0.750000  0.451536  0.240690  1
  C  C16  1  0.250000  0.672134  0.445419  1
  C  C17  1  0.250000  0.170383  0.053448  1
  C  C18  1  0.750000  0.325847  0.555675  1
  C  C19  1  0.750000  0.825865  0.944201  1
