# generated using pymatgen
data_Re4TcMoPt2
_symmetry_space_group_name_H-M   'P 1'
_cell_length_a   5.62246931
_cell_length_b   5.61352312
_cell_length_c   4.43988900
_cell_angle_alpha   90.00000000
_cell_angle_beta   90.00000000
_cell_angle_gamma   120.15666250
_symmetry_Int_Tables_number   1
_chemical_formula_structural   Re4TcMoPt2
_chemical_formula_sum   'Re4 Tc1 Mo1 Pt2'
_cell_volume   121.16511386
_cell_formula_units_Z   1
loop_
 _symmetry_equiv_pos_site_id
 _symmetry_equiv_pos_as_xyz
  1  'x, y, z'
loop_
 _atom_site_type_symbol
 _atom_site_label
 _atom_site_symmetry_multiplicity
 _atom_site_fract_x
 _atom_site_fract_y
 _atom_site_fract_z
 _atom_site_occupancy
  Re  Re0  1  0.683894  0.842558  0.250000  1
  Re  Re1  1  0.158080  0.841929  0.250000  1
  Re  Re2  1  0.841263  0.684022  0.750000  1
  Re  Re3  1  0.315783  0.156169  0.750000  1
  Tc  Tc4  1  0.840485  0.155517  0.750000  1
  Mo  Mo5  1  0.158240  0.318489  0.250000  1
  Pt  Pt6  1  0.334994  0.668048  0.750000  1
  Pt  Pt7  1  0.667261  0.333268  0.250000  1
