# generated using pymatgen
data_Eu2Ga8SiIr3
_symmetry_space_group_name_H-M   'P 1'
_cell_length_a   7.59191310
_cell_length_b   7.54548453
_cell_length_c   9.70004440
_cell_angle_alpha   89.96178283
_cell_angle_beta   89.88627251
_cell_angle_gamma   119.73526223
_symmetry_Int_Tables_number   1
_chemical_formula_structural   Eu2Ga8SiIr3
_chemical_formula_sum   'Eu4 Ga16 Si2 Ir6'
_cell_volume   482.49571412
_cell_formula_units_Z   2
loop_
 _symmetry_equiv_pos_site_id
 _symmetry_equiv_pos_as_xyz
  1  'x, y, z'
loop_
 _atom_site_type_symbol
 _atom_site_label
 _atom_site_symmetry_multiplicity
 _atom_site_fract_x
 _atom_site_fract_y
 _atom_site_fract_z
 _atom_site_occupancy
  Eu  Eu0  1  0.996777  0.665419  0.247749  1
  Eu  Eu1  1  0.003223  0.334581  0.752251  1
  Eu  Eu2  1  0.673689  0.003163  0.247690  1
  Eu  Eu3  1  0.326311  0.996837  0.752310  1
  Ga  Ga4  1  0.130626  0.130796  0.249408  1
  Ga  Ga5  1  0.869374  0.869204  0.750592  1
  Ga  Ga6  1  0.998587  0.665563  0.573554  1
  Ga  Ga7  1  0.334575  0.000202  0.423729  1
  Ga  Ga8  1  0.001413  0.334437  0.426446  1
  Ga  Ga9  1  0.665425  0.999798  0.576271  1
  Ga  Ga10  1  0.661237  0.995377  0.921570  1
  Ga  Ga11  1  0.338763  0.004623  0.078430  1
  Ga  Ga12  1  0.333827  0.332337  0.562438  1
  Ga  Ga13  1  0.666173  0.667663  0.437562  1
  Ga  Ga14  1  0.660869  0.667042  0.064324  1
  Ga  Ga15  1  0.339131  0.332958  0.935676  1
  Ga  Ga16  1  0.336733  0.544630  0.249059  1
  Ga  Ga17  1  0.663267  0.455370  0.750941  1
  Ga  Ga18  1  0.545794  0.338752  0.249296  1
  Ga  Ga19  1  0.454206  0.661248  0.750704  1
  Si  Si20  1  0.002624  0.329994  0.068182  1
  Si  Si21  1  0.997376  0.670006  0.931818  1
  Ir  Ir22  1  0.695026  0.343498  0.001639  1
  Ir  Ir23  1  0.304974  0.656502  0.998361  1
  Ir  Ir24  1  0.329976  0.669424  0.499923  1
  Ir  Ir25  1  0.670024  0.330576  0.500077  1
  Ir  Ir26  1  0.000000  0.000000  0.000000  1
  Ir  Ir27  1  0.000000  0.000000  0.500000  1
