# generated using pymatgen
data_Nd6RuPtBr6
_symmetry_space_group_name_H-M   'P 1'
_cell_length_a   10.55087044
_cell_length_b   10.55214267
_cell_length_c   10.44763164
_cell_angle_alpha   109.44019219
_cell_angle_beta   109.43512317
_cell_angle_gamma   109.93773535
_symmetry_Int_Tables_number   1
_chemical_formula_structural   Nd6RuPtBr6
_chemical_formula_sum   'Nd12 Ru2 Pt2 Br12'
_cell_volume   890.95832341
_cell_formula_units_Z   2
loop_
 _symmetry_equiv_pos_site_id
 _symmetry_equiv_pos_as_xyz
  1  'x, y, z'
loop_
 _atom_site_type_symbol
 _atom_site_label
 _atom_site_symmetry_multiplicity
 _atom_site_fract_x
 _atom_site_fract_y
 _atom_site_fract_z
 _atom_site_occupancy
  Nd  Nd0  1  0.468942  0.489750  0.231362  1
  Nd  Nd1  1  0.758359  0.237575  0.268626  1
  Nd  Nd2  1  0.758539  0.020182  0.488943  1
  Nd  Nd3  1  0.230407  0.468762  0.488945  1
  Nd  Nd4  1  0.262420  0.741613  0.231364  1
  Nd  Nd5  1  0.031237  0.269602  0.011043  1
  Nd  Nd6  1  0.010264  0.031051  0.268626  1
  Nd  Nd7  1  0.479804  0.741441  0.011044  1
  Nd  Nd8  1  0.485153  0.235152  0.470305  1
  Nd  Nd9  1  0.015587  0.484440  0.750021  1
  Nd  Nd10  1  0.264847  0.014844  0.029693  1
  Nd  Nd11  1  0.234436  0.265579  0.750021  1
  Ru  Ru12  1  0.000168  0.250169  0.500333  1
  Ru  Ru13  1  0.249823  0.499822  0.999645  1
  Pt  Pt14  1  0.249636  0.250358  0.250009  1
  Pt  Pt15  1  0.500371  0.999649  0.250008  1
  Br  Br16  1  0.250330  0.755900  0.746011  1
  Br  Br17  1  0.509882  0.504320  0.753998  1
  Br  Br18  1  0.993391  0.746898  0.997060  1
  Br  Br19  1  0.744115  0.249676  0.753994  1
  Br  Br20  1  0.995682  0.990113  0.746014  1
  Br  Br21  1  0.249850  0.996336  0.502939  1
  Br  Br22  1  0.753093  0.506605  0.502935  1
  Br  Br23  1  0.503669  0.250162  0.997062  1
  Br  Br24  1  0.754499  0.745494  0.249999  1
  Br  Br25  1  0.745987  0.995987  0.991974  1
  Br  Br26  1  0.995500  0.504505  0.249997  1
  Br  Br27  1  0.504013  0.754013  0.508026  1
