# generated using pymatgen
data_La2Nd2ReTcC4
_symmetry_space_group_name_H-M   'P 1'
_cell_length_a   5.42857800
_cell_length_b   6.75046500
_cell_length_c   10.29068000
_cell_angle_alpha   90.00000000
_cell_angle_beta   90.00000000
_cell_angle_gamma   90.00000000
_symmetry_Int_Tables_number   1
_chemical_formula_structural   La2Nd2ReTcC4
_chemical_formula_sum   'La4 Nd4 Re2 Tc2 C8'
_cell_volume   377.10635026
_cell_formula_units_Z   2
loop_
 _symmetry_equiv_pos_site_id
 _symmetry_equiv_pos_as_xyz
  1  'x, y, z'
loop_
 _atom_site_type_symbol
 _atom_site_label
 _atom_site_symmetry_multiplicity
 _atom_site_fract_x
 _atom_site_fract_y
 _atom_site_fract_z
 _atom_site_occupancy
  La  La0  1  0.250000  0.472882  0.786144  1
  La  La1  1  0.750000  0.027118  0.286144  1
  La  La2  1  0.250000  0.974855  0.711995  1
  La  La3  1  0.750000  0.525145  0.211995  1
  Nd  Nd4  1  0.250000  0.815367  0.051295  1
  Nd  Nd5  1  0.750000  0.684633  0.551295  1
  Nd  Nd6  1  0.250000  0.313759  0.447389  1
  Nd  Nd7  1  0.750000  0.186241  0.947389  1
  Re  Re8  1  0.250000  0.770342  0.356820  1
  Re  Re9  1  0.750000  0.729658  0.856820  1
  Tc  Tc10  1  0.250000  0.269876  0.143337  1
  Tc  Tc11  1  0.750000  0.230124  0.643337  1
  C  C12  1  0.250000  0.686712  0.535658  1
  C  C13  1  0.750000  0.813288  0.035658  1
  C  C14  1  0.250000  0.186453  0.965819  1
  C  C15  1  0.750000  0.313547  0.465819  1
  C  C16  1  0.250000  0.032993  0.258872  1
  C  C17  1  0.750000  0.467007  0.758872  1
  C  C18  1  0.250000  0.535598  0.242670  1
  C  C19  1  0.750000  0.964402  0.742670  1
