# generated using pymatgen
data_Tm4Mn15Cr4CoP12
_symmetry_space_group_name_H-M   'P 1'
_cell_length_a   3.60345000
_cell_length_b   10.57897391
_cell_length_c   12.16110117
_cell_angle_alpha   90.30605658
_cell_angle_beta   90.00000000
_cell_angle_gamma   90.00000000
_symmetry_Int_Tables_number   1
_chemical_formula_structural   Tm4Mn15Cr4CoP12
_chemical_formula_sum   'Tm4 Mn15 Cr4 Co1 P12'
_cell_volume   463.58433456
_cell_formula_units_Z   1
loop_
 _symmetry_equiv_pos_site_id
 _symmetry_equiv_pos_as_xyz
  1  'x, y, z'
loop_
 _atom_site_type_symbol
 _atom_site_label
 _atom_site_symmetry_multiplicity
 _atom_site_fract_x
 _atom_site_fract_y
 _atom_site_fract_z
 _atom_site_occupancy
  Tm  Tm0  1  0.250000  0.585956  0.705906  1
  Tm  Tm1  1  0.250000  0.914772  0.206570  1
  Tm  Tm2  1  0.750000  0.414868  0.294461  1
  Tm  Tm3  1  0.750000  0.083931  0.791866  1
  Mn  Mn4  1  0.250000  0.410682  0.493215  1
  Mn  Mn5  1  0.250000  0.090388  0.992771  1
  Mn  Mn6  1  0.750000  0.591420  0.507207  1
  Mn  Mn7  1  0.750000  0.909926  0.007069  1
  Mn  Mn8  1  0.250000  0.213666  0.179836  1
  Mn  Mn9  1  0.250000  0.284285  0.678609  1
  Mn  Mn10  1  0.750000  0.786474  0.819412  1
  Mn  Mn11  1  0.750000  0.714652  0.320514  1
  Mn  Mn12  1  0.250000  0.879918  0.696440  1
  Mn  Mn13  1  0.250000  0.618907  0.194793  1
  Mn  Mn14  1  0.750000  0.118110  0.304981  1
  Mn  Mn15  1  0.750000  0.381372  0.805259  1
  Mn  Mn16  1  0.250000  0.465324  0.934835  1
  Mn  Mn17  1  0.250000  0.034103  0.433050  1
  Mn  Mn18  1  0.750000  0.534658  0.065431  1
  Cr  Cr19  1  0.250000  0.709680  0.983929  1
  Cr  Cr20  1  0.250000  0.794283  0.485564  1
  Cr  Cr21  1  0.750000  0.290610  0.016268  1
  Cr  Cr22  1  0.750000  0.207451  0.516191  1
  Co  Co23  1  0.750000  0.963464  0.565821  1
  P  P24  1  0.250000  0.412804  0.116314  1
  P  P25  1  0.250000  0.081462  0.612716  1
  P  P26  1  0.750000  0.587355  0.884088  1
  P  P27  1  0.750000  0.916300  0.386684  1
  P  P28  1  0.250000  0.262445  0.873571  1
  P  P29  1  0.250000  0.236112  0.374778  1
  P  P30  1  0.750000  0.737207  0.125513  1
  P  P31  1  0.750000  0.765439  0.625519  1
  P  P32  1  0.250000  0.595074  0.385647  1
  P  P33  1  0.250000  0.907226  0.885238  1
  P  P34  1  0.750000  0.406437  0.614876  1
  P  P35  1  0.750000  0.093238  0.115058  1
