# generated using pymatgen
data_Tb8Y2AlBi5
_symmetry_space_group_name_H-M   'P 1'
_cell_length_a   9.12727125
_cell_length_b   9.12727003
_cell_length_c   6.45028300
_cell_angle_alpha   90.00000000
_cell_angle_beta   90.00000000
_cell_angle_gamma   119.49930200
_symmetry_Int_Tables_number   1
_chemical_formula_structural   Tb8Y2AlBi5
_chemical_formula_sum   'Tb8 Y2 Al1 Bi5'
_cell_volume   467.69248908
_cell_formula_units_Z   1
loop_
 _symmetry_equiv_pos_site_id
 _symmetry_equiv_pos_as_xyz
  1  'x, y, z'
loop_
 _atom_site_type_symbol
 _atom_site_label
 _atom_site_symmetry_multiplicity
 _atom_site_fract_x
 _atom_site_fract_y
 _atom_site_fract_z
 _atom_site_occupancy
  Tb  Tb0  1  0.659684  0.335482  0.996918  1
  Tb  Tb1  1  0.335482  0.659684  0.996918  1
  Tb  Tb2  1  0.335482  0.659684  0.503082  1
  Tb  Tb3  1  0.659684  0.335482  0.503082  1
  Tb  Tb4  1  0.243767  0.012876  0.750000  1
  Tb  Tb5  1  0.012876  0.243767  0.750000  1
  Tb  Tb6  1  0.758411  0.000592  0.250000  1
  Tb  Tb7  1  0.000592  0.758411  0.250000  1
  Y  Y8  1  0.749997  0.749997  0.750000  1
  Y  Y9  1  0.239809  0.239809  0.250000  1
  Al  Al10  1  0.396171  0.396171  0.750000  1
  Bi  Bi11  1  0.611776  0.002279  0.750000  1
  Bi  Bi12  1  0.002279  0.611776  0.750000  1
  Bi  Bi13  1  0.607755  0.607755  0.250000  1
  Bi  Bi14  1  0.390086  0.996150  0.250000  1
  Bi  Bi15  1  0.996150  0.390086  0.250000  1
