# generated using pymatgen
data_YbSmLu2(B6Ru)2
_symmetry_space_group_name_H-M   'P 1'
_cell_length_a   3.63138900
_cell_length_b   9.10101036
_cell_length_c   11.50948302
_cell_angle_alpha   89.86948774
_cell_angle_beta   90.00000000
_cell_angle_gamma   90.00000000
_symmetry_Int_Tables_number   1
_chemical_formula_structural   YbSmLu2(B6Ru)2
_chemical_formula_sum   'Yb2 Sm2 Lu4 B24 Ru4'
_cell_volume   380.37947301
_cell_formula_units_Z   2
loop_
 _symmetry_equiv_pos_site_id
 _symmetry_equiv_pos_as_xyz
  1  'x, y, z'
loop_
 _atom_site_type_symbol
 _atom_site_label
 _atom_site_symmetry_multiplicity
 _atom_site_fract_x
 _atom_site_fract_y
 _atom_site_fract_z
 _atom_site_occupancy
  Yb  Yb0  1  0.000000  0.324736  0.415310  1
  Yb  Yb1  1  0.000000  0.675264  0.584690  1
  Sm  Sm2  1  0.000000  0.821894  0.086214  1
  Sm  Sm3  1  0.000000  0.178106  0.913786  1
  Lu  Lu4  1  0.000000  0.942067  0.370874  1
  Lu  Lu5  1  0.000000  0.057933  0.629126  1
  Lu  Lu6  1  0.000000  0.443058  0.131536  1
  Lu  Lu7  1  0.000000  0.556942  0.868464  1
  B  B8  1  0.500000  0.554376  0.432545  1
  B  B9  1  0.500000  0.445624  0.567455  1
  B  B10  1  0.500000  0.055396  0.068938  1
  B  B11  1  0.500000  0.944604  0.931062  1
  B  B12  1  0.500000  0.749038  0.418198  1
  B  B13  1  0.500000  0.250962  0.581802  1
  B  B14  1  0.500000  0.250553  0.083526  1
  B  B15  1  0.500000  0.749447  0.916474  1
  B  B16  1  0.500000  0.791057  0.266168  1
  B  B17  1  0.500000  0.208943  0.733832  1
  B  B18  1  0.500000  0.291565  0.235959  1
  B  B19  1  0.500000  0.708435  0.764041  1
  B  B20  1  0.500000  0.629581  0.185826  1
  B  B21  1  0.500000  0.370419  0.814174  1
  B  B22  1  0.500000  0.130672  0.315893  1
  B  B23  1  0.500000  0.869328  0.684107  1
  B  B24  1  0.500000  0.984206  0.213854  1
  B  B25  1  0.500000  0.015794  0.786146  1
  B  B26  1  0.500000  0.483131  0.288428  1
  B  B27  1  0.500000  0.516869  0.711572  1
  B  B28  1  0.500000  0.598873  0.026994  1
  B  B29  1  0.500000  0.401127  0.973006  1
  B  B30  1  0.500000  0.098438  0.473130  1
  B  B31  1  0.500000  0.901562  0.526870  1
  Ru  Ru32  1  0.000000  0.639786  0.319007  1
  Ru  Ru33  1  0.000000  0.360214  0.680993  1
  Ru  Ru34  1  0.000000  0.139192  0.180885  1
  Ru  Ru35  1  0.000000  0.860808  0.819115  1
