# generated using pymatgen
data_Na12Li8Ti(SnAs4)3
_symmetry_space_group_name_H-M   'P 1'
_cell_length_a   9.75988820
_cell_length_b   9.75988770
_cell_length_c   14.24455772
_cell_angle_alpha   89.97244979
_cell_angle_beta   89.97245132
_cell_angle_gamma   143.50189354
_symmetry_Int_Tables_number   1
_chemical_formula_structural   Na12Li8Ti(SnAs4)3
_chemical_formula_sum   'Na12 Li8 Ti1 Sn3 As12'
_cell_volume   807.06092443
_cell_formula_units_Z   1
loop_
 _symmetry_equiv_pos_site_id
 _symmetry_equiv_pos_as_xyz
  1  'x, y, z'
loop_
 _atom_site_type_symbol
 _atom_site_label
 _atom_site_symmetry_multiplicity
 _atom_site_fract_x
 _atom_site_fract_y
 _atom_site_fract_z
 _atom_site_occupancy
  Na  Na0  1  0.594550  0.934835  0.821579  1
  Na  Na1  1  0.267595  0.268468  0.322145  1
  Na  Na2  1  0.236739  0.237396  0.819903  1
  Na  Na3  1  0.731532  0.732405  0.677855  1
  Na  Na4  1  0.441312  0.100673  0.673509  1
  Na  Na5  1  0.899327  0.558688  0.326491  1
  Na  Na6  1  0.065165  0.405450  0.178421  1
  Na  Na7  1  0.408919  0.067257  0.181803  1
  Na  Na8  1  0.567936  0.907522  0.323688  1
  Na  Na9  1  0.092478  0.432064  0.676312  1
  Na  Na10  1  0.932743  0.591081  0.818197  1
  Na  Na11  1  0.762604  0.763261  0.180097  1
  Li  Li12  1  0.083653  0.916347  0.000000  1
  Li  Li13  1  0.583825  0.416175  0.500000  1
  Li  Li14  1  0.916584  0.083416  0.000000  1
  Li  Li15  1  0.755452  0.244548  0.000000  1
  Li  Li16  1  0.744921  0.255079  0.500000  1
  Li  Li17  1  0.244247  0.755753  0.000000  1
  Li  Li18  1  0.253072  0.746928  0.500000  1
  Li  Li19  1  0.416404  0.583596  0.500000  1
  Ti  Ti20  1  0.085534  0.914466  0.500000  1
  Sn  Sn21  1  0.407489  0.592511  0.000000  1
  Sn  Sn22  1  0.911999  0.088001  0.500000  1
  Sn  Sn23  1  0.592765  0.407235  0.000000  1
  As  As24  1  0.082050  0.412868  0.387448  1
  As  As25  1  0.916513  0.582140  0.114842  1
  As  As26  1  0.417860  0.083487  0.885158  1
  As  As27  1  0.587132  0.917950  0.612552  1
  As  As28  1  0.934405  0.612210  0.603991  1
  As  As29  1  0.083450  0.418271  0.886021  1
  As  As30  1  0.581729  0.916550  0.113979  1
  As  As31  1  0.387790  0.065595  0.396009  1
  As  As32  1  0.241255  0.229446  0.604046  1
  As  As33  1  0.739821  0.739405  0.893511  1
  As  As34  1  0.260595  0.260179  0.106489  1
  As  As35  1  0.770554  0.758745  0.395954  1
