# generated using pymatgen
data_Dy(Co3Si2)2
_symmetry_space_group_name_H-M   'P 1'
_cell_length_a   6.59706300
_cell_length_b   6.59706449
_cell_length_c   3.60472500
_cell_angle_alpha   90.00000000
_cell_angle_beta   90.00000000
_cell_angle_gamma   120.00000758
_symmetry_Int_Tables_number   1
_chemical_formula_structural   Dy(Co3Si2)2
_chemical_formula_sum   'Dy1 Co6 Si4'
_cell_volume   135.86390657
_cell_formula_units_Z   1
loop_
 _symmetry_equiv_pos_site_id
 _symmetry_equiv_pos_as_xyz
  1  'x, y, z'
loop_
 _atom_site_type_symbol
 _atom_site_label
 _atom_site_symmetry_multiplicity
 _atom_site_fract_x
 _atom_site_fract_y
 _atom_site_fract_z
 _atom_site_occupancy
  Dy  Dy0  1  0.000000  0.000000  0.000000  1
  Co  Co1  1  0.534155  0.068310  0.000000  1
  Co  Co2  1  0.534154  0.465845  0.000000  1
  Co  Co3  1  0.931690  0.465845  0.000000  1
  Co  Co4  1  0.204796  0.409593  0.500001  1
  Co  Co5  1  0.204797  0.795205  0.500001  1
  Co  Co6  1  0.590407  0.795205  0.500001  1
  Si  Si7  1  0.333334  0.666667  0.000000  1
  Si  Si8  1  0.398494  0.199247  0.500001  1
  Si  Si9  1  0.800754  0.199247  0.500001  1
  Si  Si10  1  0.800753  0.601506  0.500001  1
