# generated using pymatgen
data_TcIr8
_symmetry_space_group_name_H-M   'P 1'
_cell_length_a   6.12241483
_cell_length_b   6.12241449
_cell_length_c   6.12241401
_cell_angle_alpha   95.75582308
_cell_angle_beta   95.75581354
_cell_angle_gamma   143.07493462
_symmetry_Int_Tables_number   1
_chemical_formula_structural   TcIr8
_chemical_formula_sum   'Tc1 Ir8'
_cell_volume   130.77595384
_cell_formula_units_Z   1
loop_
 _symmetry_equiv_pos_site_id
 _symmetry_equiv_pos_as_xyz
  1  'x, y, z'
loop_
 _atom_site_type_symbol
 _atom_site_label
 _atom_site_symmetry_multiplicity
 _atom_site_fract_x
 _atom_site_fract_y
 _atom_site_fract_z
 _atom_site_occupancy
  Tc  Tc0  1  0.000000  0.000000  0.000000  1
  Ir  Ir1  1  0.663969  0.336030  0.000000  1
  Ir  Ir2  1  0.336030  0.663969  0.000000  1
  Ir  Ir3  1  0.663969  0.663969  0.327939  1
  Ir  Ir4  1  0.330522  0.000000  0.330522  1
  Ir  Ir5  1  0.000000  0.330522  0.330522  1
  Ir  Ir6  1  0.669477  0.000000  0.669477  1
  Ir  Ir7  1  0.000000  0.669477  0.669477  1
  Ir  Ir8  1  0.336031  0.336031  0.672062  1
