# generated using pymatgen
data_ErTm4(Hg2Pt)2
_symmetry_space_group_name_H-M   'P 1'
_cell_length_a   3.56913600
_cell_length_b   7.93467400
_cell_length_c   18.13879500
_cell_angle_alpha   90.00000000
_cell_angle_beta   90.00000000
_cell_angle_gamma   90.00000000
_symmetry_Int_Tables_number   1
_chemical_formula_structural   ErTm4(Hg2Pt)2
_chemical_formula_sum   'Er2 Tm8 Hg8 Pt4'
_cell_volume   513.68941596
_cell_formula_units_Z   2
loop_
 _symmetry_equiv_pos_site_id
 _symmetry_equiv_pos_as_xyz
  1  'x, y, z'
loop_
 _atom_site_type_symbol
 _atom_site_label
 _atom_site_symmetry_multiplicity
 _atom_site_fract_x
 _atom_site_fract_y
 _atom_site_fract_z
 _atom_site_occupancy
  Er  Er0  1  0.000000  0.000000  0.000000  1
  Er  Er1  1  0.000000  0.500000  0.500000  1
  Tm  Tm2  1  0.000000  0.111880  0.414356  1
  Tm  Tm3  1  0.000000  0.888120  0.585644  1
  Tm  Tm4  1  0.000000  0.388120  0.914356  1
  Tm  Tm5  1  0.000000  0.611880  0.085644  1
  Tm  Tm6  1  0.000000  0.237685  0.215827  1
  Tm  Tm7  1  0.000000  0.762315  0.784173  1
  Tm  Tm8  1  0.000000  0.262315  0.715827  1
  Tm  Tm9  1  0.000000  0.737685  0.284173  1
  Hg  Hg10  1  0.500000  0.420554  0.354636  1
  Hg  Hg11  1  0.500000  0.579446  0.645364  1
  Hg  Hg12  1  0.500000  0.079446  0.854636  1
  Hg  Hg13  1  0.500000  0.920554  0.145364  1
  Hg  Hg14  1  0.500000  0.288488  0.062042  1
  Hg  Hg15  1  0.500000  0.711512  0.937958  1
  Hg  Hg16  1  0.500000  0.211512  0.562042  1
  Hg  Hg17  1  0.500000  0.788488  0.437958  1
  Pt  Pt18  1  0.500000  0.025013  0.302632  1
  Pt  Pt19  1  0.500000  0.974987  0.697368  1
  Pt  Pt20  1  0.500000  0.474987  0.802632  1
  Pt  Pt21  1  0.500000  0.525013  0.197368  1
