# generated using pymatgen
data_Yb5Ce2Sm(B6Os)4
_symmetry_space_group_name_H-M   'P 1'
_cell_length_a   3.68442400
_cell_length_b   9.11253013
_cell_length_c   11.49931075
_cell_angle_alpha   90.05571815
_cell_angle_beta   90.00000000
_cell_angle_gamma   90.00000000
_symmetry_Int_Tables_number   1
_chemical_formula_structural   Yb5Ce2Sm(B6Os)4
_chemical_formula_sum   'Yb5 Ce2 Sm1 B24 Os4'
_cell_volume   386.08256044
_cell_formula_units_Z   1
loop_
 _symmetry_equiv_pos_site_id
 _symmetry_equiv_pos_as_xyz
  1  'x, y, z'
loop_
 _atom_site_type_symbol
 _atom_site_label
 _atom_site_symmetry_multiplicity
 _atom_site_fract_x
 _atom_site_fract_y
 _atom_site_fract_z
 _atom_site_occupancy
  Yb  Yb0  1  0.000000  0.177179  0.912640  1
  Yb  Yb1  1  0.000000  0.943753  0.370645  1
  Yb  Yb2  1  0.000000  0.057980  0.631443  1
  Yb  Yb3  1  0.000000  0.441236  0.129608  1
  Yb  Yb4  1  0.000000  0.556654  0.870362  1
  Ce  Ce5  1  0.000000  0.678652  0.587574  1
  Ce  Ce6  1  0.000000  0.822721  0.085497  1
  Sm  Sm7  1  0.000000  0.320363  0.413847  1
  B  B8  1  0.500000  0.555905  0.431358  1
  B  B9  1  0.500000  0.445840  0.568762  1
  B  B10  1  0.500000  0.054542  0.067501  1
  B  B11  1  0.500000  0.945447  0.931227  1
  B  B12  1  0.500000  0.750078  0.418107  1
  B  B13  1  0.500000  0.249678  0.583724  1
  B  B14  1  0.500000  0.250007  0.081526  1
  B  B15  1  0.500000  0.750781  0.917631  1
  B  B16  1  0.500000  0.790540  0.266061  1
  B  B17  1  0.500000  0.209085  0.734700  1
  B  B18  1  0.500000  0.289983  0.233231  1
  B  B19  1  0.500000  0.709371  0.766303  1
  B  B20  1  0.500000  0.629719  0.185519  1
  B  B21  1  0.500000  0.369935  0.814593  1
  B  B22  1  0.500000  0.129116  0.313869  1
  B  B23  1  0.500000  0.870296  0.686537  1
  B  B24  1  0.500000  0.983789  0.212204  1
  B  B25  1  0.500000  0.017509  0.787695  1
  B  B26  1  0.500000  0.483431  0.286029  1
  B  B27  1  0.500000  0.516516  0.712790  1
  B  B28  1  0.500000  0.596272  0.026879  1
  B  B29  1  0.500000  0.403249  0.972834  1
  B  B30  1  0.500000  0.097909  0.473066  1
  B  B31  1  0.500000  0.902453  0.527729  1
  Os  Os32  1  0.000000  0.639716  0.320242  1
  Os  Os33  1  0.000000  0.363574  0.679782  1
  Os  Os34  1  0.000000  0.137116  0.178213  1
  Os  Os35  1  0.000000  0.859607  0.820270  1
