# generated using pymatgen
data_Tb2CeTh2Pd15
_symmetry_space_group_name_H-M   'P 1'
_cell_length_a   4.18062900
_cell_length_b   4.18062900
_cell_length_c   20.84922000
_cell_angle_alpha   90.00000000
_cell_angle_beta   90.00000000
_cell_angle_gamma   90.00000000
_symmetry_Int_Tables_number   1
_chemical_formula_structural   Tb2CeTh2Pd15
_chemical_formula_sum   'Tb2 Ce1 Th2 Pd15'
_cell_volume   364.39555415
_cell_formula_units_Z   1
loop_
 _symmetry_equiv_pos_site_id
 _symmetry_equiv_pos_as_xyz
  1  'x, y, z'
loop_
 _atom_site_type_symbol
 _atom_site_label
 _atom_site_symmetry_multiplicity
 _atom_site_fract_x
 _atom_site_fract_y
 _atom_site_fract_z
 _atom_site_occupancy
  Tb  Tb0  1  0.000000  0.000000  0.604550  1
  Tb  Tb1  1  0.000000  0.000000  0.797903  1
  Ce  Ce2  1  0.000000  0.000000  0.995237  1
  Th  Th3  1  0.000000  0.000000  0.197887  1
  Th  Th4  1  0.000000  0.000000  0.403996  1
  Pd  Pd5  1  0.500000  0.500000  0.000018  1
  Pd  Pd6  1  0.500000  0.500000  0.199864  1
  Pd  Pd7  1  0.500000  0.500000  0.399322  1
  Pd  Pd8  1  0.500000  0.500000  0.600418  1
  Pd  Pd9  1  0.500000  0.500000  0.800216  1
  Pd  Pd10  1  0.500000  0.000000  0.098559  1
  Pd  Pd11  1  0.500000  0.000000  0.299896  1
  Pd  Pd12  1  0.500000  0.000000  0.501084  1
  Pd  Pd13  1  0.500000  0.000000  0.700528  1
  Pd  Pd14  1  0.500000  0.000000  0.900227  1
  Pd  Pd15  1  0.000000  0.500000  0.098559  1
  Pd  Pd16  1  0.000000  0.500000  0.299896  1
  Pd  Pd17  1  0.000000  0.500000  0.501084  1
  Pd  Pd18  1  0.000000  0.500000  0.700528  1
  Pd  Pd19  1  0.000000  0.500000  0.900227  1
