# generated using pymatgen
data_TaBe8MoOsW
_symmetry_space_group_name_H-M   'P 1'
_cell_length_a   4.44396800
_cell_length_b   4.44397007
_cell_length_c   7.33038200
_cell_angle_alpha   90.00000000
_cell_angle_beta   90.00000000
_cell_angle_gamma   119.99999944
_symmetry_Int_Tables_number   1
_chemical_formula_structural   TaBe8MoOsW
_chemical_formula_sum   'Ta1 Be8 Mo1 Os1 W1'
_cell_volume   125.37163513
_cell_formula_units_Z   1
loop_
 _symmetry_equiv_pos_site_id
 _symmetry_equiv_pos_as_xyz
  1  'x, y, z'
loop_
 _atom_site_type_symbol
 _atom_site_label
 _atom_site_symmetry_multiplicity
 _atom_site_fract_x
 _atom_site_fract_y
 _atom_site_fract_z
 _atom_site_occupancy
  Ta  Ta0  1  0.666667  0.333333  0.058434  1
  Be  Be1  1  0.000000  0.000000  0.504242  1
  Be  Be2  1  0.000000  0.000000  0.998783  1
  Be  Be3  1  0.662561  0.831280  0.252462  1
  Be  Be4  1  0.168720  0.831280  0.252462  1
  Be  Be5  1  0.168720  0.337439  0.252462  1
  Be  Be6  1  0.338254  0.169127  0.748107  1
  Be  Be7  1  0.830873  0.169127  0.748107  1
  Be  Be8  1  0.830873  0.661746  0.748107  1
  Mo  Mo9  1  0.333333  0.666667  0.562476  1
  Os  Os10  1  0.333333  0.666667  0.934487  1
  W  W11  1  0.666667  0.333333  0.439876  1
