# generated using pymatgen
data_Ba6Er2MnNiO12
_symmetry_space_group_name_H-M   'P 1'
_cell_length_a   7.13781080
_cell_length_b   7.13781091
_cell_length_c   7.13781218
_cell_angle_alpha   93.66543061
_cell_angle_beta   93.66543453
_cell_angle_gamma   93.66543089
_symmetry_Int_Tables_number   1
_chemical_formula_structural   Ba6Er2MnNiO12
_chemical_formula_sum   'Ba6 Er2 Mn1 Ni1 O12'
_cell_volume   361.32775624
_cell_formula_units_Z   1
loop_
 _symmetry_equiv_pos_site_id
 _symmetry_equiv_pos_as_xyz
  1  'x, y, z'
loop_
 _atom_site_type_symbol
 _atom_site_label
 _atom_site_symmetry_multiplicity
 _atom_site_fract_x
 _atom_site_fract_y
 _atom_site_fract_z
 _atom_site_occupancy
  Ba  Ba0  1  0.377449  0.111645  0.750889  1
  Ba  Ba1  1  0.750889  0.377450  0.111646  1
  Ba  Ba2  1  0.249110  0.622551  0.888355  1
  Ba  Ba3  1  0.622550  0.888354  0.249112  1
  Ba  Ba4  1  0.111646  0.750889  0.377450  1
  Ba  Ba5  1  0.888354  0.249111  0.622551  1
  Er  Er6  1  0.755495  0.755496  0.755495  1
  Er  Er7  1  0.244506  0.244505  0.244505  1
  Mn  Mn8  1  0.500000  0.500000  0.500000  1
  Ni  Ni9  1  0.000000  0.000000  0.000000  1
  O  O10  1  0.765813  0.586106  0.465738  1
  O  O11  1  0.586107  0.465737  0.765813  1
  O  O12  1  0.465737  0.765813  0.586107  1
  O  O13  1  0.032331  0.897462  0.709581  1
  O  O14  1  0.897461  0.709580  0.032331  1
  O  O15  1  0.709581  0.032331  0.897461  1
  O  O16  1  0.234188  0.413893  0.534263  1
  O  O17  1  0.413893  0.534262  0.234188  1
  O  O18  1  0.534262  0.234188  0.413892  1
  O  O19  1  0.967669  0.102539  0.290420  1
  O  O20  1  0.290420  0.967668  0.102538  1
  O  O21  1  0.102538  0.290419  0.967668  1
