# generated using pymatgen
data_NaLaTb5RhBr12
_symmetry_space_group_name_H-M   'P 1'
_cell_length_a   9.22940029
_cell_length_b   9.41293133
_cell_length_c   9.45920580
_cell_angle_alpha   106.66477880
_cell_angle_beta   106.41001390
_cell_angle_gamma   107.52710629
_symmetry_Int_Tables_number   1
_chemical_formula_structural   NaLaTb5RhBr12
_chemical_formula_sum   'Na1 La1 Tb5 Rh1 Br12'
_cell_volume   686.78891424
_cell_formula_units_Z   1
loop_
 _symmetry_equiv_pos_site_id
 _symmetry_equiv_pos_as_xyz
  1  'x, y, z'
loop_
 _atom_site_type_symbol
 _atom_site_label
 _atom_site_symmetry_multiplicity
 _atom_site_fract_x
 _atom_site_fract_y
 _atom_site_fract_z
 _atom_site_occupancy
  Na  Na0  1  0.499033  0.500077  0.501289  1
  La  La1  1  0.307441  0.105376  0.026298  1
  Tb  Tb2  1  0.031983  0.326573  0.113195  1
  Tb  Tb3  1  0.108480  0.028851  0.320845  1
  Tb  Tb4  1  0.703968  0.896693  0.973523  1
  Tb  Tb5  1  0.970553  0.673946  0.886621  1
  Tb  Tb6  1  0.884778  0.969094  0.675503  1
  Rh  Rh7  1  0.010058  0.003180  0.998581  1
  Br  Br8  1  0.687891  0.213639  0.073540  1
  Br  Br9  1  0.069664  0.680175  0.213000  1
  Br  Br10  1  0.208567  0.071173  0.669086  1
  Br  Br11  1  0.315439  0.769867  0.922727  1
  Br  Br12  1  0.926256  0.318892  0.785751  1
  Br  Br13  1  0.778278  0.924094  0.313098  1
  Br  Br14  1  0.449293  0.149489  0.379680  1
  Br  Br15  1  0.369193  0.463636  0.156670  1
  Br  Br16  1  0.143699  0.365007  0.445470  1
  Br  Br17  1  0.550672  0.852233  0.638753  1
  Br  Br18  1  0.632303  0.553976  0.853393  1
  Br  Br19  1  0.852452  0.634030  0.552977  1
