# generated using pymatgen
data_LaTb5Rh18
_symmetry_space_group_name_H-M   'P 1'
_cell_length_a   5.31594620
_cell_length_b   5.31788630
_cell_length_c   17.54232500
_cell_angle_alpha   90.00000000
_cell_angle_beta   90.00000000
_cell_angle_gamma   120.01921857
_symmetry_Int_Tables_number   1
_chemical_formula_structural   LaTb5Rh18
_chemical_formula_sum   'La1 Tb5 Rh18'
_cell_volume   429.39132971
_cell_formula_units_Z   1
loop_
 _symmetry_equiv_pos_site_id
 _symmetry_equiv_pos_as_xyz
  1  'x, y, z'
loop_
 _atom_site_type_symbol
 _atom_site_label
 _atom_site_symmetry_multiplicity
 _atom_site_fract_x
 _atom_site_fract_y
 _atom_site_fract_z
 _atom_site_occupancy
  La  La0  1  0.666674  0.333339  0.250000  1
  Tb  Tb1  1  0.333308  0.666650  0.542521  1
  Tb  Tb2  1  0.666627  0.333313  0.041320  1
  Tb  Tb3  1  0.666627  0.333313  0.458680  1
  Tb  Tb4  1  0.333308  0.666650  0.957479  1
  Tb  Tb5  1  0.333337  0.666668  0.750000  1
  Rh  Rh6  1  0.167460  0.334896  0.124626  1
  Rh  Rh7  1  0.832534  0.665028  0.626225  1
  Rh  Rh8  1  0.665176  0.832590  0.124636  1
  Rh  Rh9  1  0.167457  0.832572  0.124629  1
  Rh  Rh10  1  0.832533  0.167507  0.626228  1
  Rh  Rh11  1  0.335064  0.167531  0.626191  1
  Rh  Rh12  1  0.832534  0.665028  0.873775  1
  Rh  Rh13  1  0.832533  0.167507  0.873772  1
  Rh  Rh14  1  0.335064  0.167531  0.873809  1
  Rh  Rh15  1  0.665176  0.832590  0.375364  1
  Rh  Rh16  1  0.167457  0.832572  0.375371  1
  Rh  Rh17  1  0.167460  0.334896  0.375374  1
  Rh  Rh18  1  0.999884  0.999929  0.250000  1
  Rh  Rh19  1  0.999852  0.999928  0.750000  1
  Rh  Rh20  1  0.333412  0.666715  0.250000  1
  Rh  Rh21  1  0.666773  0.333385  0.750000  1
  Rh  Rh22  1  0.999874  0.999931  0.999357  1
  Rh  Rh23  1  0.999874  0.999931  0.500643  1
