# generated using pymatgen
data_MgScCo8(MoP3)2
_symmetry_space_group_name_H-M   'P 1'
_cell_length_a   3.63883900
_cell_length_b   10.31515400
_cell_length_c   11.77806600
_cell_angle_alpha   90.00000000
_cell_angle_beta   90.00000000
_cell_angle_gamma   90.00000000
_symmetry_Int_Tables_number   1
_chemical_formula_structural   MgScCo8(MoP3)2
_chemical_formula_sum   'Mg2 Sc2 Co16 Mo4 P12'
_cell_volume   442.09188232
_cell_formula_units_Z   2
loop_
 _symmetry_equiv_pos_site_id
 _symmetry_equiv_pos_as_xyz
  1  'x, y, z'
loop_
 _atom_site_type_symbol
 _atom_site_label
 _atom_site_symmetry_multiplicity
 _atom_site_fract_x
 _atom_site_fract_y
 _atom_site_fract_z
 _atom_site_occupancy
  Mg  Mg0  1  0.250000  0.578809  0.703469  1
  Mg  Mg1  1  0.250000  0.921191  0.203469  1
  Sc  Sc2  1  0.750000  0.416454  0.294293  1
  Sc  Sc3  1  0.750000  0.083546  0.794293  1
  Co  Co4  1  0.250000  0.405931  0.485314  1
  Co  Co5  1  0.250000  0.094069  0.985314  1
  Co  Co6  1  0.750000  0.591044  0.515105  1
  Co  Co7  1  0.750000  0.908956  0.015105  1
  Co  Co8  1  0.250000  0.222162  0.177885  1
  Co  Co9  1  0.250000  0.277839  0.677885  1
  Co  Co10  1  0.750000  0.780521  0.822418  1
  Co  Co11  1  0.750000  0.719479  0.322418  1
  Co  Co12  1  0.250000  0.888228  0.701335  1
  Co  Co13  1  0.250000  0.611772  0.201335  1
  Co  Co14  1  0.750000  0.111144  0.297768  1
  Co  Co15  1  0.750000  0.388856  0.797768  1
  Co  Co16  1  0.250000  0.466261  0.932899  1
  Co  Co17  1  0.250000  0.033739  0.432899  1
  Co  Co18  1  0.750000  0.535742  0.067141  1
  Co  Co19  1  0.750000  0.964258  0.567141  1
  Mo  Mo20  1  0.250000  0.710693  0.989230  1
  Mo  Mo21  1  0.250000  0.789307  0.489230  1
  Mo  Mo22  1  0.750000  0.290181  0.012324  1
  Mo  Mo23  1  0.750000  0.209819  0.512324  1
  P  P24  1  0.250000  0.420739  0.117851  1
  P  P25  1  0.250000  0.079261  0.617851  1
  P  P26  1  0.750000  0.581299  0.881118  1
  P  P27  1  0.750000  0.918701  0.381118  1
  P  P28  1  0.250000  0.265650  0.863469  1
  P  P29  1  0.250000  0.234350  0.363469  1
  P  P30  1  0.750000  0.737228  0.137585  1
  P  P31  1  0.750000  0.762772  0.637585  1
  P  P32  1  0.250000  0.592080  0.389389  1
  P  P33  1  0.250000  0.907920  0.889389  1
  P  P34  1  0.750000  0.407342  0.611406  1
  P  P35  1  0.750000  0.092658  0.111406  1
