# generated using pymatgen
data_Ho6Fe3Co13(MoP6)2
_symmetry_space_group_name_H-M   'P 1'
_cell_length_a   3.72899400
_cell_length_b   10.57444730
_cell_length_c   12.19388734
_cell_angle_alpha   90.12540262
_cell_angle_beta   90.00000000
_cell_angle_gamma   90.00000000
_symmetry_Int_Tables_number   1
_chemical_formula_structural   Ho6Fe3Co13(MoP6)2
_chemical_formula_sum   'Ho6 Fe3 Co13 Mo2 P12'
_cell_volume   480.82883008
_cell_formula_units_Z   1
loop_
 _symmetry_equiv_pos_site_id
 _symmetry_equiv_pos_as_xyz
  1  'x, y, z'
loop_
 _atom_site_type_symbol
 _atom_site_label
 _atom_site_symmetry_multiplicity
 _atom_site_fract_x
 _atom_site_fract_y
 _atom_site_fract_z
 _atom_site_occupancy
  Ho  Ho0  1  0.000000  0.501216  0.525004  1
  Ho  Ho1  1  0.500000  0.999571  0.474866  1
  Ho  Ho2  1  0.500000  0.819986  0.203450  1
  Ho  Ho3  1  0.500000  0.180834  0.203602  1
  Ho  Ho4  1  0.000000  0.680267  0.796762  1
  Ho  Ho5  1  0.000000  0.319211  0.796431  1
  Fe  Fe6  1  0.000000  0.500105  0.986246  1
  Fe  Fe7  1  0.500000  0.000321  0.013680  1
  Fe  Fe8  1  0.500000  0.295599  0.431500  1
  Co  Co9  1  0.500000  0.704379  0.431114  1
  Co  Co10  1  0.000000  0.203354  0.569848  1
  Co  Co11  1  0.000000  0.794924  0.568770  1
  Co  Co12  1  0.500000  0.877749  0.706754  1
  Co  Co13  1  0.500000  0.120965  0.706607  1
  Co  Co14  1  0.000000  0.622669  0.293068  1
  Co  Co15  1  0.000000  0.379296  0.293026  1
  Co  Co16  1  0.500000  0.331493  0.990760  1
  Co  Co17  1  0.500000  0.668848  0.991075  1
  Co  Co18  1  0.000000  0.168977  0.008893  1
  Co  Co19  1  0.000000  0.831484  0.009020  1
  Co  Co20  1  0.500000  0.499193  0.698692  1
  Co  Co21  1  0.000000  0.000701  0.301376  1
  Mo  Mo22  1  0.500000  0.500253  0.154751  1
  Mo  Mo23  1  0.000000  0.999790  0.844761  1
  P  P24  1  0.500000  0.309044  0.614840  1
  P  P25  1  0.500000  0.689656  0.616312  1
  P  P26  1  0.000000  0.192371  0.384568  1
  P  P27  1  0.000000  0.810165  0.383611  1
  P  P28  1  0.500000  0.499755  0.882292  1
  P  P29  1  0.000000  0.000603  0.117829  1
  P  P30  1  0.500000  0.845327  0.894349  1
  P  P31  1  0.500000  0.154513  0.894093  1
  P  P32  1  0.000000  0.654949  0.105842  1
  P  P33  1  0.000000  0.345762  0.105870  1
  P  P34  1  0.500000  0.496649  0.349511  1
  P  P35  1  0.000000  0.000020  0.650826  1
