# generated using pymatgen
data_U4Re4Si6MoRu2
_symmetry_space_group_name_H-M   'P 1'
_cell_length_a   7.14720391
_cell_length_b   7.14873443
_cell_length_c   7.14720275
_cell_angle_alpha   109.62673350
_cell_angle_beta   109.15190515
_cell_angle_gamma   109.62673608
_symmetry_Int_Tables_number   1
_chemical_formula_structural   U4Re4Si6MoRu2
_chemical_formula_sum   'U4 Re4 Si6 Mo1 Ru2'
_cell_volume   281.13603135
_cell_formula_units_Z   1
loop_
 _symmetry_equiv_pos_site_id
 _symmetry_equiv_pos_as_xyz
  1  'x, y, z'
loop_
 _atom_site_type_symbol
 _atom_site_label
 _atom_site_symmetry_multiplicity
 _atom_site_fract_x
 _atom_site_fract_y
 _atom_site_fract_z
 _atom_site_occupancy
  U  U0  1  0.498854  0.502182  0.498854  1
  U  U1  1  0.998595  0.997190  0.498595  1
  U  U2  1  0.498595  0.997190  0.998595  1
  U  U3  1  0.003328  0.502182  0.003328  1
  Re  Re4  1  0.500465  0.750363  0.249898  1
  Re  Re5  1  0.249780  0.499559  0.749780  1
  Re  Re6  1  0.749780  0.499559  0.249780  1
  Re  Re7  1  0.249898  0.750363  0.500465  1
  Si  Si8  1  0.311801  0.310451  0.998650  1
  Si  Si9  1  0.998650  0.310451  0.311801  1
  Si  Si10  1  0.998801  0.687261  0.688460  1
  Si  Si11  1  0.688475  0.002094  0.688475  1
  Si  Si12  1  0.313619  0.002094  0.313619  1
  Si  Si13  1  0.688460  0.687261  0.998801  1
  Mo  Mo14  1  0.999985  0.999971  0.999985  1
  Ru  Ru15  1  0.750037  0.250916  0.500878  1
  Ru  Ru16  1  0.500878  0.250916  0.750037  1
