# generated using pymatgen
data_BaFe2Sb12OsPt
_symmetry_space_group_name_H-M   'P 1'
_cell_length_a   8.08776414
_cell_length_b   8.11976764
_cell_length_c   8.11990027
_cell_angle_alpha   109.69798551
_cell_angle_beta   109.46762070
_cell_angle_gamma   109.49918073
_symmetry_Int_Tables_number   1
_chemical_formula_structural   BaFe2Sb12OsPt
_chemical_formula_sum   'Ba1 Fe2 Sb12 Os1 Pt1'
_cell_volume   409.20979990
_cell_formula_units_Z   1
loop_
 _symmetry_equiv_pos_site_id
 _symmetry_equiv_pos_as_xyz
  1  'x, y, z'
loop_
 _atom_site_type_symbol
 _atom_site_label
 _atom_site_symmetry_multiplicity
 _atom_site_fract_x
 _atom_site_fract_y
 _atom_site_fract_z
 _atom_site_occupancy
  Ba  Ba0  1  0.000000  0.000000  0.000000  1
  Fe  Fe1  1  0.000000  0.000000  0.500000  1
  Fe  Fe2  1  0.000000  0.500000  0.000000  1
  Sb  Sb3  1  0.147256  0.815371  0.646624  1
  Sb  Sb4  1  0.155891  0.499452  0.332304  1
  Sb  Sb5  1  0.498579  0.649655  0.841503  1
  Sb  Sb6  1  0.332327  0.831415  0.184755  1
  Sb  Sb7  1  0.829245  0.664582  0.163469  1
  Sb  Sb8  1  0.668192  0.844505  0.500269  1
  Sb  Sb9  1  0.170755  0.335418  0.836531  1
  Sb  Sb10  1  0.667673  0.168585  0.815245  1
  Sb  Sb11  1  0.331808  0.155495  0.499731  1
  Sb  Sb12  1  0.501421  0.350345  0.158497  1
  Sb  Sb13  1  0.844109  0.500548  0.667696  1
  Sb  Sb14  1  0.852744  0.184629  0.353376  1
  Os  Os15  1  0.500000  0.500000  0.500000  1
  Pt  Pt16  1  0.500000  0.000000  0.000000  1
