# generated using pymatgen
data_Pr7Ho13Si15Ru
_symmetry_space_group_name_H-M   'P 1'
_cell_length_a   7.56186418
_cell_length_b   7.95499667
_cell_length_c   14.90455700
_cell_angle_alpha   89.97198952
_cell_angle_beta   89.98752078
_cell_angle_gamma   89.94459955
_symmetry_Int_Tables_number   1
_chemical_formula_structural   Pr7Ho13Si15Ru
_chemical_formula_sum   'Pr7 Ho13 Si15 Ru1'
_cell_volume   896.57718198
_cell_formula_units_Z   1
loop_
 _symmetry_equiv_pos_site_id
 _symmetry_equiv_pos_as_xyz
  1  'x, y, z'
loop_
 _atom_site_type_symbol
 _atom_site_label
 _atom_site_symmetry_multiplicity
 _atom_site_fract_x
 _atom_site_fract_y
 _atom_site_fract_z
 _atom_site_occupancy
  Pr  Pr0  1  0.023106  0.821230  0.901835  1
  Pr  Pr1  1  0.474610  0.316155  0.098537  1
  Pr  Pr2  1  0.975392  0.180141  0.403151  1
  Pr  Pr3  1  0.475766  0.316501  0.403770  1
  Pr  Pr4  1  0.976730  0.179875  0.097549  1
  Pr  Pr5  1  0.521049  0.672832  0.904066  1
  Pr  Pr6  1  0.023007  0.820386  0.596904  1
  Ho  Ho7  1  0.669932  0.186571  0.626532  1
  Ho  Ho8  1  0.193705  0.326628  0.871062  1
  Ho  Ho9  1  0.317785  0.821061  0.124443  1
  Ho  Ho10  1  0.816298  0.674070  0.375881  1
  Ho  Ho11  1  0.318190  0.820415  0.376281  1
  Ho  Ho12  1  0.816722  0.674789  0.124322  1
  Ho  Ho13  1  0.670056  0.185745  0.872679  1
  Ho  Ho14  1  0.196280  0.328487  0.627256  1
  Ho  Ho15  1  0.522993  0.674996  0.598368  1
  Ho  Ho16  1  0.836470  0.510739  0.749014  1
  Ho  Ho17  1  0.353655  0.985844  0.749100  1
  Ho  Ho18  1  0.151290  0.486656  0.250405  1
  Ho  Ho19  1  0.650562  0.011029  0.250285  1
  Si  Si20  1  0.643983  0.962752  0.462998  1
  Si  Si21  1  0.145551  0.531675  0.038965  1
  Si  Si22  1  0.352199  0.027092  0.960717  1
  Si  Si23  1  0.853813  0.472733  0.540419  1
  Si  Si24  1  0.355493  0.020171  0.541361  1
  Si  Si25  1  0.859884  0.469418  0.960103  1
  Si  Si26  1  0.643667  0.967721  0.038585  1
  Si  Si27  1  0.143455  0.531070  0.460477  1
  Si  Si28  1  0.978913  0.110199  0.748842  1
  Si  Si29  1  0.521871  0.615328  0.250429  1
  Si  Si30  1  0.020118  0.883847  0.250335  1
  Si  Si31  1  0.735914  0.882155  0.748710  1
  Si  Si32  1  0.234577  0.628852  0.747738  1
  Si  Si33  1  0.271261  0.123487  0.250942  1
  Si  Si34  1  0.773011  0.374882  0.250486  1
  Ru  Ru35  1  0.482695  0.404468  0.747452  1
