# generated using pymatgen
data_TbDy2In3Ga2Co
_symmetry_space_group_name_H-M   'P 1'
_cell_length_a   7.25794903
_cell_length_b   7.25794895
_cell_length_c   4.33421400
_cell_angle_alpha   90.00000000
_cell_angle_beta   90.00000000
_cell_angle_gamma   120.01094366
_symmetry_Int_Tables_number   1
_chemical_formula_structural   TbDy2In3Ga2Co
_chemical_formula_sum   'Tb1 Dy2 In3 Ga2 Co1'
_cell_volume   197.70647970
_cell_formula_units_Z   1
loop_
 _symmetry_equiv_pos_site_id
 _symmetry_equiv_pos_as_xyz
  1  'x, y, z'
loop_
 _atom_site_type_symbol
 _atom_site_label
 _atom_site_symmetry_multiplicity
 _atom_site_fract_x
 _atom_site_fract_y
 _atom_site_fract_z
 _atom_site_occupancy
  Tb  Tb0  1  0.599087  0.599087  0.500000  1
  Dy  Dy1  1  0.400807  0.999982  0.500000  1
  Dy  Dy2  1  0.999982  0.400807  0.500000  1
  In  In3  1  0.757645  0.000077  0.000000  1
  In  In4  1  0.000077  0.757645  0.000000  1
  In  In5  1  0.242351  0.242351  0.000000  1
  Ga  Ga6  1  0.333280  0.666698  0.000000  1
  Ga  Ga7  1  0.666698  0.333280  0.000000  1
  Co  Co8  1  0.000074  0.000074  0.500000  1
