# generated using pymatgen
data_Lu4MgScSi4
_symmetry_space_group_name_H-M   'P 1'
_cell_length_a   7.08786700
_cell_length_b   7.08786700
_cell_length_c   4.13535100
_cell_angle_alpha   90.00000000
_cell_angle_beta   90.00000000
_cell_angle_gamma   90.00000000
_symmetry_Int_Tables_number   1
_chemical_formula_structural   Lu4MgScSi4
_chemical_formula_sum   'Lu4 Mg1 Sc1 Si4'
_cell_volume   207.75117884
_cell_formula_units_Z   1
loop_
 _symmetry_equiv_pos_site_id
 _symmetry_equiv_pos_as_xyz
  1  'x, y, z'
loop_
 _atom_site_type_symbol
 _atom_site_label
 _atom_site_symmetry_multiplicity
 _atom_site_fract_x
 _atom_site_fract_y
 _atom_site_fract_z
 _atom_site_occupancy
  Lu  Lu0  1  0.672631  0.181641  0.500000  1
  Lu  Lu1  1  0.327369  0.818359  0.500000  1
  Lu  Lu2  1  0.181641  0.327369  0.500000  1
  Lu  Lu3  1  0.818359  0.672631  0.500000  1
  Mg  Mg4  1  0.500000  0.500000  0.000000  1
  Sc  Sc5  1  0.000000  0.000000  0.000000  1
  Si  Si6  1  0.114579  0.626857  0.000000  1
  Si  Si7  1  0.885421  0.373143  0.000000  1
  Si  Si8  1  0.626857  0.885421  0.000000  1
  Si  Si9  1  0.373143  0.114579  0.000000  1
