# generated using pymatgen
data_Tb5Y3Ti5Si16W7
_symmetry_space_group_name_H-M   'P 1'
_cell_length_a   6.94593439
_cell_length_b   6.94083657
_cell_length_c   12.86641228
_cell_angle_alpha   89.85315431
_cell_angle_beta   90.04718220
_cell_angle_gamma   89.96255918
_symmetry_Int_Tables_number   1
_chemical_formula_structural   Tb5Y3Ti5Si16W7
_chemical_formula_sum   'Tb5 Y3 Ti5 Si16 W7'
_cell_volume   620.29501683
_cell_formula_units_Z   1
loop_
 _symmetry_equiv_pos_site_id
 _symmetry_equiv_pos_as_xyz
  1  'x, y, z'
loop_
 _atom_site_type_symbol
 _atom_site_label
 _atom_site_symmetry_multiplicity
 _atom_site_fract_x
 _atom_site_fract_y
 _atom_site_fract_z
 _atom_site_occupancy
  Tb  Tb0  1  0.839404  0.496570  0.280760  1
  Tb  Tb1  1  0.160483  0.502243  0.782555  1
  Tb  Tb2  1  0.660096  0.997532  0.968548  1
  Tb  Tb3  1  0.002964  0.339575  0.531734  1
  Tb  Tb4  1  0.996080  0.661504  0.031103  1
  Y  Y5  1  0.340472  0.003029  0.467490  1
  Y  Y6  1  0.497817  0.840138  0.718916  1
  Y  Y7  1  0.501788  0.160334  0.218622  1
  Ti  Ti8  1  0.330080  0.330268  0.999411  1
  Ti  Ti9  1  0.169367  0.829378  0.250017  1
  Ti  Ti10  1  0.828050  0.171979  0.750435  1
  Ti  Ti11  1  0.669561  0.667412  0.499054  1
  Ti  Ti12  1  0.994055  0.840572  0.625970  1
  Si  Si13  1  0.202618  0.128424  0.683872  1
  Si  Si14  1  0.372055  0.701974  0.933905  1
  Si  Si15  1  0.629558  0.298653  0.433725  1
  Si  Si16  1  0.699601  0.371273  0.066526  1
  Si  Si17  1  0.300548  0.628913  0.565308  1
  Si  Si18  1  0.798767  0.871913  0.183686  1
  Si  Si19  1  0.127539  0.200625  0.316425  1
  Si  Si20  1  0.872212  0.799673  0.815943  1
  Si  Si21  1  0.288977  0.959526  0.063130  1
  Si  Si22  1  0.540351  0.789616  0.312696  1
  Si  Si23  1  0.458790  0.210428  0.812684  1
  Si  Si24  1  0.789762  0.541935  0.687441  1
  Si  Si25  1  0.210756  0.458596  0.186634  1
  Si  Si26  1  0.710661  0.041934  0.563598  1
  Si  Si27  1  0.958800  0.289708  0.937211  1
  Si  Si28  1  0.042865  0.710373  0.437016  1
  W  W29  1  0.160559  0.008266  0.875077  1
  W  W30  1  0.492583  0.659917  0.124474  1
  W  W31  1  0.507175  0.340266  0.623675  1
  W  W32  1  0.658257  0.491630  0.877549  1
  W  W33  1  0.341851  0.504454  0.374593  1
  W  W34  1  0.839092  0.991573  0.373718  1
  W  W35  1  0.006401  0.159799  0.126497  1
