# generated using pymatgen
data_ZrSc3(VP)4
_symmetry_space_group_name_H-M   'P 1'
_cell_length_a   3.50861800
_cell_length_b   6.64783119
_cell_length_c   7.89247517
_cell_angle_alpha   90.14323020
_cell_angle_beta   90.00000000
_cell_angle_gamma   90.00000000
_symmetry_Int_Tables_number   1
_chemical_formula_structural   ZrSc3(VP)4
_chemical_formula_sum   'Zr1 Sc3 V4 P4'
_cell_volume   184.08904174
_cell_formula_units_Z   1
loop_
 _symmetry_equiv_pos_site_id
 _symmetry_equiv_pos_as_xyz
  1  'x, y, z'
loop_
 _atom_site_type_symbol
 _atom_site_label
 _atom_site_symmetry_multiplicity
 _atom_site_fract_x
 _atom_site_fract_y
 _atom_site_fract_z
 _atom_site_occupancy
  Zr  Zr0  1  0.750000  0.458825  0.333366  1
  Sc  Sc1  1  0.250000  0.041068  0.833688  1
  Sc  Sc2  1  0.750000  0.958271  0.165869  1
  Sc  Sc3  1  0.250000  0.540929  0.666526  1
  V  V4  1  0.750000  0.375298  0.945895  1
  V  V5  1  0.250000  0.625609  0.055369  1
  V  V6  1  0.750000  0.872944  0.555150  1
  V  V7  1  0.250000  0.127911  0.445212  1
  P  P8  1  0.250000  0.764234  0.361332  1
  P  P9  1  0.750000  0.237665  0.639994  1
  P  P10  1  0.250000  0.258670  0.136045  1
  P  P11  1  0.750000  0.738577  0.861553  1
