# generated using pymatgen
data_Ca3YbSc4(B6Ir)4
_symmetry_space_group_name_H-M   'P 1'
_cell_length_a   3.54701500
_cell_length_b   8.99639904
_cell_length_c   11.38896705
_cell_angle_alpha   89.98941516
_cell_angle_beta   90.00000000
_cell_angle_gamma   90.00000000
_symmetry_Int_Tables_number   1
_chemical_formula_structural   Ca3YbSc4(B6Ir)4
_chemical_formula_sum   'Ca3 Yb1 Sc4 B24 Ir4'
_cell_volume   363.42605894
_cell_formula_units_Z   1
loop_
 _symmetry_equiv_pos_site_id
 _symmetry_equiv_pos_as_xyz
  1  'x, y, z'
loop_
 _atom_site_type_symbol
 _atom_site_label
 _atom_site_symmetry_multiplicity
 _atom_site_fract_x
 _atom_site_fract_y
 _atom_site_fract_z
 _atom_site_occupancy
  Ca  Ca0  1  0.500000  0.320916  0.414255  1
  Ca  Ca1  1  0.500000  0.679057  0.585755  1
  Ca  Ca2  1  0.500000  0.179007  0.914266  1
  Yb  Yb3  1  0.500000  0.821510  0.085945  1
  Sc  Sc4  1  0.500000  0.446142  0.124418  1
  Sc  Sc5  1  0.500000  0.554152  0.875665  1
  Sc  Sc6  1  0.500000  0.054006  0.624489  1
  Sc  Sc7  1  0.500000  0.945971  0.375390  1
  B  B8  1  0.000000  0.099779  0.473215  1
  B  B9  1  0.000000  0.900199  0.526774  1
  B  B10  1  0.000000  0.400183  0.973237  1
  B  B11  1  0.000000  0.600175  0.026880  1
  B  B12  1  0.000000  0.129687  0.318073  1
  B  B13  1  0.000000  0.870237  0.681894  1
  B  B14  1  0.000000  0.370216  0.818164  1
  B  B15  1  0.000000  0.630200  0.181636  1
  B  B16  1  0.000000  0.054941  0.067379  1
  B  B17  1  0.000000  0.944149  0.933070  1
  B  B18  1  0.000000  0.444554  0.567236  1
  B  B19  1  0.000000  0.555486  0.432702  1
  B  B20  1  0.000000  0.483053  0.285282  1
  B  B21  1  0.000000  0.517038  0.714716  1
  B  B22  1  0.000000  0.016953  0.785344  1
  B  B23  1  0.000000  0.982655  0.214379  1
  B  B24  1  0.000000  0.253145  0.080892  1
  B  B25  1  0.000000  0.746966  0.919491  1
  B  B26  1  0.000000  0.246782  0.580879  1
  B  B27  1  0.000000  0.753159  0.419033  1
  B  B28  1  0.000000  0.293686  0.234670  1
  B  B29  1  0.000000  0.706308  0.765332  1
  B  B30  1  0.000000  0.206256  0.734758  1
  B  B31  1  0.000000  0.793718  0.264834  1
  Ir  Ir32  1  0.500000  0.140084  0.181643  1
  Ir  Ir33  1  0.500000  0.859324  0.818693  1
  Ir  Ir34  1  0.500000  0.359399  0.681766  1
  Ir  Ir35  1  0.500000  0.640908  0.317847  1
