# generated using pymatgen
data_CaCe2(InPt)3
_symmetry_space_group_name_H-M   'P 1'
_cell_length_a   7.60849300
_cell_length_b   7.66859422
_cell_length_c   4.04768700
_cell_angle_alpha   90.00000000
_cell_angle_beta   90.00000000
_cell_angle_gamma   119.74107617
_symmetry_Int_Tables_number   1
_chemical_formula_structural   CaCe2(InPt)3
_chemical_formula_sum   'Ca1 Ce2 In3 Pt3'
_cell_volume   205.05915659
_cell_formula_units_Z   1
loop_
 _symmetry_equiv_pos_site_id
 _symmetry_equiv_pos_as_xyz
  1  'x, y, z'
loop_
 _atom_site_type_symbol
 _atom_site_label
 _atom_site_symmetry_multiplicity
 _atom_site_fract_x
 _atom_site_fract_y
 _atom_site_fract_z
 _atom_site_occupancy
  Ca  Ca0  1  0.406292  0.000000  0.500000  1
  Ce  Ce1  1  0.589150  0.587786  0.500000  1
  Ce  Ce2  1  0.001365  0.412214  0.500000  1
  In  In3  1  0.009688  0.755262  0.000000  1
  In  In4  1  0.736810  0.000000  0.000000  1
  In  In5  1  0.254426  0.244738  0.000000  1
  Pt  Pt6  1  0.990413  0.000000  0.500000  1
  Pt  Pt7  1  0.681492  0.351128  0.000000  1
  Pt  Pt8  1  0.330363  0.648872  0.000000  1
