# generated using pymatgen
data_Zr9FeRe4
_symmetry_space_group_name_H-M   'P 1'
_cell_length_a   8.66552900
_cell_length_b   8.66560091
_cell_length_c   8.55451800
_cell_angle_alpha   90.00000000
_cell_angle_beta   90.00000000
_cell_angle_gamma   119.99972930
_symmetry_Int_Tables_number   1
_chemical_formula_structural   Zr9FeRe4
_chemical_formula_sum   'Zr18 Fe2 Re8'
_cell_volume   556.31545453
_cell_formula_units_Z   2
loop_
 _symmetry_equiv_pos_site_id
 _symmetry_equiv_pos_as_xyz
  1  'x, y, z'
loop_
 _atom_site_type_symbol
 _atom_site_label
 _atom_site_symmetry_multiplicity
 _atom_site_fract_x
 _atom_site_fract_y
 _atom_site_fract_z
 _atom_site_occupancy
  Zr  Zr0  1  0.200029  0.400058  0.058274  1
  Zr  Zr1  1  0.200034  0.799972  0.058278  1
  Zr  Zr2  1  0.599938  0.799972  0.058278  1
  Zr  Zr3  1  0.541300  0.082600  0.250000  1
  Zr  Zr4  1  0.541297  0.458695  0.250000  1
  Zr  Zr5  1  0.917399  0.458695  0.250000  1
  Zr  Zr6  1  0.200034  0.799972  0.441722  1
  Zr  Zr7  1  0.599938  0.799972  0.441722  1
  Zr  Zr8  1  0.200029  0.400058  0.441726  1
  Zr  Zr9  1  0.799971  0.599942  0.558275  1
  Zr  Zr10  1  0.400061  0.200027  0.558278  1
  Zr  Zr11  1  0.799966  0.200027  0.558278  1
  Zr  Zr12  1  0.082601  0.541305  0.750000  1
  Zr  Zr13  1  0.458703  0.541305  0.750000  1
  Zr  Zr14  1  0.458700  0.917400  0.750000  1
  Zr  Zr15  1  0.400061  0.200027  0.941722  1
  Zr  Zr16  1  0.799966  0.200027  0.941722  1
  Zr  Zr17  1  0.799971  0.599942  0.941725  1
  Fe  Fe18  1  0.333332  0.666666  0.250000  1
  Fe  Fe19  1  0.666667  0.333333  0.750000  1
  Re  Re20  1  0.000000  0.000000  0.000000  1
  Re  Re21  1  0.216584  0.108292  0.250000  1
  Re  Re22  1  0.891709  0.108292  0.250000  1
  Re  Re23  1  0.891714  0.783428  0.250000  1
  Re  Re24  1  0.000000  0.000000  0.500000  1
  Re  Re25  1  0.108286  0.216573  0.750000  1
  Re  Re26  1  0.108291  0.891708  0.750000  1
  Re  Re27  1  0.783416  0.891708  0.750000  1
