# generated using pymatgen
data_PrZn2CdCu3
_symmetry_space_group_name_H-M   'P 1'
_cell_length_a   5.13717400
_cell_length_b   8.58403600
_cell_length_c   10.83731000
_cell_angle_alpha   90.00000000
_cell_angle_beta   90.00000000
_cell_angle_gamma   90.00000000
_symmetry_Int_Tables_number   1
_chemical_formula_structural   PrZn2CdCu3
_chemical_formula_sum   'Pr4 Zn8 Cd4 Cu12'
_cell_volume   477.90029947
_cell_formula_units_Z   4
loop_
 _symmetry_equiv_pos_site_id
 _symmetry_equiv_pos_as_xyz
  1  'x, y, z'
loop_
 _atom_site_type_symbol
 _atom_site_label
 _atom_site_symmetry_multiplicity
 _atom_site_fract_x
 _atom_site_fract_y
 _atom_site_fract_z
 _atom_site_occupancy
  Pr  Pr0  1  0.747934  0.244448  0.057320  1
  Pr  Pr1  1  0.247934  0.755552  0.942680  1
  Pr  Pr2  1  0.752066  0.744448  0.442680  1
  Pr  Pr3  1  0.252066  0.255552  0.557320  1
  Zn  Zn4  1  0.750006  0.686722  0.757021  1
  Zn  Zn5  1  0.250006  0.313278  0.242979  1
  Zn  Zn6  1  0.749994  0.186722  0.742979  1
  Zn  Zn7  1  0.249994  0.813278  0.257021  1
  Zn  Zn8  1  0.506333  0.065582  0.315401  1
  Zn  Zn9  1  0.006333  0.934418  0.684599  1
  Zn  Zn10  1  0.993667  0.565582  0.184599  1
  Zn  Zn11  1  0.493667  0.434418  0.815401  1
  Cd  Cd12  1  0.751028  0.365473  0.367400  1
  Cd  Cd13  1  0.251028  0.634527  0.632600  1
  Cd  Cd14  1  0.748972  0.865473  0.132600  1
  Cd  Cd15  1  0.248972  0.134527  0.867400  1
  Cu  Cu16  1  0.746996  0.943590  0.890138  1
  Cu  Cu17  1  0.246996  0.056410  0.109862  1
  Cu  Cu18  1  0.753004  0.443590  0.609862  1
  Cu  Cu19  1  0.253004  0.556410  0.390138  1
  Cu  Cu20  1  0.746350  0.581916  0.983745  1
  Cu  Cu21  1  0.246350  0.418084  0.016255  1
  Cu  Cu22  1  0.753650  0.081916  0.516255  1
  Cu  Cu23  1  0.253650  0.918084  0.483745  1
  Cu  Cu24  1  0.498424  0.934220  0.685802  1
  Cu  Cu25  1  0.998424  0.065780  0.314198  1
  Cu  Cu26  1  0.001576  0.434220  0.814198  1
  Cu  Cu27  1  0.501576  0.565780  0.185802  1
