# generated using pymatgen
data_Y3P6Ru2Rh7
_symmetry_space_group_name_H-M   'P 1'
_cell_length_a   3.93807600
_cell_length_b   11.23991100
_cell_length_c   12.69129900
_cell_angle_alpha   90.00000000
_cell_angle_beta   90.00000000
_cell_angle_gamma   90.00000000
_symmetry_Int_Tables_number   1
_chemical_formula_structural   Y3P6Ru2Rh7
_chemical_formula_sum   'Y6 P12 Ru4 Rh14'
_cell_volume   561.76288385
_cell_formula_units_Z   2
loop_
 _symmetry_equiv_pos_site_id
 _symmetry_equiv_pos_as_xyz
  1  'x, y, z'
loop_
 _atom_site_type_symbol
 _atom_site_label
 _atom_site_symmetry_multiplicity
 _atom_site_fract_x
 _atom_site_fract_y
 _atom_site_fract_z
 _atom_site_occupancy
  Y  Y0  1  0.000000  0.500000  0.521102  1
  Y  Y1  1  0.500000  0.000000  0.478898  1
  Y  Y2  1  0.500000  0.817919  0.204900  1
  Y  Y3  1  0.500000  0.182081  0.204900  1
  Y  Y4  1  0.000000  0.682081  0.795100  1
  Y  Y5  1  0.000000  0.317919  0.795100  1
  P  P6  1  0.500000  0.500000  0.881075  1
  P  P7  1  0.000000  0.000000  0.118925  1
  P  P8  1  0.500000  0.500000  0.347186  1
  P  P9  1  0.000000  0.000000  0.652814  1
  P  P10  1  0.500000  0.314443  0.619573  1
  P  P11  1  0.500000  0.685557  0.619573  1
  P  P12  1  0.000000  0.185557  0.380427  1
  P  P13  1  0.000000  0.814443  0.380427  1
  P  P14  1  0.500000  0.847930  0.891773  1
  P  P15  1  0.500000  0.152070  0.891773  1
  P  P16  1  0.000000  0.652070  0.108227  1
  P  P17  1  0.000000  0.347930  0.108227  1
  Ru  Ru18  1  0.500000  0.500000  0.160622  1
  Ru  Ru19  1  0.000000  0.000000  0.839378  1
  Ru  Ru20  1  0.000000  0.500000  0.989603  1
  Ru  Ru21  1  0.500000  0.000000  0.010397  1
  Rh  Rh22  1  0.500000  0.500000  0.700975  1
  Rh  Rh23  1  0.000000  0.000000  0.299025  1
  Rh  Rh24  1  0.500000  0.331146  0.988482  1
  Rh  Rh25  1  0.500000  0.668854  0.988482  1
  Rh  Rh26  1  0.000000  0.168854  0.011518  1
  Rh  Rh27  1  0.000000  0.831146  0.011518  1
  Rh  Rh28  1  0.500000  0.295750  0.430995  1
  Rh  Rh29  1  0.500000  0.704250  0.430995  1
  Rh  Rh30  1  0.000000  0.204250  0.569005  1
  Rh  Rh31  1  0.000000  0.795750  0.569005  1
  Rh  Rh32  1  0.500000  0.874764  0.711298  1
  Rh  Rh33  1  0.500000  0.125236  0.711298  1
  Rh  Rh34  1  0.000000  0.625236  0.288702  1
  Rh  Rh35  1  0.000000  0.374764  0.288702  1
