# generated using pymatgen
data_AcZn2GaSi
_symmetry_space_group_name_H-M   'P 1'
_cell_length_a   6.08487005
_cell_length_b   6.08487067
_cell_length_c   6.08487156
_cell_angle_alpha   137.18866570
_cell_angle_beta   137.18867729
_cell_angle_gamma   62.14789183
_symmetry_Int_Tables_number   1
_chemical_formula_structural   AcZn2GaSi
_chemical_formula_sum   'Ac1 Zn2 Ga1 Si1'
_cell_volume   102.81439621
_cell_formula_units_Z   1
loop_
 _symmetry_equiv_pos_site_id
 _symmetry_equiv_pos_as_xyz
  1  'x, y, z'
loop_
 _atom_site_type_symbol
 _atom_site_label
 _atom_site_symmetry_multiplicity
 _atom_site_fract_x
 _atom_site_fract_y
 _atom_site_fract_z
 _atom_site_occupancy
  Ac  Ac0  1  0.996865  0.996865  0.000000  1
  Zn  Zn1  1  0.250604  0.750604  0.500000  1
  Zn  Zn2  1  0.750604  0.250604  0.500000  1
  Ga  Ga3  1  0.621098  0.621098  0.000000  1
  Si  Si4  1  0.380829  0.380829  0.000000  1
