# generated using pymatgen
data_CeMgSiIr2
_symmetry_space_group_name_H-M   'P 1'
_cell_length_a   4.07706600
_cell_length_b   4.07706600
_cell_length_c   11.23827100
_cell_angle_alpha   90.00000000
_cell_angle_beta   90.00000000
_cell_angle_gamma   90.00000000
_symmetry_Int_Tables_number   1
_chemical_formula_structural   CeMgSiIr2
_chemical_formula_sum   'Ce2 Mg2 Si2 Ir4'
_cell_volume   186.80779073
_cell_formula_units_Z   2
loop_
 _symmetry_equiv_pos_site_id
 _symmetry_equiv_pos_as_xyz
  1  'x, y, z'
loop_
 _atom_site_type_symbol
 _atom_site_label
 _atom_site_symmetry_multiplicity
 _atom_site_fract_x
 _atom_site_fract_y
 _atom_site_fract_z
 _atom_site_occupancy
  Ce  Ce0  1  0.000000  0.500000  0.238536  1
  Ce  Ce1  1  0.500000  0.000000  0.761464  1
  Mg  Mg2  1  0.000000  0.000000  0.500000  1
  Mg  Mg3  1  0.500000  0.500000  0.500000  1
  Si  Si4  1  0.000000  0.500000  0.885328  1
  Si  Si5  1  0.500000  0.000000  0.114672  1
  Ir  Ir6  1  0.000000  0.000000  0.000000  1
  Ir  Ir7  1  0.500000  0.500000  0.000000  1
  Ir  Ir8  1  0.000000  0.500000  0.671982  1
  Ir  Ir9  1  0.500000  0.000000  0.328018  1
