# generated using pymatgen
data_DyYCo2(Re2C)2
_symmetry_space_group_name_H-M   'P 1'
_cell_length_a   5.66952800
_cell_length_b   5.66953007
_cell_length_c   7.47776500
_cell_angle_alpha   90.00000000
_cell_angle_beta   90.00000000
_cell_angle_gamma   140.30759564
_symmetry_Int_Tables_number   1
_chemical_formula_structural   DyYCo2(Re2C)2
_chemical_formula_sum   'Dy1 Y1 Co2 Re4 C2'
_cell_volume   153.51098210
_cell_formula_units_Z   1
loop_
 _symmetry_equiv_pos_site_id
 _symmetry_equiv_pos_as_xyz
  1  'x, y, z'
loop_
 _atom_site_type_symbol
 _atom_site_label
 _atom_site_symmetry_multiplicity
 _atom_site_fract_x
 _atom_site_fract_y
 _atom_site_fract_z
 _atom_site_occupancy
  Dy  Dy0  1  0.534376  0.465624  0.250000  1
  Y  Y1  1  0.465600  0.534400  0.750000  1
  Co  Co2  1  0.259564  0.740436  0.250000  1
  Co  Co3  1  0.740418  0.259582  0.750000  1
  Re  Re4  1  0.822508  0.177492  0.065516  1
  Re  Re5  1  0.177491  0.822509  0.934561  1
  Re  Re6  1  0.177491  0.822509  0.565439  1
  Re  Re7  1  0.822508  0.177492  0.434484  1
  C  C8  1  0.000022  0.999978  0.000056  1
  C  C9  1  0.000022  0.999978  0.499944  1
