# generated using pymatgen
data_SmHo5Mn2(Co4P3)4
_symmetry_space_group_name_H-M   'P 1'
_cell_length_a   3.68933600
_cell_length_b   10.53371000
_cell_length_c   12.19654500
_cell_angle_alpha   90.00000000
_cell_angle_beta   90.00000000
_cell_angle_gamma   90.00000000
_symmetry_Int_Tables_number   1
_chemical_formula_structural   SmHo5Mn2(Co4P3)4
_chemical_formula_sum   'Sm1 Ho5 Mn2 Co16 P12'
_cell_volume   473.98695573
_cell_formula_units_Z   1
loop_
 _symmetry_equiv_pos_site_id
 _symmetry_equiv_pos_as_xyz
  1  'x, y, z'
loop_
 _atom_site_type_symbol
 _atom_site_label
 _atom_site_symmetry_multiplicity
 _atom_site_fract_x
 _atom_site_fract_y
 _atom_site_fract_z
 _atom_site_occupancy
  Sm  Sm0  1  0.500000  0.000000  0.476989  1
  Ho  Ho1  1  0.000000  0.500000  0.522402  1
  Ho  Ho2  1  0.500000  0.817944  0.204659  1
  Ho  Ho3  1  0.500000  0.182056  0.204659  1
  Ho  Ho4  1  0.000000  0.681590  0.794904  1
  Ho  Ho5  1  0.000000  0.318410  0.794904  1
  Mn  Mn6  1  0.500000  0.500000  0.159288  1
  Mn  Mn7  1  0.000000  0.000000  0.843455  1
  Co  Co8  1  0.500000  0.500000  0.702813  1
  Co  Co9  1  0.000000  0.000000  0.295381  1
  Co  Co10  1  0.000000  0.500000  0.986184  1
  Co  Co11  1  0.500000  0.000000  0.013546  1
  Co  Co12  1  0.500000  0.333156  0.993915  1
  Co  Co13  1  0.500000  0.666844  0.993915  1
  Co  Co14  1  0.000000  0.167260  0.006014  1
  Co  Co15  1  0.000000  0.832740  0.006014  1
  Co  Co16  1  0.500000  0.297978  0.430019  1
  Co  Co17  1  0.500000  0.702022  0.430019  1
  Co  Co18  1  0.000000  0.205252  0.569915  1
  Co  Co19  1  0.000000  0.794748  0.569915  1
  Co  Co20  1  0.500000  0.878899  0.710351  1
  Co  Co21  1  0.500000  0.121101  0.710351  1
  Co  Co22  1  0.000000  0.620222  0.290096  1
  Co  Co23  1  0.000000  0.379778  0.290096  1
  P  P24  1  0.500000  0.500000  0.882487  1
  P  P25  1  0.000000  0.000000  0.116777  1
  P  P26  1  0.500000  0.500000  0.345191  1
  P  P27  1  0.000000  0.000000  0.657425  1
  P  P28  1  0.500000  0.311604  0.616304  1
  P  P29  1  0.500000  0.688396  0.616304  1
  P  P30  1  0.000000  0.190885  0.382763  1
  P  P31  1  0.000000  0.809115  0.382763  1
  P  P32  1  0.500000  0.846765  0.893077  1
  P  P33  1  0.500000  0.153235  0.893077  1
  P  P34  1  0.000000  0.652840  0.107014  1
  P  P35  1  0.000000  0.347160  0.107014  1
