# generated using pymatgen
data_Yb3In3HgPt2
_symmetry_space_group_name_H-M   'P 1'
_cell_length_a   7.83730800
_cell_length_b   7.83730729
_cell_length_c   3.95797100
_cell_angle_alpha   90.00000000
_cell_angle_beta   90.00000000
_cell_angle_gamma   120.00000302
_symmetry_Int_Tables_number   1
_chemical_formula_structural   Yb3In3HgPt2
_chemical_formula_sum   'Yb3 In3 Hg1 Pt2'
_cell_volume   210.54116212
_cell_formula_units_Z   1
loop_
 _symmetry_equiv_pos_site_id
 _symmetry_equiv_pos_as_xyz
  1  'x, y, z'
loop_
 _atom_site_type_symbol
 _atom_site_label
 _atom_site_symmetry_multiplicity
 _atom_site_fract_x
 _atom_site_fract_y
 _atom_site_fract_z
 _atom_site_occupancy
  Yb  Yb0  1  0.414096  0.023253  0.000000  1
  Yb  Yb1  1  0.976747  0.390843  0.000000  1
  Yb  Yb2  1  0.609157  0.585904  0.000000  1
  In  In3  1  0.749371  0.008884  0.500000  1
  In  In4  1  0.991116  0.740487  0.500000  1
  In  In5  1  0.259513  0.250629  0.500000  1
  Hg  Hg6  1  0.333333  0.666667  0.500000  1
  Pt  Pt7  1  0.666667  0.333333  0.500000  1
  Pt  Pt8  1  0.000000  0.000000  0.000000  1
