# generated using pymatgen
data_CeEu2(Zn3Ni2)3
_symmetry_space_group_name_H-M   'P 1'
_cell_length_a   8.89041200
_cell_length_b   8.89041094
_cell_length_c   4.22727400
_cell_angle_alpha   90.00000000
_cell_angle_beta   90.00000000
_cell_angle_gamma   119.99999649
_symmetry_Int_Tables_number   1
_chemical_formula_structural   CeEu2(Zn3Ni2)3
_chemical_formula_sum   'Ce1 Eu2 Zn9 Ni6'
_cell_volume   289.35751699
_cell_formula_units_Z   1
loop_
 _symmetry_equiv_pos_site_id
 _symmetry_equiv_pos_as_xyz
  1  'x, y, z'
loop_
 _atom_site_type_symbol
 _atom_site_label
 _atom_site_symmetry_multiplicity
 _atom_site_fract_x
 _atom_site_fract_y
 _atom_site_fract_z
 _atom_site_occupancy
  Ce  Ce0  1  0.000000  0.000000  0.500000  1
  Eu  Eu1  1  0.333333  0.666667  0.000000  1
  Eu  Eu2  1  0.666667  0.333333  0.000000  1
  Zn  Zn3  1  0.500000  0.000000  0.500000  1
  Zn  Zn4  1  0.500000  0.500000  0.500000  1
  Zn  Zn5  1  0.000000  0.500000  0.500000  1
  Zn  Zn6  1  0.293041  0.000000  0.000000  1
  Zn  Zn7  1  0.293041  0.293041  0.000000  1
  Zn  Zn8  1  0.000000  0.706959  0.000000  1
  Zn  Zn9  1  0.000000  0.293041  0.000000  1
  Zn  Zn10  1  0.706959  0.706959  0.000000  1
  Zn  Zn11  1  0.706959  0.000000  0.000000  1
  Ni  Ni12  1  0.175209  0.350418  0.500000  1
  Ni  Ni13  1  0.824791  0.175209  0.500000  1
  Ni  Ni14  1  0.350418  0.175209  0.500000  1
  Ni  Ni15  1  0.649582  0.824791  0.500000  1
  Ni  Ni16  1  0.175209  0.824791  0.500000  1
  Ni  Ni17  1  0.824791  0.649582  0.500000  1
