# generated using pymatgen
data_Pr2Ho3InBi3
_symmetry_space_group_name_H-M   'P 1'
_cell_length_a   8.39099400
_cell_length_b   8.37231200
_cell_length_c   15.66446200
_cell_angle_alpha   90.00000000
_cell_angle_beta   90.00000000
_cell_angle_gamma   90.00000000
_symmetry_Int_Tables_number   1
_chemical_formula_structural   Pr2Ho3InBi3
_chemical_formula_sum   'Pr8 Ho12 In4 Bi12'
_cell_volume   1100.46009392
_cell_formula_units_Z   4
loop_
 _symmetry_equiv_pos_site_id
 _symmetry_equiv_pos_as_xyz
  1  'x, y, z'
loop_
 _atom_site_type_symbol
 _atom_site_label
 _atom_site_symmetry_multiplicity
 _atom_site_fract_x
 _atom_site_fract_y
 _atom_site_fract_z
 _atom_site_occupancy
  Pr  Pr0  1  0.474576  0.681920  0.599505  1
  Pr  Pr1  1  0.974576  0.818080  0.900495  1
  Pr  Pr2  1  0.525424  0.318080  0.099505  1
  Pr  Pr3  1  0.025424  0.181920  0.400495  1
  Pr  Pr4  1  0.525424  0.318080  0.400495  1
  Pr  Pr5  1  0.025424  0.181920  0.099505  1
  Pr  Pr6  1  0.474576  0.681920  0.900495  1
  Pr  Pr7  1  0.974576  0.818080  0.599505  1
  Ho  Ho8  1  0.639077  0.149876  0.624788  1
  Ho  Ho9  1  0.139077  0.350124  0.875212  1
  Ho  Ho10  1  0.360923  0.850124  0.124788  1
  Ho  Ho11  1  0.860923  0.649876  0.375212  1
  Ho  Ho12  1  0.360923  0.850124  0.375212  1
  Ho  Ho13  1  0.860923  0.649876  0.124788  1
  Ho  Ho14  1  0.639077  0.149876  0.875212  1
  Ho  Ho15  1  0.139077  0.350124  0.624788  1
  Ho  Ho16  1  0.809040  0.506004  0.750000  1
  Ho  Ho17  1  0.309040  0.993996  0.750000  1
  Ho  Ho18  1  0.190960  0.493996  0.250000  1
  Ho  Ho19  1  0.690960  0.006004  0.250000  1
  In  In20  1  0.662614  0.848191  0.750000  1
  In  In21  1  0.162614  0.651809  0.750000  1
  In  In22  1  0.337386  0.151809  0.250000  1
  In  In23  1  0.837386  0.348191  0.250000  1
  Bi  Bi24  1  0.707875  0.956850  0.454385  1
  Bi  Bi25  1  0.207875  0.543150  0.045615  1
  Bi  Bi26  1  0.292125  0.043150  0.954385  1
  Bi  Bi27  1  0.792125  0.456850  0.545615  1
  Bi  Bi28  1  0.292125  0.043150  0.545615  1
  Bi  Bi29  1  0.792125  0.456850  0.954385  1
  Bi  Bi30  1  0.707875  0.956850  0.045615  1
  Bi  Bi31  1  0.207875  0.543150  0.454385  1
  Bi  Bi32  1  0.442557  0.374492  0.750000  1
  Bi  Bi33  1  0.942557  0.125508  0.750000  1
  Bi  Bi34  1  0.557443  0.625508  0.250000  1
  Bi  Bi35  1  0.057443  0.874492  0.250000  1
