# generated using pymatgen
data_CaTbGaO4
_symmetry_space_group_name_H-M   'P 1'
_cell_length_a   11.48576300
_cell_length_b   5.34471200
_cell_length_c   6.63385200
_cell_angle_alpha   90.00014414
_cell_angle_beta   89.99987968
_cell_angle_gamma   89.99970154
_symmetry_Int_Tables_number   1
_chemical_formula_structural   CaTbGaO4
_chemical_formula_sum   'Ca4 Tb4 Ga4 O16'
_cell_volume   407.23953901
_cell_formula_units_Z   4
loop_
 _symmetry_equiv_pos_site_id
 _symmetry_equiv_pos_as_xyz
  1  'x, y, z'
loop_
 _atom_site_type_symbol
 _atom_site_label
 _atom_site_symmetry_multiplicity
 _atom_site_fract_x
 _atom_site_fract_y
 _atom_site_fract_z
 _atom_site_occupancy
  Ca  Ca0  1  0.499968  0.499971  0.487185  1
  Ca  Ca1  1  0.500030  0.500032  0.987192  1
  Ca  Ca2  1  0.000029  0.999971  0.987140  1
  Ca  Ca3  1  0.999972  0.000016  0.487186  1
  Tb  Tb4  1  0.222342  0.506019  0.237124  1
  Tb  Tb5  1  0.777660  0.493983  0.737125  1
  Tb  Tb6  1  0.277656  0.006020  0.737125  1
  Tb  Tb7  1  0.722343  0.993983  0.237124  1
  Ga  Ga8  1  0.404329  0.061111  0.237118  1
  Ga  Ga9  1  0.595671  0.938890  0.737118  1
  Ga  Ga10  1  0.095668  0.561112  0.737119  1
  Ga  Ga11  1  0.904330  0.438888  0.237118  1
  O  O12  1  0.400614  0.719754  0.237166  1
  O  O13  1  0.599386  0.280245  0.737167  1
  O  O14  1  0.099388  0.219749  0.737161  1
  O  O15  1  0.900613  0.780251  0.237166  1
  O  O16  1  0.169630  0.731428  0.519669  1
  O  O17  1  0.830373  0.268573  0.019675  1
  O  O18  1  0.330372  0.231428  0.019671  1
  O  O19  1  0.669628  0.768573  0.519672  1
  O  O20  1  0.330341  0.231371  0.454564  1
  O  O21  1  0.669661  0.768629  0.954564  1
  O  O22  1  0.169657  0.731376  0.954564  1
  O  O23  1  0.830340  0.268626  0.454567  1
  O  O24  1  0.553680  0.209127  0.237184  1
  O  O25  1  0.446321  0.790872  0.737183  1
  O  O26  1  0.946320  0.709128  0.737181  1
  O  O27  1  0.053679  0.290874  0.237179  1
