# generated using pymatgen
data_TbDy2Y5(Sc3Si4)4
_symmetry_space_group_name_H-M   'P 1'
_cell_length_a   7.09739200
_cell_length_b   7.39242715
_cell_length_c   14.01473300
_cell_angle_alpha   90.01089735
_cell_angle_beta   89.99937032
_cell_angle_gamma   90.00392968
_symmetry_Int_Tables_number   1
_chemical_formula_structural   TbDy2Y5(Sc3Si4)4
_chemical_formula_sum   'Tb1 Dy2 Y5 Sc12 Si16'
_cell_volume   735.31032711
_cell_formula_units_Z   1
loop_
 _symmetry_equiv_pos_site_id
 _symmetry_equiv_pos_as_xyz
  1  'x, y, z'
loop_
 _atom_site_type_symbol
 _atom_site_label
 _atom_site_symmetry_multiplicity
 _atom_site_fract_x
 _atom_site_fract_y
 _atom_site_fract_z
 _atom_site_occupancy
  Tb  Tb0  1  0.011896  0.175064  0.097026  1
  Dy  Dy1  1  0.511988  0.324795  0.402909  1
  Dy  Dy2  1  0.488023  0.675215  0.597153  1
  Y  Y3  1  0.988003  0.824692  0.902760  1
  Y  Y4  1  0.488081  0.675230  0.902789  1
  Y  Y5  1  0.988029  0.824707  0.597162  1
  Y  Y6  1  0.511937  0.324870  0.097161  1
  Y  Y7  1  0.011968  0.175280  0.402796  1
  Sc  Sc8  1  0.160550  0.502263  0.749964  1
  Sc  Sc9  1  0.839420  0.497785  0.250100  1
  Sc  Sc10  1  0.339473  0.002280  0.250069  1
  Sc  Sc11  1  0.660583  0.997673  0.749981  1
  Sc  Sc12  1  0.330744  0.176653  0.625386  1
  Sc  Sc13  1  0.669252  0.823392  0.374609  1
  Sc  Sc14  1  0.169231  0.676614  0.374614  1
  Sc  Sc15  1  0.669236  0.823251  0.125441  1
  Sc  Sc16  1  0.830731  0.323329  0.625374  1
  Sc  Sc17  1  0.330754  0.176578  0.874517  1
  Sc  Sc18  1  0.830619  0.323508  0.874559  1
  Sc  Sc19  1  0.169312  0.676547  0.125432  1
  Si  Si20  1  0.033127  0.117832  0.749993  1
  Si  Si21  1  0.966819  0.881898  0.250100  1
  Si  Si22  1  0.466881  0.617747  0.250027  1
  Si  Si23  1  0.533095  0.382233  0.749982  1
  Si  Si24  1  0.285581  0.874236  0.749994  1
  Si  Si25  1  0.714132  0.125679  0.250191  1
  Si  Si26  1  0.214738  0.374434  0.250173  1
  Si  Si27  1  0.785481  0.625852  0.750008  1
  Si  Si28  1  0.157189  0.464630  0.539378  1
  Si  Si29  1  0.842851  0.535377  0.460623  1
  Si  Si30  1  0.342801  0.964670  0.460669  1
  Si  Si31  1  0.842693  0.535690  0.039291  1
  Si  Si32  1  0.657158  0.035318  0.539358  1
  Si  Si33  1  0.157282  0.464933  0.960523  1
  Si  Si34  1  0.656971  0.035295  0.960618  1
  Si  Si35  1  0.343371  0.964449  0.039269  1
