# generated using pymatgen
data_Tb12TcOsRh2
_symmetry_space_group_name_H-M   'P 1'
_cell_length_a   6.36825100
_cell_length_b   7.34365202
_cell_length_c   9.27250400
_cell_angle_alpha   90.00000000
_cell_angle_beta   90.00000000
_cell_angle_gamma   89.79549538
_symmetry_Int_Tables_number   1
_chemical_formula_structural   Tb12TcOsRh2
_chemical_formula_sum   'Tb12 Tc1 Os1 Rh2'
_cell_volume   433.63719341
_cell_formula_units_Z   1
loop_
 _symmetry_equiv_pos_site_id
 _symmetry_equiv_pos_as_xyz
  1  'x, y, z'
loop_
 _atom_site_type_symbol
 _atom_site_label
 _atom_site_symmetry_multiplicity
 _atom_site_fract_x
 _atom_site_fract_y
 _atom_site_fract_z
 _atom_site_occupancy
  Tb  Tb0  1  0.326792  0.679156  0.066592  1
  Tb  Tb1  1  0.165068  0.174115  0.437680  1
  Tb  Tb2  1  0.672511  0.321653  0.565912  1
  Tb  Tb3  1  0.833312  0.824918  0.937476  1
  Tb  Tb4  1  0.672511  0.321653  0.934088  1
  Tb  Tb5  1  0.833312  0.824918  0.562524  1
  Tb  Tb6  1  0.326792  0.679156  0.433408  1
  Tb  Tb7  1  0.165068  0.174115  0.062320  1
  Tb  Tb8  1  0.862130  0.539698  0.250000  1
  Tb  Tb9  1  0.632190  0.037985  0.250000  1
  Tb  Tb10  1  0.138261  0.461289  0.750000  1
  Tb  Tb11  1  0.370395  0.961997  0.750000  1
  Tc  Tc12  1  0.960957  0.116298  0.750000  1
  Os  Os13  1  0.042081  0.882621  0.250000  1
  Rh  Rh14  1  0.450850  0.383681  0.250000  1
  Rh  Rh15  1  0.547768  0.616743  0.750000  1
