# generated using pymatgen
data_Sc8Ti5Re5(Si8W)2
_symmetry_space_group_name_H-M   'P 1'
_cell_length_a   6.54014733
_cell_length_b   6.75179270
_cell_length_c   12.75330174
_cell_angle_alpha   90.06391927
_cell_angle_beta   90.02546165
_cell_angle_gamma   89.99775211
_symmetry_Int_Tables_number   1
_chemical_formula_structural   Sc8Ti5Re5(Si8W)2
_chemical_formula_sum   'Sc8 Ti5 Re5 Si16 W2'
_cell_volume   563.15630810
_cell_formula_units_Z   1
loop_
 _symmetry_equiv_pos_site_id
 _symmetry_equiv_pos_as_xyz
  1  'x, y, z'
loop_
 _atom_site_type_symbol
 _atom_site_label
 _atom_site_symmetry_multiplicity
 _atom_site_fract_x
 _atom_site_fract_y
 _atom_site_fract_z
 _atom_site_occupancy
  Sc  Sc0  1  0.495490  0.667749  0.592200  1
  Sc  Sc1  1  0.996776  0.831504  0.908070  1
  Sc  Sc2  1  0.498770  0.327661  0.093598  1
  Sc  Sc3  1  0.000086  0.172548  0.406500  1
  Sc  Sc4  1  0.501393  0.328904  0.406611  1
  Sc  Sc5  1  0.001860  0.174859  0.093111  1
  Sc  Sc6  1  0.494462  0.671325  0.907039  1
  Sc  Sc7  1  0.995396  0.828573  0.592468  1
  Ti  Ti8  1  0.664434  0.169162  0.628873  1
  Ti  Ti9  1  0.163413  0.334203  0.873067  1
  Ti  Ti10  1  0.334882  0.832898  0.122983  1
  Ti  Ti11  1  0.832022  0.666929  0.374427  1
  Ti  Ti12  1  0.331729  0.831495  0.374811  1
  Re  Re13  1  0.826175  0.662501  0.120209  1
  Re  Re14  1  0.683587  0.158658  0.878954  1
  Re  Re15  1  0.179090  0.340267  0.624179  1
  Re  Re16  1  0.833484  0.509937  0.752302  1
  Re  Re17  1  0.336560  0.992724  0.749755  1
  Si  Si18  1  0.668394  0.962820  0.460432  1
  Si  Si19  1  0.164217  0.537642  0.040807  1
  Si  Si20  1  0.341229  0.036382  0.953237  1
  Si  Si21  1  0.840788  0.463315  0.546396  1
  Si  Si22  1  0.328477  0.039555  0.545662  1
  Si  Si23  1  0.830304  0.459945  0.954770  1
  Si  Si24  1  0.668045  0.958620  0.041914  1
  Si  Si25  1  0.167830  0.542036  0.460378  1
  Si  Si26  1  0.470853  0.376576  0.755392  1
  Si  Si27  1  0.972153  0.122681  0.745793  1
  Si  Si28  1  0.534967  0.616828  0.249616  1
  Si  Si29  1  0.032117  0.881216  0.247790  1
  Si  Si30  1  0.699607  0.860183  0.748890  1
  Si  Si31  1  0.198612  0.640755  0.750684  1
  Si  Si32  1  0.294919  0.139443  0.249754  1
  Si  Si33  1  0.796730  0.359310  0.250804  1
  W  W34  1  0.161381  0.506519  0.248695  1
  W  W35  1  0.659767  0.994280  0.249833  1
