# generated using pymatgen
data_V10Si3Tc2Ge
_symmetry_space_group_name_H-M   'P 1'
_cell_length_a   4.70366000
_cell_length_b   4.72625960
_cell_length_c   9.49576500
_cell_angle_alpha   89.90304668
_cell_angle_beta   90.00000000
_cell_angle_gamma   90.00000000
_symmetry_Int_Tables_number   1
_chemical_formula_structural   V10Si3Tc2Ge
_chemical_formula_sum   'V10 Si3 Tc2 Ge1'
_cell_volume   211.09737410
_cell_formula_units_Z   1
loop_
 _symmetry_equiv_pos_site_id
 _symmetry_equiv_pos_as_xyz
  1  'x, y, z'
loop_
 _atom_site_type_symbol
 _atom_site_label
 _atom_site_symmetry_multiplicity
 _atom_site_fract_x
 _atom_site_fract_y
 _atom_site_fract_z
 _atom_site_occupancy
  V  V0  1  0.000000  0.498563  0.625897  1
  V  V1  1  0.500000  0.247756  0.252560  1
  V  V2  1  0.754401  0.000569  0.000696  1
  V  V3  1  0.752272  0.000327  0.499815  1
  V  V4  1  0.000000  0.498202  0.869269  1
  V  V5  1  0.000000  0.500547  0.379261  1
  V  V6  1  0.500000  0.749768  0.745728  1
  V  V7  1  0.500000  0.755412  0.251981  1
  V  V8  1  0.245599  0.000569  0.000696  1
  V  V9  1  0.247728  0.000327  0.499815  1
  Si  Si10  1  0.500000  0.503380  0.498172  1
  Si  Si11  1  0.000000  0.993466  0.750153  1
  Si  Si12  1  0.000000  0.999208  0.253287  1
  Tc  Tc13  1  0.000000  0.500455  0.126516  1
  Tc  Tc14  1  0.500000  0.247561  0.747055  1
  Ge  Ge15  1  0.500000  0.503890  0.999099  1
