# generated using pymatgen
data_Hf9Ta3FeCo
_symmetry_space_group_name_H-M   'P 1'
_cell_length_a   8.79417700
_cell_length_b   8.79417752
_cell_length_c   8.30813000
_cell_angle_alpha   90.00000000
_cell_angle_beta   90.00000000
_cell_angle_gamma   120.00000180
_symmetry_Int_Tables_number   1
_chemical_formula_structural   Hf9Ta3FeCo
_chemical_formula_sum   'Hf18 Ta6 Fe2 Co2'
_cell_volume   556.44768222
_cell_formula_units_Z   2
loop_
 _symmetry_equiv_pos_site_id
 _symmetry_equiv_pos_as_xyz
  1  'x, y, z'
loop_
 _atom_site_type_symbol
 _atom_site_label
 _atom_site_symmetry_multiplicity
 _atom_site_fract_x
 _atom_site_fract_y
 _atom_site_fract_z
 _atom_site_occupancy
  Hf  Hf0  1  0.201570  0.798430  0.440212  1
  Hf  Hf1  1  0.201570  0.403142  0.440212  1
  Hf  Hf2  1  0.596858  0.798430  0.440212  1
  Hf  Hf3  1  0.798430  0.201570  0.559788  1
  Hf  Hf4  1  0.798430  0.596858  0.559788  1
  Hf  Hf5  1  0.403142  0.201570  0.559788  1
  Hf  Hf6  1  0.798430  0.201570  0.940212  1
  Hf  Hf7  1  0.798430  0.596858  0.940212  1
  Hf  Hf8  1  0.403142  0.201570  0.940212  1
  Hf  Hf9  1  0.201570  0.798430  0.059788  1
  Hf  Hf10  1  0.201570  0.403142  0.059788  1
  Hf  Hf11  1  0.596858  0.798430  0.059788  1
  Hf  Hf12  1  0.540427  0.459573  0.250000  1
  Hf  Hf13  1  0.540427  0.080853  0.250000  1
  Hf  Hf14  1  0.919147  0.459573  0.250000  1
  Hf  Hf15  1  0.459573  0.540427  0.750000  1
  Hf  Hf16  1  0.459573  0.919147  0.750000  1
  Hf  Hf17  1  0.080853  0.540427  0.750000  1
  Ta  Ta18  1  0.891143  0.108857  0.250000  1
  Ta  Ta19  1  0.891143  0.782287  0.250000  1
  Ta  Ta20  1  0.217713  0.108857  0.250000  1
  Ta  Ta21  1  0.108857  0.891143  0.750000  1
  Ta  Ta22  1  0.108857  0.217713  0.750000  1
  Ta  Ta23  1  0.782287  0.891143  0.750000  1
  Fe  Fe24  1  0.000000  0.000000  0.500000  1
  Fe  Fe25  1  0.000000  0.000000  0.000000  1
  Co  Co26  1  0.333333  0.666667  0.250000  1
  Co  Co27  1  0.666667  0.333333  0.750000  1
