# generated using pymatgen
data_Tb8Y12Si15As
_symmetry_space_group_name_H-M   'P 1'
_cell_length_a   7.70280914
_cell_length_b   7.74288632
_cell_length_c   14.19946796
_cell_angle_alpha   89.32564785
_cell_angle_beta   89.88150498
_cell_angle_gamma   89.97304163
_symmetry_Int_Tables_number   1
_chemical_formula_structural   Tb8Y12Si15As
_chemical_formula_sum   'Tb8 Y12 Si15 As1'
_cell_volume   846.82376867
_cell_formula_units_Z   1
loop_
 _symmetry_equiv_pos_site_id
 _symmetry_equiv_pos_as_xyz
  1  'x, y, z'
loop_
 _atom_site_type_symbol
 _atom_site_label
 _atom_site_symmetry_multiplicity
 _atom_site_fract_x
 _atom_site_fract_y
 _atom_site_fract_z
 _atom_site_occupancy
  Tb  Tb0  1  0.992325  0.360151  0.207343  1
  Tb  Tb1  1  0.007782  0.642896  0.708624  1
  Tb  Tb2  1  0.135023  0.503715  0.461293  1
  Tb  Tb3  1  0.508352  0.853078  0.039506  1
  Tb  Tb4  1  0.861318  0.503482  0.957274  1
  Tb  Tb5  1  0.495517  0.143079  0.542414  1
  Tb  Tb6  1  0.362097  0.994665  0.792473  1
  Tb  Tb7  1  0.637547  0.003243  0.291377  1
  Y  Y8  1  0.181933  0.178953  0.999457  1
  Y  Y9  1  0.818194  0.822959  0.500567  1
  Y  Y10  1  0.317111  0.682297  0.250115  1
  Y  Y11  1  0.683891  0.318592  0.750355  1
  Y  Y12  1  0.140768  0.013317  0.371187  1
  Y  Y13  1  0.860751  0.989836  0.876060  1
  Y  Y14  1  0.490135  0.641674  0.627054  1
  Y  Y15  1  0.362198  0.508317  0.873905  1
  Y  Y16  1  0.502325  0.351598  0.129938  1
  Y  Y17  1  0.643597  0.498248  0.376493  1
  Y  Y18  1  0.009516  0.141205  0.623029  1
  Y  Y19  1  0.988961  0.854398  0.120878  1
  Si  Si20  1  0.656108  0.703405  0.813108  1
  Si  Si21  1  0.202990  0.849809  0.561885  1
  Si  Si22  1  0.154089  0.793740  0.933045  1
  Si  Si23  1  0.795104  0.153103  0.064047  1
  Si  Si24  1  0.844677  0.204349  0.434474  1
  Si  Si25  1  0.296326  0.346540  0.686846  1
  Si  Si26  1  0.700258  0.648204  0.186479  1
  Si  Si27  1  0.295773  0.037600  0.178331  1
  Si  Si28  1  0.705849  0.941528  0.688883  1
  Si  Si29  1  0.440156  0.801532  0.438904  1
  Si  Si30  1  0.204378  0.552957  0.061948  1
  Si  Si31  1  0.562985  0.205451  0.939915  1
  Si  Si32  1  0.793582  0.443118  0.562784  1
  Si  Si33  1  0.062079  0.295201  0.810514  1
  Si  Si34  1  0.939939  0.706579  0.311231  1
  As  As35  1  0.346369  0.311185  0.328257  1
