# generated using pymatgen
data_Y2Er6B24Ir3Ru
_symmetry_space_group_name_H-M   'P 1'
_cell_length_a   3.63217200
_cell_length_b   9.16090953
_cell_length_c   11.48283506
_cell_angle_alpha   90.01349476
_cell_angle_beta   90.00000000
_cell_angle_gamma   90.00000000
_symmetry_Int_Tables_number   1
_chemical_formula_structural   Y2Er6B24Ir3Ru
_chemical_formula_sum   'Y2 Er6 B24 Ir3 Ru1'
_cell_volume   382.07983281
_cell_formula_units_Z   1
loop_
 _symmetry_equiv_pos_site_id
 _symmetry_equiv_pos_as_xyz
  1  'x, y, z'
loop_
 _atom_site_type_symbol
 _atom_site_label
 _atom_site_symmetry_multiplicity
 _atom_site_fract_x
 _atom_site_fract_y
 _atom_site_fract_z
 _atom_site_occupancy
  Y  Y0  1  0.000000  0.320813  0.413143  1
  Y  Y1  1  0.000000  0.680311  0.588034  1
  Er  Er2  1  0.000000  0.820973  0.084891  1
  Er  Er3  1  0.000000  0.177205  0.912994  1
  Er  Er4  1  0.000000  0.944297  0.373729  1
  Er  Er5  1  0.000000  0.054154  0.627188  1
  Er  Er6  1  0.000000  0.444319  0.125634  1
  Er  Er7  1  0.000000  0.557477  0.874431  1
  B  B8  1  0.500000  0.553948  0.434184  1
  B  B9  1  0.500000  0.446191  0.566073  1
  B  B10  1  0.500000  0.053204  0.065581  1
  B  B11  1  0.500000  0.945954  0.933678  1
  B  B12  1  0.500000  0.750272  0.420501  1
  B  B13  1  0.500000  0.249875  0.579661  1
  B  B14  1  0.500000  0.249473  0.078898  1
  B  B15  1  0.500000  0.751748  0.920227  1
  B  B16  1  0.500000  0.793536  0.264787  1
  B  B17  1  0.500000  0.206595  0.734621  1
  B  B18  1  0.500000  0.293619  0.234450  1
  B  B19  1  0.500000  0.707837  0.766457  1
  B  B20  1  0.500000  0.632277  0.183771  1
  B  B21  1  0.500000  0.367744  0.816195  1
  B  B22  1  0.500000  0.132250  0.315583  1
  B  B23  1  0.500000  0.868358  0.685559  1
  B  B24  1  0.500000  0.981652  0.212952  1
  B  B25  1  0.500000  0.016751  0.786729  1
  B  B26  1  0.500000  0.482422  0.285973  1
  B  B27  1  0.500000  0.517628  0.714396  1
  B  B28  1  0.500000  0.610511  0.030614  1
  B  B29  1  0.500000  0.389013  0.969758  1
  B  B30  1  0.500000  0.109354  0.469900  1
  B  B31  1  0.500000  0.890682  0.529710  1
  Ir  Ir32  1  0.000000  0.639110  0.320843  1
  Ir  Ir33  1  0.000000  0.361170  0.679615  1
  Ir  Ir34  1  0.000000  0.137122  0.177539  1
  Ru  Ru35  1  0.000000  0.862154  0.821702  1
