# generated using pymatgen
data_Hf16Nb3Ni4Rh
_symmetry_space_group_name_H-M   'P 1'
_cell_length_a   8.71115665
_cell_length_b   8.71115609
_cell_length_c   8.71115715
_cell_angle_alpha   60.41590147
_cell_angle_beta   60.41590302
_cell_angle_gamma   60.41590739
_symmetry_Int_Tables_number   1
_chemical_formula_structural   Hf16Nb3Ni4Rh
_chemical_formula_sum   'Hf16 Nb3 Ni4 Rh1'
_cell_volume   471.82149361
_cell_formula_units_Z   1
loop_
 _symmetry_equiv_pos_site_id
 _symmetry_equiv_pos_as_xyz
  1  'x, y, z'
loop_
 _atom_site_type_symbol
 _atom_site_label
 _atom_site_symmetry_multiplicity
 _atom_site_fract_x
 _atom_site_fract_y
 _atom_site_fract_z
 _atom_site_occupancy
  Hf  Hf0  1  0.698309  0.100507  0.100507  1
  Hf  Hf1  1  0.100507  0.698309  0.100507  1
  Hf  Hf2  1  0.100507  0.100507  0.698309  1
  Hf  Hf3  1  0.102235  0.102235  0.102235  1
  Hf  Hf4  1  0.315146  0.315146  0.683368  1
  Hf  Hf5  1  0.685006  0.685006  0.314971  1
  Hf  Hf6  1  0.315146  0.683368  0.315146  1
  Hf  Hf7  1  0.685006  0.314971  0.685006  1
  Hf  Hf8  1  0.683368  0.315146  0.315146  1
  Hf  Hf9  1  0.314971  0.685006  0.685006  1
  Hf  Hf10  1  0.950679  0.950679  0.548526  1
  Hf  Hf11  1  0.551770  0.551770  0.948271  1
  Hf  Hf12  1  0.950679  0.548526  0.950679  1
  Hf  Hf13  1  0.551770  0.948271  0.551770  1
  Hf  Hf14  1  0.548526  0.950679  0.950679  1
  Hf  Hf15  1  0.948271  0.551770  0.551770  1
  Nb  Nb16  1  0.998369  0.334190  0.334190  1
  Nb  Nb17  1  0.334190  0.998369  0.334190  1
  Nb  Nb18  1  0.334190  0.334190  0.998369  1
  Ni  Ni19  1  0.325267  0.889702  0.889702  1
  Ni  Ni20  1  0.889702  0.325267  0.889702  1
  Ni  Ni21  1  0.889702  0.889702  0.325267  1
  Ni  Ni22  1  0.891172  0.891172  0.891172  1
  Rh  Rh23  1  0.335509  0.335509  0.335509  1
