# generated using pymatgen
data_Dy7Th(NiHg)2
_symmetry_space_group_name_H-M   'P 1'
_cell_length_a   9.57098980
_cell_length_b   9.57098999
_cell_length_c   9.57925300
_cell_angle_alpha   59.97143340
_cell_angle_beta   59.97143276
_cell_angle_gamma   59.86997246
_symmetry_Int_Tables_number   1
_chemical_formula_structural   Dy7Th(NiHg)2
_chemical_formula_sum   'Dy14 Th2 Ni4 Hg4'
_cell_volume   619.60438006
_cell_formula_units_Z   2
loop_
 _symmetry_equiv_pos_site_id
 _symmetry_equiv_pos_as_xyz
  1  'x, y, z'
loop_
 _atom_site_type_symbol
 _atom_site_label
 _atom_site_symmetry_multiplicity
 _atom_site_fract_x
 _atom_site_fract_y
 _atom_site_fract_z
 _atom_site_occupancy
  Dy  Dy0  1  0.599724  0.196408  0.601935  1
  Dy  Dy1  1  0.196408  0.599724  0.601935  1
  Dy  Dy2  1  0.062131  0.439561  0.437808  1
  Dy  Dy3  1  0.439561  0.062131  0.060501  1
  Dy  Dy4  1  0.439561  0.062131  0.437808  1
  Dy  Dy5  1  0.062131  0.439561  0.060501  1
  Dy  Dy6  1  0.438388  0.438388  0.061612  1
  Dy  Dy7  1  0.060891  0.060891  0.439109  1
  Dy  Dy8  1  0.187058  0.813782  0.815219  1
  Dy  Dy9  1  0.813782  0.187058  0.183940  1
  Dy  Dy10  1  0.813782  0.187058  0.815219  1
  Dy  Dy11  1  0.187058  0.813782  0.183940  1
  Dy  Dy12  1  0.813886  0.813886  0.186114  1
  Dy  Dy13  1  0.185585  0.185585  0.814415  1
  Th  Th14  1  0.595460  0.595460  0.601572  1
  Th  Th15  1  0.595460  0.595460  0.207508  1
  Ni  Ni16  1  0.393626  0.393626  0.392010  1
  Ni  Ni17  1  0.393626  0.393626  0.820738  1
  Ni  Ni18  1  0.396745  0.818821  0.392218  1
  Ni  Ni19  1  0.818821  0.396745  0.392218  1
  Hg  Hg20  1  0.837397  0.837397  0.833371  1
  Hg  Hg21  1  0.837397  0.837397  0.491835  1
  Hg  Hg22  1  0.838861  0.492662  0.834238  1
  Hg  Hg23  1  0.492662  0.838861  0.834238  1
