# generated using pymatgen
data_NdFe2(Sb6Os)2
_symmetry_space_group_name_H-M   'P 1'
_cell_length_a   8.07592192
_cell_length_b   8.03802235
_cell_length_c   8.03802332
_cell_angle_alpha   109.23323189
_cell_angle_beta   109.51908930
_cell_angle_gamma   109.47028276
_symmetry_Int_Tables_number   1
_chemical_formula_structural   NdFe2(Sb6Os)2
_chemical_formula_sum   'Nd1 Fe2 Sb12 Os2'
_cell_volume   402.61151287
_cell_formula_units_Z   1
loop_
 _symmetry_equiv_pos_site_id
 _symmetry_equiv_pos_as_xyz
  1  'x, y, z'
loop_
 _atom_site_type_symbol
 _atom_site_label
 _atom_site_symmetry_multiplicity
 _atom_site_fract_x
 _atom_site_fract_y
 _atom_site_fract_z
 _atom_site_occupancy
  Nd  Nd0  1  0.000000  0.000000  0.000000  1
  Fe  Fe1  1  0.500000  0.000000  0.000000  1
  Fe  Fe2  1  0.500000  0.500000  0.500000  1
  Sb  Sb3  1  0.342037  0.176819  0.846180  1
  Sb  Sb4  1  0.657963  0.823181  0.153820  1
  Sb  Sb5  1  0.657963  0.504143  0.834781  1
  Sb  Sb6  1  0.342037  0.495857  0.165219  1
  Sb  Sb7  1  0.184829  0.843702  0.341128  1
  Sb  Sb8  1  0.815171  0.156298  0.658872  1
  Sb  Sb9  1  0.505575  0.837921  0.667653  1
  Sb  Sb10  1  0.494425  0.162079  0.332347  1
  Sb  Sb11  1  0.834465  0.330247  0.176744  1
  Sb  Sb12  1  0.165535  0.669753  0.823256  1
  Sb  Sb13  1  0.834465  0.657722  0.504218  1
  Sb  Sb14  1  0.165535  0.342278  0.495782  1
  Os  Os15  1  0.000000  0.000000  0.500000  1
  Os  Os16  1  0.000000  0.500000  0.000000  1
