# generated using pymatgen
data_AcAsS
_symmetry_space_group_name_H-M   'P 1'
_cell_length_a   4.08967400
_cell_length_b   4.21140500
_cell_length_c   18.40440800
_cell_angle_alpha   90.00000000
_cell_angle_beta   90.00000000
_cell_angle_gamma   90.00000000
_symmetry_Int_Tables_number   1
_chemical_formula_structural   AcAsS
_chemical_formula_sum   'Ac4 As4 S4'
_cell_volume   316.98415318
_cell_formula_units_Z   4
loop_
 _symmetry_equiv_pos_site_id
 _symmetry_equiv_pos_as_xyz
  1  'x, y, z'
loop_
 _atom_site_type_symbol
 _atom_site_label
 _atom_site_symmetry_multiplicity
 _atom_site_fract_x
 _atom_site_fract_y
 _atom_site_fract_z
 _atom_site_occupancy
  Ac  Ac0  1  0.250000  0.221267  0.853757  1
  Ac  Ac1  1  0.250000  0.278733  0.353757  1
  Ac  Ac2  1  0.750000  0.778733  0.146243  1
  Ac  Ac3  1  0.750000  0.721267  0.646243  1
  As  As4  1  0.750000  0.192273  0.502427  1
  As  As5  1  0.750000  0.307727  0.002427  1
  As  As6  1  0.250000  0.807727  0.497573  1
  As  As7  1  0.250000  0.692273  0.997573  1
  S  S8  1  0.250000  0.222128  0.686445  1
  S  S9  1  0.250000  0.277872  0.186445  1
  S  S10  1  0.750000  0.777872  0.313555  1
  S  S11  1  0.750000  0.722128  0.813555  1
