# generated using pymatgen
data_CaCeInS4
_symmetry_space_group_name_H-M   'P 1'
_cell_length_a   14.02987400
_cell_length_b   8.40181621
_cell_length_c   6.66924617
_cell_angle_alpha   90.02564877
_cell_angle_beta   90.00000000
_cell_angle_gamma   90.00000000
_symmetry_Int_Tables_number   1
_chemical_formula_structural   CaCeInS4
_chemical_formula_sum   'Ca4 Ce4 In4 S16'
_cell_volume   786.14680220
_cell_formula_units_Z   4
loop_
 _symmetry_equiv_pos_site_id
 _symmetry_equiv_pos_as_xyz
  1  'x, y, z'
loop_
 _atom_site_type_symbol
 _atom_site_label
 _atom_site_symmetry_multiplicity
 _atom_site_fract_x
 _atom_site_fract_y
 _atom_site_fract_z
 _atom_site_occupancy
  Ca  Ca0  1  0.730105  0.749929  0.013487  1
  Ca  Ca1  1  0.230105  0.750069  0.486513  1
  Ca  Ca2  1  0.769895  0.249929  0.513487  1
  Ca  Ca3  1  0.269894  0.250069  0.986511  1
  Ce  Ce4  1  0.000000  0.000000  0.000000  1
  Ce  Ce5  1  0.000000  0.500000  0.000000  1
  Ce  Ce6  1  0.500000  0.000000  0.500000  1
  Ce  Ce7  1  0.500000  0.500000  0.500000  1
  In  In8  1  0.596159  0.249812  0.090003  1
  In  In9  1  0.096160  0.250186  0.409998  1
  In  In10  1  0.903841  0.749812  0.590003  1
  In  In11  1  0.403841  0.750186  0.909998  1
  S  S12  1  0.909676  0.749995  0.221625  1
  S  S13  1  0.169403  0.017332  0.238763  1
  S  S14  1  0.169513  0.482945  0.238796  1
  S  S15  1  0.930886  0.250086  0.252345  1
  S  S16  1  0.430886  0.249912  0.247654  1
  S  S17  1  0.669512  0.017055  0.261204  1
  S  S18  1  0.669402  0.482668  0.261237  1
  S  S19  1  0.409677  0.750003  0.278374  1
  S  S20  1  0.590324  0.249995  0.721625  1
  S  S21  1  0.330597  0.517333  0.738763  1
  S  S22  1  0.330487  0.982945  0.738796  1
  S  S23  1  0.569114  0.750086  0.752345  1
  S  S24  1  0.069114  0.749912  0.747654  1
  S  S25  1  0.830488  0.517056  0.761204  1
  S  S26  1  0.830598  0.982668  0.761237  1
  S  S27  1  0.090323  0.250003  0.778374  1
