# generated using pymatgen
data_Hf3TcMo2As2P
_symmetry_space_group_name_H-M   'P 1'
_cell_length_a   7.00903500
_cell_length_b   7.03878602
_cell_length_c   3.43754400
_cell_angle_alpha   90.00000000
_cell_angle_beta   90.00000000
_cell_angle_gamma   119.86027458
_symmetry_Int_Tables_number   1
_chemical_formula_structural   Hf3TcMo2As2P
_chemical_formula_sum   'Hf3 Tc1 Mo2 As2 P1'
_cell_volume   147.07695851
_cell_formula_units_Z   1
loop_
 _symmetry_equiv_pos_site_id
 _symmetry_equiv_pos_as_xyz
  1  'x, y, z'
loop_
 _atom_site_type_symbol
 _atom_site_label
 _atom_site_symmetry_multiplicity
 _atom_site_fract_x
 _atom_site_fract_y
 _atom_site_fract_z
 _atom_site_occupancy
  Hf  Hf0  1  0.997411  0.601807  0.500000  1
  Hf  Hf1  1  0.395604  0.398193  0.500000  1
  Hf  Hf2  1  0.604897  0.000000  0.500000  1
  Tc  Tc3  1  0.248881  0.000000  0.000000  1
  Mo  Mo4  1  0.753517  0.752364  0.000000  1
  Mo  Mo5  1  0.001154  0.247636  0.000000  1
  As  As6  1  0.664931  0.332197  0.000000  1
  As  As7  1  0.332733  0.667803  0.000000  1
  P  P8  1  0.000872  0.000000  0.500000  1
