# generated using pymatgen
data_TbDy3Er4(ReB6)4
_symmetry_space_group_name_H-M   'P 1'
_cell_length_a   3.67146500
_cell_length_b   9.15330900
_cell_length_c   11.54039602
_cell_angle_alpha   90.00373221
_cell_angle_beta   90.00000000
_cell_angle_gamma   90.00000000
_symmetry_Int_Tables_number   1
_chemical_formula_structural   TbDy3Er4(ReB6)4
_chemical_formula_sum   'Tb1 Dy3 Er4 Re4 B24'
_cell_volume   387.82716669
_cell_formula_units_Z   1
loop_
 _symmetry_equiv_pos_site_id
 _symmetry_equiv_pos_as_xyz
  1  'x, y, z'
loop_
 _atom_site_type_symbol
 _atom_site_label
 _atom_site_symmetry_multiplicity
 _atom_site_fract_x
 _atom_site_fract_y
 _atom_site_fract_z
 _atom_site_occupancy
  Tb  Tb0  1  0.000000  0.176829  0.913903  1
  Dy  Dy1  1  0.000000  0.323254  0.413930  1
  Dy  Dy2  1  0.000000  0.676729  0.586092  1
  Dy  Dy3  1  0.000000  0.823216  0.086094  1
  Er  Er4  1  0.000000  0.943136  0.370141  1
  Er  Er5  1  0.000000  0.056841  0.629816  1
  Er  Er6  1  0.000000  0.443181  0.129937  1
  Er  Er7  1  0.000000  0.556953  0.870110  1
  Re  Re8  1  0.000000  0.638879  0.320464  1
  Re  Re9  1  0.000000  0.361295  0.679381  1
  Re  Re10  1  0.000000  0.138979  0.179790  1
  Re  Re11  1  0.000000  0.860816  0.820275  1
  B  B12  1  0.500000  0.553344  0.432755  1
  B  B13  1  0.500000  0.446638  0.567282  1
  B  B14  1  0.500000  0.053318  0.067430  1
  B  B15  1  0.500000  0.946374  0.932716  1
  B  B16  1  0.500000  0.749610  0.418351  1
  B  B17  1  0.500000  0.250364  0.581650  1
  B  B18  1  0.500000  0.249648  0.081862  1
  B  B19  1  0.500000  0.750342  0.918404  1
  B  B20  1  0.500000  0.792307  0.265405  1
  B  B21  1  0.500000  0.207787  0.734420  1
  B  B22  1  0.500000  0.292335  0.234556  1
  B  B23  1  0.500000  0.707672  0.765450  1
  B  B24  1  0.500000  0.630424  0.185297  1
  B  B25  1  0.500000  0.369757  0.814576  1
  B  B26  1  0.500000  0.130400  0.314674  1
  B  B27  1  0.500000  0.869556  0.685274  1
  B  B28  1  0.500000  0.981973  0.212215  1
  B  B29  1  0.500000  0.017702  0.787675  1
  B  B30  1  0.500000  0.482017  0.287780  1
  B  B31  1  0.500000  0.518018  0.712255  1
  B  B32  1  0.500000  0.599079  0.027656  1
  B  B33  1  0.500000  0.401215  0.972414  1
  B  B34  1  0.500000  0.099071  0.472331  1
  B  B35  1  0.500000  0.900939  0.527640  1
