# generated using pymatgen
data_LiEr2Co8TcP6
_symmetry_space_group_name_H-M   'P 1'
_cell_length_a   3.69726600
_cell_length_b   10.33867600
_cell_length_c   11.81748100
_cell_angle_alpha   90.00000000
_cell_angle_beta   90.00000000
_cell_angle_gamma   90.00000000
_symmetry_Int_Tables_number   1
_chemical_formula_structural   LiEr2Co8TcP6
_chemical_formula_sum   'Li2 Er4 Co16 Tc2 P12'
_cell_volume   451.72126441
_cell_formula_units_Z   2
loop_
 _symmetry_equiv_pos_site_id
 _symmetry_equiv_pos_as_xyz
  1  'x, y, z'
loop_
 _atom_site_type_symbol
 _atom_site_label
 _atom_site_symmetry_multiplicity
 _atom_site_fract_x
 _atom_site_fract_y
 _atom_site_fract_z
 _atom_site_occupancy
  Li  Li0  1  0.750000  0.295797  0.009362  1
  Li  Li1  1  0.750000  0.204203  0.509362  1
  Er  Er2  1  0.250000  0.582554  0.703418  1
  Er  Er3  1  0.250000  0.917446  0.203418  1
  Er  Er4  1  0.750000  0.416896  0.295252  1
  Er  Er5  1  0.750000  0.083104  0.795252  1
  Co  Co6  1  0.250000  0.409155  0.487109  1
  Co  Co7  1  0.250000  0.090845  0.987109  1
  Co  Co8  1  0.750000  0.593796  0.511388  1
  Co  Co9  1  0.750000  0.906204  0.011388  1
  Co  Co10  1  0.250000  0.217885  0.175951  1
  Co  Co11  1  0.250000  0.282115  0.675951  1
  Co  Co12  1  0.750000  0.777334  0.822990  1
  Co  Co13  1  0.750000  0.722666  0.322990  1
  Co  Co14  1  0.250000  0.885104  0.702250  1
  Co  Co15  1  0.250000  0.614896  0.202250  1
  Co  Co16  1  0.750000  0.116756  0.300666  1
  Co  Co17  1  0.750000  0.383244  0.800666  1
  Co  Co18  1  0.250000  0.464068  0.932832  1
  Co  Co19  1  0.250000  0.035932  0.432832  1
  Co  Co20  1  0.750000  0.533811  0.069950  1
  Co  Co21  1  0.750000  0.966189  0.569950  1
  Tc  Tc22  1  0.250000  0.709366  0.990062  1
  Tc  Tc23  1  0.250000  0.790634  0.490062  1
  P  P24  1  0.250000  0.418446  0.114872  1
  P  P25  1  0.250000  0.081554  0.614872  1
  P  P26  1  0.750000  0.576823  0.887517  1
  P  P27  1  0.750000  0.923177  0.387517  1
  P  P28  1  0.250000  0.269331  0.863707  1
  P  P29  1  0.250000  0.230669  0.363707  1
  P  P30  1  0.750000  0.730602  0.133193  1
  P  P31  1  0.750000  0.769398  0.633193  1
  P  P32  1  0.250000  0.596836  0.391427  1
  P  P33  1  0.250000  0.903164  0.891427  1
  P  P34  1  0.750000  0.399535  0.608054  1
  P  P35  1  0.750000  0.100465  0.108054  1
