# generated using pymatgen
data_Ho2Th3(In2Ir)2
_symmetry_space_group_name_H-M   'P 1'
_cell_length_a   8.13630333
_cell_length_b   18.29444115
_cell_length_c   3.80140300
_cell_angle_alpha   90.00000000
_cell_angle_beta   90.00000000
_cell_angle_gamma   89.55246359
_symmetry_Int_Tables_number   1
_chemical_formula_structural   Ho2Th3(In2Ir)2
_chemical_formula_sum   'Ho4 Th6 In8 Ir4'
_cell_volume   565.81823954
_cell_formula_units_Z   2
loop_
 _symmetry_equiv_pos_site_id
 _symmetry_equiv_pos_as_xyz
  1  'x, y, z'
loop_
 _atom_site_type_symbol
 _atom_site_label
 _atom_site_symmetry_multiplicity
 _atom_site_fract_x
 _atom_site_fract_y
 _atom_site_fract_z
 _atom_site_occupancy
  Ho  Ho0  1  0.500000  0.500000  0.000000  1
  Ho  Ho1  1  0.000000  0.000000  0.000000  1
  Ho  Ho2  1  0.885396  0.585721  0.000000  1
  Ho  Ho3  1  0.114604  0.414279  0.000000  1
  Th  Th4  1  0.749346  0.280712  0.000000  1
  Th  Th5  1  0.250654  0.719288  0.000000  1
  Th  Th6  1  0.753560  0.774794  0.000000  1
  Th  Th7  1  0.246440  0.225206  0.000000  1
  Th  Th8  1  0.616627  0.085656  0.000000  1
  Th  Th9  1  0.383373  0.914344  0.000000  1
  In  In10  1  0.716517  0.932735  0.500000  1
  In  In11  1  0.283483  0.067265  0.500000  1
  In  In12  1  0.797587  0.438107  0.500000  1
  In  In13  1  0.202413  0.561893  0.500000  1
  In  In14  1  0.571094  0.642084  0.500000  1
  In  In15  1  0.428906  0.357916  0.500000  1
  In  In16  1  0.938366  0.146438  0.500000  1
  In  In17  1  0.061634  0.853562  0.500000  1
  Ir  Ir18  1  0.525907  0.198470  0.500000  1
  Ir  Ir19  1  0.474093  0.801530  0.500000  1
  Ir  Ir20  1  0.975987  0.697602  0.500000  1
  Ir  Ir21  1  0.024013  0.302398  0.500000  1
