# generated using pymatgen
data_Rb3Sr8Tl(Cd2Sb3)4
_symmetry_space_group_name_H-M   'P 1'
_cell_length_a   12.93422385
_cell_length_b   4.93243200
_cell_length_c   16.65353387
_cell_angle_alpha   90.00000000
_cell_angle_beta   90.07676960
_cell_angle_gamma   90.00000000
_symmetry_Int_Tables_number   1
_chemical_formula_structural   Rb3Sr8Tl(Cd2Sb3)4
_chemical_formula_sum   'Rb3 Sr8 Tl1 Cd8 Sb12'
_cell_volume   1062.44753789
_cell_formula_units_Z   1
loop_
 _symmetry_equiv_pos_site_id
 _symmetry_equiv_pos_as_xyz
  1  'x, y, z'
loop_
 _atom_site_type_symbol
 _atom_site_label
 _atom_site_symmetry_multiplicity
 _atom_site_fract_x
 _atom_site_fract_y
 _atom_site_fract_z
 _atom_site_occupancy
  Rb  Rb0  1  0.074704  0.750000  0.040705  1
  Rb  Rb1  1  0.591594  0.750000  0.452731  1
  Rb  Rb2  1  0.412144  0.249999  0.547153  1
  Sr  Sr3  1  0.600066  0.249999  0.073913  1
  Sr  Sr4  1  0.864465  0.249999  0.214997  1
  Sr  Sr5  1  0.362901  0.249999  0.282740  1
  Sr  Sr6  1  0.100350  0.249999  0.425732  1
  Sr  Sr7  1  0.902519  0.750000  0.574062  1
  Sr  Sr8  1  0.639709  0.750000  0.717602  1
  Sr  Sr9  1  0.137502  0.750000  0.784417  1
  Sr  Sr10  1  0.400173  0.750000  0.927220  1
  Tl  Tl11  1  0.889964  0.249999  0.944975  1
  Cd  Cd12  1  0.298849  0.249999  0.079865  1
  Cd  Cd13  1  0.628599  0.750000  0.216485  1
  Cd  Cd14  1  0.128394  0.750000  0.282644  1
  Cd  Cd15  1  0.801065  0.249999  0.420611  1
  Cd  Cd16  1  0.201693  0.750000  0.580046  1
  Cd  Cd17  1  0.876356  0.249999  0.718216  1
  Cd  Cd18  1  0.371171  0.249999  0.783734  1
  Cd  Cd19  1  0.700584  0.750000  0.922400  1
  Sb  Sb20  1  0.785913  0.750000  0.084673  1
  Sb  Sb21  1  0.420190  0.750000  0.129949  1
  Sb  Sb22  1  0.123076  0.249999  0.194878  1
  Sb  Sb23  1  0.623914  0.249999  0.304634  1
  Sb  Sb24  1  0.919451  0.750000  0.370265  1
  Sb  Sb25  1  0.285857  0.750000  0.415640  1
  Sb  Sb26  1  0.717387  0.249999  0.586341  1
  Sb  Sb27  1  0.082708  0.249999  0.631253  1
  Sb  Sb28  1  0.379833  0.750000  0.695920  1
  Sb  Sb29  1  0.880302  0.750000  0.809423  1
  Sb  Sb30  1  0.582981  0.249999  0.871011  1
  Sb  Sb31  1  0.215593  0.249999  0.915771  1
