# generated using pymatgen
data_Pr2DyY3Ta2O14
_symmetry_space_group_name_H-M   'P 1'
_cell_length_a   6.52870212
_cell_length_b   6.53104216
_cell_length_c   7.63948200
_cell_angle_alpha   90.00000000
_cell_angle_beta   90.00000000
_cell_angle_gamma   109.38417747
_symmetry_Int_Tables_number   1
_chemical_formula_structural   Pr2DyY3Ta2O14
_chemical_formula_sum   'Pr2 Dy1 Y3 Ta2 O14'
_cell_volume   307.27674553
_cell_formula_units_Z   1
loop_
 _symmetry_equiv_pos_site_id
 _symmetry_equiv_pos_as_xyz
  1  'x, y, z'
loop_
 _atom_site_type_symbol
 _atom_site_label
 _atom_site_symmetry_multiplicity
 _atom_site_fract_x
 _atom_site_fract_y
 _atom_site_fract_z
 _atom_site_occupancy
  Pr  Pr0  1  0.499987  0.500015  0.500084  1
  Pr  Pr1  1  0.499987  0.500015  0.999916  1
  Dy  Dy2  1  0.533070  0.000800  0.750000  1
  Y  Y3  1  0.000538  0.532896  0.250000  1
  Y  Y4  1  0.467120  0.999460  0.250000  1
  Y  Y5  1  0.999470  0.467143  0.750000  1
  Ta  Ta6  1  0.999912  0.999988  0.500045  1
  Ta  Ta7  1  0.999912  0.999988  0.999955  1
  O  O8  1  0.680795  0.931575  0.468541  1
  O  O9  1  0.931480  0.680922  0.531689  1
  O  O10  1  0.680795  0.931575  0.031459  1
  O  O11  1  0.931480  0.680922  0.968311  1
  O  O12  1  0.319438  0.068376  0.532143  1
  O  O13  1  0.068527  0.319071  0.468283  1
  O  O14  1  0.319438  0.068376  0.967857  1
  O  O15  1  0.068527  0.319071  0.031717  1
  O  O16  1  0.937355  0.062220  0.750000  1
  O  O17  1  0.062305  0.937779  0.250000  1
  O  O18  1  0.363309  0.636930  0.750000  1
  O  O19  1  0.636713  0.363282  0.250000  1
  O  O20  1  0.643364  0.356050  0.750000  1
  O  O21  1  0.356479  0.643546  0.250000  1
