# generated using pymatgen
data_Pr2Al16Pt8Rh
_symmetry_space_group_name_H-M   'P 1'
_cell_length_a   11.16973845
_cell_length_b   11.16973836
_cell_length_c   11.16973967
_cell_angle_alpha   158.39126286
_cell_angle_beta   115.76985946
_cell_angle_gamma   68.62454965
_symmetry_Int_Tables_number   1
_chemical_formula_structural   Pr2Al16Pt8Rh
_chemical_formula_sum   'Pr2 Al16 Pt8 Rh1'
_cell_volume   458.83818725
_cell_formula_units_Z   1
loop_
 _symmetry_equiv_pos_site_id
 _symmetry_equiv_pos_as_xyz
  1  'x, y, z'
loop_
 _atom_site_type_symbol
 _atom_site_label
 _atom_site_symmetry_multiplicity
 _atom_site_fract_x
 _atom_site_fract_y
 _atom_site_fract_z
 _atom_site_occupancy
  Pr  Pr0  1  0.228794  0.228758  0.000038  1
  Pr  Pr1  1  0.771279  0.771243  0.000038  1
  Al  Al2  1  0.274799  0.392229  0.882569  1
  Al  Al3  1  0.093337  0.922044  0.171294  1
  Al  Al4  1  0.509993  0.203882  0.306114  1
  Al  Al5  1  0.249250  0.077956  0.171294  1
  Al  Al6  1  0.912722  0.415446  0.497276  1
  Al  Al7  1  0.723479  0.603262  0.120215  1
  Al  Al8  1  0.898055  0.205031  0.693024  1
  Al  Al9  1  0.487994  0.794969  0.693024  1
  Al  Al10  1  0.387614  0.000000  0.387614  1
  Al  Al11  1  0.620255  0.000000  0.620255  1
  Al  Al12  1  0.490341  0.607771  0.882569  1
  Al  Al13  1  0.102232  0.796120  0.306114  1
  Al  Al14  1  0.902161  0.079545  0.822615  1
  Al  Al15  1  0.743070  0.920455  0.822615  1
  Al  Al16  1  0.516952  0.396736  0.120215  1
  Al  Al17  1  0.081830  0.584555  0.497276  1
  Pt  Pt18  1  0.026947  0.341182  0.685765  1
  Pt  Pt19  1  0.625748  0.124962  0.500786  1
  Pt  Pt20  1  0.253318  0.500000  0.753317  1
  Pt  Pt21  1  0.375823  0.875037  0.500786  1
  Pt  Pt22  1  0.994706  0.000001  0.994707  1
  Pt  Pt23  1  0.651303  0.339742  0.311561  1
  Pt  Pt24  1  0.344583  0.658818  0.685765  1
  Pt  Pt25  1  0.971819  0.660258  0.311561  1
  Rh  Rh26  1  0.761593  0.499998  0.261591  1
