# generated using pymatgen
data_Li2HfH6
_symmetry_space_group_name_H-M   'P 1'
_cell_length_a   3.12995047
_cell_length_b   5.08573157
_cell_length_c   5.08638833
_cell_angle_alpha   60.00457368
_cell_angle_beta   90.00279061
_cell_angle_gamma   89.99746609
_symmetry_Int_Tables_number   1
_chemical_formula_structural   Li2HfH6
_chemical_formula_sum   'Li2 Hf1 H6'
_cell_volume   70.12147717
_cell_formula_units_Z   1
loop_
 _symmetry_equiv_pos_site_id
 _symmetry_equiv_pos_as_xyz
  1  'x, y, z'
loop_
 _atom_site_type_symbol
 _atom_site_label
 _atom_site_symmetry_multiplicity
 _atom_site_fract_x
 _atom_site_fract_y
 _atom_site_fract_z
 _atom_site_occupancy
  Li  Li0  1  0.140845  0.862088  0.202756  1
  Li  Li1  1  0.117022  0.195553  0.536170  1
  Hf  Hf2  1  0.628660  0.529135  0.869284  1
  H  H3  1  0.128708  0.283031  0.115300  1
  H  H4  1  0.628741  0.146649  0.869367  1
  H  H5  1  0.128666  0.528941  0.623567  1
  H  H6  1  0.628538  0.911102  0.487325  1
  H  H7  1  0.128641  0.774799  0.869387  1
  H  H8  1  0.628637  0.529052  0.251557  1
