# generated using pymatgen
data_MnNi2(AgO2)3
_symmetry_space_group_name_H-M   'P 1'
_cell_length_a   5.24522000
_cell_length_b   5.24521920
_cell_length_c   18.58680700
_cell_angle_alpha   90.00000000
_cell_angle_beta   90.00000000
_cell_angle_gamma   119.99997982
_symmetry_Int_Tables_number   1
_chemical_formula_structural   MnNi2(AgO2)3
_chemical_formula_sum   'Mn3 Ni6 Ag9 O18'
_cell_volume   442.85633361
_cell_formula_units_Z   3
loop_
 _symmetry_equiv_pos_site_id
 _symmetry_equiv_pos_as_xyz
  1  'x, y, z'
loop_
 _atom_site_type_symbol
 _atom_site_label
 _atom_site_symmetry_multiplicity
 _atom_site_fract_x
 _atom_site_fract_y
 _atom_site_fract_z
 _atom_site_occupancy
  Mn  Mn0  1  0.440109  0.559891  0.333333  1
  Mn  Mn1  1  0.440109  0.880217  0.666667  1
  Mn  Mn2  1  0.119783  0.559891  0.000000  1
  Ni  Ni3  1  0.106871  0.893129  0.333333  1
  Ni  Ni4  1  0.106871  0.213742  0.666667  1
  Ni  Ni5  1  0.786258  0.893129  0.000000  1
  Ni  Ni6  1  0.773347  0.226653  0.333333  1
  Ni  Ni7  1  0.773347  0.546692  0.666667  1
  Ni  Ni8  1  0.453308  0.226653  0.000000  1
  Ag  Ag9  1  0.442153  0.221075  0.500000  1
  Ag  Ag10  1  0.778925  0.221075  0.833333  1
  Ag  Ag11  1  0.778925  0.557847  0.166667  1
  Ag  Ag12  1  0.116538  0.558269  0.500000  1
  Ag  Ag13  1  0.441731  0.558269  0.833333  1
  Ag  Ag14  1  0.441731  0.883462  0.166667  1
  Ag  Ag15  1  0.765190  0.882595  0.500000  1
  Ag  Ag16  1  0.117405  0.882595  0.833333  1
  Ag  Ag17  1  0.117405  0.234810  0.166667  1
  O  O18  1  0.757620  0.559621  0.278568  1
  O  O19  1  0.440379  0.197999  0.611901  1
  O  O20  1  0.802001  0.242380  0.945235  1
  O  O21  1  0.757620  0.197999  0.721432  1
  O  O22  1  0.440379  0.242380  0.388099  1
  O  O23  1  0.802001  0.559621  0.054765  1
  O  O24  1  0.440355  0.877853  0.278692  1
  O  O25  1  0.122147  0.562501  0.612025  1
  O  O26  1  0.437499  0.559645  0.945359  1
  O  O27  1  0.440355  0.562501  0.721308  1
  O  O28  1  0.122147  0.559645  0.387975  1
  O  O29  1  0.437499  0.877853  0.054641  1
  O  O30  1  0.122268  0.241512  0.278684  1
  O  O31  1  0.758488  0.880756  0.612017  1
  O  O32  1  0.119244  0.877732  0.945350  1
  O  O33  1  0.122268  0.880756  0.721316  1
  O  O34  1  0.758488  0.877732  0.387983  1
  O  O35  1  0.119244  0.241512  0.054650  1
