# generated using pymatgen
data_Tb12Y8Co4Bi7Sb
_symmetry_space_group_name_H-M   'P 1'
_cell_length_a   8.07112501
_cell_length_b   8.85611255
_cell_length_c   12.40288495
_cell_angle_alpha   89.98691721
_cell_angle_beta   89.95714336
_cell_angle_gamma   89.96176886
_symmetry_Int_Tables_number   1
_chemical_formula_structural   Tb12Y8Co4Bi7Sb
_chemical_formula_sum   'Tb12 Y8 Co4 Bi7 Sb1'
_cell_volume   886.54275918
_cell_formula_units_Z   1
loop_
 _symmetry_equiv_pos_site_id
 _symmetry_equiv_pos_as_xyz
  1  'x, y, z'
loop_
 _atom_site_type_symbol
 _atom_site_label
 _atom_site_symmetry_multiplicity
 _atom_site_fract_x
 _atom_site_fract_y
 _atom_site_fract_z
 _atom_site_occupancy
  Tb  Tb0  1  0.616276  0.747148  0.307537  1
  Tb  Tb1  1  0.122085  0.252423  0.191665  1
  Tb  Tb2  1  0.381547  0.250007  0.691018  1
  Tb  Tb3  1  0.881975  0.750142  0.809125  1
  Tb  Tb4  1  0.824029  0.965174  0.063230  1
  Tb  Tb5  1  0.323586  0.035095  0.436386  1
  Tb  Tb6  1  0.176558  0.465050  0.938387  1
  Tb  Tb7  1  0.676050  0.535577  0.563170  1
  Tb  Tb8  1  0.176721  0.034745  0.937556  1
  Tb  Tb9  1  0.676175  0.964317  0.562807  1
  Tb  Tb10  1  0.821868  0.535272  0.063596  1
  Tb  Tb11  1  0.324205  0.465080  0.434358  1
  Y  Y12  1  0.156062  0.746687  0.200023  1
  Y  Y13  1  0.651882  0.252818  0.298369  1
  Y  Y14  1  0.846199  0.249869  0.800809  1
  Y  Y15  1  0.346628  0.750248  0.699793  1
  Y  Y16  1  0.453263  0.747389  0.999827  1
  Y  Y17  1  0.952379  0.249669  0.501432  1
  Y  Y18  1  0.545294  0.252346  0.003481  1
  Y  Y19  1  0.047675  0.750318  0.497948  1
  Co  Co20  1  0.438152  0.749637  0.490366  1
  Co  Co21  1  0.939503  0.250727  0.010062  1
  Co  Co22  1  0.561328  0.250149  0.508511  1
  Co  Co23  1  0.061131  0.749794  0.991247  1
  Bi  Bi24  1  0.927265  0.991022  0.325074  1
  Bi  Bi25  1  0.427450  0.008583  0.173690  1
  Bi  Bi26  1  0.072276  0.490825  0.673901  1
  Bi  Bi27  1  0.572270  0.508979  0.826343  1
  Bi  Bi28  1  0.072196  0.009213  0.673959  1
  Bi  Bi29  1  0.572010  0.991057  0.827532  1
  Bi  Bi30  1  0.927572  0.509025  0.326341  1
  Sb  Sb31  1  0.428391  0.491617  0.172457  1
