# generated using pymatgen
data_Tb16CdNi3Hg3Os
_symmetry_space_group_name_H-M   'P 1'
_cell_length_a   9.60768386
_cell_length_b   9.61154159
_cell_length_c   9.61154203
_cell_angle_alpha   59.67636660
_cell_angle_beta   59.73270062
_cell_angle_gamma   59.73268962
_symmetry_Int_Tables_number   1
_chemical_formula_structural   Tb16CdNi3Hg3Os
_chemical_formula_sum   'Tb16 Cd1 Ni3 Hg3 Os1'
_cell_volume   623.53150388
_cell_formula_units_Z   1
loop_
 _symmetry_equiv_pos_site_id
 _symmetry_equiv_pos_as_xyz
  1  'x, y, z'
loop_
 _atom_site_type_symbol
 _atom_site_label
 _atom_site_symmetry_multiplicity
 _atom_site_fract_x
 _atom_site_fract_y
 _atom_site_fract_z
 _atom_site_occupancy
  Tb  Tb0  1  0.348189  0.348125  0.348125  1
  Tb  Tb1  1  0.352120  0.351641  0.951457  1
  Tb  Tb2  1  0.352120  0.951457  0.351641  1
  Tb  Tb3  1  0.949464  0.352406  0.352406  1
  Tb  Tb4  1  0.809927  0.188990  0.188990  1
  Tb  Tb5  1  0.186024  0.810871  0.810871  1
  Tb  Tb6  1  0.187628  0.810808  0.188690  1
  Tb  Tb7  1  0.809797  0.187368  0.810077  1
  Tb  Tb8  1  0.187628  0.188690  0.810808  1
  Tb  Tb9  1  0.809797  0.810077  0.187368  1
  Tb  Tb10  1  0.935497  0.565554  0.565554  1
  Tb  Tb11  1  0.555733  0.939511  0.939511  1
  Tb  Tb12  1  0.564438  0.937196  0.565305  1
  Tb  Tb13  1  0.938406  0.556538  0.939505  1
  Tb  Tb14  1  0.564438  0.565305  0.937196  1
  Tb  Tb15  1  0.938406  0.939505  0.556538  1
  Cd  Cd16  1  0.258584  0.578977  0.578977  1
  Ni  Ni17  1  0.142362  0.142494  0.575140  1
  Ni  Ni18  1  0.142362  0.575140  0.142494  1
  Ni  Ni19  1  0.574870  0.142518  0.142518  1
  Hg  Hg20  1  0.583240  0.584503  0.584503  1
  Hg  Hg21  1  0.583000  0.584595  0.244135  1
  Hg  Hg22  1  0.583000  0.244135  0.584595  1
  Os  Os23  1  0.142969  0.143594  0.143594  1
