# generated using pymatgen
data_ErTm2ScMn4O14
_symmetry_space_group_name_H-M   'P 1'
_cell_length_a   6.97858205
_cell_length_b   6.97858316
_cell_length_c   6.98108925
_cell_angle_alpha   60.26945668
_cell_angle_beta   60.26945419
_cell_angle_gamma   60.26419928
_symmetry_Int_Tables_number   1
_chemical_formula_structural   ErTm2ScMn4O14
_chemical_formula_sum   'Er1 Tm2 Sc1 Mn4 O14'
_cell_volume   241.86117813
_cell_formula_units_Z   1
loop_
 _symmetry_equiv_pos_site_id
 _symmetry_equiv_pos_as_xyz
  1  'x, y, z'
loop_
 _atom_site_type_symbol
 _atom_site_label
 _atom_site_symmetry_multiplicity
 _atom_site_fract_x
 _atom_site_fract_y
 _atom_site_fract_z
 _atom_site_occupancy
  Er  Er0  1  0.500000  0.500000  0.000000  1
  Tm  Tm1  1  0.500000  0.000000  0.500000  1
  Tm  Tm2  1  0.000000  0.500000  0.500001  1
  Sc  Sc3  1  0.500000  0.500000  0.500000  1
  Mn  Mn4  1  0.000000  0.500000  0.000001  1
  Mn  Mn5  1  0.500000  0.000000  0.000000  1
  Mn  Mn6  1  0.000000  0.000000  0.500000  1
  Mn  Mn7  1  0.000000  0.000000  0.000000  1
  O  O8  1  0.332926  0.917477  0.916579  1
  O  O9  1  0.084889  0.667703  0.667775  1
  O  O10  1  0.917475  0.332927  0.916579  1
  O  O11  1  0.916780  0.916782  0.333141  1
  O  O12  1  0.332026  0.332027  0.914912  1
  O  O13  1  0.332297  0.915112  0.332225  1
  O  O14  1  0.082524  0.667074  0.083421  1
  O  O15  1  0.667702  0.084889  0.667775  1
  O  O16  1  0.379473  0.379474  0.381588  1
  O  O17  1  0.620526  0.620527  0.618412  1
  O  O18  1  0.915110  0.332298  0.332225  1
  O  O19  1  0.667073  0.082524  0.083421  1
  O  O20  1  0.083219  0.083219  0.666859  1
  O  O21  1  0.667973  0.667974  0.085088  1
