# generated using pymatgen
data_TbHo3(Co5As3)4
_symmetry_space_group_name_H-M   'P 1'
_cell_length_a   3.78243300
_cell_length_b   12.16846020
_cell_length_c   10.66726701
_cell_angle_alpha   90.05042163
_cell_angle_beta   90.00000000
_cell_angle_gamma   90.00000000
_symmetry_Int_Tables_number   1
_chemical_formula_structural   TbHo3(Co5As3)4
_chemical_formula_sum   'Tb1 Ho3 Co20 As12'
_cell_volume   490.97555282
_cell_formula_units_Z   1
loop_
 _symmetry_equiv_pos_site_id
 _symmetry_equiv_pos_as_xyz
  1  'x, y, z'
loop_
 _atom_site_type_symbol
 _atom_site_label
 _atom_site_symmetry_multiplicity
 _atom_site_fract_x
 _atom_site_fract_y
 _atom_site_fract_z
 _atom_site_occupancy
  Tb  Tb0  1  0.750000  0.701786  0.082112  1
  Ho  Ho1  1  0.250000  0.298666  0.918069  1
  Ho  Ho2  1  0.250000  0.798432  0.581821  1
  Ho  Ho3  1  0.750000  0.201453  0.418209  1
  Co  Co4  1  0.750000  0.696894  0.384828  1
  Co  Co5  1  0.250000  0.302823  0.615605  1
  Co  Co6  1  0.250000  0.803370  0.883833  1
  Co  Co7  1  0.750000  0.197186  0.115729  1
  Co  Co8  1  0.750000  0.990993  0.212016  1
  Co  Co9  1  0.250000  0.009153  0.787935  1
  Co  Co10  1  0.250000  0.508606  0.711955  1
  Co  Co11  1  0.750000  0.490720  0.288144  1
  Co  Co12  1  0.750000  0.677743  0.783974  1
  Co  Co13  1  0.250000  0.322175  0.216042  1
  Co  Co14  1  0.250000  0.822317  0.284347  1
  Co  Co15  1  0.750000  0.177719  0.715699  1
  Co  Co16  1  0.750000  0.932815  0.969151  1
  Co  Co17  1  0.250000  0.068549  0.030348  1
  Co  Co18  1  0.250000  0.567720  0.470082  1
  Co  Co19  1  0.750000  0.431895  0.530516  1
  Co  Co20  1  0.750000  0.987834  0.592824  1
  Co  Co21  1  0.250000  0.012082  0.407057  1
  Co  Co22  1  0.250000  0.511364  0.092809  1
  Co  Co23  1  0.750000  0.487619  0.906832  1
  As  As24  1  0.750000  0.614110  0.585088  1
  As  As25  1  0.250000  0.385626  0.415187  1
  As  As26  1  0.250000  0.886631  0.084855  1
  As  As27  1  0.750000  0.114728  0.915009  1
  As  As28  1  0.750000  0.890439  0.399532  1
  As  As29  1  0.250000  0.109410  0.600298  1
  As  As30  1  0.250000  0.609236  0.898994  1
  As  As31  1  0.750000  0.390503  0.100441  1
  As  As32  1  0.750000  0.870410  0.768984  1
  As  As33  1  0.250000  0.129620  0.230963  1
  As  As34  1  0.250000  0.629137  0.269915  1
  As  As35  1  0.750000  0.370230  0.730795  1
