# generated using pymatgen
data_TmLuAs4O9
_symmetry_space_group_name_H-M   'P 1'
_cell_length_a   6.64115439
_cell_length_b   7.45384777
_cell_length_c   9.76124632
_cell_angle_alpha   94.56620985
_cell_angle_beta   104.11010258
_cell_angle_gamma   104.81570951
_symmetry_Int_Tables_number   1
_chemical_formula_structural   TmLuAs4O9
_chemical_formula_sum   'Tm2 Lu2 As8 O18'
_cell_volume   447.82145423
_cell_formula_units_Z   2
loop_
 _symmetry_equiv_pos_site_id
 _symmetry_equiv_pos_as_xyz
  1  'x, y, z'
loop_
 _atom_site_type_symbol
 _atom_site_label
 _atom_site_symmetry_multiplicity
 _atom_site_fract_x
 _atom_site_fract_y
 _atom_site_fract_z
 _atom_site_occupancy
  Tm  Tm0  1  0.240889  0.938859  0.614291  1
  Tm  Tm1  1  0.759111  0.061141  0.385709  1
  Lu  Lu2  1  0.721449  0.528041  0.410815  1
  Lu  Lu3  1  0.278551  0.471959  0.589185  1
  As  As4  1  0.684847  0.772614  0.081479  1
  As  As5  1  0.315153  0.227386  0.918521  1
  As  As6  1  0.167995  0.750897  0.911982  1
  As  As7  1  0.832005  0.249103  0.088018  1
  As  As8  1  0.741495  0.913856  0.709859  1
  As  As9  1  0.258505  0.086144  0.290141  1
  As  As10  1  0.810261  0.352220  0.701601  1
  As  As11  1  0.189739  0.647780  0.298399  1
  O  O12  1  0.722861  0.746226  0.262912  1
  O  O13  1  0.277139  0.253774  0.737088  1
  O  O14  1  0.315657  0.978224  0.866274  1
  O  O15  1  0.684343  0.021776  0.133726  1
  O  O16  1  0.609198  0.328622  0.985241  1
  O  O17  1  0.390802  0.671378  0.014759  1
  O  O18  1  0.123148  0.641501  0.736818  1
  O  O19  1  0.876852  0.358499  0.263182  1
  O  O20  1  0.848679  0.877552  0.559374  1
  O  O21  1  0.151321  0.122448  0.440626  1
  O  O22  1  0.476744  0.764806  0.665097  1
  O  O23  1  0.523256  0.235194  0.334903  1
  O  O24  1  0.373516  0.530449  0.382018  1
  O  O25  1  0.626484  0.469551  0.617982  1
  O  O26  1  0.087733  0.669548  0.455085  1
  O  O27  1  0.912267  0.330452  0.544915  1
  O  O28  1  0.382810  0.900048  0.358754  1
  O  O29  1  0.617190  0.099952  0.641246  1
