# generated using pymatgen
data_Pr2BeSi3
_symmetry_space_group_name_H-M   'P 1'
_cell_length_a   7.97757800
_cell_length_b   7.97757782
_cell_length_c   8.70006300
_cell_angle_alpha   90.00000000
_cell_angle_beta   90.00000000
_cell_angle_gamma   120.00000075
_symmetry_Int_Tables_number   1
_chemical_formula_structural   Pr2BeSi3
_chemical_formula_sum   'Pr8 Be4 Si12'
_cell_volume   479.50720191
_cell_formula_units_Z   4
loop_
 _symmetry_equiv_pos_site_id
 _symmetry_equiv_pos_as_xyz
  1  'x, y, z'
loop_
 _atom_site_type_symbol
 _atom_site_label
 _atom_site_symmetry_multiplicity
 _atom_site_fract_x
 _atom_site_fract_y
 _atom_site_fract_z
 _atom_site_occupancy
  Pr  Pr0  1  0.499948  0.500052  0.750000  1
  Pr  Pr1  1  0.500052  0.499948  0.250000  1
  Pr  Pr2  1  0.000105  0.500052  0.750000  1
  Pr  Pr3  1  0.999895  0.499948  0.250000  1
  Pr  Pr4  1  0.499948  0.999895  0.750000  1
  Pr  Pr5  1  0.500052  0.000105  0.250000  1
  Pr  Pr6  1  0.000000  0.000000  0.750000  1
  Pr  Pr7  1  0.000000  0.000000  0.250000  1
  Be  Be8  1  0.666667  0.333333  0.996348  1
  Be  Be9  1  0.333333  0.666667  0.003652  1
  Be  Be10  1  0.333333  0.666667  0.496348  1
  Be  Be11  1  0.666667  0.333333  0.503652  1
  Si  Si12  1  0.827658  0.172342  0.000376  1
  Si  Si13  1  0.172342  0.827658  0.999624  1
  Si  Si14  1  0.344683  0.172342  0.000376  1
  Si  Si15  1  0.172342  0.827658  0.500376  1
  Si  Si16  1  0.655317  0.827658  0.999624  1
  Si  Si17  1  0.827658  0.172342  0.499624  1
  Si  Si18  1  0.827658  0.655317  0.000376  1
  Si  Si19  1  0.655317  0.827658  0.500376  1
  Si  Si20  1  0.172342  0.344683  0.999624  1
  Si  Si21  1  0.344683  0.172342  0.499624  1
  Si  Si22  1  0.172342  0.344683  0.500376  1
  Si  Si23  1  0.827658  0.655317  0.499624  1
