# generated using pymatgen
data_EuTmGa2IrPt
_symmetry_space_group_name_H-M   'P 1'
_cell_length_a   4.32859700
_cell_length_b   7.00913400
_cell_length_c   7.86206200
_cell_angle_alpha   90.00000000
_cell_angle_beta   90.00000000
_cell_angle_gamma   90.00000000
_symmetry_Int_Tables_number   1
_chemical_formula_structural   EuTmGa2IrPt
_chemical_formula_sum   'Eu2 Tm2 Ga4 Ir2 Pt2'
_cell_volume   238.53273144
_cell_formula_units_Z   2
loop_
 _symmetry_equiv_pos_site_id
 _symmetry_equiv_pos_as_xyz
  1  'x, y, z'
loop_
 _atom_site_type_symbol
 _atom_site_label
 _atom_site_symmetry_multiplicity
 _atom_site_fract_x
 _atom_site_fract_y
 _atom_site_fract_z
 _atom_site_occupancy
  Eu  Eu0  1  0.250000  0.979027  0.311566  1
  Eu  Eu1  1  0.250000  0.479027  0.188434  1
  Tm  Tm2  1  0.750000  0.018712  0.698678  1
  Tm  Tm3  1  0.750000  0.518712  0.801322  1
  Ga  Ga4  1  0.250000  0.341777  0.581040  1
  Ga  Ga5  1  0.250000  0.841777  0.918960  1
  Ga  Ga6  1  0.750000  0.667410  0.434584  1
  Ga  Ga7  1  0.750000  0.167410  0.065416  1
  Ir  Ir8  1  0.250000  0.218659  0.886950  1
  Ir  Ir9  1  0.250000  0.718659  0.613050  1
  Pt  Pt10  1  0.750000  0.774416  0.092859  1
  Pt  Pt11  1  0.750000  0.274416  0.407141  1
