# generated using pymatgen
data_Dy5(Cd2Pt)2
_symmetry_space_group_name_H-M   'P 1'
_cell_length_a   3.67347200
_cell_length_b   7.96122000
_cell_length_c   18.37793500
_cell_angle_alpha   90.00000000
_cell_angle_beta   90.00000000
_cell_angle_gamma   90.00000000
_symmetry_Int_Tables_number   1
_chemical_formula_structural   Dy5(Cd2Pt)2
_chemical_formula_sum   'Dy10 Cd8 Pt4'
_cell_volume   537.46856715
_cell_formula_units_Z   2
loop_
 _symmetry_equiv_pos_site_id
 _symmetry_equiv_pos_as_xyz
  1  'x, y, z'
loop_
 _atom_site_type_symbol
 _atom_site_label
 _atom_site_symmetry_multiplicity
 _atom_site_fract_x
 _atom_site_fract_y
 _atom_site_fract_z
 _atom_site_occupancy
  Dy  Dy0  1  0.000000  0.114993  0.414206  1
  Dy  Dy1  1  0.000000  0.885007  0.585794  1
  Dy  Dy2  1  0.000000  0.385007  0.914206  1
  Dy  Dy3  1  0.000000  0.614993  0.085794  1
  Dy  Dy4  1  0.000000  0.242989  0.219358  1
  Dy  Dy5  1  0.000000  0.757011  0.780642  1
  Dy  Dy6  1  0.000000  0.257011  0.719358  1
  Dy  Dy7  1  0.000000  0.742989  0.280642  1
  Dy  Dy8  1  0.000000  0.000000  0.000000  1
  Dy  Dy9  1  0.000000  0.500000  0.500000  1
  Cd  Cd10  1  0.500000  0.428791  0.352977  1
  Cd  Cd11  1  0.500000  0.571209  0.647023  1
  Cd  Cd12  1  0.500000  0.071209  0.852977  1
  Cd  Cd13  1  0.500000  0.928791  0.147023  1
  Cd  Cd14  1  0.500000  0.287795  0.066529  1
  Cd  Cd15  1  0.500000  0.712205  0.933471  1
  Cd  Cd16  1  0.500000  0.212205  0.566529  1
  Cd  Cd17  1  0.500000  0.787795  0.433471  1
  Pt  Pt18  1  0.500000  0.027328  0.303573  1
  Pt  Pt19  1  0.500000  0.972672  0.696427  1
  Pt  Pt20  1  0.500000  0.472672  0.803573  1
  Pt  Pt21  1  0.500000  0.527328  0.196427  1
