# generated using pymatgen
data_Li3HoNi9P7W
_symmetry_space_group_name_H-M   'P 1'
_cell_length_a   9.12902846
_cell_length_b   9.08378170
_cell_length_c   3.65253900
_cell_angle_alpha   90.00000000
_cell_angle_beta   90.00000000
_cell_angle_gamma   119.50259255
_symmetry_Int_Tables_number   1
_chemical_formula_structural   Li3HoNi9P7W
_chemical_formula_sum   'Li3 Ho1 Ni9 P7 W1'
_cell_volume   263.61600150
_cell_formula_units_Z   1
loop_
 _symmetry_equiv_pos_site_id
 _symmetry_equiv_pos_as_xyz
  1  'x, y, z'
loop_
 _atom_site_type_symbol
 _atom_site_label
 _atom_site_symmetry_multiplicity
 _atom_site_fract_x
 _atom_site_fract_y
 _atom_site_fract_z
 _atom_site_occupancy
  Li  Li0  1  0.892426  0.117905  0.500000  1
  Li  Li1  1  0.220757  0.106201  0.500000  1
  Li  Li2  1  0.660468  0.329430  0.500000  1
  Ho  Ho3  1  0.333071  0.664038  0.000000  1
  Ni  Ni4  1  0.717298  0.882879  0.000000  1
  Ni  Ni5  1  0.162216  0.280934  0.000000  1
  Ni  Ni6  1  0.127340  0.840252  0.000000  1
  Ni  Ni7  1  0.630473  0.567699  0.000000  1
  Ni  Ni8  1  0.936180  0.366308  0.000000  1
  Ni  Ni9  1  0.430397  0.059658  0.000000  1
  Ni  Ni10  1  0.565804  0.955779  0.500000  1
  Ni  Ni11  1  0.390362  0.433892  0.500000  1
  Ni  Ni12  1  0.050073  0.611707  0.500000  1
  P  P13  1  0.593001  0.710722  0.500000  1
  P  P14  1  0.119558  0.406886  0.500000  1
  P  P15  1  0.289194  0.879972  0.500000  1
  P  P16  1  0.000457  0.999084  0.000000  1
  P  P17  1  0.880748  0.578199  0.000000  1
  P  P18  1  0.695201  0.121433  0.000000  1
  P  P19  1  0.421946  0.302692  0.000000  1
  W  W20  1  0.883036  0.784329  0.500000  1
