# generated using pymatgen
data_UTaSiRu5
_symmetry_space_group_name_H-M   'P 1'
_cell_length_a   4.05771700
_cell_length_b   5.53733325
_cell_length_c   10.89017662
_cell_angle_alpha   89.30963683
_cell_angle_beta   90.00000000
_cell_angle_gamma   90.00000000
_symmetry_Int_Tables_number   1
_chemical_formula_structural   UTaSiRu5
_chemical_formula_sum   'U2 Ta2 Si2 Ru10'
_cell_volume   244.67286782
_cell_formula_units_Z   2
loop_
 _symmetry_equiv_pos_site_id
 _symmetry_equiv_pos_as_xyz
  1  'x, y, z'
loop_
 _atom_site_type_symbol
 _atom_site_label
 _atom_site_symmetry_multiplicity
 _atom_site_fract_x
 _atom_site_fract_y
 _atom_site_fract_z
 _atom_site_occupancy
  U  U0  1  0.500000  0.828256  0.354212  1
  U  U1  1  0.500000  0.171744  0.645788  1
  Ta  Ta2  1  0.500000  0.328874  0.136260  1
  Ta  Ta3  1  0.500000  0.671126  0.863740  1
  Si  Si4  1  0.000000  0.500000  0.500000  1
  Si  Si5  1  0.000000  0.000000  0.000000  1
  Ru  Ru6  1  0.000000  0.500000  0.000000  1
  Ru  Ru7  1  0.000000  0.000000  0.500000  1
  Ru  Ru8  1  0.000000  0.573569  0.248000  1
  Ru  Ru9  1  0.000000  0.426431  0.752000  1
  Ru  Ru10  1  0.000000  0.080722  0.241375  1
  Ru  Ru11  1  0.000000  0.919278  0.758625  1
  Ru  Ru12  1  0.500000  0.823813  0.102321  1
  Ru  Ru13  1  0.500000  0.176187  0.897679  1
  Ru  Ru14  1  0.500000  0.323648  0.391872  1
  Ru  Ru15  1  0.500000  0.676352  0.608128  1
