# generated using pymatgen
data_CrSe4I
_symmetry_space_group_name_H-M   'P 1'
_cell_length_a   6.23592944
_cell_length_b   8.46517864
_cell_length_c   8.42913238
_cell_angle_alpha   108.92533654
_cell_angle_beta   105.15347184
_cell_angle_gamma   111.61886569
_symmetry_Int_Tables_number   1
_chemical_formula_structural   CrSe4I
_chemical_formula_sum   'Cr2 Se8 I2'
_cell_volume   352.68706737
_cell_formula_units_Z   2
loop_
 _symmetry_equiv_pos_site_id
 _symmetry_equiv_pos_as_xyz
  1  'x, y, z'
loop_
 _atom_site_type_symbol
 _atom_site_label
 _atom_site_symmetry_multiplicity
 _atom_site_fract_x
 _atom_site_fract_y
 _atom_site_fract_z
 _atom_site_occupancy
  Cr  Cr0  1  0.780628  0.000249  0.000703  1
  Cr  Cr1  1  0.219425  0.999728  0.999275  1
  Se  Se2  1  0.176242  0.289112  0.088569  1
  Se  Se3  1  0.510178  0.898453  0.174089  1
  Se  Se4  1  0.689833  0.216977  0.231576  1
  Se  Se5  1  0.165438  0.128718  0.282755  1
  Se  Se6  1  0.834744  0.871307  0.717265  1
  Se  Se7  1  0.310053  0.783007  0.768426  1
  Se  Se8  1  0.489752  0.101537  0.825886  1
  Se  Se9  1  0.823902  0.710905  0.911452  1
  I  I10  1  0.903577  0.634212  0.243242  1
  I  I11  1  0.096228  0.365791  0.756763  1
