# generated using pymatgen
data_Tm4MnFeRu6
_symmetry_space_group_name_H-M   'P 1'
_cell_length_a   5.32550267
_cell_length_b   5.12740703
_cell_length_c   8.82378200
_cell_angle_alpha   90.00000000
_cell_angle_beta   90.00000000
_cell_angle_gamma   121.17704384
_symmetry_Int_Tables_number   1
_chemical_formula_structural   Tm4MnFeRu6
_chemical_formula_sum   'Tm4 Mn1 Fe1 Ru6'
_cell_volume   206.14348052
_cell_formula_units_Z   1
loop_
 _symmetry_equiv_pos_site_id
 _symmetry_equiv_pos_as_xyz
  1  'x, y, z'
loop_
 _atom_site_type_symbol
 _atom_site_label
 _atom_site_symmetry_multiplicity
 _atom_site_fract_x
 _atom_site_fract_y
 _atom_site_fract_z
 _atom_site_occupancy
  Tm  Tm0  1  0.670301  0.340796  0.564755  1
  Tm  Tm1  1  0.330179  0.660304  0.433409  1
  Tm  Tm2  1  0.330179  0.660304  0.066591  1
  Tm  Tm3  1  0.670301  0.340796  0.935245  1
  Mn  Mn4  1  0.160497  0.321226  0.750000  1
  Fe  Fe5  1  0.839558  0.679443  0.250000  1
  Ru  Ru6  1  0.999642  0.999008  0.500279  1
  Ru  Ru7  1  0.999642  0.999008  0.999721  1
  Ru  Ru8  1  0.177818  0.826769  0.750000  1
  Ru  Ru9  1  0.649023  0.826780  0.750000  1
  Ru  Ru10  1  0.823061  0.172931  0.250000  1
  Ru  Ru11  1  0.349800  0.172633  0.250000  1
