# generated using pymatgen
data_Tm2Lu(Al3Os)4
_symmetry_space_group_name_H-M   'P 1'
_cell_length_a   8.77831600
_cell_length_b   8.78386291
_cell_length_c   9.55179200
_cell_angle_alpha   90.00000000
_cell_angle_beta   90.00000000
_cell_angle_gamma   119.97911273
_symmetry_Int_Tables_number   1
_chemical_formula_structural   Tm2Lu(Al3Os)4
_chemical_formula_sum   'Tm4 Lu2 Al24 Os8'
_cell_volume   637.97493588
_cell_formula_units_Z   2
loop_
 _symmetry_equiv_pos_site_id
 _symmetry_equiv_pos_as_xyz
  1  'x, y, z'
loop_
 _atom_site_type_symbol
 _atom_site_label
 _atom_site_symmetry_multiplicity
 _atom_site_fract_x
 _atom_site_fract_y
 _atom_site_fract_z
 _atom_site_occupancy
  Tm  Tm0  1  0.612328  0.806278  0.250000  1
  Tm  Tm1  1  0.387672  0.193722  0.750000  1
  Tm  Tm2  1  0.193950  0.806278  0.250000  1
  Tm  Tm3  1  0.806050  0.193722  0.750000  1
  Lu  Lu4  1  0.195042  0.390085  0.250000  1
  Lu  Lu5  1  0.804958  0.609915  0.750000  1
  Al  Al6  1  0.333400  0.666802  0.018141  1
  Al  Al7  1  0.666600  0.333198  0.981859  1
  Al  Al8  1  0.666600  0.333198  0.518141  1
  Al  Al9  1  0.333400  0.666802  0.481859  1
  Al  Al10  1  0.163143  0.326285  0.576542  1
  Al  Al11  1  0.836857  0.673715  0.423458  1
  Al  Al12  1  0.674278  0.836884  0.576851  1
  Al  Al13  1  0.836857  0.673715  0.076542  1
  Al  Al14  1  0.325722  0.163116  0.423149  1
  Al  Al15  1  0.163143  0.326285  0.923458  1
  Al  Al16  1  0.162606  0.836884  0.576851  1
  Al  Al17  1  0.325722  0.163116  0.076851  1
  Al  Al18  1  0.837394  0.163116  0.423149  1
  Al  Al19  1  0.674278  0.836884  0.923149  1
  Al  Al20  1  0.837394  0.163116  0.076851  1
  Al  Al21  1  0.162606  0.836884  0.923149  1
  Al  Al22  1  0.561453  0.122905  0.250000  1
  Al  Al23  1  0.438547  0.877095  0.750000  1
  Al  Al24  1  0.877625  0.438967  0.250000  1
  Al  Al25  1  0.122375  0.561033  0.750000  1
  Al  Al26  1  0.561342  0.438967  0.250000  1
  Al  Al27  1  0.438658  0.561033  0.750000  1
  Al  Al28  1  0.000830  0.001660  0.250000  1
  Al  Al29  1  0.999170  0.998340  0.750000  1
  Os  Os30  1  0.500000  0.000000  0.000000  1
  Os  Os31  1  0.000000  0.500000  0.000000  1
  Os  Os32  1  0.500000  0.000000  0.500000  1
  Os  Os33  1  0.500000  0.500000  0.000000  1
  Os  Os34  1  0.000000  0.500000  0.500000  1
  Os  Os35  1  0.500000  0.500000  0.500000  1
  Os  Os36  1  0.000000  0.000000  0.000000  1
  Os  Os37  1  0.000000  0.000000  0.500000  1
