# generated using pymatgen
data_Tb2YMg(AlPt)4
_symmetry_space_group_name_H-M   'P 1'
_cell_length_a   4.36447900
_cell_length_b   6.87917597
_cell_length_c   7.73230293
_cell_angle_alpha   92.76344323
_cell_angle_beta   90.00000000
_cell_angle_gamma   90.00000000
_symmetry_Int_Tables_number   1
_chemical_formula_structural   Tb2YMg(AlPt)4
_chemical_formula_sum   'Tb2 Y1 Mg1 Al4 Pt4'
_cell_volume   231.88483805
_cell_formula_units_Z   1
loop_
 _symmetry_equiv_pos_site_id
 _symmetry_equiv_pos_as_xyz
  1  'x, y, z'
loop_
 _atom_site_type_symbol
 _atom_site_label
 _atom_site_symmetry_multiplicity
 _atom_site_fract_x
 _atom_site_fract_y
 _atom_site_fract_z
 _atom_site_occupancy
  Tb  Tb0  1  0.250000  0.526237  0.816561  1
  Tb  Tb1  1  0.750000  0.977068  0.330673  1
  Y  Y2  1  0.750000  0.469708  0.180604  1
  Mg  Mg3  1  0.250000  0.025928  0.677201  1
  Al  Al4  1  0.250000  0.138280  0.054887  1
  Al  Al5  1  0.250000  0.650524  0.439373  1
  Al  Al6  1  0.750000  0.858791  0.936336  1
  Al  Al7  1  0.750000  0.356162  0.564765  1
  Pt  Pt8  1  0.250000  0.275745  0.385316  1
  Pt  Pt9  1  0.250000  0.775464  0.124241  1
  Pt  Pt10  1  0.750000  0.729471  0.618672  1
  Pt  Pt11  1  0.750000  0.216621  0.871371  1
