# generated using pymatgen
data_DyCo5As3
_symmetry_space_group_name_H-M   'P 1'
_cell_length_a   3.77854500
_cell_length_b   12.16331200
_cell_length_c   10.67345100
_cell_angle_alpha   90.00000000
_cell_angle_beta   90.00000000
_cell_angle_gamma   90.00000000
_symmetry_Int_Tables_number   1
_chemical_formula_structural   DyCo5As3
_chemical_formula_sum   'Dy4 Co20 As12'
_cell_volume   490.54777063
_cell_formula_units_Z   4
loop_
 _symmetry_equiv_pos_site_id
 _symmetry_equiv_pos_as_xyz
  1  'x, y, z'
loop_
 _atom_site_type_symbol
 _atom_site_label
 _atom_site_symmetry_multiplicity
 _atom_site_fract_x
 _atom_site_fract_y
 _atom_site_fract_z
 _atom_site_occupancy
  Dy  Dy0  1  0.750000  0.702202  0.081426  1
  Dy  Dy1  1  0.250000  0.297798  0.918574  1
  Dy  Dy2  1  0.250000  0.797798  0.581426  1
  Dy  Dy3  1  0.750000  0.202202  0.418574  1
  Co  Co4  1  0.750000  0.697016  0.383212  1
  Co  Co5  1  0.250000  0.302984  0.616788  1
  Co  Co6  1  0.250000  0.802984  0.883212  1
  Co  Co7  1  0.750000  0.197016  0.116788  1
  Co  Co8  1  0.750000  0.991066  0.212150  1
  Co  Co9  1  0.250000  0.008934  0.787850  1
  Co  Co10  1  0.250000  0.508934  0.712150  1
  Co  Co11  1  0.750000  0.491066  0.287850  1
  Co  Co12  1  0.750000  0.677153  0.783392  1
  Co  Co13  1  0.250000  0.322847  0.216608  1
  Co  Co14  1  0.250000  0.822847  0.283392  1
  Co  Co15  1  0.750000  0.177153  0.716608  1
  Co  Co16  1  0.750000  0.931797  0.969096  1
  Co  Co17  1  0.250000  0.068203  0.030904  1
  Co  Co18  1  0.250000  0.568203  0.469096  1
  Co  Co19  1  0.750000  0.431797  0.530904  1
  Co  Co20  1  0.750000  0.987747  0.592779  1
  Co  Co21  1  0.250000  0.012253  0.407221  1
  Co  Co22  1  0.250000  0.512253  0.092779  1
  Co  Co23  1  0.750000  0.487746  0.907221  1
  As  As24  1  0.750000  0.613756  0.584334  1
  As  As25  1  0.250000  0.386244  0.415666  1
  As  As26  1  0.250000  0.886244  0.084334  1
  As  As27  1  0.750000  0.113756  0.915666  1
  As  As28  1  0.750000  0.890593  0.399216  1
  As  As29  1  0.250000  0.109407  0.600784  1
  As  As30  1  0.250000  0.609407  0.899216  1
  As  As31  1  0.750000  0.390593  0.100784  1
  As  As32  1  0.750000  0.870160  0.768674  1
  As  As33  1  0.250000  0.129840  0.231326  1
  As  As34  1  0.250000  0.629840  0.268674  1
  As  As35  1  0.750000  0.370160  0.731326  1
