# generated using pymatgen
data_Pa2SnOsRh
_symmetry_space_group_name_H-M   'P 1'
_cell_length_a   7.68991100
_cell_length_b   7.69543900
_cell_length_c   3.61329500
_cell_angle_alpha   90.00000000
_cell_angle_beta   90.00000000
_cell_angle_gamma   90.00000000
_symmetry_Int_Tables_number   1
_chemical_formula_structural   Pa2SnOsRh
_chemical_formula_sum   'Pa4 Sn2 Os2 Rh2'
_cell_volume   213.82482908
_cell_formula_units_Z   2
loop_
 _symmetry_equiv_pos_site_id
 _symmetry_equiv_pos_as_xyz
  1  'x, y, z'
loop_
 _atom_site_type_symbol
 _atom_site_label
 _atom_site_symmetry_multiplicity
 _atom_site_fract_x
 _atom_site_fract_y
 _atom_site_fract_z
 _atom_site_occupancy
  Pa  Pa0  1  0.336406  0.171062  0.500000  1
  Pa  Pa1  1  0.675123  0.831428  0.500000  1
  Pa  Pa2  1  0.163594  0.671062  0.500000  1
  Pa  Pa3  1  0.824877  0.331428  0.500000  1
  Sn  Sn4  1  0.000986  0.001782  0.000000  1
  Sn  Sn5  1  0.499014  0.501782  0.000000  1
  Os  Os6  1  0.631170  0.132311  0.000000  1
  Os  Os7  1  0.868830  0.632311  0.000000  1
  Rh  Rh8  1  0.363116  0.863417  0.000000  1
  Rh  Rh9  1  0.136884  0.363417  0.000000  1
