# generated using pymatgen
data_Cs3K3Al8P4(O8F9)2
_symmetry_space_group_name_H-M   'P 1'
_cell_length_a   14.02641100
_cell_length_b   6.82581404
_cell_length_c   7.38640100
_cell_angle_alpha   73.89110812
_cell_angle_beta   90.00000000
_cell_angle_gamma   90.00000000
_symmetry_Int_Tables_number   1
_chemical_formula_structural   Cs3K3Al8P4(O8F9)2
_chemical_formula_sum   'Cs3 K3 Al8 P4 O16 F18'
_cell_volume   679.41949861
_cell_formula_units_Z   1
loop_
 _symmetry_equiv_pos_site_id
 _symmetry_equiv_pos_as_xyz
  1  'x, y, z'
loop_
 _atom_site_type_symbol
 _atom_site_label
 _atom_site_symmetry_multiplicity
 _atom_site_fract_x
 _atom_site_fract_y
 _atom_site_fract_z
 _atom_site_occupancy
  Cs  Cs0  1  0.497511  0.805502  0.799074  1
  Cs  Cs1  1  0.502346  0.194480  0.201075  1
  Cs  Cs2  1  0.998477  0.193856  0.202234  1
  K  K3  1  0.751370  0.076502  0.462651  1
  K  K4  1  0.990790  0.811851  0.790603  1
  K  K5  1  0.248345  0.920811  0.539166  1
  Al  Al6  1  0.375906  0.331069  0.681268  1
  Al  Al7  1  0.249582  0.975923  0.053916  1
  Al  Al8  1  0.249576  0.486423  0.039949  1
  Al  Al9  1  0.877808  0.669194  0.318617  1
  Al  Al10  1  0.624463  0.669199  0.318376  1
  Al  Al11  1  0.122614  0.328834  0.682377  1
  Al  Al12  1  0.750976  0.024755  0.946928  1
  Al  Al13  1  0.750870  0.515347  0.958445  1
  P  P14  1  0.102952  0.654387  0.286553  1
  P  P15  1  0.897534  0.346354  0.711939  1
  P  P16  1  0.396149  0.655254  0.288829  1
  P  P17  1  0.604659  0.345440  0.710127  1
  O  O18  1  0.847598  0.135056  0.778063  1
  O  O19  1  0.105308  0.577085  0.503158  1
  O  O20  1  0.652416  0.496677  0.802147  1
  O  O21  1  0.891666  0.418480  0.495202  1
  O  O22  1  0.001745  0.320650  0.779367  1
  O  O23  1  0.610897  0.418448  0.493650  1
  O  O24  1  0.345788  0.865269  0.223142  1
  O  O25  1  0.151472  0.502567  0.196621  1
  O  O26  1  0.655737  0.135877  0.776004  1
  O  O27  1  0.155153  0.862616  0.226361  1
  O  O28  1  0.348761  0.504647  0.195643  1
  O  O29  1  0.389580  0.581172  0.505351  1
  O  O30  1  0.499535  0.319428  0.774591  1
  O  O31  1  0.850570  0.499141  0.803649  1
  O  O32  1  0.998905  0.684594  0.213255  1
  O  O33  1  0.501411  0.680693  0.225072  1
  F  F34  1  0.249601  0.206901  0.135123  1
  F  F35  1  0.095238  0.148505  0.554471  1
  F  F36  1  0.751970  0.794837  0.864199  1
  F  F37  1  0.155219  0.094061  0.884378  1
  F  F38  1  0.248449  0.325317  0.613710  1
  F  F39  1  0.342998  0.097215  0.881304  1
  F  F40  1  0.250118  0.769042  0.934779  1
  F  F41  1  0.661338  0.529250  0.141723  1
  F  F42  1  0.750698  0.232620  0.064781  1
  F  F43  1  0.751225  0.674857  0.386247  1
  F  F44  1  0.160320  0.475968  0.854658  1
  F  F45  1  0.400284  0.161152  0.543457  1
  F  F46  1  0.905270  0.833714  0.462258  1
  F  F47  1  0.839093  0.528131  0.143772  1
  F  F48  1  0.338843  0.472192  0.856251  1
  F  F49  1  0.599999  0.839230  0.456287  1
  F  F50  1  0.843719  0.905344  0.121382  1
  F  F51  1  0.657149  0.904082  0.117820  1
