# generated using pymatgen
data_Lu5Fe11(P3Ir2)4
_symmetry_space_group_name_H-M   'P 1'
_cell_length_a   12.17085000
_cell_length_b   12.19037291
_cell_length_c   3.71272200
_cell_angle_alpha   90.00000000
_cell_angle_beta   90.00000000
_cell_angle_gamma   119.89322612
_symmetry_Int_Tables_number   1
_chemical_formula_structural   Lu5Fe11(P3Ir2)4
_chemical_formula_sum   'Lu5 Fe11 P12 Ir8'
_cell_volume   477.55921255
_cell_formula_units_Z   1
loop_
 _symmetry_equiv_pos_site_id
 _symmetry_equiv_pos_as_xyz
  1  'x, y, z'
loop_
 _atom_site_type_symbol
 _atom_site_label
 _atom_site_symmetry_multiplicity
 _atom_site_fract_x
 _atom_site_fract_y
 _atom_site_fract_z
 _atom_site_occupancy
  Lu  Lu0  1  0.667870  0.333860  0.000000  1
  Lu  Lu1  1  0.326193  0.660393  0.000000  1
  Lu  Lu2  1  0.823398  0.823069  0.500000  1
  Lu  Lu3  1  0.177372  0.000501  0.500000  1
  Lu  Lu4  1  0.000578  0.179645  0.500000  1
  Fe  Fe5  1  0.124003  0.482476  0.500000  1
  Fe  Fe6  1  0.806454  0.178681  0.000000  1
  Fe  Fe7  1  0.825024  0.628550  0.000000  1
  Fe  Fe8  1  0.371621  0.195521  0.000000  1
  Fe  Fe9  1  0.177521  0.805044  0.000000  1
  Fe  Fe10  1  0.628087  0.822870  0.000000  1
  Fe  Fe11  1  0.196374  0.373748  0.000000  1
  Fe  Fe12  1  0.282643  0.285007  0.500000  1
  Fe  Fe13  1  0.716924  0.999977  0.500000  1
  Fe  Fe14  1  0.001867  0.716977  0.500000  1
  Fe  Fe15  1  0.000309  0.000582  0.000000  1
  P  P16  1  0.694827  0.164893  0.500000  1
  P  P17  1  0.838636  0.530159  0.500000  1
  P  P18  1  0.469982  0.308221  0.500000  1
  P  P19  1  0.160216  0.681488  0.500000  1
  P  P20  1  0.528377  0.836507  0.500000  1
  P  P21  1  0.297153  0.471192  0.500000  1
  P  P22  1  0.179583  0.180583  0.000000  1
  P  P23  1  0.820917  0.000822  0.000000  1
  P  P24  1  0.001557  0.821337  0.000000  1
  P  P25  1  0.647278  0.647765  0.000000  1
  P  P26  1  0.351705  0.999228  0.000000  1
  P  P27  1  0.009340  0.361262  0.000000  1
  Ir  Ir28  1  0.874314  0.361218  0.500000  1
  Ir  Ir29  1  0.642294  0.511548  0.500000  1
  Ir  Ir30  1  0.489762  0.130620  0.500000  1
  Ir  Ir31  1  0.355463  0.865467  0.500000  1
  Ir  Ir32  1  0.506085  0.639108  0.500000  1
  Ir  Ir33  1  0.446019  0.445673  0.000000  1
  Ir  Ir34  1  0.553738  0.999131  0.000000  1
  Ir  Ir35  1  0.006517  0.556883  0.000000  1
