# generated using pymatgen
data_Tm8In2PdRu
_symmetry_space_group_name_H-M   'P 1'
_cell_length_a   9.56864435
_cell_length_b   9.56864451
_cell_length_c   9.58053500
_cell_angle_alpha   59.95888834
_cell_angle_beta   59.95888782
_cell_angle_gamma   59.77696488
_symmetry_Int_Tables_number   1
_chemical_formula_structural   Tm8In2PdRu
_chemical_formula_sum   'Tm16 In4 Pd2 Ru2'
_cell_volume   618.82657968
_cell_formula_units_Z   2
loop_
 _symmetry_equiv_pos_site_id
 _symmetry_equiv_pos_as_xyz
  1  'x, y, z'
loop_
 _atom_site_type_symbol
 _atom_site_label
 _atom_site_symmetry_multiplicity
 _atom_site_fract_x
 _atom_site_fract_y
 _atom_site_fract_z
 _atom_site_occupancy
  Tm  Tm0  1  0.349099  0.349099  0.355726  1
  Tm  Tm1  1  0.349099  0.349099  0.946077  1
  Tm  Tm2  1  0.345689  0.951779  0.351267  1
  Tm  Tm3  1  0.951779  0.345689  0.351267  1
  Tm  Tm4  1  0.817360  0.188381  0.189386  1
  Tm  Tm5  1  0.188381  0.817360  0.804874  1
  Tm  Tm6  1  0.188381  0.817360  0.189386  1
  Tm  Tm7  1  0.817360  0.188381  0.804874  1
  Tm  Tm8  1  0.188347  0.188347  0.811653  1
  Tm  Tm9  1  0.809180  0.809180  0.190820  1
  Tm  Tm10  1  0.937452  0.558121  0.565576  1
  Tm  Tm11  1  0.558121  0.937452  0.938849  1
  Tm  Tm12  1  0.558121  0.937452  0.565576  1
  Tm  Tm13  1  0.937452  0.558121  0.938849  1
  Tm  Tm14  1  0.562691  0.562691  0.937309  1
  Tm  Tm15  1  0.940025  0.940025  0.559975  1
  In  In16  1  0.583165  0.583165  0.584748  1
  In  In17  1  0.583165  0.583165  0.248922  1
  In  In18  1  0.582986  0.248686  0.584164  1
  In  In19  1  0.248686  0.582986  0.584164  1
  Pd  Pd20  1  0.144222  0.572359  0.141710  1
  Pd  Pd21  1  0.572359  0.144222  0.141710  1
  Ru  Ru22  1  0.143441  0.143441  0.141196  1
  Ru  Ru23  1  0.143441  0.143441  0.571923  1
