# generated using pymatgen
data_Zr3Ti3SiGe2
_symmetry_space_group_name_H-M   'P 1'
_cell_length_a   7.06674800
_cell_length_b   7.06674775
_cell_length_c   3.76328200
_cell_angle_alpha   90.00000000
_cell_angle_beta   90.00000000
_cell_angle_gamma   120.00000118
_symmetry_Int_Tables_number   1
_chemical_formula_structural   Zr3Ti3SiGe2
_chemical_formula_sum   'Zr3 Ti3 Si1 Ge2'
_cell_volume   162.75584105
_cell_formula_units_Z   1
loop_
 _symmetry_equiv_pos_site_id
 _symmetry_equiv_pos_as_xyz
  1  'x, y, z'
loop_
 _atom_site_type_symbol
 _atom_site_label
 _atom_site_symmetry_multiplicity
 _atom_site_fract_x
 _atom_site_fract_y
 _atom_site_fract_z
 _atom_site_occupancy
  Zr  Zr0  1  0.000000  0.403540  0.500000  1
  Zr  Zr1  1  0.596460  0.596460  0.500000  1
  Zr  Zr2  1  0.403540  0.000000  0.500000  1
  Ti  Ti3  1  0.000000  0.756656  0.000000  1
  Ti  Ti4  1  0.243344  0.243344  0.000000  1
  Ti  Ti5  1  0.756656  0.000000  0.000000  1
  Si  Si6  1  0.000000  0.000000  0.500000  1
  Ge  Ge7  1  0.333333  0.666667  0.000000  1
  Ge  Ge8  1  0.666667  0.333333  0.000000  1
