# generated using pymatgen
data_Tm16InAg3Rh4
_symmetry_space_group_name_H-M   'P 1'
_cell_length_a   9.45778382
_cell_length_b   9.45778455
_cell_length_c   9.42502751
_cell_angle_alpha   59.88497053
_cell_angle_beta   59.88496729
_cell_angle_gamma   60.00000214
_symmetry_Int_Tables_number   1
_chemical_formula_structural   Tm16InAg3Rh4
_chemical_formula_sum   'Tm16 In1 Ag3 Rh4'
_cell_volume   595.09888647
_cell_formula_units_Z   1
loop_
 _symmetry_equiv_pos_site_id
 _symmetry_equiv_pos_as_xyz
  1  'x, y, z'
loop_
 _atom_site_type_symbol
 _atom_site_label
 _atom_site_symmetry_multiplicity
 _atom_site_fract_x
 _atom_site_fract_y
 _atom_site_fract_z
 _atom_site_occupancy
  Tm  Tm0  1  0.064276  0.064276  0.436527  1
  Tm  Tm1  1  0.434921  0.064276  0.436527  1
  Tm  Tm2  1  0.060922  0.434872  0.069334  1
  Tm  Tm3  1  0.056513  0.647334  0.648821  1
  Tm  Tm4  1  0.434872  0.434872  0.069334  1
  Tm  Tm5  1  0.647334  0.056513  0.648821  1
  Tm  Tm6  1  0.187622  0.812761  0.186856  1
  Tm  Tm7  1  0.188631  0.188631  0.812174  1
  Tm  Tm8  1  0.812761  0.812761  0.186856  1
  Tm  Tm9  1  0.434872  0.060922  0.069334  1
  Tm  Tm10  1  0.812761  0.187622  0.186856  1
  Tm  Tm11  1  0.064276  0.434921  0.436527  1
  Tm  Tm12  1  0.810564  0.188631  0.812174  1
  Tm  Tm13  1  0.188631  0.810564  0.812174  1
  Tm  Tm14  1  0.648113  0.648113  0.055663  1
  Tm  Tm15  1  0.647334  0.647334  0.648821  1
  In  In16  1  0.421007  0.421007  0.736979  1
  Ag  Ag17  1  0.417619  0.417619  0.415754  1
  Ag  Ag18  1  0.749006  0.417619  0.415754  1
  Ag  Ag19  1  0.417619  0.749006  0.415754  1
  Rh  Rh20  1  0.856222  0.856222  0.431335  1
  Rh  Rh21  1  0.856790  0.856790  0.855875  1
  Rh  Rh22  1  0.430545  0.856790  0.855875  1
  Rh  Rh23  1  0.856790  0.430545  0.855875  1
