# generated using pymatgen
data_Ac2Ga3Ni4Ge
_symmetry_space_group_name_H-M   'P 1'
_cell_length_a   4.27439800
_cell_length_b   4.27439800
_cell_length_c   10.04310800
_cell_angle_alpha   90.00000000
_cell_angle_beta   90.00000000
_cell_angle_gamma   90.00000000
_symmetry_Int_Tables_number   1
_chemical_formula_structural   Ac2Ga3Ni4Ge
_chemical_formula_sum   'Ac2 Ga3 Ni4 Ge1'
_cell_volume   183.49238640
_cell_formula_units_Z   1
loop_
 _symmetry_equiv_pos_site_id
 _symmetry_equiv_pos_as_xyz
  1  'x, y, z'
loop_
 _atom_site_type_symbol
 _atom_site_label
 _atom_site_symmetry_multiplicity
 _atom_site_fract_x
 _atom_site_fract_y
 _atom_site_fract_z
 _atom_site_occupancy
  Ac  Ac0  1  0.000000  0.500000  0.245866  1
  Ac  Ac1  1  0.500000  0.000000  0.752343  1
  Ga  Ga2  1  0.000000  0.000000  0.498228  1
  Ga  Ga3  1  0.500000  0.500000  0.498228  1
  Ga  Ga4  1  0.000000  0.500000  0.883875  1
  Ni  Ni5  1  0.000000  0.000000  0.003038  1
  Ni  Ni6  1  0.500000  0.500000  0.003038  1
  Ni  Ni7  1  0.000000  0.500000  0.629593  1
  Ni  Ni8  1  0.500000  0.000000  0.367277  1
  Ge  Ge9  1  0.500000  0.000000  0.118517  1
