# generated using pymatgen
data_Rb4CeReBr12
_symmetry_space_group_name_H-M   'P 1'
_cell_length_a   7.83476800
_cell_length_b   7.83476800
_cell_length_c   11.01983900
_cell_angle_alpha   90.00000000
_cell_angle_beta   90.00000000
_cell_angle_gamma   90.00000000
_symmetry_Int_Tables_number   1
_chemical_formula_structural   Rb4CeReBr12
_chemical_formula_sum   'Rb4 Ce1 Re1 Br12'
_cell_volume   676.43727479
_cell_formula_units_Z   1
loop_
 _symmetry_equiv_pos_site_id
 _symmetry_equiv_pos_as_xyz
  1  'x, y, z'
loop_
 _atom_site_type_symbol
 _atom_site_label
 _atom_site_symmetry_multiplicity
 _atom_site_fract_x
 _atom_site_fract_y
 _atom_site_fract_z
 _atom_site_occupancy
  Rb  Rb0  1  0.500000  0.000000  0.762210  1
  Rb  Rb1  1  0.000000  0.500000  0.237790  1
  Rb  Rb2  1  0.500000  0.000000  0.237790  1
  Rb  Rb3  1  0.000000  0.500000  0.762210  1
  Ce  Ce4  1  0.500000  0.500000  0.500000  1
  Re  Re5  1  0.000000  0.000000  0.000000  1
  Br  Br6  1  0.000000  0.000000  0.770697  1
  Br  Br7  1  0.500000  0.500000  0.244785  1
  Br  Br8  1  0.751076  0.751076  0.500000  1
  Br  Br9  1  0.229460  0.229460  0.000000  1
  Br  Br10  1  0.751076  0.248924  0.500000  1
  Br  Br11  1  0.229460  0.770540  0.000000  1
  Br  Br12  1  0.000000  0.000000  0.229303  1
  Br  Br13  1  0.500000  0.500000  0.755215  1
  Br  Br14  1  0.248924  0.248924  0.500000  1
  Br  Br15  1  0.770540  0.770540  0.000000  1
  Br  Br16  1  0.248924  0.751076  0.500000  1
  Br  Br17  1  0.770540  0.229460  0.000000  1
