# generated using pymatgen
data_Rb2ZnCdF6
_symmetry_space_group_name_H-M   'P 1'
_cell_length_a   6.14469031
_cell_length_b   6.14469074
_cell_length_c   6.14469000
_cell_angle_alpha   119.99999603
_cell_angle_beta   119.99999831
_cell_angle_gamma   90.00000733
_symmetry_Int_Tables_number   1
_chemical_formula_structural   Rb2ZnCdF6
_chemical_formula_sum   'Rb2 Zn1 Cd1 F6'
_cell_volume   164.05331800
_cell_formula_units_Z   1
loop_
 _symmetry_equiv_pos_site_id
 _symmetry_equiv_pos_as_xyz
  1  'x, y, z'
loop_
 _atom_site_type_symbol
 _atom_site_label
 _atom_site_symmetry_multiplicity
 _atom_site_fract_x
 _atom_site_fract_y
 _atom_site_fract_z
 _atom_site_occupancy
  Rb  Rb0  1  0.749998  0.249999  0.499999  1
  Rb  Rb1  1  0.249999  0.749998  0.499999  1
  Zn  Zn2  1  0.500000  0.500000  0.000000  1
  Cd  Cd3  1  0.000000  0.000000  0.000000  1
  F  F4  1  0.260663  0.260663  0.000000  1
  F  F5  1  0.739336  0.260664  0.000000  1
  F  F6  1  0.739335  0.739335  0.000000  1
  F  F7  1  0.260664  0.739336  0.000000  1
  F  F8  1  0.260665  0.260665  0.521329  1
  F  F9  1  0.739335  0.739335  0.478671  1
