# generated using pymatgen
data_SrTh3(Al3Ir)6
_symmetry_space_group_name_H-M   'P 1'
_cell_length_a   7.66488069
_cell_length_b   7.66849160
_cell_length_c   9.56980200
_cell_angle_alpha   90.00000000
_cell_angle_beta   90.00000000
_cell_angle_gamma   119.44156964
_symmetry_Int_Tables_number   1
_chemical_formula_structural   SrTh3(Al3Ir)6
_chemical_formula_sum   'Sr1 Th3 Al18 Ir6'
_cell_volume   489.85252761
_cell_formula_units_Z   1
loop_
 _symmetry_equiv_pos_site_id
 _symmetry_equiv_pos_as_xyz
  1  'x, y, z'
loop_
 _atom_site_type_symbol
 _atom_site_label
 _atom_site_symmetry_multiplicity
 _atom_site_fract_x
 _atom_site_fract_y
 _atom_site_fract_z
 _atom_site_occupancy
  Sr  Sr0  1  0.329202  0.005541  0.750000  1
  Th  Th1  1  0.995609  0.671469  0.250000  1
  Th  Th2  1  0.004305  0.329312  0.750000  1
  Th  Th3  1  0.670222  0.994524  0.250000  1
  Al  Al4  1  0.134127  0.132788  0.250000  1
  Al  Al5  1  0.867302  0.869103  0.750000  1
  Al  Al6  1  0.005661  0.335583  0.075273  1
  Al  Al7  1  0.997622  0.667401  0.924277  1
  Al  Al8  1  0.997622  0.667401  0.575723  1
  Al  Al9  1  0.335434  0.005094  0.428545  1
  Al  Al10  1  0.005661  0.335583  0.424727  1
  Al  Al11  1  0.661760  0.995164  0.575605  1
  Al  Al12  1  0.661760  0.995164  0.924395  1
  Al  Al13  1  0.335434  0.005094  0.071455  1
  Al  Al14  1  0.336019  0.334186  0.549143  1
  Al  Al15  1  0.663568  0.663386  0.453493  1
  Al  Al16  1  0.663568  0.663386  0.046507  1
  Al  Al17  1  0.336019  0.334186  0.950857  1
  Al  Al18  1  0.341056  0.544237  0.250000  1
  Al  Al19  1  0.661511  0.454535  0.750000  1
  Al  Al20  1  0.544562  0.339460  0.250000  1
  Al  Al21  1  0.452980  0.657319  0.750000  1
  Ir  Ir22  1  0.675549  0.330411  0.002491  1
  Ir  Ir23  1  0.327643  0.670108  0.002756  1
  Ir  Ir24  1  0.327643  0.670108  0.497244  1
  Ir  Ir25  1  0.675549  0.330411  0.497509  1
  Ir  Ir26  1  0.996306  0.999522  0.002941  1
  Ir  Ir27  1  0.996306  0.999522  0.497059  1
