# generated using pymatgen
data_ThBr37
_symmetry_space_group_name_H-M   'P 1'
_cell_length_a   14.20848141
_cell_length_b   15.29732181
_cell_length_c   14.42416200
_cell_angle_alpha   103.00376457
_cell_angle_beta   48.80056783
_cell_angle_gamma   81.50743146
_symmetry_Int_Tables_number   1
_chemical_formula_structural   ThBr37
_chemical_formula_sum   'Th1 Br37'
_cell_volume   2102.91272627
_cell_formula_units_Z   1
loop_
 _symmetry_equiv_pos_site_id
 _symmetry_equiv_pos_as_xyz
  1  'x, y, z'
loop_
 _atom_site_type_symbol
 _atom_site_label
 _atom_site_symmetry_multiplicity
 _atom_site_fract_x
 _atom_site_fract_y
 _atom_site_fract_z
 _atom_site_occupancy
  Th  Th0  1  0.500000  0.000000  0.000000  1
  Br  Br1  1  0.782240  0.302418  0.150546  1
  Br  Br2  1  0.217760  0.697582  0.849454  1
  Br  Br3  1  0.752447  0.084269  0.365647  1
  Br  Br4  1  0.247553  0.915731  0.634353  1
  Br  Br5  1  0.119593  0.343621  0.173289  1
  Br  Br6  1  0.880407  0.656379  0.826711  1
  Br  Br7  1  0.853940  0.526111  0.247057  1
  Br  Br8  1  0.146060  0.473889  0.752943  1
  Br  Br9  1  0.689958  0.263377  0.513332  1
  Br  Br10  1  0.310042  0.736623  0.486668  1
  Br  Br11  1  0.059998  0.152016  0.463553  1
  Br  Br12  1  0.940002  0.847984  0.536447  1
  Br  Br13  1  0.016984  0.994887  0.265069  1
  Br  Br14  1  0.983016  0.005113  0.734931  1
  Br  Br15  1  0.957554  0.349128  0.598055  1
  Br  Br16  1  0.042446  0.650872  0.401945  1
  Br  Br17  1  0.576325  0.435225  0.246350  1
  Br  Br18  1  0.423675  0.564775  0.753650  1
  Br  Br19  1  0.180034  0.474001  0.269717  1
  Br  Br20  1  0.819966  0.525999  0.730283  1
  Br  Br21  1  0.000000  0.500000  0.000000  1
  Br  Br22  1  0.588958  0.947086  0.119115  1
  Br  Br23  1  0.411042  0.052914  0.880885  1
  Br  Br24  1  0.315669  0.052706  0.301696  1
  Br  Br25  1  0.684331  0.947294  0.698304  1
  Br  Br26  1  0.518665  0.129743  0.423550  1
  Br  Br27  1  0.481335  0.870257  0.576450  1
  Br  Br28  1  0.098228  0.207016  0.075796  1
  Br  Br29  1  0.901772  0.792984  0.924204  1
  Br  Br30  1  0.661943  0.698092  0.406783  1
  Br  Br31  1  0.338057  0.301908  0.593217  1
  Br  Br32  1  0.881070  0.153110  0.937127  1
  Br  Br33  1  0.118930  0.846890  0.062873  1
  Br  Br34  1  0.516737  0.176446  0.051867  1
  Br  Br35  1  0.483263  0.823554  0.948133  1
  Br  Br36  1  0.645036  0.427329  0.648218  1
  Br  Br37  1  0.354964  0.572671  0.351782  1
