# generated using pymatgen
data_YTaGaB2Ru5
_symmetry_space_group_name_H-M   'P 1'
_cell_length_a   9.50466224
_cell_length_b   9.50466224
_cell_length_c   3.05650700
_cell_angle_alpha   90.00000000
_cell_angle_beta   90.00000000
_cell_angle_gamma   91.45127401
_symmetry_Int_Tables_number   1
_chemical_formula_structural   YTaGaB2Ru5
_chemical_formula_sum   'Y2 Ta2 Ga2 B4 Ru10'
_cell_volume   276.03200414
_cell_formula_units_Z   2
loop_
 _symmetry_equiv_pos_site_id
 _symmetry_equiv_pos_as_xyz
  1  'x, y, z'
loop_
 _atom_site_type_symbol
 _atom_site_label
 _atom_site_symmetry_multiplicity
 _atom_site_fract_x
 _atom_site_fract_y
 _atom_site_fract_z
 _atom_site_occupancy
  Y  Y0  1  0.822834  0.677166  0.000000  1
  Y  Y1  1  0.177166  0.322834  0.000000  1
  Ta  Ta2  1  0.325924  0.825924  0.000000  1
  Ta  Ta3  1  0.674076  0.174076  0.000000  1
  Ga  Ga4  1  0.500000  0.500000  0.000000  1
  Ga  Ga5  1  0.000000  0.000000  0.000000  1
  B  B6  1  0.621846  0.878154  0.000000  1
  B  B7  1  0.378154  0.121846  0.000000  1
  B  B8  1  0.124974  0.624974  0.000000  1
  B  B9  1  0.875026  0.375026  0.000000  1
  Ru  Ru10  1  0.554618  0.721992  0.500000  1
  Ru  Ru11  1  0.445382  0.278008  0.500000  1
  Ru  Ru12  1  0.085968  0.788208  0.500000  1
  Ru  Ru13  1  0.914032  0.211792  0.500000  1
  Ru  Ru14  1  0.288208  0.585968  0.500000  1
  Ru  Ru15  1  0.711792  0.414032  0.500000  1
  Ru  Ru16  1  0.221992  0.054618  0.500000  1
  Ru  Ru17  1  0.778008  0.945382  0.500000  1
  Ru  Ru18  1  0.500000  0.000000  0.500000  1
  Ru  Ru19  1  0.000000  0.500000  0.500000  1
