# generated using pymatgen
data_SrSm(Sn2Rh)2
_symmetry_space_group_name_H-M   'P 1'
_cell_length_a   8.91737602
_cell_length_b   8.91737611
_cell_length_c   9.65464700
_cell_angle_alpha   89.99577865
_cell_angle_beta   90.00422777
_cell_angle_gamma   149.67230216
_symmetry_Int_Tables_number   1
_chemical_formula_structural   SrSm(Sn2Rh)2
_chemical_formula_sum   'Sr2 Sm2 Sn8 Rh4'
_cell_volume   387.66321453
_cell_formula_units_Z   2
loop_
 _symmetry_equiv_pos_site_id
 _symmetry_equiv_pos_as_xyz
  1  'x, y, z'
loop_
 _atom_site_type_symbol
 _atom_site_label
 _atom_site_symmetry_multiplicity
 _atom_site_fract_x
 _atom_site_fract_y
 _atom_site_fract_z
 _atom_site_occupancy
  Sr  Sr0  1  0.500000  0.500000  0.500000  1
  Sr  Sr1  1  0.500000  0.500000  0.000000  1
  Sm  Sm2  1  0.703473  0.296527  0.750009  1
  Sm  Sm3  1  0.296527  0.703473  0.249991  1
  Sn  Sn4  1  0.698145  0.301855  0.409327  1
  Sn  Sn5  1  0.301855  0.698145  0.590673  1
  Sn  Sn6  1  0.301869  0.698131  0.909365  1
  Sn  Sn7  1  0.698131  0.301869  0.090635  1
  Sn  Sn8  1  0.906461  0.093539  0.750023  1
  Sn  Sn9  1  0.093539  0.906461  0.249977  1
  Sn  Sn10  1  0.077348  0.922652  0.749989  1
  Sn  Sn11  1  0.922652  0.077348  0.250011  1
  Rh  Rh12  1  0.849489  0.150511  0.495753  1
  Rh  Rh13  1  0.150511  0.849489  0.504247  1
  Rh  Rh14  1  0.150526  0.849474  0.995537  1
  Rh  Rh15  1  0.849474  0.150526  0.004463  1
