# generated using pymatgen
data_ErTh2Sn3Ir2Rh
_symmetry_space_group_name_H-M   'P 1'
_cell_length_a   7.56145181
_cell_length_b   7.56145113
_cell_length_c   4.05727900
_cell_angle_alpha   90.00000000
_cell_angle_beta   90.00000000
_cell_angle_gamma   120.19509842
_symmetry_Int_Tables_number   1
_chemical_formula_structural   ErTh2Sn3Ir2Rh
_chemical_formula_sum   'Er1 Th2 Sn3 Ir2 Rh1'
_cell_volume   200.50198875
_cell_formula_units_Z   1
loop_
 _symmetry_equiv_pos_site_id
 _symmetry_equiv_pos_as_xyz
  1  'x, y, z'
loop_
 _atom_site_type_symbol
 _atom_site_label
 _atom_site_symmetry_multiplicity
 _atom_site_fract_x
 _atom_site_fract_y
 _atom_site_fract_z
 _atom_site_occupancy
  Er  Er0  1  0.407458  0.407458  0.500000  1
  Th  Th1  1  0.586329  0.999364  0.500000  1
  Th  Th2  1  0.999364  0.586329  0.500000  1
  Sn  Sn3  1  0.738010  0.738010  0.000000  1
  Sn  Sn4  1  0.253831  0.010838  0.000000  1
  Sn  Sn5  1  0.010838  0.253831  0.000000  1
  Ir  Ir6  1  0.675105  0.332392  0.000000  1
  Ir  Ir7  1  0.332392  0.675105  0.000000  1
  Rh  Rh8  1  0.996672  0.996672  0.500000  1
