# generated using pymatgen
data_Nd6ZrCo16P12Ru
_symmetry_space_group_name_H-M   'P 1'
_cell_length_a   3.76755200
_cell_length_b   10.71031200
_cell_length_c   12.53865200
_cell_angle_alpha   90.00000000
_cell_angle_beta   90.00000000
_cell_angle_gamma   90.00000000
_symmetry_Int_Tables_number   1
_chemical_formula_structural   Nd6ZrCo16P12Ru
_chemical_formula_sum   'Nd6 Zr1 Co16 P12 Ru1'
_cell_volume   505.95538971
_cell_formula_units_Z   1
loop_
 _symmetry_equiv_pos_site_id
 _symmetry_equiv_pos_as_xyz
  1  'x, y, z'
loop_
 _atom_site_type_symbol
 _atom_site_label
 _atom_site_symmetry_multiplicity
 _atom_site_fract_x
 _atom_site_fract_y
 _atom_site_fract_z
 _atom_site_occupancy
  Nd  Nd0  1  0.000000  0.500000  0.528943  1
  Nd  Nd1  1  0.500000  0.000000  0.475034  1
  Nd  Nd2  1  0.500000  0.819169  0.207881  1
  Nd  Nd3  1  0.500000  0.180831  0.207881  1
  Nd  Nd4  1  0.000000  0.683516  0.795412  1
  Nd  Nd5  1  0.000000  0.316484  0.795412  1
  Zr  Zr6  1  0.500000  0.500000  0.152687  1
  Co  Co7  1  0.500000  0.500000  0.705041  1
  Co  Co8  1  0.000000  0.000000  0.294582  1
  Co  Co9  1  0.000000  0.500000  0.983526  1
  Co  Co10  1  0.500000  0.000000  0.012373  1
  Co  Co11  1  0.500000  0.326623  0.989055  1
  Co  Co12  1  0.500000  0.673377  0.989055  1
  Co  Co13  1  0.000000  0.162047  0.004489  1
  Co  Co14  1  0.000000  0.837953  0.004489  1
  Co  Co15  1  0.500000  0.294229  0.434758  1
  Co  Co16  1  0.500000  0.705771  0.434758  1
  Co  Co17  1  0.000000  0.202203  0.570810  1
  Co  Co18  1  0.000000  0.797797  0.570810  1
  Co  Co19  1  0.500000  0.882698  0.707540  1
  Co  Co20  1  0.500000  0.117302  0.707540  1
  Co  Co21  1  0.000000  0.620635  0.299002  1
  Co  Co22  1  0.000000  0.379365  0.299002  1
  P  P23  1  0.500000  0.500000  0.884346  1
  P  P24  1  0.000000  0.000000  0.114375  1
  P  P25  1  0.500000  0.500000  0.357375  1
  P  P26  1  0.000000  0.000000  0.652979  1
  P  P27  1  0.500000  0.305868  0.615681  1
  P  P28  1  0.500000  0.694132  0.615681  1
  P  P29  1  0.000000  0.192628  0.388012  1
  P  P30  1  0.000000  0.807372  0.388012  1
  P  P31  1  0.500000  0.852062  0.891693  1
  P  P32  1  0.500000  0.147938  0.891693  1
  P  P33  1  0.000000  0.662139  0.095894  1
  P  P34  1  0.000000  0.337861  0.095894  1
  Ru  Ru35  1  0.000000  0.000000  0.838285  1
