# generated using pymatgen
data_Y20CdIn5Tc2
_symmetry_space_group_name_H-M   'P 1'
_cell_length_a   9.76233416
_cell_length_b   9.82258832
_cell_length_c   9.75886700
_cell_angle_alpha   90.00000000
_cell_angle_beta   90.00000000
_cell_angle_gamma   120.20441350
_symmetry_Int_Tables_number   1
_chemical_formula_structural   Y20CdIn5Tc2
_chemical_formula_sum   'Y20 Cd1 In5 Tc2'
_cell_volume   808.74459255
_cell_formula_units_Z   1
loop_
 _symmetry_equiv_pos_site_id
 _symmetry_equiv_pos_as_xyz
  1  'x, y, z'
loop_
 _atom_site_type_symbol
 _atom_site_label
 _atom_site_symmetry_multiplicity
 _atom_site_fract_x
 _atom_site_fract_y
 _atom_site_fract_z
 _atom_site_occupancy
  Y  Y0  1  0.995854  0.997927  0.502528  1
  Y  Y1  1  0.995854  0.997927  0.997472  1
  Y  Y2  1  0.210222  0.790987  0.440375  1
  Y  Y3  1  0.210222  0.419235  0.440375  1
  Y  Y4  1  0.579912  0.789957  0.437724  1
  Y  Y5  1  0.790387  0.210678  0.560016  1
  Y  Y6  1  0.790387  0.579708  0.560019  1
  Y  Y7  1  0.418945  0.209472  0.561290  1
  Y  Y8  1  0.790387  0.210678  0.939984  1
  Y  Y9  1  0.790387  0.579708  0.939981  1
  Y  Y10  1  0.418945  0.209472  0.938710  1
  Y  Y11  1  0.210222  0.790987  0.059625  1
  Y  Y12  1  0.210222  0.419235  0.059625  1
  Y  Y13  1  0.579912  0.789957  0.062276  1
  Y  Y14  1  0.538671  0.460910  0.250000  1
  Y  Y15  1  0.538673  0.077766  0.250000  1
  Y  Y16  1  0.926497  0.463248  0.250000  1
  Y  Y17  1  0.464106  0.541224  0.750000  1
  Y  Y18  1  0.464105  0.922882  0.750000  1
  Y  Y19  1  0.079238  0.539619  0.750000  1
  Cd  Cd20  1  0.766764  0.883382  0.750000  1
  In  In21  1  0.885063  0.117876  0.250000  1
  In  In22  1  0.885063  0.767188  0.250000  1
  In  In23  1  0.230567  0.115283  0.250000  1
  In  In24  1  0.115681  0.882278  0.750000  1
  In  In25  1  0.115681  0.233403  0.750000  1
  Tc  Tc26  1  0.330654  0.665327  0.250000  1
  Tc  Tc27  1  0.667379  0.333690  0.750000  1
