# generated using pymatgen
data_Dy8Sc12Si15Hg
_symmetry_space_group_name_H-M   'P 1'
_cell_length_a   7.13627972
_cell_length_b   7.39747735
_cell_length_c   14.09439509
_cell_angle_alpha   89.92832091
_cell_angle_beta   89.54911778
_cell_angle_gamma   90.14059403
_symmetry_Int_Tables_number   1
_chemical_formula_structural   Dy8Sc12Si15Hg
_chemical_formula_sum   'Dy8 Sc12 Si15 Hg1'
_cell_volume   744.02382815
_cell_formula_units_Z   1
loop_
 _symmetry_equiv_pos_site_id
 _symmetry_equiv_pos_as_xyz
  1  'x, y, z'
loop_
 _atom_site_type_symbol
 _atom_site_label
 _atom_site_symmetry_multiplicity
 _atom_site_fract_x
 _atom_site_fract_y
 _atom_site_fract_z
 _atom_site_occupancy
  Dy  Dy0  1  0.012176  0.175616  0.097226  1
  Dy  Dy1  1  0.987452  0.825300  0.904316  1
  Dy  Dy2  1  0.487331  0.676768  0.903833  1
  Dy  Dy3  1  0.988808  0.831317  0.598285  1
  Dy  Dy4  1  0.511983  0.323715  0.096440  1
  Dy  Dy5  1  0.007618  0.171122  0.398321  1
  Dy  Dy6  1  0.511692  0.322068  0.399060  1
  Dy  Dy7  1  0.496412  0.681792  0.600315  1
  Sc  Sc8  1  0.162578  0.501614  0.754262  1
  Sc  Sc9  1  0.836935  0.498181  0.250009  1
  Sc  Sc10  1  0.337335  0.001159  0.248811  1
  Sc  Sc11  1  0.664978  0.996631  0.751632  1
  Sc  Sc12  1  0.342297  0.168047  0.628922  1
  Sc  Sc13  1  0.664186  0.824586  0.373038  1
  Sc  Sc14  1  0.166609  0.677881  0.370689  1
  Sc  Sc15  1  0.669375  0.823745  0.124248  1
  Sc  Sc16  1  0.825479  0.325078  0.626303  1
  Sc  Sc17  1  0.329031  0.175079  0.876148  1
  Sc  Sc18  1  0.830254  0.322838  0.876193  1
  Sc  Sc19  1  0.168845  0.676750  0.124898  1
  Si  Si20  1  0.035529  0.120302  0.751477  1
  Si  Si21  1  0.964148  0.884069  0.247877  1
  Si  Si22  1  0.466041  0.615159  0.247863  1
  Si  Si23  1  0.533763  0.386097  0.752209  1
  Si  Si24  1  0.284807  0.871915  0.751858  1
  Si  Si25  1  0.712698  0.127817  0.247729  1
  Si  Si26  1  0.213331  0.371091  0.248078  1
  Si  Si27  1  0.788800  0.628439  0.752700  1
  Si  Si28  1  0.832431  0.538396  0.459101  1
  Si  Si29  1  0.338548  0.962378  0.460015  1
  Si  Si30  1  0.843491  0.535261  0.038867  1
  Si  Si31  1  0.660412  0.037348  0.537562  1
  Si  Si32  1  0.156348  0.464186  0.962153  1
  Si  Si33  1  0.656220  0.034783  0.960549  1
  Si  Si34  1  0.342719  0.965002  0.039793  1
  Hg  Hg35  1  0.169340  0.458470  0.539224  1
