# generated using pymatgen
data_Ac4B2CI5
_symmetry_space_group_name_H-M   'P 1'
_cell_length_a   4.37848706
_cell_length_b   12.55366759
_cell_length_c   16.29204756
_cell_angle_alpha   90.99574090
_cell_angle_beta   97.72247882
_cell_angle_gamma   100.04320659
_symmetry_Int_Tables_number   1
_chemical_formula_structural   Ac4B2CI5
_chemical_formula_sum   'Ac8 B4 C2 I10'
_cell_volume   873.02554563
_cell_formula_units_Z   2
loop_
 _symmetry_equiv_pos_site_id
 _symmetry_equiv_pos_as_xyz
  1  'x, y, z'
loop_
 _atom_site_type_symbol
 _atom_site_label
 _atom_site_symmetry_multiplicity
 _atom_site_fract_x
 _atom_site_fract_y
 _atom_site_fract_z
 _atom_site_occupancy
  Ac  Ac0  1  0.973292  0.843749  0.102835  1
  Ac  Ac1  1  0.636877  0.148608  0.125147  1
  Ac  Ac2  1  0.552099  0.708315  0.395884  1
  Ac  Ac3  1  0.912685  0.417544  0.407828  1
  Ac  Ac4  1  0.087315  0.582456  0.592172  1
  Ac  Ac5  1  0.447901  0.291684  0.604116  1
  Ac  Ac6  1  0.363123  0.851391  0.874853  1
  Ac  Ac7  1  0.026708  0.156250  0.897165  1
  B  B8  1  0.315318  0.000000  0.000000  1
  B  B9  1  0.684681  0.000000  0.000000  1
  B  B10  1  0.050432  0.054102  0.046762  1
  B  B11  1  0.949568  0.945898  0.953238  1
  C  C12  1  0.511677  0.546481  0.476874  1
  C  C13  1  0.488323  0.453519  0.523126  1
  I  I14  1  0.340288  0.661308  0.019269  1
  I  I15  1  0.930281  0.608065  0.252497  1
  I  I16  1  0.594433  0.933950  0.254915  1
  I  I17  1  0.280111  0.296615  0.263607  1
  I  I18  1  0.820385  0.160550  0.480223  1
  I  I19  1  0.179614  0.839450  0.519777  1
  I  I20  1  0.719889  0.703385  0.736393  1
  I  I21  1  0.405567  0.066050  0.745085  1
  I  I22  1  0.069719  0.391935  0.747503  1
  I  I23  1  0.659711  0.338692  0.980731  1
