# generated using pymatgen
data_Sb2AuF12
_symmetry_space_group_name_H-M   'P 1'
_cell_length_a   5.51144534
_cell_length_b   5.61336464
_cell_length_c   9.09837677
_cell_angle_alpha   103.77565991
_cell_angle_beta   87.49954822
_cell_angle_gamma   114.04628957
_symmetry_Int_Tables_number   1
_chemical_formula_structural   Sb2AuF12
_chemical_formula_sum   'Sb2 Au1 F12'
_cell_volume   249.20826145
_cell_formula_units_Z   1
loop_
 _symmetry_equiv_pos_site_id
 _symmetry_equiv_pos_as_xyz
  1  'x, y, z'
loop_
 _atom_site_type_symbol
 _atom_site_label
 _atom_site_symmetry_multiplicity
 _atom_site_fract_x
 _atom_site_fract_y
 _atom_site_fract_z
 _atom_site_occupancy
  Sb  Sb0  1  0.269755  0.012357  0.766426  1
  Sb  Sb1  1  0.730245  0.987643  0.233574  1
  Au  Au2  1  0.500000  0.500000  0.500000  1
  F  F3  1  0.769698  0.771310  0.372513  1
  F  F4  1  0.230302  0.228690  0.627487  1
  F  F5  1  0.360617  0.778978  0.232160  1
  F  F6  1  0.308504  0.769085  0.865184  1
  F  F7  1  0.691496  0.230915  0.134816  1
  F  F8  1  0.898060  0.803827  0.716653  1
  F  F9  1  0.101940  0.196173  0.283347  1
  F  F10  1  0.310655  0.774748  0.568651  1
  F  F11  1  0.689345  0.225252  0.431349  1
  F  F12  1  0.209852  0.242462  0.936876  1
  F  F13  1  0.790148  0.757538  0.063124  1
  F  F14  1  0.639383  0.221022  0.767840  1
