# generated using pymatgen
data_Cr2TeO5
_symmetry_space_group_name_H-M   'P 1'
_cell_length_a   5.01609000
_cell_length_b   7.65429081
_cell_length_c   10.89314423
_cell_angle_alpha   77.06042884
_cell_angle_beta   90.00000000
_cell_angle_gamma   90.00000000
_symmetry_Int_Tables_number   1
_chemical_formula_structural   Cr2TeO5
_chemical_formula_sum   'Cr8 Te4 O20'
_cell_volume   407.61762890
_cell_formula_units_Z   4
loop_
 _symmetry_equiv_pos_site_id
 _symmetry_equiv_pos_as_xyz
  1  'x, y, z'
loop_
 _atom_site_type_symbol
 _atom_site_label
 _atom_site_symmetry_multiplicity
 _atom_site_fract_x
 _atom_site_fract_y
 _atom_site_fract_z
 _atom_site_occupancy
  Cr  Cr0  1  0.054389  0.181971  0.909564  1
  Cr  Cr1  1  0.945611  0.818029  0.090436  1
  Cr  Cr2  1  0.554389  0.818029  0.590436  1
  Cr  Cr3  1  0.425552  0.023211  0.131802  1
  Cr  Cr4  1  0.574448  0.976789  0.868198  1
  Cr  Cr5  1  0.074448  0.023211  0.631802  1
  Cr  Cr6  1  0.445611  0.181971  0.409564  1
  Cr  Cr7  1  0.925552  0.976789  0.368198  1
  Te  Te8  1  0.063112  0.643557  0.835614  1
  Te  Te9  1  0.936888  0.356443  0.164386  1
  Te  Te10  1  0.563112  0.356443  0.664386  1
  Te  Te11  1  0.436888  0.643557  0.335614  1
  O  O12  1  0.879512  0.097810  0.769127  1
  O  O13  1  0.709888  0.742086  0.435285  1
  O  O14  1  0.252995  0.946587  0.485018  1
  O  O15  1  0.209888  0.257914  0.064715  1
  O  O16  1  0.877531  0.423584  0.837521  1
  O  O17  1  0.377531  0.576416  0.662479  1
  O  O18  1  0.752995  0.053413  0.014982  1
  O  O19  1  0.122469  0.576416  0.162479  1
  O  O20  1  0.120488  0.902190  0.230873  1
  O  O21  1  0.595089  0.772497  0.182258  1
  O  O22  1  0.247005  0.946587  0.985018  1
  O  O23  1  0.790112  0.742086  0.935285  1
  O  O24  1  0.904911  0.772497  0.682258  1
  O  O25  1  0.095089  0.227503  0.317742  1
  O  O26  1  0.622469  0.423584  0.337521  1
  O  O27  1  0.379512  0.902190  0.730873  1
  O  O28  1  0.290112  0.257914  0.564715  1
  O  O29  1  0.747005  0.053413  0.514982  1
  O  O30  1  0.404911  0.227503  0.817742  1
  O  O31  1  0.620488  0.097810  0.269127  1
