# generated using pymatgen
data_La2CuNiRu2
_symmetry_space_group_name_H-M   'P 1'
_cell_length_a   5.37428862
_cell_length_b   5.44750140
_cell_length_c   5.44750097
_cell_angle_alpha   57.04746854
_cell_angle_beta   59.66103926
_cell_angle_gamma   59.66103887
_symmetry_Int_Tables_number   1
_chemical_formula_structural   La2CuNiRu2
_chemical_formula_sum   'La2 Cu1 Ni1 Ru2'
_cell_volume   109.49999626
_cell_formula_units_Z   1
loop_
 _symmetry_equiv_pos_site_id
 _symmetry_equiv_pos_as_xyz
  1  'x, y, z'
loop_
 _atom_site_type_symbol
 _atom_site_label
 _atom_site_symmetry_multiplicity
 _atom_site_fract_x
 _atom_site_fract_y
 _atom_site_fract_z
 _atom_site_occupancy
  La  La0  1  0.491288  0.505380  0.505380  1
  La  La1  1  0.758712  0.744620  0.744620  1
  Cu  Cu2  1  0.625000  0.125000  0.125000  1
  Ni  Ni3  1  0.125000  0.125000  0.125000  1
  Ru  Ru4  1  0.125000  0.625000  0.125000  1
  Ru  Ru5  1  0.125000  0.125000  0.625000  1
