# generated using pymatgen
data_Tb8Er12Si15As
_symmetry_space_group_name_H-M   'P 1'
_cell_length_a   7.43828425
_cell_length_b   7.63554891
_cell_length_c   14.53097875
_cell_angle_alpha   89.93291301
_cell_angle_beta   87.13855905
_cell_angle_gamma   90.08027307
_symmetry_Int_Tables_number   1
_chemical_formula_structural   Tb8Er12Si15As
_chemical_formula_sum   'Tb8 Er12 Si15 As1'
_cell_volume   824.26206947
_cell_formula_units_Z   1
loop_
 _symmetry_equiv_pos_site_id
 _symmetry_equiv_pos_as_xyz
  1  'x, y, z'
loop_
 _atom_site_type_symbol
 _atom_site_label
 _atom_site_symmetry_multiplicity
 _atom_site_fract_x
 _atom_site_fract_y
 _atom_site_fract_z
 _atom_site_occupancy
  Tb  Tb0  1  0.020745  0.182542  0.099147  1
  Tb  Tb1  1  0.979724  0.818339  0.900410  1
  Tb  Tb2  1  0.480062  0.681722  0.900687  1
  Tb  Tb3  1  0.994741  0.819817  0.597688  1
  Tb  Tb4  1  0.520603  0.318735  0.099451  1
  Tb  Tb5  1  0.002500  0.178532  0.401942  1
  Tb  Tb6  1  0.503617  0.316900  0.400985  1
  Tb  Tb7  1  0.501838  0.681592  0.598603  1
  Er  Er8  1  0.167126  0.506868  0.749083  1
  Er  Er9  1  0.832549  0.493197  0.254219  1
  Er  Er10  1  0.331695  0.007760  0.253278  1
  Er  Er11  1  0.668850  0.992574  0.747109  1
  Er  Er12  1  0.348867  0.166857  0.622557  1
  Er  Er13  1  0.652109  0.831395  0.377662  1
  Er  Er14  1  0.150990  0.668758  0.380373  1
  Er  Er15  1  0.673101  0.822201  0.122985  1
  Er  Er16  1  0.846527  0.331434  0.619641  1
  Er  Er17  1  0.326799  0.177638  0.876559  1
  Er  Er18  1  0.827436  0.321691  0.876636  1
  Er  Er19  1  0.171827  0.678810  0.122881  1
  Si  Si20  1  0.041117  0.109779  0.750724  1
  Si  Si21  1  0.959087  0.890909  0.248361  1
  Si  Si22  1  0.457022  0.609598  0.248501  1
  Si  Si23  1  0.541724  0.390923  0.750751  1
  Si  Si24  1  0.285720  0.870371  0.751500  1
  Si  Si25  1  0.715716  0.128313  0.247901  1
  Si  Si26  1  0.214618  0.373022  0.248666  1
  Si  Si27  1  0.786326  0.627859  0.751057  1
  Si  Si28  1  0.798061  0.536070  0.457135  1
  Si  Si29  1  0.308395  0.963752  0.458755  1
  Si  Si30  1  0.850836  0.530638  0.040056  1
  Si  Si31  1  0.690954  0.035977  0.541832  1
  Si  Si32  1  0.148561  0.470317  0.959380  1
  Si  Si33  1  0.647938  0.030185  0.959157  1
  Si  Si34  1  0.351776  0.970758  0.040870  1
  As  As35  1  0.200441  0.464167  0.543458  1
