# generated using pymatgen
data_Li2Lu3MgSn3
_symmetry_space_group_name_H-M   'P 1'
_cell_length_a   7.17286781
_cell_length_b   7.34172870
_cell_length_c   4.59557700
_cell_angle_alpha   90.00000000
_cell_angle_beta   90.00000000
_cell_angle_gamma   120.78186744
_symmetry_Int_Tables_number   1
_chemical_formula_structural   Li2Lu3MgSn3
_chemical_formula_sum   'Li2 Lu3 Mg1 Sn3'
_cell_volume   207.91508354
_cell_formula_units_Z   1
loop_
 _symmetry_equiv_pos_site_id
 _symmetry_equiv_pos_as_xyz
  1  'x, y, z'
loop_
 _atom_site_type_symbol
 _atom_site_label
 _atom_site_symmetry_multiplicity
 _atom_site_fract_x
 _atom_site_fract_y
 _atom_site_fract_z
 _atom_site_occupancy
  Li  Li0  1  0.231813  0.238125  0.500000  1
  Li  Li1  1  0.768187  0.006311  0.500000  1
  Lu  Lu2  1  0.000000  0.436713  0.000000  1
  Lu  Lu3  1  0.558740  0.552211  0.000000  1
  Lu  Lu4  1  0.441260  0.993471  0.000000  1
  Mg  Mg5  1  0.000000  0.769419  0.500000  1
  Sn  Sn6  1  0.341591  0.663902  0.500000  1
  Sn  Sn7  1  0.000000  0.017539  0.000000  1
  Sn  Sn8  1  0.658409  0.322310  0.500000  1
