# generated using pymatgen
data_Y3Ni8P6Os
_symmetry_space_group_name_H-M   'P 1'
_cell_length_a   3.80088200
_cell_length_b   10.51536400
_cell_length_c   12.47775000
_cell_angle_alpha   90.00000000
_cell_angle_beta   90.00000000
_cell_angle_gamma   90.00000000
_symmetry_Int_Tables_number   1
_chemical_formula_structural   Y3Ni8P6Os
_chemical_formula_sum   'Y6 Ni16 P12 Os2'
_cell_volume   498.70644150
_cell_formula_units_Z   2
loop_
 _symmetry_equiv_pos_site_id
 _symmetry_equiv_pos_as_xyz
  1  'x, y, z'
loop_
 _atom_site_type_symbol
 _atom_site_label
 _atom_site_symmetry_multiplicity
 _atom_site_fract_x
 _atom_site_fract_y
 _atom_site_fract_z
 _atom_site_occupancy
  Y  Y0  1  0.000000  0.500000  0.522924  1
  Y  Y1  1  0.500000  0.000000  0.477076  1
  Y  Y2  1  0.500000  0.813902  0.207926  1
  Y  Y3  1  0.500000  0.186098  0.207926  1
  Y  Y4  1  0.000000  0.686098  0.792074  1
  Y  Y5  1  0.000000  0.313902  0.792074  1
  Ni  Ni6  1  0.500000  0.500000  0.700258  1
  Ni  Ni7  1  0.000000  0.000000  0.299742  1
  Ni  Ni8  1  0.000000  0.500000  0.981332  1
  Ni  Ni9  1  0.500000  0.000000  0.018668  1
  Ni  Ni10  1  0.500000  0.331067  0.986064  1
  Ni  Ni11  1  0.500000  0.668933  0.986064  1
  Ni  Ni12  1  0.000000  0.168933  0.013936  1
  Ni  Ni13  1  0.000000  0.831067  0.013936  1
  Ni  Ni14  1  0.500000  0.302543  0.429440  1
  Ni  Ni15  1  0.500000  0.697457  0.429440  1
  Ni  Ni16  1  0.000000  0.197457  0.570560  1
  Ni  Ni17  1  0.000000  0.802543  0.570560  1
  Ni  Ni18  1  0.500000  0.880096  0.710403  1
  Ni  Ni19  1  0.500000  0.119904  0.710403  1
  Ni  Ni20  1  0.000000  0.619904  0.289597  1
  Ni  Ni21  1  0.000000  0.380096  0.289597  1
  P  P22  1  0.500000  0.500000  0.874915  1
  P  P23  1  0.000000  0.000000  0.125085  1
  P  P24  1  0.500000  0.500000  0.347104  1
  P  P25  1  0.000000  0.000000  0.652896  1
  P  P26  1  0.500000  0.313315  0.614447  1
  P  P27  1  0.500000  0.686685  0.614447  1
  P  P28  1  0.000000  0.186685  0.385553  1
  P  P29  1  0.000000  0.813315  0.385553  1
  P  P30  1  0.500000  0.851467  0.892615  1
  P  P31  1  0.500000  0.148533  0.892615  1
  P  P32  1  0.000000  0.648533  0.107385  1
  P  P33  1  0.000000  0.351467  0.107385  1
  Os  Os34  1  0.500000  0.500000  0.156881  1
  Os  Os35  1  0.000000  0.000000  0.843119  1
