# generated using pymatgen
data_La3YbAl8
_symmetry_space_group_name_H-M   'P 1'
_cell_length_a   9.85957427
_cell_length_b   9.85957393
_cell_length_c   9.85957375
_cell_angle_alpha   33.78683422
_cell_angle_beta   33.78683793
_cell_angle_gamma   33.78683584
_symmetry_Int_Tables_number   1
_chemical_formula_structural   La3YbAl8
_chemical_formula_sum   'La3 Yb1 Al8'
_cell_volume   264.11612444
_cell_formula_units_Z   1
loop_
 _symmetry_equiv_pos_site_id
 _symmetry_equiv_pos_as_xyz
  1  'x, y, z'
loop_
 _atom_site_type_symbol
 _atom_site_label
 _atom_site_symmetry_multiplicity
 _atom_site_fract_x
 _atom_site_fract_y
 _atom_site_fract_z
 _atom_site_occupancy
  La  La0  1  0.374613  0.374613  0.374613  1
  La  La1  1  0.998695  0.998695  0.998695  1
  La  La2  1  0.501912  0.501912  0.501912  1
  Yb  Yb3  1  0.874684  0.874684  0.874684  1
  Al  Al4  1  0.437595  0.937912  0.437595  1
  Al  Al5  1  0.937744  0.436467  0.937744  1
  Al  Al6  1  0.437595  0.437595  0.937912  1
  Al  Al7  1  0.937744  0.937744  0.436467  1
  Al  Al8  1  0.187976  0.187976  0.187976  1
  Al  Al9  1  0.687063  0.687063  0.687063  1
  Al  Al10  1  0.937912  0.437595  0.437595  1
  Al  Al11  1  0.436467  0.937744  0.937744  1
