# generated using pymatgen
data_Sc6Zn17PPt6
_symmetry_space_group_name_H-M   'P 1'
_cell_length_a   8.82248104
_cell_length_b   8.82248113
_cell_length_c   8.82248200
_cell_angle_alpha   60.00000424
_cell_angle_beta   60.00000388
_cell_angle_gamma   60.00000295
_symmetry_Int_Tables_number   1
_chemical_formula_structural   Sc6Zn17PPt6
_chemical_formula_sum   'Sc6 Zn17 P1 Pt6'
_cell_volume   485.57608714
_cell_formula_units_Z   1
loop_
 _symmetry_equiv_pos_site_id
 _symmetry_equiv_pos_as_xyz
  1  'x, y, z'
loop_
 _atom_site_type_symbol
 _atom_site_label
 _atom_site_symmetry_multiplicity
 _atom_site_fract_x
 _atom_site_fract_y
 _atom_site_fract_z
 _atom_site_occupancy
  Sc  Sc0  1  0.712376  0.287624  0.287624  1
  Sc  Sc1  1  0.287624  0.712376  0.712376  1
  Sc  Sc2  1  0.287624  0.712376  0.287624  1
  Sc  Sc3  1  0.712376  0.287624  0.712376  1
  Sc  Sc4  1  0.287624  0.287624  0.712376  1
  Sc  Sc5  1  0.712376  0.712376  0.287624  1
  Zn  Zn6  1  0.122388  0.122388  0.122388  1
  Zn  Zn7  1  0.877612  0.877612  0.877612  1
  Zn  Zn8  1  0.122388  0.122388  0.632837  1
  Zn  Zn9  1  0.122388  0.632837  0.122388  1
  Zn  Zn10  1  0.877612  0.877612  0.367163  1
  Zn  Zn11  1  0.877612  0.367163  0.877612  1
  Zn  Zn12  1  0.632837  0.122388  0.122388  1
  Zn  Zn13  1  0.367163  0.877612  0.877612  1
  Zn  Zn14  1  0.338456  0.338456  0.338456  1
  Zn  Zn15  1  0.661544  0.661544  0.661544  1
  Zn  Zn16  1  0.338456  0.338456  0.984633  1
  Zn  Zn17  1  0.338456  0.984633  0.338456  1
  Zn  Zn18  1  0.661544  0.661544  0.015367  1
  Zn  Zn19  1  0.661544  0.015367  0.661544  1
  Zn  Zn20  1  0.984633  0.338456  0.338456  1
  Zn  Zn21  1  0.015367  0.661544  0.661544  1
  Zn  Zn22  1  0.000000  0.000000  0.000000  1
  P  P23  1  0.500000  0.500000  0.500000  1
  Pt  Pt24  1  0.500000  0.000000  0.000000  1
  Pt  Pt25  1  0.000000  0.500000  0.500000  1
  Pt  Pt26  1  0.000000  0.500000  0.000000  1
  Pt  Pt27  1  0.500000  0.000000  0.500000  1
  Pt  Pt28  1  0.000000  0.000000  0.500000  1
  Pt  Pt29  1  0.500000  0.500000  0.000000  1
