# generated using pymatgen
data_Rb4Zr6BCl18
_symmetry_space_group_name_H-M   'P 1'
_cell_length_a   10.44042586
_cell_length_b   10.44042606
_cell_length_c   10.09215331
_cell_angle_alpha   77.27586899
_cell_angle_beta   77.27587048
_cell_angle_gamma   117.81100042
_symmetry_Int_Tables_number   1
_chemical_formula_structural   Rb4Zr6BCl18
_chemical_formula_sum   'Rb4 Zr6 B1 Cl18'
_cell_volume   880.07686514
_cell_formula_units_Z   1
loop_
 _symmetry_equiv_pos_site_id
 _symmetry_equiv_pos_as_xyz
  1  'x, y, z'
loop_
 _atom_site_type_symbol
 _atom_site_label
 _atom_site_symmetry_multiplicity
 _atom_site_fract_x
 _atom_site_fract_y
 _atom_site_fract_z
 _atom_site_occupancy
  Rb  Rb0  1  0.769883  0.446180  0.681704  1
  Rb  Rb1  1  0.553820  0.230117  0.318296  1
  Rb  Rb2  1  0.230117  0.553820  0.318296  1
  Rb  Rb3  1  0.446180  0.769883  0.681704  1
  Zr  Zr4  1  0.124063  0.124063  0.145648  1
  Zr  Zr5  1  0.875937  0.875937  0.854352  1
  Zr  Zr6  1  0.949502  0.761571  0.149756  1
  Zr  Zr7  1  0.238429  0.050498  0.850244  1
  Zr  Zr8  1  0.050498  0.238429  0.850244  1
  Zr  Zr9  1  0.761571  0.949502  0.149756  1
  B  B10  1  0.000000  0.000000  0.000000  1
  Cl  Cl11  1  0.807636  0.603439  0.008556  1
  Cl  Cl12  1  0.396562  0.192364  0.991444  1
  Cl  Cl13  1  0.192364  0.396562  0.991444  1
  Cl  Cl14  1  0.603438  0.807636  0.008556  1
  Cl  Cl15  1  0.204970  0.795030  0.000000  1
  Cl  Cl16  1  0.795030  0.204970  0.000000  1
  Cl  Cl17  1  0.318170  0.318170  0.674465  1
  Cl  Cl18  1  0.681830  0.681830  0.325535  1
  Cl  Cl19  1  0.888224  0.493254  0.324896  1
  Cl  Cl20  1  0.506746  0.111776  0.675104  1
  Cl  Cl21  1  0.111776  0.506746  0.675104  1
  Cl  Cl22  1  0.493254  0.888224  0.324896  1
  Cl  Cl23  1  0.262973  0.262973  0.300744  1
  Cl  Cl24  1  0.737027  0.737027  0.699256  1
  Cl  Cl25  1  0.077233  0.873771  0.319423  1
  Cl  Cl26  1  0.126229  0.922767  0.680577  1
  Cl  Cl27  1  0.922767  0.126229  0.680577  1
  Cl  Cl28  1  0.873771  0.077233  0.319423  1
