# generated using pymatgen
data_Li2CaAcPd2
_symmetry_space_group_name_H-M   'P 1'
_cell_length_a   4.34124600
_cell_length_b   7.33527000
_cell_length_c   8.63977300
_cell_angle_alpha   90.00000000
_cell_angle_beta   90.00000000
_cell_angle_gamma   90.00000000
_symmetry_Int_Tables_number   1
_chemical_formula_structural   Li2CaAcPd2
_chemical_formula_sum   'Li4 Ca2 Ac2 Pd4'
_cell_volume   275.12675913
_cell_formula_units_Z   2
loop_
 _symmetry_equiv_pos_site_id
 _symmetry_equiv_pos_as_xyz
  1  'x, y, z'
loop_
 _atom_site_type_symbol
 _atom_site_label
 _atom_site_symmetry_multiplicity
 _atom_site_fract_x
 _atom_site_fract_y
 _atom_site_fract_z
 _atom_site_occupancy
  Li  Li0  1  0.250000  0.130105  0.931841  1
  Li  Li1  1  0.250000  0.630105  0.568159  1
  Li  Li2  1  0.750000  0.872146  0.043295  1
  Li  Li3  1  0.750000  0.372146  0.456705  1
  Ca  Ca4  1  0.750000  0.963790  0.689113  1
  Ca  Ca5  1  0.750000  0.463790  0.810887  1
  Ac  Ac6  1  0.250000  0.034970  0.322691  1
  Ac  Ac7  1  0.250000  0.534970  0.177309  1
  Pd  Pd8  1  0.250000  0.259028  0.617872  1
  Pd  Pd9  1  0.250000  0.759028  0.882128  1
  Pd  Pd10  1  0.750000  0.739962  0.381993  1
  Pd  Pd11  1  0.750000  0.239962  0.118007  1
