# generated using pymatgen
data_Sm8Sc12Si15Tc
_symmetry_space_group_name_H-M   'P 1'
_cell_length_a   7.16922005
_cell_length_b   7.51839127
_cell_length_c   14.07689400
_cell_angle_alpha   90.00000000
_cell_angle_beta   90.00000000
_cell_angle_gamma   90.19978636
_symmetry_Int_Tables_number   1
_chemical_formula_structural   Sm8Sc12Si15Tc
_chemical_formula_sum   'Sm8 Sc12 Si15 Tc1'
_cell_volume   758.75407061
_cell_formula_units_Z   1
loop_
 _symmetry_equiv_pos_site_id
 _symmetry_equiv_pos_as_xyz
  1  'x, y, z'
loop_
 _atom_site_type_symbol
 _atom_site_label
 _atom_site_symmetry_multiplicity
 _atom_site_fract_x
 _atom_site_fract_y
 _atom_site_fract_z
 _atom_site_occupancy
  Sm  Sm0  1  0.011611  0.176874  0.096702  1
  Sm  Sm1  1  0.990443  0.828707  0.902235  1
  Sm  Sm2  1  0.488303  0.673379  0.903261  1
  Sm  Sm3  1  0.990443  0.828707  0.597765  1
  Sm  Sm4  1  0.510987  0.325057  0.096638  1
  Sm  Sm5  1  0.011611  0.176874  0.403298  1
  Sm  Sm6  1  0.510987  0.325057  0.403362  1
  Sm  Sm7  1  0.488303  0.673379  0.596739  1
  Sc  Sc8  1  0.155124  0.493818  0.750000  1
  Sc  Sc9  1  0.839454  0.497277  0.250000  1
  Sc  Sc10  1  0.338610  0.003320  0.250000  1
  Sc  Sc11  1  0.666813  0.001412  0.750000  1
  Sc  Sc12  1  0.317738  0.172085  0.627537  1
  Sc  Sc13  1  0.671770  0.826152  0.374018  1
  Sc  Sc14  1  0.171797  0.677693  0.374207  1
  Sc  Sc15  1  0.671770  0.826152  0.125982  1
  Sc  Sc16  1  0.836712  0.318995  0.627208  1
  Sc  Sc17  1  0.317738  0.172085  0.872463  1
  Sc  Sc18  1  0.836712  0.318995  0.872792  1
  Sc  Sc19  1  0.171797  0.677693  0.125793  1
  Si  Si20  1  0.967847  0.878780  0.250000  1
  Si  Si21  1  0.469395  0.619144  0.250000  1
  Si  Si22  1  0.530174  0.384005  0.750000  1
  Si  Si23  1  0.288666  0.874355  0.750000  1
  Si  Si24  1  0.711790  0.124231  0.250000  1
  Si  Si25  1  0.213075  0.374721  0.250000  1
  Si  Si26  1  0.780622  0.623314  0.750000  1
  Si  Si27  1  0.156283  0.468085  0.537204  1
  Si  Si28  1  0.847985  0.537450  0.461342  1
  Si  Si29  1  0.347290  0.964348  0.459741  1
  Si  Si30  1  0.847985  0.537450  0.038658  1
  Si  Si31  1  0.652580  0.034320  0.538935  1
  Si  Si32  1  0.156283  0.468085  0.962796  1
  Si  Si33  1  0.652580  0.034320  0.961065  1
  Si  Si34  1  0.347290  0.964348  0.040259  1
  Tc  Tc35  1  0.031434  0.119330  0.750000  1
