# generated using pymatgen
data_Ac2FeN3
_symmetry_space_group_name_H-M   'P 1'
_cell_length_a   6.40452053
_cell_length_b   6.40451970
_cell_length_c   12.35371900
_cell_angle_alpha   90.00000000
_cell_angle_beta   90.00000000
_cell_angle_gamma   128.03819298
_symmetry_Int_Tables_number   1
_chemical_formula_structural   Ac2FeN3
_chemical_formula_sum   'Ac8 Fe4 N12'
_cell_volume   399.09539297
_cell_formula_units_Z   4
loop_
 _symmetry_equiv_pos_site_id
 _symmetry_equiv_pos_as_xyz
  1  'x, y, z'
loop_
 _atom_site_type_symbol
 _atom_site_label
 _atom_site_symmetry_multiplicity
 _atom_site_fract_x
 _atom_site_fract_y
 _atom_site_fract_z
 _atom_site_occupancy
  Ac  Ac0  1  0.441759  0.558241  0.354629  1
  Ac  Ac1  1  0.558241  0.441759  0.645371  1
  Ac  Ac2  1  0.058241  0.941759  0.854629  1
  Ac  Ac3  1  0.941759  0.058241  0.145371  1
  Ac  Ac4  1  0.145751  0.854249  0.429902  1
  Ac  Ac5  1  0.854249  0.145751  0.570098  1
  Ac  Ac6  1  0.354249  0.645751  0.929902  1
  Ac  Ac7  1  0.645751  0.354249  0.070098  1
  Fe  Fe8  1  0.257436  0.742564  0.167386  1
  Fe  Fe9  1  0.742564  0.257436  0.832614  1
  Fe  Fe10  1  0.242564  0.757436  0.667386  1
  Fe  Fe11  1  0.757436  0.242564  0.332614  1
  N  N12  1  0.154731  0.845269  0.040528  1
  N  N13  1  0.845269  0.154731  0.959472  1
  N  N14  1  0.345269  0.654731  0.540528  1
  N  N15  1  0.654731  0.345269  0.459472  1
  N  N16  1  0.430855  0.569145  0.130404  1
  N  N17  1  0.569145  0.430855  0.869596  1
  N  N18  1  0.069145  0.930855  0.630404  1
  N  N19  1  0.930855  0.069145  0.369596  1
  N  N20  1  0.994841  0.505159  0.250000  1
  N  N21  1  0.505159  0.994841  0.750000  1
  N  N22  1  0.005159  0.494841  0.750000  1
  N  N23  1  0.494841  0.005159  0.250000  1
