# generated using pymatgen
data_EuHfNiAs2
_symmetry_space_group_name_H-M   'P 1'
_cell_length_a   4.09175300
_cell_length_b   4.09175221
_cell_length_c   13.84420800
_cell_angle_alpha   90.00000000
_cell_angle_beta   90.00000000
_cell_angle_gamma   119.99998212
_symmetry_Int_Tables_number   1
_chemical_formula_structural   EuHfNiAs2
_chemical_formula_sum   'Eu2 Hf2 Ni2 As4'
_cell_volume   200.73243874
_cell_formula_units_Z   2
loop_
 _symmetry_equiv_pos_site_id
 _symmetry_equiv_pos_as_xyz
  1  'x, y, z'
loop_
 _atom_site_type_symbol
 _atom_site_label
 _atom_site_symmetry_multiplicity
 _atom_site_fract_x
 _atom_site_fract_y
 _atom_site_fract_z
 _atom_site_occupancy
  Eu  Eu0  1  0.666667  0.333333  0.389895  1
  Eu  Eu1  1  0.333333  0.666667  0.889895  1
  Hf  Hf2  1  0.333333  0.666667  0.623779  1
  Hf  Hf3  1  0.666667  0.333333  0.123779  1
  Ni  Ni4  1  0.000000  0.000000  0.707717  1
  Ni  Ni5  1  0.000000  0.000000  0.207717  1
  As  As6  1  0.333333  0.666667  0.253049  1
  As  As7  1  0.000000  0.000000  0.025561  1
  As  As8  1  0.000000  0.000000  0.525561  1
  As  As9  1  0.666667  0.333333  0.753049  1
