# generated using pymatgen
data_Er16Al4Pd3Ru
_symmetry_space_group_name_H-M   'P 1'
_cell_length_a   9.51522729
_cell_length_b   9.51522653
_cell_length_c   9.51522641
_cell_angle_alpha   59.59954026
_cell_angle_beta   59.59954321
_cell_angle_gamma   59.59954352
_symmetry_Int_Tables_number   1
_chemical_formula_structural   Er16Al4Pd3Ru
_chemical_formula_sum   'Er16 Al4 Pd3 Ru1'
_cell_volume   603.63080621
_cell_formula_units_Z   1
loop_
 _symmetry_equiv_pos_site_id
 _symmetry_equiv_pos_as_xyz
  1  'x, y, z'
loop_
 _atom_site_type_symbol
 _atom_site_label
 _atom_site_symmetry_multiplicity
 _atom_site_fract_x
 _atom_site_fract_y
 _atom_site_fract_z
 _atom_site_occupancy
  Er  Er0  1  0.356135  0.356135  0.356135  1
  Er  Er1  1  0.353237  0.353237  0.935813  1
  Er  Er2  1  0.353237  0.935813  0.353237  1
  Er  Er3  1  0.935813  0.353237  0.353237  1
  Er  Er4  1  0.814071  0.190824  0.190824  1
  Er  Er5  1  0.191935  0.807179  0.807179  1
  Er  Er6  1  0.190824  0.814071  0.190824  1
  Er  Er7  1  0.807179  0.191935  0.807179  1
  Er  Er8  1  0.190824  0.190824  0.814071  1
  Er  Er9  1  0.807179  0.807179  0.191935  1
  Er  Er10  1  0.933634  0.565090  0.565090  1
  Er  Er11  1  0.559553  0.936539  0.936539  1
  Er  Er12  1  0.565090  0.933634  0.565090  1
  Er  Er13  1  0.936539  0.559553  0.936539  1
  Er  Er14  1  0.565090  0.565090  0.933634  1
  Er  Er15  1  0.936539  0.936539  0.559553  1
  Al  Al16  1  0.578743  0.578743  0.578743  1
  Al  Al17  1  0.578360  0.578360  0.266032  1
  Al  Al18  1  0.578360  0.266032  0.578360  1
  Al  Al19  1  0.266032  0.578360  0.578360  1
  Pd  Pd20  1  0.145186  0.145186  0.567050  1
  Pd  Pd21  1  0.145186  0.567050  0.145186  1
  Pd  Pd22  1  0.567050  0.145186  0.145186  1
  Ru  Ru23  1  0.144202  0.144202  0.144202  1
