# generated using pymatgen
data_GdY(SeO3)3
_symmetry_space_group_name_H-M   'P 1'
_cell_length_a   7.16665118
_cell_length_b   8.21929443
_cell_length_c   9.16755217
_cell_angle_alpha   71.19183747
_cell_angle_beta   70.07699270
_cell_angle_gamma   66.15982437
_symmetry_Int_Tables_number   1
_chemical_formula_structural   GdY(SeO3)3
_chemical_formula_sum   'Gd2 Y2 Se6 O18'
_cell_volume   453.54136151
_cell_formula_units_Z   2
loop_
 _symmetry_equiv_pos_site_id
 _symmetry_equiv_pos_as_xyz
  1  'x, y, z'
loop_
 _atom_site_type_symbol
 _atom_site_label
 _atom_site_symmetry_multiplicity
 _atom_site_fract_x
 _atom_site_fract_y
 _atom_site_fract_z
 _atom_site_occupancy
  Gd  Gd0  1  0.334380  0.728110  0.590059  1
  Gd  Gd1  1  0.665620  0.271890  0.409941  1
  Y  Y2  1  0.740845  0.735614  0.799862  1
  Y  Y3  1  0.259155  0.264386  0.200138  1
  Se  Se4  1  0.427013  0.776919  0.197112  1
  Se  Se5  1  0.572987  0.223081  0.802888  1
  Se  Se6  1  0.148882  0.748931  0.965167  1
  Se  Se7  1  0.851118  0.251069  0.034833  1
  Se  Se8  1  0.886588  0.759478  0.416267  1
  Se  Se9  1  0.113412  0.240522  0.583733  1
  O  O10  1  0.647325  0.791777  0.050949  1
  O  O11  1  0.352675  0.208223  0.949051  1
  O  O12  1  0.361940  0.944822  0.300506  1
  O  O13  1  0.638060  0.055178  0.699494  1
  O  O14  1  0.516974  0.596939  0.349173  1
  O  O15  1  0.483026  0.403061  0.650827  1
  O  O16  1  0.167760  0.566276  0.119832  1
  O  O17  1  0.832240  0.433724  0.880168  1
  O  O18  1  0.406615  0.710360  0.850200  1
  O  O19  1  0.593385  0.289640  0.149800  1
  O  O20  1  0.342125  0.251741  0.435690  1
  O  O21  1  0.657875  0.748259  0.564310  1
  O  O22  1  0.969290  0.292078  0.444453  1
  O  O23  1  0.030710  0.707922  0.555547  1
  O  O24  1  0.157476  0.015036  0.654498  1
  O  O25  1  0.842524  0.984964  0.345502  1
  O  O26  1  0.934681  0.305296  0.165395  1
  O  O27  1  0.065319  0.694704  0.834605  1
