# generated using pymatgen
data_Hf9Ta(Ge3N)2
_symmetry_space_group_name_H-M   'P 1'
_cell_length_a   7.89149100
_cell_length_b   7.89149153
_cell_length_c   5.56550900
_cell_angle_alpha   90.00000000
_cell_angle_beta   90.00000000
_cell_angle_gamma   120.00000198
_symmetry_Int_Tables_number   1
_chemical_formula_structural   Hf9Ta(Ge3N)2
_chemical_formula_sum   'Hf9 Ta1 Ge6 N2'
_cell_volume   300.16059151
_cell_formula_units_Z   1
loop_
 _symmetry_equiv_pos_site_id
 _symmetry_equiv_pos_as_xyz
  1  'x, y, z'
loop_
 _atom_site_type_symbol
 _atom_site_label
 _atom_site_symmetry_multiplicity
 _atom_site_fract_x
 _atom_site_fract_y
 _atom_site_fract_z
 _atom_site_occupancy
  Hf  Hf0  1  0.233767  0.999432  0.249800  1
  Hf  Hf1  1  0.765666  0.999432  0.750200  1
  Hf  Hf2  1  0.000568  0.234334  0.249800  1
  Hf  Hf3  1  0.000568  0.766233  0.750200  1
  Hf  Hf4  1  0.765666  0.766233  0.249800  1
  Hf  Hf5  1  0.233767  0.234334  0.750200  1
  Hf  Hf6  1  0.666667  0.333333  0.000000  1
  Hf  Hf7  1  0.666667  0.333333  0.500000  1
  Hf  Hf8  1  0.333333  0.666667  0.500000  1
  Ta  Ta9  1  0.333333  0.666667  0.000000  1
  Ge  Ge10  1  0.594474  0.998191  0.246303  1
  Ge  Ge11  1  0.403718  0.998191  0.753697  1
  Ge  Ge12  1  0.001809  0.596282  0.246303  1
  Ge  Ge13  1  0.001809  0.405526  0.753697  1
  Ge  Ge14  1  0.403718  0.405526  0.246303  1
  Ge  Ge15  1  0.594474  0.596282  0.753697  1
  N  N16  1  0.000000  0.000000  0.000000  1
  N  N17  1  0.000000  0.000000  0.500000  1
