# generated using pymatgen
data_Cs4Re3Tc9Se22
_symmetry_space_group_name_H-M   'P 1'
_cell_length_a   12.72153752
_cell_length_b   12.72153725
_cell_length_c   12.72153713
_cell_angle_alpha   46.41057369
_cell_angle_beta   46.41057519
_cell_angle_gamma   46.41057132
_symmetry_Int_Tables_number   1
_chemical_formula_structural   Cs4Re3Tc9Se22
_chemical_formula_sum   'Cs4 Re3 Tc9 Se22'
_cell_volume   986.04053439
_cell_formula_units_Z   1
loop_
 _symmetry_equiv_pos_site_id
 _symmetry_equiv_pos_as_xyz
  1  'x, y, z'
loop_
 _atom_site_type_symbol
 _atom_site_label
 _atom_site_symmetry_multiplicity
 _atom_site_fract_x
 _atom_site_fract_y
 _atom_site_fract_z
 _atom_site_occupancy
  Cs  Cs0  1  0.308101  0.308101  0.308101  1
  Cs  Cs1  1  0.192256  0.192256  0.192256  1
  Cs  Cs2  1  0.691702  0.691702  0.691702  1
  Cs  Cs3  1  0.808155  0.808155  0.808155  1
  Re  Re4  1  0.881480  0.028136  0.188013  1
  Re  Re5  1  0.028136  0.188013  0.881480  1
  Re  Re6  1  0.188013  0.881480  0.028136  1
  Tc  Tc7  1  0.618094  0.312201  0.471992  1
  Tc  Tc8  1  0.471992  0.618094  0.312201  1
  Tc  Tc9  1  0.811428  0.118555  0.971853  1
  Tc  Tc10  1  0.971853  0.811428  0.118555  1
  Tc  Tc11  1  0.118555  0.971853  0.811428  1
  Tc  Tc12  1  0.687811  0.527796  0.381886  1
  Tc  Tc13  1  0.381886  0.687811  0.527796  1
  Tc  Tc14  1  0.527796  0.381886  0.687811  1
  Tc  Tc15  1  0.312201  0.471992  0.618094  1
  Se  Se16  1  0.091504  0.091504  0.091504  1
  Se  Se17  1  0.409460  0.409460  0.409460  1
  Se  Se18  1  0.909565  0.909565  0.909565  1
  Se  Se19  1  0.590476  0.590476  0.590476  1
  Se  Se20  1  0.250097  0.945999  0.553602  1
  Se  Se21  1  0.553602  0.250097  0.945999  1
  Se  Se22  1  0.945999  0.553602  0.250097  1
  Se  Se23  1  0.750396  0.052834  0.445491  1
  Se  Se24  1  0.445491  0.750396  0.052834  1
  Se  Se25  1  0.052834  0.445491  0.750396  1
  Se  Se26  1  0.043326  0.731303  0.316224  1
  Se  Se27  1  0.316224  0.043326  0.731303  1
  Se  Se28  1  0.731303  0.316224  0.043326  1
  Se  Se29  1  0.456868  0.185756  0.767389  1
  Se  Se30  1  0.767389  0.456868  0.185756  1
  Se  Se31  1  0.185756  0.767389  0.456868  1
  Se  Se32  1  0.814087  0.232336  0.543265  1
  Se  Se33  1  0.232336  0.543265  0.814087  1
  Se  Se34  1  0.543265  0.814087  0.232336  1
  Se  Se35  1  0.268350  0.685146  0.957068  1
  Se  Se36  1  0.685146  0.957068  0.268350  1
  Se  Se37  1  0.957068  0.268350  0.685146  1
