# generated using pymatgen
data_Ga6TcIr
_symmetry_space_group_name_H-M   'P 1'
_cell_length_a   6.59194701
_cell_length_b   6.59194701
_cell_length_c   6.81478600
_cell_angle_alpha   90.00000000
_cell_angle_beta   90.00000000
_cell_angle_gamma   89.99273367
_symmetry_Int_Tables_number   1
_chemical_formula_structural   Ga6TcIr
_chemical_formula_sum   'Ga12 Tc2 Ir2'
_cell_volume   296.12810989
_cell_formula_units_Z   2
loop_
 _symmetry_equiv_pos_site_id
 _symmetry_equiv_pos_as_xyz
  1  'x, y, z'
loop_
 _atom_site_type_symbol
 _atom_site_label
 _atom_site_symmetry_multiplicity
 _atom_site_fract_x
 _atom_site_fract_y
 _atom_site_fract_z
 _atom_site_occupancy
  Ga  Ga0  1  0.000000  0.500000  0.500000  1
  Ga  Ga1  1  0.500000  0.000000  0.000000  1
  Ga  Ga2  1  0.500000  0.000000  0.500000  1
  Ga  Ga3  1  0.000000  0.500000  0.000000  1
  Ga  Ga4  1  0.347098  0.652902  0.240272  1
  Ga  Ga5  1  0.652902  0.347098  0.240272  1
  Ga  Ga6  1  0.155464  0.155464  0.730569  1
  Ga  Ga7  1  0.844536  0.844536  0.730569  1
  Ga  Ga8  1  0.652902  0.347098  0.759728  1
  Ga  Ga9  1  0.347098  0.652902  0.759728  1
  Ga  Ga10  1  0.844536  0.844536  0.269431  1
  Ga  Ga11  1  0.155464  0.155464  0.269431  1
  Tc  Tc12  1  0.161144  0.838856  0.500000  1
  Tc  Tc13  1  0.838856  0.161144  0.500000  1
  Ir  Ir14  1  0.340820  0.340820  0.000000  1
  Ir  Ir15  1  0.659180  0.659180  0.000000  1
