# generated using pymatgen
data_LaY2PtO7
_symmetry_space_group_name_H-M   'P 1'
_cell_length_a   6.49355843
_cell_length_b   6.49355806
_cell_length_c   7.58506900
_cell_angle_alpha   90.00000000
_cell_angle_beta   90.00000000
_cell_angle_gamma   109.32060280
_symmetry_Int_Tables_number   1
_chemical_formula_structural   LaY2PtO7
_chemical_formula_sum   'La2 Y4 Pt2 O14'
_cell_volume   301.82187158
_cell_formula_units_Z   2
loop_
 _symmetry_equiv_pos_site_id
 _symmetry_equiv_pos_as_xyz
  1  'x, y, z'
loop_
 _atom_site_type_symbol
 _atom_site_label
 _atom_site_symmetry_multiplicity
 _atom_site_fract_x
 _atom_site_fract_y
 _atom_site_fract_z
 _atom_site_occupancy
  La  La0  1  0.000000  0.000000  0.500000  1
  La  La1  1  0.000000  0.000000  0.000000  1
  Y  Y2  1  0.514302  0.064037  0.250000  1
  Y  Y3  1  0.935963  0.485698  0.750000  1
  Y  Y4  1  0.485698  0.935963  0.750000  1
  Y  Y5  1  0.064037  0.514302  0.250000  1
  Pt  Pt6  1  0.500000  0.500000  0.500000  1
  Pt  Pt7  1  0.500000  0.500000  0.000000  1
  O  O8  1  0.440769  0.178830  0.532752  1
  O  O9  1  0.821170  0.559231  0.467248  1
  O  O10  1  0.440769  0.178830  0.967248  1
  O  O11  1  0.821170  0.559231  0.032752  1
  O  O12  1  0.559231  0.821170  0.467248  1
  O  O13  1  0.178830  0.440769  0.532752  1
  O  O14  1  0.559231  0.821170  0.032752  1
  O  O15  1  0.178830  0.440769  0.967248  1
  O  O16  1  0.159787  0.877626  0.250000  1
  O  O17  1  0.122374  0.840213  0.750000  1
  O  O18  1  0.840213  0.122374  0.750000  1
  O  O19  1  0.877626  0.159787  0.250000  1
  O  O20  1  0.398296  0.398296  0.250000  1
  O  O21  1  0.601704  0.601704  0.750000  1
