# generated using pymatgen
data_Yb4Ni2RuWO12
_symmetry_space_group_name_H-M   'P 1'
_cell_length_a   5.32633666
_cell_length_b   5.58737370
_cell_length_c   7.63499792
_cell_angle_alpha   90.50156106
_cell_angle_beta   89.29773907
_cell_angle_gamma   89.97461363
_symmetry_Int_Tables_number   1
_chemical_formula_structural   Yb4Ni2RuWO12
_chemical_formula_sum   'Yb4 Ni2 Ru1 W1 O12'
_cell_volume   227.19351339
_cell_formula_units_Z   1
loop_
 _symmetry_equiv_pos_site_id
 _symmetry_equiv_pos_as_xyz
  1  'x, y, z'
loop_
 _atom_site_type_symbol
 _atom_site_label
 _atom_site_symmetry_multiplicity
 _atom_site_fract_x
 _atom_site_fract_y
 _atom_site_fract_z
 _atom_site_occupancy
  Yb  Yb0  1  0.517748  0.930427  0.747613  1
  Yb  Yb1  1  0.020369  0.564716  0.257760  1
  Yb  Yb2  1  0.979631  0.435284  0.742240  1
  Yb  Yb3  1  0.482252  0.069573  0.252387  1
  Ni  Ni4  1  0.000000  0.000000  0.500000  1
  Ni  Ni5  1  0.500000  0.500000  0.000000  1
  Ru  Ru6  1  0.500000  0.500000  0.500000  1
  W  W7  1  0.000000  0.000000  0.000000  1
  O  O8  1  0.203536  0.308594  0.449694  1
  O  O9  1  0.683090  0.208389  0.553034  1
  O  O10  1  0.296691  0.810269  0.049237  1
  O  O11  1  0.813406  0.709426  0.945071  1
  O  O12  1  0.796464  0.691406  0.550306  1
  O  O13  1  0.316910  0.791611  0.446966  1
  O  O14  1  0.703309  0.189731  0.950763  1
  O  O15  1  0.186594  0.290574  0.054929  1
  O  O16  1  0.603303  0.467356  0.257727  1
  O  O17  1  0.100573  0.030801  0.755788  1
  O  O18  1  0.899427  0.969199  0.244212  1
  O  O19  1  0.396697  0.532644  0.742273  1
