# generated using pymatgen
data_Hf3Zr7CuSn6Sb
_symmetry_space_group_name_H-M   'P 1'
_cell_length_a   8.73968500
_cell_length_b   8.73968505
_cell_length_c   5.92721700
_cell_angle_alpha   90.00000000
_cell_angle_beta   90.00000000
_cell_angle_gamma   120.00000360
_symmetry_Int_Tables_number   1
_chemical_formula_structural   Hf3Zr7CuSn6Sb
_chemical_formula_sum   'Hf3 Zr7 Cu1 Sn6 Sb1'
_cell_volume   392.07847973
_cell_formula_units_Z   1
loop_
 _symmetry_equiv_pos_site_id
 _symmetry_equiv_pos_as_xyz
  1  'x, y, z'
loop_
 _atom_site_type_symbol
 _atom_site_label
 _atom_site_symmetry_multiplicity
 _atom_site_fract_x
 _atom_site_fract_y
 _atom_site_fract_z
 _atom_site_occupancy
  Hf  Hf0  1  0.666667  0.333333  0.500000  1
  Hf  Hf1  1  0.333333  0.666667  0.500000  1
  Hf  Hf2  1  0.333333  0.666667  0.000000  1
  Zr  Zr3  1  0.666667  0.333333  0.000000  1
  Zr  Zr4  1  0.728418  0.728668  0.237242  1
  Zr  Zr5  1  0.271332  0.999750  0.237242  1
  Zr  Zr6  1  0.000250  0.271582  0.237242  1
  Zr  Zr7  1  0.271332  0.271582  0.762758  1
  Zr  Zr8  1  0.728418  0.999750  0.762758  1
  Zr  Zr9  1  0.000250  0.728668  0.762758  1
  Cu  Cu10  1  0.000000  0.000000  0.000000  1
  Sn  Sn11  1  0.387068  0.387443  0.252552  1
  Sn  Sn12  1  0.612557  0.999626  0.252552  1
  Sn  Sn13  1  0.000374  0.612932  0.252552  1
  Sn  Sn14  1  0.612557  0.612932  0.747448  1
  Sn  Sn15  1  0.387068  0.999626  0.747448  1
  Sn  Sn16  1  0.000374  0.387443  0.747448  1
  Sb  Sb17  1  0.000000  0.000000  0.500000  1
