# generated using pymatgen
data_ScCrP4Ru5
_symmetry_space_group_name_H-M   'P 1'
_cell_length_a   7.01546500
_cell_length_b   6.93499805
_cell_length_c   3.63756300
_cell_angle_alpha   90.00000000
_cell_angle_beta   90.00000000
_cell_angle_gamma   120.38457778
_symmetry_Int_Tables_number   1
_chemical_formula_structural   ScCrP4Ru5
_chemical_formula_sum   'Sc1 Cr1 P4 Ru5'
_cell_volume   152.66795156
_cell_formula_units_Z   1
loop_
 _symmetry_equiv_pos_site_id
 _symmetry_equiv_pos_as_xyz
  1  'x, y, z'
loop_
 _atom_site_type_symbol
 _atom_site_label
 _atom_site_symmetry_multiplicity
 _atom_site_fract_x
 _atom_site_fract_y
 _atom_site_fract_z
 _atom_site_occupancy
  Sc  Sc0  1  0.997230  0.994460  0.000000  1
  Cr  Cr1  1  0.463487  0.926972  0.000000  1
  P  P2  1  0.184846  0.369693  0.500000  1
  P  P3  1  0.631645  0.811438  0.500000  1
  P  P4  1  0.179793  0.811438  0.500000  1
  P  P5  1  0.668025  0.336049  0.000000  1
  Ru  Ru6  1  0.799413  0.598825  0.500000  1
  Ru  Ru7  1  0.393770  0.193125  0.500000  1
  Ru  Ru8  1  0.799355  0.193125  0.500000  1
  Ru  Ru9  1  0.079951  0.549104  0.000000  1
  Ru  Ru10  1  0.469154  0.549104  0.000000  1
