# generated using pymatgen
data_Ca5La9(Dy3Ge8)2
_symmetry_space_group_name_H-M   'P 1'
_cell_length_a   7.64370685
_cell_length_b   8.02336330
_cell_length_c   15.12830600
_cell_angle_alpha   90.04900235
_cell_angle_beta   89.70277478
_cell_angle_gamma   90.01758546
_symmetry_Int_Tables_number   1
_chemical_formula_structural   Ca5La9(Dy3Ge8)2
_chemical_formula_sum   'Ca5 La9 Dy6 Ge16'
_cell_volume   927.77947051
_cell_formula_units_Z   1
loop_
 _symmetry_equiv_pos_site_id
 _symmetry_equiv_pos_as_xyz
  1  'x, y, z'
loop_
 _atom_site_type_symbol
 _atom_site_label
 _atom_site_symmetry_multiplicity
 _atom_site_fract_x
 _atom_site_fract_y
 _atom_site_fract_z
 _atom_site_occupancy
  Ca  Ca0  1  0.333655  0.829198  0.878127  1
  Ca  Ca1  1  0.173095  0.496863  0.749505  1
  Ca  Ca2  1  0.670070  0.005669  0.748774  1
  Ca  Ca3  1  0.826285  0.505520  0.251816  1
  Ca  Ca4  1  0.326513  0.993150  0.251255  1
  La  La5  1  0.835917  0.677081  0.878019  1
  La  La6  1  0.489949  0.317370  0.903159  1
  La  La7  1  0.993666  0.181328  0.594297  1
  La  La8  1  0.508146  0.681164  0.403110  1
  La  La9  1  0.009497  0.817177  0.099121  1
  La  La10  1  0.507326  0.679830  0.098492  1
  La  La11  1  0.007792  0.819066  0.402566  1
  La  La12  1  0.492004  0.317932  0.594321  1
  La  La13  1  0.992254  0.182380  0.902923  1
  Dy  Dy14  1  0.838775  0.674590  0.619756  1
  Dy  Dy15  1  0.662354  0.172216  0.377638  1
  Dy  Dy16  1  0.164801  0.324867  0.125338  1
  Dy  Dy17  1  0.664753  0.174072  0.125810  1
  Dy  Dy18  1  0.163295  0.326704  0.377537  1
  Dy  Dy19  1  0.339332  0.826193  0.620819  1
  Ge  Ge20  1  0.335724  0.040030  0.041046  1
  Ge  Ge21  1  0.826651  0.460038  0.462794  1
  Ge  Ge22  1  0.674876  0.960996  0.536130  1
  Ge  Ge23  1  0.171318  0.530456  0.966149  1
  Ge  Ge24  1  0.663470  0.968746  0.967289  1
  Ge  Ge25  1  0.173155  0.540319  0.535622  1
  Ge  Ge26  1  0.325216  0.039164  0.462540  1
  Ge  Ge27  1  0.833414  0.456867  0.041332  1
  Ge  Ge28  1  0.543619  0.606525  0.743502  1
  Ge  Ge29  1  0.044957  0.892070  0.745318  1
  Ge  Ge30  1  0.456777  0.384870  0.250688  1
  Ge  Ge31  1  0.957141  0.113782  0.250929  1
  Ge  Ge32  1  0.288249  0.127985  0.746592  1
  Ge  Ge33  1  0.787744  0.376513  0.746809  1
  Ge  Ge34  1  0.709622  0.877314  0.250431  1
  Ge  Ge35  1  0.208587  0.621955  0.250449  1
