# generated using pymatgen
data_PdClO2F5
_symmetry_space_group_name_H-M   'P 1'
_cell_length_a   8.77734613
_cell_length_b   8.77734583
_cell_length_c   9.17022800
_cell_angle_alpha   90.00000000
_cell_angle_beta   90.00000000
_cell_angle_gamma   127.18446056
_symmetry_Int_Tables_number   1
_chemical_formula_structural   PdClO2F5
_chemical_formula_sum   'Pd4 Cl4 O8 F20'
_cell_volume   562.85696042
_cell_formula_units_Z   4
loop_
 _symmetry_equiv_pos_site_id
 _symmetry_equiv_pos_as_xyz
  1  'x, y, z'
loop_
 _atom_site_type_symbol
 _atom_site_label
 _atom_site_symmetry_multiplicity
 _atom_site_fract_x
 _atom_site_fract_y
 _atom_site_fract_z
 _atom_site_occupancy
  Pd  Pd0  1  0.995582  0.772313  0.932071  1
  Pd  Pd1  1  0.004418  0.227687  0.432071  1
  Pd  Pd2  1  0.772313  0.995582  0.067929  1
  Pd  Pd3  1  0.227687  0.004418  0.567929  1
  Cl  Cl4  1  0.388510  0.611490  0.750000  1
  Cl  Cl5  1  0.274356  0.725644  0.250000  1
  Cl  Cl6  1  0.611490  0.388510  0.250000  1
  Cl  Cl7  1  0.725644  0.274356  0.750000  1
  O  O8  1  0.657634  0.525259  0.359870  1
  O  O9  1  0.342366  0.474741  0.859870  1
  O  O10  1  0.250004  0.609752  0.129702  1
  O  O11  1  0.474741  0.342366  0.140130  1
  O  O12  1  0.390248  0.749996  0.370298  1
  O  O13  1  0.609752  0.250004  0.870298  1
  O  O14  1  0.749996  0.390248  0.629702  1
  O  O15  1  0.525259  0.657634  0.640130  1
  F  F16  1  0.925213  0.254764  0.992764  1
  F  F17  1  0.406072  0.967510  0.648071  1
  F  F18  1  0.019452  0.019452  0.500000  1
  F  F19  1  0.074787  0.745236  0.492764  1
  F  F20  1  0.379956  0.263353  0.641117  1
  F  F21  1  0.967510  0.406072  0.351929  1
  F  F22  1  0.593928  0.032490  0.148071  1
  F  F23  1  0.620044  0.736647  0.141117  1
  F  F24  1  0.911814  0.634656  0.115729  1
  F  F25  1  0.032490  0.593928  0.851929  1
  F  F26  1  0.980548  0.980548  0.000000  1
  F  F27  1  0.072231  0.927769  0.750000  1
  F  F28  1  0.263353  0.379956  0.358883  1
  F  F29  1  0.736647  0.620044  0.858883  1
  F  F30  1  0.745236  0.074787  0.507236  1
  F  F31  1  0.634656  0.911814  0.884271  1
  F  F32  1  0.088186  0.365344  0.615729  1
  F  F33  1  0.365344  0.088186  0.384271  1
  F  F34  1  0.254764  0.925213  0.007236  1
  F  F35  1  0.927769  0.072231  0.250000  1
