# generated using pymatgen
data_Tb2Al8ZnPd3
_symmetry_space_group_name_H-M   'P 1'
_cell_length_a   7.60499494
_cell_length_b   7.60499507
_cell_length_c   9.51114100
_cell_angle_alpha   90.00000000
_cell_angle_beta   90.00000000
_cell_angle_gamma   119.17588643
_symmetry_Int_Tables_number   1
_chemical_formula_structural   Tb2Al8ZnPd3
_chemical_formula_sum   'Tb4 Al16 Zn2 Pd6'
_cell_volume   480.29499905
_cell_formula_units_Z   2
loop_
 _symmetry_equiv_pos_site_id
 _symmetry_equiv_pos_as_xyz
  1  'x, y, z'
loop_
 _atom_site_type_symbol
 _atom_site_label
 _atom_site_symmetry_multiplicity
 _atom_site_fract_x
 _atom_site_fract_y
 _atom_site_fract_z
 _atom_site_occupancy
  Tb  Tb0  1  0.993256  0.669769  0.250000  1
  Tb  Tb1  1  0.006744  0.330231  0.750000  1
  Tb  Tb2  1  0.669769  0.993256  0.250000  1
  Tb  Tb3  1  0.330231  0.006744  0.750000  1
  Al  Al4  1  0.001695  0.332373  0.077295  1
  Al  Al5  1  0.998305  0.667627  0.922705  1
  Al  Al6  1  0.998305  0.667627  0.577295  1
  Al  Al7  1  0.332373  0.001695  0.422705  1
  Al  Al8  1  0.001695  0.332373  0.422705  1
  Al  Al9  1  0.667627  0.998305  0.577295  1
  Al  Al10  1  0.667627  0.998305  0.922705  1
  Al  Al11  1  0.332373  0.001695  0.077295  1
  Al  Al12  1  0.333358  0.333358  0.555949  1
  Al  Al13  1  0.666642  0.666642  0.444051  1
  Al  Al14  1  0.666642  0.666642  0.055949  1
  Al  Al15  1  0.333358  0.333358  0.944051  1
  Al  Al16  1  0.338284  0.545466  0.250000  1
  Al  Al17  1  0.661716  0.454534  0.750000  1
  Al  Al18  1  0.545466  0.338284  0.250000  1
  Al  Al19  1  0.454534  0.661716  0.750000  1
  Zn  Zn20  1  0.138541  0.138541  0.250000  1
  Zn  Zn21  1  0.861459  0.861459  0.750000  1
  Pd  Pd22  1  0.672620  0.327380  0.000000  1
  Pd  Pd23  1  0.327380  0.672620  0.000000  1
  Pd  Pd24  1  0.327380  0.672620  0.500000  1
  Pd  Pd25  1  0.672620  0.327380  0.500000  1
  Pd  Pd26  1  0.000000  0.000000  0.000000  1
  Pd  Pd27  1  0.000000  0.000000  0.500000  1
