# generated using pymatgen
data_Li4CaLa3Rh4
_symmetry_space_group_name_H-M   'P 1'
_cell_length_a   4.02653500
_cell_length_b   7.18315954
_cell_length_c   8.64583708
_cell_angle_alpha   90.81294324
_cell_angle_beta   90.00000000
_cell_angle_gamma   90.00000000
_symmetry_Int_Tables_number   1
_chemical_formula_structural   Li4CaLa3Rh4
_chemical_formula_sum   'Li4 Ca1 La3 Rh4'
_cell_volume   250.04047903
_cell_formula_units_Z   1
loop_
 _symmetry_equiv_pos_site_id
 _symmetry_equiv_pos_as_xyz
  1  'x, y, z'
loop_
 _atom_site_type_symbol
 _atom_site_label
 _atom_site_symmetry_multiplicity
 _atom_site_fract_x
 _atom_site_fract_y
 _atom_site_fract_z
 _atom_site_occupancy
  Li  Li0  1  0.750000  0.370845  0.047587  1
  Li  Li1  1  0.250000  0.620320  0.942157  1
  Li  Li2  1  0.750000  0.871165  0.450752  1
  Li  Li3  1  0.250000  0.137766  0.553854  1
  Ca  Ca4  1  0.750000  0.463099  0.683812  1
  La  La5  1  0.250000  0.033661  0.180843  1
  La  La6  1  0.750000  0.964292  0.812123  1
  La  La7  1  0.250000  0.536098  0.323616  1
  Rh  Rh8  1  0.250000  0.763016  0.631019  1
  Rh  Rh9  1  0.750000  0.254032  0.363644  1
  Rh  Rh10  1  0.250000  0.233580  0.876911  1
  Rh  Rh11  1  0.750000  0.752127  0.133682  1
