# generated using pymatgen
data_Sr2SmBi(Rh2O7)2
_symmetry_space_group_name_H-M   'P 1'
_cell_length_a   7.39090239
_cell_length_b   7.40189585
_cell_length_c   7.39090321
_cell_angle_alpha   59.72984641
_cell_angle_beta   59.30039379
_cell_angle_gamma   59.72983972
_symmetry_Int_Tables_number   1
_chemical_formula_structural   Sr2SmBi(Rh2O7)2
_chemical_formula_sum   'Sr2 Sm1 Bi1 Rh4 O14'
_cell_volume   283.20907005
_cell_formula_units_Z   1
loop_
 _symmetry_equiv_pos_site_id
 _symmetry_equiv_pos_as_xyz
  1  'x, y, z'
loop_
 _atom_site_type_symbol
 _atom_site_label
 _atom_site_symmetry_multiplicity
 _atom_site_fract_x
 _atom_site_fract_y
 _atom_site_fract_z
 _atom_site_occupancy
  Sr  Sr0  1  0.625000  0.125000  0.125000  1
  Sr  Sr1  1  0.125000  0.125000  0.625000  1
  Sm  Sm2  1  0.125000  0.625000  0.125000  1
  Bi  Bi3  1  0.125000  0.125000  0.125000  1
  Rh  Rh4  1  0.625000  0.625000  0.625000  1
  Rh  Rh5  1  0.625000  0.625000  0.125000  1
  Rh  Rh6  1  0.125000  0.625000  0.625000  1
  Rh  Rh7  1  0.625000  0.125000  0.625000  1
  O  O8  1  0.235192  0.257275  0.235192  1
  O  O9  1  0.295109  0.710477  0.295109  1
  O  O10  1  0.954024  0.951884  0.534628  1
  O  O11  1  0.551417  0.948904  0.551417  1
  O  O12  1  0.713657  0.694044  0.293787  1
  O  O13  1  0.956213  0.555956  0.536343  1
  O  O14  1  0.698583  0.301096  0.698583  1
  O  O15  1  0.295976  0.298116  0.715372  1
  O  O16  1  0.715372  0.298116  0.295976  1
  O  O17  1  0.293787  0.694044  0.713657  1
  O  O18  1  0.954891  0.539523  0.954891  1
  O  O19  1  0.536343  0.555956  0.956213  1
  O  O20  1  0.014808  0.992725  0.014808  1
  O  O21  1  0.534628  0.951884  0.954024  1
