# generated using pymatgen
data_RbIn3(GaI4)4
_symmetry_space_group_name_H-M   'P 1'
_cell_length_a   8.49174100
_cell_length_b   9.06455042
_cell_length_c   16.15419594
_cell_angle_alpha   89.96297869
_cell_angle_beta   90.00000000
_cell_angle_gamma   90.00000000
_symmetry_Int_Tables_number   1
_chemical_formula_structural   RbIn3(GaI4)4
_chemical_formula_sum   'Rb1 In3 Ga4 I16'
_cell_volume   1243.44982148
_cell_formula_units_Z   1
loop_
 _symmetry_equiv_pos_site_id
 _symmetry_equiv_pos_as_xyz
  1  'x, y, z'
loop_
 _atom_site_type_symbol
 _atom_site_label
 _atom_site_symmetry_multiplicity
 _atom_site_fract_x
 _atom_site_fract_y
 _atom_site_fract_z
 _atom_site_occupancy
  Rb  Rb0  1  0.250000  0.052458  0.648872  1
  In  In1  1  0.750000  0.558038  0.853905  1
  In  In2  1  0.750000  0.944737  0.346955  1
  In  In3  1  0.250000  0.444887  0.152369  1
  Ga  Ga4  1  0.250000  0.210901  0.387488  1
  Ga  Ga5  1  0.750000  0.705976  0.105088  1
  Ga  Ga6  1  0.750000  0.783899  0.603957  1
  Ga  Ga7  1  0.250000  0.299864  0.903209  1
  I  I8  1  0.250000  0.380610  0.514829  1
  I  I9  1  0.750000  0.870544  0.974889  1
  I  I10  1  0.750000  0.631291  0.469622  1
  I  I11  1  0.250000  0.135975  0.033920  1
  I  I12  1  0.250000  0.932933  0.426237  1
  I  I13  1  0.750000  0.429711  0.064293  1
  I  I14  1  0.750000  0.063017  0.568042  1
  I  I15  1  0.250000  0.577099  0.941194  1
  I  I16  1  0.002085  0.238702  0.814428  1
  I  I17  1  0.994709  0.717651  0.694233  1
  I  I18  1  0.505565  0.766278  0.196802  1
  I  I19  1  0.498051  0.266398  0.297102  1
  I  I20  1  0.994435  0.766278  0.196802  1
  I  I21  1  0.001949  0.266398  0.297102  1
  I  I22  1  0.497915  0.238702  0.814428  1
  I  I23  1  0.505291  0.717651  0.694233  1
