# generated using pymatgen
data_LuTa5(B2Os5)2
_symmetry_space_group_name_H-M   'P 1'
_cell_length_a   9.56958759
_cell_length_b   9.56958729
_cell_length_c   3.05755200
_cell_angle_alpha   90.00000000
_cell_angle_beta   90.00000000
_cell_angle_gamma   90.37663106
_symmetry_Int_Tables_number   1
_chemical_formula_structural   LuTa5(B2Os5)2
_chemical_formula_sum   'Lu1 Ta5 B4 Os10'
_cell_volume   279.99540156
_cell_formula_units_Z   1
loop_
 _symmetry_equiv_pos_site_id
 _symmetry_equiv_pos_as_xyz
  1  'x, y, z'
loop_
 _atom_site_type_symbol
 _atom_site_label
 _atom_site_symmetry_multiplicity
 _atom_site_fract_x
 _atom_site_fract_y
 _atom_site_fract_z
 _atom_site_occupancy
  Lu  Lu0  1  0.823888  0.676112  0.000000  1
  Ta  Ta1  1  0.179387  0.320613  0.000000  1
  Ta  Ta2  1  0.323761  0.822384  0.000000  1
  Ta  Ta3  1  0.677616  0.176239  0.000000  1
  Ta  Ta4  1  0.501945  0.501141  0.000000  1
  Ta  Ta5  1  0.998859  0.998055  0.000000  1
  B  B6  1  0.620605  0.879395  0.000000  1
  B  B7  1  0.377941  0.122059  0.000000  1
  B  B8  1  0.120843  0.620182  0.000000  1
  B  B9  1  0.879818  0.379157  0.000000  1
  Os  Os10  1  0.559663  0.724200  0.500000  1
  Os  Os11  1  0.426754  0.283458  0.500000  1
  Os  Os12  1  0.079806  0.782180  0.500000  1
  Os  Os13  1  0.929771  0.216477  0.500000  1
  Os  Os14  1  0.283523  0.570229  0.500000  1
  Os  Os15  1  0.717820  0.420194  0.500000  1
  Os  Os16  1  0.216542  0.073246  0.500000  1
  Os  Os17  1  0.775800  0.940337  0.500000  1
  Os  Os18  1  0.496446  0.003554  0.500000  1
  Os  Os19  1  0.009214  0.490786  0.500000  1
