# generated using pymatgen
data_Tm5ReOsC7
_symmetry_space_group_name_H-M   'P 1'
_cell_length_a   8.14371023
_cell_length_b   8.14371057
_cell_length_c   3.42376600
_cell_angle_alpha   90.00000000
_cell_angle_beta   90.00000000
_cell_angle_gamma   121.83750528
_symmetry_Int_Tables_number   1
_chemical_formula_structural   Tm5ReOsC7
_chemical_formula_sum   'Tm5 Re1 Os1 C7'
_cell_volume   192.90186184
_cell_formula_units_Z   1
loop_
 _symmetry_equiv_pos_site_id
 _symmetry_equiv_pos_as_xyz
  1  'x, y, z'
loop_
 _atom_site_type_symbol
 _atom_site_label
 _atom_site_symmetry_multiplicity
 _atom_site_fract_x
 _atom_site_fract_y
 _atom_site_fract_z
 _atom_site_occupancy
  Tm  Tm0  1  0.500742  0.499258  0.000000  1
  Tm  Tm1  1  0.077023  0.337349  0.500000  1
  Tm  Tm2  1  0.921519  0.661971  0.500000  1
  Tm  Tm3  1  0.662651  0.922977  0.500000  1
  Tm  Tm4  1  0.338029  0.078481  0.500000  1
  Re  Re5  1  0.284831  0.715169  0.000000  1
  Os  Os6  1  0.713492  0.286508  0.000000  1
  C  C7  1  0.628871  0.371129  0.500000  1
  C  C8  1  0.376044  0.623956  0.500000  1
  C  C9  1  0.999446  0.000554  0.000000  1
  C  C10  1  0.171282  0.171940  0.000000  1
  C  C11  1  0.828060  0.828718  0.000000  1
  C  C12  1  0.999261  0.501250  0.000000  1
  C  C13  1  0.498750  0.000739  0.000000  1
