# generated using pymatgen
data_Nb8CoPdSe16
_symmetry_space_group_name_H-M   'P 1'
_cell_length_a   7.01696200
_cell_length_b   7.01696083
_cell_length_c   12.72219500
_cell_angle_alpha   90.00000000
_cell_angle_beta   90.00000000
_cell_angle_gamma   120.00000551
_symmetry_Int_Tables_number   1
_chemical_formula_structural   Nb8CoPdSe16
_chemical_formula_sum   'Nb8 Co1 Pd1 Se16'
_cell_volume   542.48887013
_cell_formula_units_Z   1
loop_
 _symmetry_equiv_pos_site_id
 _symmetry_equiv_pos_as_xyz
  1  'x, y, z'
loop_
 _atom_site_type_symbol
 _atom_site_label
 _atom_site_symmetry_multiplicity
 _atom_site_fract_x
 _atom_site_fract_y
 _atom_site_fract_z
 _atom_site_occupancy
  Nb  Nb0  1  0.000000  0.000000  0.246131  1
  Nb  Nb1  1  0.000000  0.000000  0.753869  1
  Nb  Nb2  1  0.509183  0.018366  0.243053  1
  Nb  Nb3  1  0.981634  0.490817  0.243053  1
  Nb  Nb4  1  0.509183  0.490817  0.243053  1
  Nb  Nb5  1  0.490817  0.981634  0.756947  1
  Nb  Nb6  1  0.018366  0.509183  0.756947  1
  Nb  Nb7  1  0.490817  0.509183  0.756947  1
  Co  Co8  1  0.000000  0.000000  0.000000  1
  Pd  Pd9  1  0.000000  0.000000  0.500000  1
  Se  Se10  1  0.333333  0.666667  0.894437  1
  Se  Se11  1  0.666667  0.333333  0.105563  1
  Se  Se12  1  0.666667  0.333333  0.380861  1
  Se  Se13  1  0.333333  0.666667  0.619139  1
  Se  Se14  1  0.170877  0.829123  0.372390  1
  Se  Se15  1  0.170877  0.341754  0.372390  1
  Se  Se16  1  0.658246  0.829123  0.372390  1
  Se  Se17  1  0.829123  0.170877  0.627610  1
  Se  Se18  1  0.829123  0.658246  0.627610  1
  Se  Se19  1  0.341754  0.170877  0.627610  1
  Se  Se20  1  0.834020  0.165980  0.884620  1
  Se  Se21  1  0.834020  0.668041  0.884620  1
  Se  Se22  1  0.331959  0.165980  0.884620  1
  Se  Se23  1  0.165980  0.834020  0.115380  1
  Se  Se24  1  0.165980  0.331959  0.115380  1
  Se  Se25  1  0.668041  0.834020  0.115380  1
