# generated using pymatgen
data_Ta7GaS12
_symmetry_space_group_name_H-M   'P 1'
_cell_length_a   5.77024800
_cell_length_b   5.77024769
_cell_length_c   13.82581500
_cell_angle_alpha   90.00000000
_cell_angle_beta   90.00000000
_cell_angle_gamma   120.00000176
_symmetry_Int_Tables_number   1
_chemical_formula_structural   Ta7GaS12
_chemical_formula_sum   'Ta7 Ga1 S12'
_cell_volume   398.66701150
_cell_formula_units_Z   1
loop_
 _symmetry_equiv_pos_site_id
 _symmetry_equiv_pos_as_xyz
  1  'x, y, z'
loop_
 _atom_site_type_symbol
 _atom_site_label
 _atom_site_symmetry_multiplicity
 _atom_site_fract_x
 _atom_site_fract_y
 _atom_site_fract_z
 _atom_site_occupancy
  Ta  Ta0  1  0.000000  0.000000  0.523366  1
  Ta  Ta1  1  0.000000  0.000000  0.976634  1
  Ta  Ta2  1  0.333333  0.666667  0.975884  1
  Ta  Ta3  1  0.666667  0.333333  0.978226  1
  Ta  Ta4  1  0.666667  0.333333  0.521774  1
  Ta  Ta5  1  0.333333  0.666667  0.524116  1
  Ta  Ta6  1  0.666667  0.333333  0.750000  1
  Ga  Ga7  1  0.333333  0.666667  0.250000  1
  S  S8  1  0.331962  0.333666  0.409442  1
  S  S9  1  0.666334  0.998296  0.409442  1
  S  S10  1  0.001704  0.668038  0.409442  1
  S  S11  1  0.331942  0.332171  0.638871  1
  S  S12  1  0.000228  0.668058  0.638871  1
  S  S13  1  0.667829  0.999772  0.638871  1
  S  S14  1  0.667829  0.668058  0.861129  1
  S  S15  1  0.331942  0.999772  0.861129  1
  S  S16  1  0.000228  0.332171  0.861129  1
  S  S17  1  0.666334  0.668038  0.090558  1
  S  S18  1  0.001704  0.333666  0.090558  1
  S  S19  1  0.331962  0.998296  0.090558  1
