# generated using pymatgen
data_Li2Tb2BRh4
_symmetry_space_group_name_H-M   'P 1'
_cell_length_a   5.89643239
_cell_length_b   5.89643146
_cell_length_c   5.68929200
_cell_angle_alpha   61.15543111
_cell_angle_beta   61.15543608
_cell_angle_gamma   60.02848838
_symmetry_Int_Tables_number   1
_chemical_formula_structural   Li2Tb2BRh4
_chemical_formula_sum   'Li2 Tb2 B1 Rh4'
_cell_volume   142.29388838
_cell_formula_units_Z   1
loop_
 _symmetry_equiv_pos_site_id
 _symmetry_equiv_pos_as_xyz
  1  'x, y, z'
loop_
 _atom_site_type_symbol
 _atom_site_label
 _atom_site_symmetry_multiplicity
 _atom_site_fract_x
 _atom_site_fract_y
 _atom_site_fract_z
 _atom_site_occupancy
  Li  Li0  1  0.737289  0.262712  0.264495  1
  Li  Li1  1  0.262712  0.737289  0.264495  1
  Tb  Tb2  1  0.246593  0.246593  0.258117  1
  Tb  Tb3  1  0.753407  0.753407  0.751303  1
  B  B4  1  0.000000  0.000000  0.966407  1
  Rh  Rh5  1  0.755249  0.755249  0.253470  1
  Rh  Rh6  1  0.244751  0.244751  0.763968  1
  Rh  Rh7  1  0.734156  0.265845  0.738874  1
  Rh  Rh8  1  0.265845  0.734156  0.738874  1
