# generated using pymatgen
data_PuZr2Mn(PN3)4
_symmetry_space_group_name_H-M   'P 1'
_cell_length_a   6.58481408
_cell_length_b   6.58481389
_cell_length_c   5.28179118
_cell_angle_alpha   78.45215553
_cell_angle_beta   78.45216416
_cell_angle_gamma   83.87740268
_symmetry_Int_Tables_number   1
_chemical_formula_structural   PuZr2Mn(PN3)4
_chemical_formula_sum   'Pu1 Zr2 Mn1 P4 N12'
_cell_volume   219.31007184
_cell_formula_units_Z   1
loop_
 _symmetry_equiv_pos_site_id
 _symmetry_equiv_pos_as_xyz
  1  'x, y, z'
loop_
 _atom_site_type_symbol
 _atom_site_label
 _atom_site_symmetry_multiplicity
 _atom_site_fract_x
 _atom_site_fract_y
 _atom_site_fract_z
 _atom_site_occupancy
  Pu  Pu0  1  0.686783  0.313217  0.750000  1
  Zr  Zr1  1  0.914896  0.085104  0.250000  1
  Zr  Zr2  1  0.319501  0.680499  0.250000  1
  Mn  Mn3  1  0.105378  0.894622  0.750000  1
  P  P4  1  0.196465  0.387214  0.764383  1
  P  P5  1  0.377525  0.197536  0.271182  1
  P  P6  1  0.802464  0.622475  0.228818  1
  P  P7  1  0.612786  0.803535  0.735617  1
  N  N8  1  0.313035  0.382626  0.019302  1
  N  N9  1  0.027658  0.210569  0.836543  1
  N  N10  1  0.994242  0.775310  0.126352  1
  N  N11  1  0.375126  0.341320  0.499981  1
  N  N12  1  0.611727  0.124046  0.160799  1
  N  N13  1  0.373547  0.877262  0.848511  1
  N  N14  1  0.875954  0.388273  0.339201  1
  N  N15  1  0.658680  0.624874  0.000019  1
  N  N16  1  0.789431  0.972342  0.663457  1
  N  N17  1  0.122738  0.626453  0.651489  1
  N  N18  1  0.224690  0.005758  0.373648  1
  N  N19  1  0.617374  0.686965  0.480698  1
