# generated using pymatgen
data_K2CrNiSe4
_symmetry_space_group_name_H-M   'P 1'
_cell_length_a   13.69246708
_cell_length_b   12.23453430
_cell_length_c   7.25524858
_cell_angle_alpha   85.20532888
_cell_angle_beta   62.92308567
_cell_angle_gamma   31.87158659
_symmetry_Int_Tables_number   1
_chemical_formula_structural   K2CrNiSe4
_chemical_formula_sum   'K4 Cr2 Ni2 Se8'
_cell_volume   436.94240966
_cell_formula_units_Z   2
loop_
 _symmetry_equiv_pos_site_id
 _symmetry_equiv_pos_as_xyz
  1  'x, y, z'
loop_
 _atom_site_type_symbol
 _atom_site_label
 _atom_site_symmetry_multiplicity
 _atom_site_fract_x
 _atom_site_fract_y
 _atom_site_fract_z
 _atom_site_occupancy
  K  K0  1  0.680289  0.680289  0.319711  1
  K  K1  1  0.319711  0.319711  0.680289  1
  K  K2  1  0.569711  0.569711  0.930289  1
  K  K3  1  0.930289  0.930289  0.569711  1
  Cr  Cr4  1  0.500000  0.500000  0.500000  1
  Cr  Cr5  1  0.750000  0.750000  0.750000  1
  Ni  Ni6  1  0.000000  0.000000  0.000000  1
  Ni  Ni7  1  0.250000  0.250000  0.250000  1
  Se  Se8  1  0.356916  0.032170  0.946991  1
  Se  Se9  1  0.663923  0.946991  0.032170  1
  Se  Se10  1  0.946991  0.663923  0.356916  1
  Se  Se11  1  0.032170  0.356916  0.663923  1
  Se  Se12  1  0.893084  0.217830  0.303009  1
  Se  Se13  1  0.586077  0.303009  0.217830  1
  Se  Se14  1  0.303009  0.586077  0.893084  1
  Se  Se15  1  0.217830  0.893084  0.586077  1
