# generated using pymatgen
data_Pr4Al4Pd3Rh
_symmetry_space_group_name_H-M   'P 1'
_cell_length_a   4.52741200
_cell_length_b   7.12019650
_cell_length_c   8.00246073
_cell_angle_alpha   89.92516003
_cell_angle_beta   90.00000000
_cell_angle_gamma   90.00000000
_symmetry_Int_Tables_number   1
_chemical_formula_structural   Pr4Al4Pd3Rh
_chemical_formula_sum   'Pr4 Al4 Pd3 Rh1'
_cell_volume   257.96760872
_cell_formula_units_Z   1
loop_
 _symmetry_equiv_pos_site_id
 _symmetry_equiv_pos_as_xyz
  1  'x, y, z'
loop_
 _atom_site_type_symbol
 _atom_site_label
 _atom_site_symmetry_multiplicity
 _atom_site_fract_x
 _atom_site_fract_y
 _atom_site_fract_z
 _atom_site_occupancy
  Pr  Pr0  1  0.250000  0.537979  0.179523  1
  Pr  Pr1  1  0.750000  0.459614  0.817765  1
  Pr  Pr2  1  0.750000  0.968657  0.679415  1
  Pr  Pr3  1  0.250000  0.041922  0.323771  1
  Al  Al4  1  0.250000  0.633593  0.563580  1
  Al  Al5  1  0.750000  0.359042  0.439579  1
  Al  Al6  1  0.750000  0.860455  0.062323  1
  Al  Al7  1  0.250000  0.141635  0.934534  1
  Pd  Pd8  1  0.250000  0.778482  0.883229  1
  Pd  Pd9  1  0.750000  0.221862  0.117992  1
  Pd  Pd10  1  0.750000  0.723141  0.382757  1
  Rh  Rh11  1  0.250000  0.273618  0.615533  1
