# generated using pymatgen
data_Tb3Sm(IO4)4
_symmetry_space_group_name_H-M   'P 1'
_cell_length_a   5.66143182
_cell_length_b   11.05751136
_cell_length_c   5.62991900
_cell_angle_alpha   90.23785759
_cell_angle_beta   89.88795732
_cell_angle_gamma   89.58259599
_symmetry_Int_Tables_number   1
_chemical_formula_structural   Tb3Sm(IO4)4
_chemical_formula_sum   'Tb3 Sm1 I4 O16'
_cell_volume   352.42742723
_cell_formula_units_Z   1
loop_
 _symmetry_equiv_pos_site_id
 _symmetry_equiv_pos_as_xyz
  1  'x, y, z'
loop_
 _atom_site_type_symbol
 _atom_site_label
 _atom_site_symmetry_multiplicity
 _atom_site_fract_x
 _atom_site_fract_y
 _atom_site_fract_z
 _atom_site_occupancy
  Tb  Tb0  1  0.485572  0.399121  0.176797  1
  Tb  Tb1  1  0.982942  0.597992  0.177337  1
  Tb  Tb2  1  0.010916  0.399396  0.675821  1
  Sm  Sm3  1  0.507272  0.603412  0.678715  1
  I  I4  1  0.008253  0.141253  0.177246  1
  I  I5  1  0.509181  0.861308  0.175772  1
  I  I6  1  0.493424  0.141074  0.677237  1
  I  I7  1  0.996308  0.858998  0.674998  1
  O  O8  1  0.136476  0.282950  0.063428  1
  O  O9  1  0.640059  0.717726  0.066004  1
  O  O10  1  0.252502  0.064946  0.337438  1
  O  O11  1  0.750964  0.936845  0.338112  1
  O  O12  1  0.860596  0.220677  0.432488  1
  O  O13  1  0.360627  0.783589  0.429788  1
  O  O14  1  0.743077  0.488952  0.425726  1
  O  O15  1  0.239749  0.508564  0.426206  1
  O  O16  1  0.362385  0.282946  0.562913  1
  O  O17  1  0.868565  0.717199  0.558677  1
  O  O18  1  0.250179  0.065150  0.837331  1
  O  O19  1  0.750671  0.933494  0.838685  1
  O  O20  1  0.638626  0.220264  0.932177  1
  O  O21  1  0.146267  0.777898  0.925366  1
  O  O22  1  0.754007  0.488481  0.928718  1
  O  O23  1  0.251375  0.507772  0.929385  1
