# generated using pymatgen
data_Li4PrSm3(Si2Pb)2
_symmetry_space_group_name_H-M   'P 1'
_cell_length_a   9.80311711
_cell_length_b   9.80311767
_cell_length_c   6.87741900
_cell_angle_alpha   90.00000000
_cell_angle_beta   90.00000000
_cell_angle_gamma   153.32765226
_symmetry_Int_Tables_number   1
_chemical_formula_structural   Li4PrSm3(Si2Pb)2
_chemical_formula_sum   'Li4 Pr1 Sm3 Si4 Pb2'
_cell_volume   296.68232787
_cell_formula_units_Z   1
loop_
 _symmetry_equiv_pos_site_id
 _symmetry_equiv_pos_as_xyz
  1  'x, y, z'
loop_
 _atom_site_type_symbol
 _atom_site_label
 _atom_site_symmetry_multiplicity
 _atom_site_fract_x
 _atom_site_fract_y
 _atom_site_fract_z
 _atom_site_occupancy
  Li  Li0  1  0.816734  0.183266  0.553507  1
  Li  Li1  1  0.183369  0.816631  0.446773  1
  Li  Li2  1  0.183369  0.816631  0.053227  1
  Li  Li3  1  0.816734  0.183266  0.946493  1
  Pr  Pr4  1  0.547848  0.452152  0.250000  1
  Sm  Sm5  1  0.452280  0.547720  0.750000  1
  Sm  Sm6  1  0.352654  0.647346  0.250000  1
  Sm  Sm7  1  0.647300  0.352700  0.750000  1
  Si  Si8  1  0.942562  0.057438  0.073309  1
  Si  Si9  1  0.056910  0.943090  0.924738  1
  Si  Si10  1  0.056910  0.943090  0.575262  1
  Si  Si11  1  0.942562  0.057438  0.426691  1
  Pb  Pb12  1  0.719830  0.280170  0.250000  1
  Pb  Pb13  1  0.280937  0.719063  0.750000  1
