# generated using pymatgen
data_LaPr5(IrBr3)2
_symmetry_space_group_name_H-M   'P 1'
_cell_length_a   10.59319114
_cell_length_b   10.59303270
_cell_length_c   10.57260621
_cell_angle_alpha   108.95291017
_cell_angle_beta   109.72490972
_cell_angle_gamma   109.81511169
_symmetry_Int_Tables_number   1
_chemical_formula_structural   LaPr5(IrBr3)2
_chemical_formula_sum   'La2 Pr10 Ir4 Br12'
_cell_volume   912.34576919
_cell_formula_units_Z   2
loop_
 _symmetry_equiv_pos_site_id
 _symmetry_equiv_pos_as_xyz
  1  'x, y, z'
loop_
 _atom_site_type_symbol
 _atom_site_label
 _atom_site_symmetry_multiplicity
 _atom_site_fract_x
 _atom_site_fract_y
 _atom_site_fract_z
 _atom_site_occupancy
  La  La0  1  0.465801  0.483305  0.232887  1
  La  La1  1  0.750432  0.232925  0.267118  1
  Pr  Pr2  1  0.750411  0.015235  0.485509  1
  Pr  Pr3  1  0.234962  0.469528  0.485036  1
  Pr  Pr4  1  0.266403  0.752211  0.234995  1
  Pr  Pr5  1  0.029721  0.264895  0.014493  1
  Pr  Pr6  1  0.017226  0.031420  0.265017  1
  Pr  Pr7  1  0.484490  0.749913  0.014960  1
  Pr  Pr8  1  0.484741  0.234015  0.469841  1
  Pr  Pr9  1  0.017417  0.485673  0.752898  1
  Pr  Pr10  1  0.264166  0.014900  0.030150  1
  Pr  Pr11  1  0.232771  0.264511  0.747090  1
  Ir  Ir12  1  0.251011  0.251160  0.249869  1
  Ir  Ir13  1  0.501288  0.001146  0.250123  1
  Ir  Ir14  1  0.998873  0.249977  0.498916  1
  Ir  Ir15  1  0.251067  0.499959  0.001092  1
  Br  Br16  1  0.250066  0.754436  0.745758  1
  Br  Br17  1  0.508676  0.504307  0.754232  1
  Br  Br18  1  0.991256  0.745677  0.995619  1
  Br  Br19  1  0.745765  0.249914  0.754321  1
  Br  Br20  1  0.995590  0.991450  0.745680  1
  Br  Br21  1  0.250066  0.995646  0.504388  1
  Br  Br22  1  0.754660  0.508763  0.506137  1
  Br  Br23  1  0.502637  0.248538  0.993875  1
  Br  Br24  1  0.754662  0.746475  0.249975  1
  Br  Br25  1  0.745774  0.994412  0.990849  1
  Br  Br26  1  0.996510  0.504691  0.250026  1
  Br  Br27  1  0.503559  0.754920  0.509147  1
