# generated using pymatgen
data_LaNd3Cd2RuAu3
_symmetry_space_group_name_H-M   'P 1'
_cell_length_a   7.99418912
_cell_length_b   7.99418944
_cell_length_c   3.95771000
_cell_angle_alpha   90.00000000
_cell_angle_beta   90.00000000
_cell_angle_gamma   90.97795491
_symmetry_Int_Tables_number   1
_chemical_formula_structural   LaNd3Cd2RuAu3
_chemical_formula_sum   'La1 Nd3 Cd2 Ru1 Au3'
_cell_volume   252.88877717
_cell_formula_units_Z   1
loop_
 _symmetry_equiv_pos_site_id
 _symmetry_equiv_pos_as_xyz
  1  'x, y, z'
loop_
 _atom_site_type_symbol
 _atom_site_label
 _atom_site_symmetry_multiplicity
 _atom_site_fract_x
 _atom_site_fract_y
 _atom_site_fract_z
 _atom_site_occupancy
  La  La0  1  0.305168  0.805168  0.500000  1
  Nd  Nd1  1  0.669608  0.169608  0.500000  1
  Nd  Nd2  1  0.174297  0.346635  0.500000  1
  Nd  Nd3  1  0.846635  0.674297  0.500000  1
  Cd  Cd4  1  0.999290  0.998771  0.000000  1
  Cd  Cd5  1  0.498771  0.499290  0.000000  1
  Ru  Ru6  1  0.138672  0.638672  0.000000  1
  Au  Au7  1  0.874719  0.374719  0.000000  1
  Au  Au8  1  0.625874  0.866966  0.000000  1
  Au  Au9  1  0.366966  0.125874  0.000000  1
