# generated using pymatgen
data_ScMn4Nb3SiP3
_symmetry_space_group_name_H-M   'P 1'
_cell_length_a   3.55265100
_cell_length_b   6.30780179
_cell_length_c   7.36843127
_cell_angle_alpha   89.43190588
_cell_angle_beta   90.00000000
_cell_angle_gamma   90.00000000
_symmetry_Int_Tables_number   1
_chemical_formula_structural   ScMn4Nb3SiP3
_chemical_formula_sum   'Sc1 Mn4 Nb3 Si1 P3'
_cell_volume   165.11414219
_cell_formula_units_Z   1
loop_
 _symmetry_equiv_pos_site_id
 _symmetry_equiv_pos_as_xyz
  1  'x, y, z'
loop_
 _atom_site_type_symbol
 _atom_site_label
 _atom_site_symmetry_multiplicity
 _atom_site_fract_x
 _atom_site_fract_y
 _atom_site_fract_z
 _atom_site_occupancy
  Sc  Sc0  1  0.250000  0.530200  0.674554  1
  Mn  Mn1  1  0.750000  0.864285  0.558140  1
  Mn  Mn2  1  0.250000  0.133002  0.443541  1
  Mn  Mn3  1  0.750000  0.365166  0.936979  1
  Mn  Mn4  1  0.250000  0.644222  0.060078  1
  Nb  Nb5  1  0.750000  0.470073  0.327407  1
  Nb  Nb6  1  0.250000  0.030184  0.828091  1
  Nb  Nb7  1  0.750000  0.963500  0.173306  1
  Si  Si8  1  0.250000  0.267546  0.129410  1
  P  P9  1  0.750000  0.734457  0.867938  1
  P  P10  1  0.250000  0.765879  0.371048  1
  P  P11  1  0.750000  0.231487  0.629509  1
