# generated using pymatgen
data_Y6TmLu13(Cd3Ru)2
_symmetry_space_group_name_H-M   'P 1'
_cell_length_a   9.47964519
_cell_length_b   9.47976506
_cell_length_c   9.68126620
_cell_angle_alpha   89.98048264
_cell_angle_beta   90.02036400
_cell_angle_gamma   120.01060481
_symmetry_Int_Tables_number   1
_chemical_formula_structural   Y6TmLu13(Cd3Ru)2
_chemical_formula_sum   'Y6 Tm1 Lu13 Cd6 Ru2'
_cell_volume   753.36596487
_cell_formula_units_Z   1
loop_
 _symmetry_equiv_pos_site_id
 _symmetry_equiv_pos_as_xyz
  1  'x, y, z'
loop_
 _atom_site_type_symbol
 _atom_site_label
 _atom_site_symmetry_multiplicity
 _atom_site_fract_x
 _atom_site_fract_y
 _atom_site_fract_z
 _atom_site_occupancy
  Y  Y0  1  0.539860  0.460150  0.250034  1
  Y  Y1  1  0.540342  0.080240  0.249748  1
  Y  Y2  1  0.919766  0.459676  0.249747  1
  Y  Y3  1  0.460038  0.539953  0.750058  1
  Y  Y4  1  0.460224  0.920231  0.750262  1
  Y  Y5  1  0.079770  0.539766  0.750265  1
  Tm  Tm6  1  0.210069  0.789931  0.439982  1
  Lu  Lu7  1  0.999897  0.000125  0.500081  1
  Lu  Lu8  1  0.999972  0.000022  0.000065  1
  Lu  Lu9  1  0.210121  0.420251  0.440010  1
  Lu  Lu10  1  0.579746  0.789833  0.440071  1
  Lu  Lu11  1  0.789870  0.210154  0.560039  1
  Lu  Lu12  1  0.789825  0.579737  0.559945  1
  Lu  Lu13  1  0.420290  0.210166  0.560010  1
  Lu  Lu14  1  0.789817  0.210171  0.939981  1
  Lu  Lu15  1  0.789776  0.579592  0.939983  1
  Lu  Lu16  1  0.420356  0.210197  0.939955  1
  Lu  Lu17  1  0.210256  0.789761  0.059886  1
  Lu  Lu18  1  0.210278  0.420433  0.060011  1
  Lu  Lu19  1  0.579588  0.789828  0.059966  1
  Cd  Cd20  1  0.886694  0.113319  0.249961  1
  Cd  Cd21  1  0.886492  0.772964  0.249936  1
  Cd  Cd22  1  0.227093  0.113534  0.249946  1
  Cd  Cd23  1  0.113285  0.886686  0.750175  1
  Cd  Cd24  1  0.113503  0.226966  0.749984  1
  Cd  Cd25  1  0.772944  0.886445  0.750009  1
  Ru  Ru26  1  0.333430  0.666577  0.249963  1
  Ru  Ru27  1  0.666699  0.333293  0.749928  1
