# generated using pymatgen
data_Sm7Sc(IO6)4
_symmetry_space_group_name_H-M   'P 1'
_cell_length_a   5.65549687
_cell_length_b   7.86260748
_cell_length_c   11.82210019
_cell_angle_alpha   75.84875799
_cell_angle_beta   90.74759232
_cell_angle_gamma   89.98169043
_symmetry_Int_Tables_number   1
_chemical_formula_structural   Sm7Sc(IO6)4
_chemical_formula_sum   'Sm7 Sc1 I4 O24'
_cell_volume   509.69322978
_cell_formula_units_Z   1
loop_
 _symmetry_equiv_pos_site_id
 _symmetry_equiv_pos_as_xyz
  1  'x, y, z'
loop_
 _atom_site_type_symbol
 _atom_site_label
 _atom_site_symmetry_multiplicity
 _atom_site_fract_x
 _atom_site_fract_y
 _atom_site_fract_z
 _atom_site_occupancy
  Sm  Sm0  1  0.739987  0.016756  0.750866  1
  Sm  Sm1  1  0.257476  0.976684  0.249128  1
  Sm  Sm2  1  0.811720  0.774564  0.080783  1
  Sm  Sm3  1  0.688807  0.499838  0.748148  1
  Sm  Sm4  1  0.310771  0.504864  0.251610  1
  Sm  Sm5  1  0.182080  0.223775  0.917760  1
  Sm  Sm6  1  0.835747  0.194068  0.428539  1
  Sc  Sc7  1  0.152035  0.815382  0.569720  1
  I  I8  1  0.248375  0.734586  0.875582  1
  I  I9  1  0.733309  0.714517  0.396187  1
  I  I10  1  0.271023  0.294502  0.608338  1
  I  I11  1  0.747077  0.264027  0.120115  1
  O  O12  1  0.070618  0.941692  0.892882  1
  O  O13  1  0.528865  0.830160  0.926898  1
  O  O14  1  0.030658  0.950207  0.405306  1
  O  O15  1  0.393761  0.822048  0.722946  1
  O  O16  1  0.468008  0.830527  0.440918  1
  O  O17  1  0.970210  0.702017  0.787664  1
  O  O18  1  0.544036  0.772921  0.228581  1
  O  O19  1  0.863568  0.647818  0.560303  1
  O  O20  1  0.369017  0.512181  0.873618  1
  O  O21  1  0.054972  0.719898  0.240754  1
  O  O22  1  0.371440  0.522171  0.605443  1
  O  O23  1  0.852732  0.367588  0.969891  1
  O  O24  1  0.148736  0.637087  0.028750  1
  O  O25  1  0.632414  0.486302  0.398077  1
  O  O26  1  0.936716  0.278630  0.757665  1
  O  O27  1  0.627532  0.485232  0.126242  1
  O  O28  1  0.164049  0.361618  0.439858  1
  O  O29  1  0.449688  0.228735  0.770993  1
  O  O30  1  0.019960  0.293428  0.215955  1
  O  O31  1  0.537710  0.175264  0.568147  1
  O  O32  1  0.594126  0.170264  0.268907  1
  O  O33  1  0.989872  0.024264  0.604422  1
  O  O34  1  0.473187  0.167644  0.065092  1
  O  O35  1  0.929717  0.058737  0.103915  1
