# generated using pymatgen
data_LuTh3(Ni2Sn)2
_symmetry_space_group_name_H-M   'P 1'
_cell_length_a   7.49323558
_cell_length_b   7.49323558
_cell_length_c   3.73309900
_cell_angle_alpha   90.00000000
_cell_angle_beta   90.00000000
_cell_angle_gamma   89.11477515
_symmetry_Int_Tables_number   1
_chemical_formula_structural   LuTh3(Ni2Sn)2
_chemical_formula_sum   'Lu1 Th3 Ni4 Sn2'
_cell_volume   209.58318921
_cell_formula_units_Z   1
loop_
 _symmetry_equiv_pos_site_id
 _symmetry_equiv_pos_as_xyz
  1  'x, y, z'
loop_
 _atom_site_type_symbol
 _atom_site_label
 _atom_site_symmetry_multiplicity
 _atom_site_fract_x
 _atom_site_fract_y
 _atom_site_fract_z
 _atom_site_occupancy
  Lu  Lu0  1  0.674959  0.174959  0.500000  1
  Th  Th1  1  0.328408  0.828408  0.500000  1
  Th  Th2  1  0.175012  0.323994  0.500000  1
  Th  Th3  1  0.823994  0.675012  0.500000  1
  Ni  Ni4  1  0.877687  0.377687  0.000000  1
  Ni  Ni5  1  0.124402  0.624402  0.000000  1
  Ni  Ni6  1  0.377356  0.122793  0.000000  1
  Ni  Ni7  1  0.622793  0.877356  0.000000  1
  Sn  Sn8  1  0.506834  0.488555  0.000000  1
  Sn  Sn9  1  0.988555  0.006834  0.000000  1
