# generated using pymatgen
data_Ho8Ti7Re2Si16Tc3
_symmetry_space_group_name_H-M   'P 1'
_cell_length_a   6.91365077
_cell_length_b   6.92012213
_cell_length_c   12.74451680
_cell_angle_alpha   89.82230390
_cell_angle_beta   89.92627217
_cell_angle_gamma   89.99554818
_symmetry_Int_Tables_number   1
_chemical_formula_structural   Ho8Ti7Re2Si16Tc3
_chemical_formula_sum   'Ho8 Ti7 Re2 Si16 Tc3'
_cell_volume   609.73639959
_cell_formula_units_Z   1
loop_
 _symmetry_equiv_pos_site_id
 _symmetry_equiv_pos_as_xyz
  1  'x, y, z'
loop_
 _atom_site_type_symbol
 _atom_site_label
 _atom_site_symmetry_multiplicity
 _atom_site_fract_x
 _atom_site_fract_y
 _atom_site_fract_z
 _atom_site_occupancy
  Ho  Ho0  1  0.339971  0.000217  0.470045  1
  Ho  Ho1  1  0.498419  0.839981  0.720054  1
  Ho  Ho2  1  0.499343  0.159652  0.219055  1
  Ho  Ho3  1  0.839069  0.498675  0.279772  1
  Ho  Ho4  1  0.160227  0.499903  0.781614  1
  Ho  Ho5  1  0.659433  0.999633  0.968528  1
  Ho  Ho6  1  0.000787  0.340610  0.531183  1
  Ho  Ho7  1  0.997751  0.659086  0.028692  1
  Ti  Ti8  1  0.493457  0.657965  0.127170  1
  Ti  Ti9  1  0.501468  0.346474  0.628505  1
  Ti  Ti10  1  0.656640  0.496229  0.873083  1
  Ti  Ti11  1  0.346500  0.505393  0.373553  1
  Ti  Ti12  1  0.845483  0.996532  0.376968  1
  Ti  Ti13  1  0.003643  0.155318  0.125779  1
  Ti  Ti14  1  0.995662  0.845502  0.622468  1
  Re  Re15  1  0.669989  0.669920  0.500535  1
  Re  Re16  1  0.161102  0.989887  0.876632  1
  Si  Si17  1  0.196933  0.127424  0.686983  1
  Si  Si18  1  0.376555  0.702050  0.933584  1
  Si  Si19  1  0.628249  0.300220  0.434314  1
  Si  Si20  1  0.700140  0.371634  0.065895  1
  Si  Si21  1  0.300582  0.629209  0.566459  1
  Si  Si22  1  0.799859  0.871309  0.183268  1
  Si  Si23  1  0.128776  0.200937  0.317338  1
  Si  Si24  1  0.874557  0.805113  0.816107  1
  Si  Si25  1  0.290458  0.959019  0.062610  1
  Si  Si26  1  0.546683  0.791396  0.317622  1
  Si  Si27  1  0.446595  0.210548  0.819187  1
  Si  Si28  1  0.790610  0.547439  0.682772  1
  Si  Si29  1  0.209026  0.453994  0.182608  1
  Si  Si30  1  0.709066  0.046008  0.567534  1
  Si  Si31  1  0.961907  0.280839  0.931834  1
  Si  Si32  1  0.045328  0.709753  0.431588  1
  Tc  Tc33  1  0.328890  0.332254  0.000937  1
  Tc  Tc34  1  0.168840  0.831621  0.247283  1
  Tc  Tc35  1  0.828002  0.168253  0.748442  1
