# generated using pymatgen
data_Tb3Ho13(ErPb4)4
_symmetry_space_group_name_H-M   'P 1'
_cell_length_a   8.20600773
_cell_length_b   8.27915102
_cell_length_c   15.63538700
_cell_angle_alpha   90.01459531
_cell_angle_beta   90.30031867
_cell_angle_gamma   89.85426287
_symmetry_Int_Tables_number   1
_chemical_formula_structural   Tb3Ho13(ErPb4)4
_chemical_formula_sum   'Tb3 Ho13 Er4 Pb16'
_cell_volume   1062.23101552
_cell_formula_units_Z   1
loop_
 _symmetry_equiv_pos_site_id
 _symmetry_equiv_pos_as_xyz
  1  'x, y, z'
loop_
 _atom_site_type_symbol
 _atom_site_label
 _atom_site_symmetry_multiplicity
 _atom_site_fract_x
 _atom_site_fract_y
 _atom_site_fract_z
 _atom_site_occupancy
  Tb  Tb0  1  0.031390  0.177466  0.098492  1
  Tb  Tb1  1  0.469326  0.676988  0.902578  1
  Tb  Tb2  1  0.966609  0.823139  0.598051  1
  Ho  Ho3  1  0.623767  0.158345  0.620758  1
  Ho  Ho4  1  0.126513  0.341862  0.878638  1
  Ho  Ho5  1  0.373733  0.842753  0.122363  1
  Ho  Ho6  1  0.875192  0.658134  0.378932  1
  Ho  Ho7  1  0.377201  0.842529  0.378719  1
  Ho  Ho8  1  0.875029  0.657465  0.121976  1
  Ho  Ho9  1  0.624106  0.157387  0.878215  1
  Ho  Ho10  1  0.122194  0.342226  0.621005  1
  Ho  Ho11  1  0.461488  0.674314  0.600638  1
  Ho  Ho12  1  0.963861  0.823699  0.900051  1
  Ho  Ho13  1  0.535373  0.324425  0.100021  1
  Ho  Ho14  1  0.038432  0.175969  0.398989  1
  Ho  Ho15  1  0.536272  0.324865  0.400267  1
  Er  Er16  1  0.792023  0.495029  0.749653  1
  Er  Er17  1  0.292152  0.004805  0.749332  1
  Er  Er18  1  0.207802  0.504322  0.251124  1
  Er  Er19  1  0.707630  0.995378  0.250043  1
  Pb  Pb20  1  0.719122  0.970050  0.455458  1
  Pb  Pb21  1  0.217545  0.534660  0.044074  1
  Pb  Pb22  1  0.281788  0.032972  0.956571  1
  Pb  Pb23  1  0.779512  0.467126  0.542840  1
  Pb  Pb24  1  0.284003  0.036287  0.542117  1
  Pb  Pb25  1  0.786286  0.460957  0.958224  1
  Pb  Pb26  1  0.713509  0.961729  0.042197  1
  Pb  Pb27  1  0.217969  0.534748  0.457339  1
  Pb  Pb28  1  0.429120  0.373798  0.749620  1
  Pb  Pb29  1  0.929541  0.126077  0.749898  1
  Pb  Pb30  1  0.570225  0.625950  0.250159  1
  Pb  Pb31  1  0.070147  0.873595  0.250484  1
  Pb  Pb32  1  0.653141  0.845414  0.749117  1
  Pb  Pb33  1  0.153128  0.654274  0.751083  1
  Pb  Pb34  1  0.348455  0.155564  0.249939  1
  Pb  Pb35  1  0.846415  0.345700  0.251039  1
