# generated using pymatgen
data_Pr3Hf4BiF28
_symmetry_space_group_name_H-M   'P 1'
_cell_length_a   5.84004456
_cell_length_b   9.35337909
_cell_length_c   12.55726348
_cell_angle_alpha   61.89335605
_cell_angle_beta   90.05407099
_cell_angle_gamma   89.99730575
_symmetry_Int_Tables_number   1
_chemical_formula_structural   Pr3Hf4BiF28
_chemical_formula_sum   'Pr3 Hf4 Bi1 F28'
_cell_volume   605.03931899
_cell_formula_units_Z   1
loop_
 _symmetry_equiv_pos_site_id
 _symmetry_equiv_pos_as_xyz
  1  'x, y, z'
loop_
 _atom_site_type_symbol
 _atom_site_label
 _atom_site_symmetry_multiplicity
 _atom_site_fract_x
 _atom_site_fract_y
 _atom_site_fract_z
 _atom_site_occupancy
  Pr  Pr0  1  0.257641  0.188613  0.734962  1
  Pr  Pr1  1  0.242677  0.187776  0.234432  1
  Pr  Pr2  1  0.742643  0.811918  0.265272  1
  Hf  Hf3  1  0.756127  0.275050  0.956201  1
  Hf  Hf4  1  0.256104  0.726443  0.544471  1
  Hf  Hf5  1  0.243765  0.725785  0.042110  1
  Hf  Hf6  1  0.745710  0.273727  0.457211  1
  Bi  Bi7  1  0.760568  0.816502  0.763692  1
  F  F8  1  0.454447  0.710071  0.922737  1
  F  F9  1  0.957047  0.289122  0.577606  1
  F  F10  1  0.544349  0.289046  0.076581  1
  F  F11  1  0.044366  0.711339  0.423893  1
  F  F12  1  0.464531  0.281234  0.548171  1
  F  F13  1  0.958692  0.721154  0.951677  1
  F  F14  1  0.535838  0.716886  0.453622  1
  F  F15  1  0.039035  0.280936  0.046301  1
  F  F16  1  0.770884  0.515816  0.861399  1
  F  F17  1  0.268560  0.483214  0.639389  1
  F  F18  1  0.228256  0.483249  0.137343  1
  F  F19  1  0.732160  0.515643  0.362654  1
  F  F20  1  0.762162  0.032223  0.055499  1
  F  F21  1  0.262897  0.968474  0.444194  1
  F  F22  1  0.239952  0.968475  0.943346  1
  F  F23  1  0.739283  0.030424  0.557079  1
  F  F24  1  0.986936  0.734456  0.640777  1
  F  F25  1  0.489206  0.266301  0.858112  1
  F  F26  1  0.013237  0.267005  0.359984  1
  F  F27  1  0.508832  0.731433  0.141731  1
  F  F28  1  0.038958  0.742830  0.165730  1
  F  F29  1  0.541341  0.256589  0.334134  1
  F  F30  1  0.959001  0.255505  0.832826  1
  F  F31  1  0.458712  0.746366  0.666919  1
  F  F32  1  0.413765  0.968714  0.230460  1
  F  F33  1  0.913033  0.031746  0.269406  1
  F  F34  1  0.590523  0.027147  0.769527  1
  F  F35  1  0.078761  0.968785  0.730552  1
