# generated using pymatgen
data_Ca4InGa8Ag3
_symmetry_space_group_name_H-M   'P 1'
_cell_length_a   4.43676700
_cell_length_b   7.10638357
_cell_length_c   10.60665504
_cell_angle_alpha   89.92647666
_cell_angle_beta   90.00000000
_cell_angle_gamma   90.00000000
_symmetry_Int_Tables_number   1
_chemical_formula_structural   Ca4InGa8Ag3
_chemical_formula_sum   'Ca4 In1 Ga8 Ag3'
_cell_volume   334.42085607
_cell_formula_units_Z   1
loop_
 _symmetry_equiv_pos_site_id
 _symmetry_equiv_pos_as_xyz
  1  'x, y, z'
loop_
 _atom_site_type_symbol
 _atom_site_label
 _atom_site_symmetry_multiplicity
 _atom_site_fract_x
 _atom_site_fract_y
 _atom_site_fract_z
 _atom_site_occupancy
  Ca  Ca0  1  0.250000  0.779634  0.820714  1
  Ca  Ca1  1  0.750000  0.215631  0.175020  1
  Ca  Ca2  1  0.750000  0.725985  0.329700  1
  Ca  Ca3  1  0.250000  0.276745  0.673241  1
  In  In4  1  0.250000  0.535462  0.096220  1
  Ga  Ga5  1  0.250000  0.704216  0.534531  1
  Ga  Ga6  1  0.750000  0.295587  0.466709  1
  Ga  Ga7  1  0.750000  0.809418  0.031063  1
  Ga  Ga8  1  0.250000  0.186230  0.962773  1
  Ga  Ga9  1  0.250000  0.930440  0.154951  1
  Ga  Ga10  1  0.750000  0.079986  0.844808  1
  Ga  Ga11  1  0.750000  0.574566  0.650012  1
  Ga  Ga12  1  0.250000  0.424446  0.358972  1
  Ag  Ag13  1  0.750000  0.461334  0.900458  1
  Ag  Ag14  1  0.750000  0.958556  0.598503  1
  Ag  Ag15  1  0.250000  0.041765  0.402324  1
