# generated using pymatgen
data_Th10Ga3NiTe4
_symmetry_space_group_name_H-M   'P 1'
_cell_length_a   8.25402987
_cell_length_b   8.25403054
_cell_length_c   15.48606000
_cell_angle_alpha   90.00000000
_cell_angle_beta   90.00000000
_cell_angle_gamma   151.00329704
_symmetry_Int_Tables_number   1
_chemical_formula_structural   Th10Ga3NiTe4
_chemical_formula_sum   'Th10 Ga3 Ni1 Te4'
_cell_volume   511.44529284
_cell_formula_units_Z   1
loop_
 _symmetry_equiv_pos_site_id
 _symmetry_equiv_pos_as_xyz
  1  'x, y, z'
loop_
 _atom_site_type_symbol
 _atom_site_label
 _atom_site_symmetry_multiplicity
 _atom_site_fract_x
 _atom_site_fract_y
 _atom_site_fract_z
 _atom_site_occupancy
  Th  Th0  1  0.964340  0.035660  0.115799  1
  Th  Th1  1  0.039455  0.960545  0.879557  1
  Th  Th2  1  0.039455  0.960545  0.620443  1
  Th  Th3  1  0.964340  0.035660  0.384201  1
  Th  Th4  1  0.749107  0.250893  0.629362  1
  Th  Th5  1  0.247183  0.752817  0.384660  1
  Th  Th6  1  0.247183  0.752817  0.115340  1
  Th  Th7  1  0.749107  0.250893  0.870638  1
  Th  Th8  1  0.606965  0.393035  0.250000  1
  Th  Th9  1  0.394933  0.605067  0.750000  1
  Ga  Ga10  1  0.405357  0.594643  0.250000  1
  Ga  Ga11  1  0.594700  0.405300  0.750000  1
  Ga  Ga12  1  0.807685  0.192315  0.250000  1
  Ni  Ni13  1  0.190591  0.809409  0.750000  1
  Te  Te14  1  0.610278  0.389722  0.035455  1
  Te  Te15  1  0.389521  0.610479  0.961550  1
  Te  Te16  1  0.389521  0.610479  0.538450  1
  Te  Te17  1  0.610278  0.389722  0.464545  1
