# generated using pymatgen
data_Pr3NdAl18Rh5Au
_symmetry_space_group_name_H-M   'P 1'
_cell_length_a   7.66932676
_cell_length_b   7.67017681
_cell_length_c   9.63627405
_cell_angle_alpha   89.90410707
_cell_angle_beta   89.91566533
_cell_angle_gamma   119.37863431
_symmetry_Int_Tables_number   1
_chemical_formula_structural   Pr3NdAl18Rh5Au
_chemical_formula_sum   'Pr3 Nd1 Al18 Rh5 Au1'
_cell_volume   493.95298361
_cell_formula_units_Z   1
loop_
 _symmetry_equiv_pos_site_id
 _symmetry_equiv_pos_as_xyz
  1  'x, y, z'
loop_
 _atom_site_type_symbol
 _atom_site_label
 _atom_site_symmetry_multiplicity
 _atom_site_fract_x
 _atom_site_fract_y
 _atom_site_fract_z
 _atom_site_occupancy
  Pr  Pr0  1  0.996010  0.674290  0.749816  1
  Pr  Pr1  1  0.004001  0.325663  0.250194  1
  Pr  Pr2  1  0.674295  0.996047  0.749790  1
  Nd  Nd3  1  0.325657  0.003957  0.250153  1
  Al  Al4  1  0.138610  0.138518  0.758058  1
  Al  Al5  1  0.861864  0.861508  0.241970  1
  Al  Al6  1  0.004680  0.345194  0.576997  1
  Al  Al7  1  0.995759  0.655263  0.422765  1
  Al  Al8  1  0.998753  0.664174  0.072337  1
  Al  Al9  1  0.336239  0.001642  0.928313  1
  Al  Al10  1  0.001692  0.336252  0.927939  1
  Al  Al11  1  0.663378  0.998334  0.072358  1
  Al  Al12  1  0.654412  0.995379  0.422697  1
  Al  Al13  1  0.345124  0.004595  0.576640  1
  Al  Al14  1  0.334447  0.334158  0.046675  1
  Al  Al15  1  0.665544  0.665529  0.953749  1
  Al  Al16  1  0.656316  0.656321  0.552998  1
  Al  Al17  1  0.343662  0.343359  0.446626  1
  Al  Al18  1  0.340061  0.549177  0.751287  1
  Al  Al19  1  0.659513  0.450290  0.248703  1
  Al  Al20  1  0.549075  0.339943  0.751273  1
  Al  Al21  1  0.450785  0.660393  0.248734  1
  Rh  Rh22  1  0.670935  0.328890  0.499883  1
  Rh  Rh23  1  0.328985  0.671104  0.499863  1
  Rh  Rh24  1  0.329006  0.671068  0.000105  1
  Rh  Rh25  1  0.670914  0.328912  0.000107  1
  Rh  Rh26  1  0.000135  0.000011  0.000137  1
  Au  Au27  1  0.000151  0.000028  0.499836  1
