# generated using pymatgen
data_Er2Lu2Tc3Ru5
_symmetry_space_group_name_H-M   'P 1'
_cell_length_a   5.23976413
_cell_length_b   5.25630438
_cell_length_c   8.96666813
_cell_angle_alpha   90.00000127
_cell_angle_beta   90.01714725
_cell_angle_gamma   120.10447480
_symmetry_Int_Tables_number   1
_chemical_formula_structural   Er2Lu2Tc3Ru5
_chemical_formula_sum   'Er2 Lu2 Tc3 Ru5'
_cell_volume   213.64649686
_cell_formula_units_Z   1
loop_
 _symmetry_equiv_pos_site_id
 _symmetry_equiv_pos_as_xyz
  1  'x, y, z'
loop_
 _atom_site_type_symbol
 _atom_site_label
 _atom_site_symmetry_multiplicity
 _atom_site_fract_x
 _atom_site_fract_y
 _atom_site_fract_z
 _atom_site_occupancy
  Er  Er0  1  0.337107  0.668554  0.433130  1
  Er  Er1  1  0.669219  0.334610  0.564819  1
  Lu  Lu2  1  0.669215  0.334608  0.935594  1
  Lu  Lu3  1  0.337403  0.668702  0.066356  1
  Tc  Tc4  1  0.163160  0.336293  0.751552  1
  Tc  Tc5  1  0.163160  0.826869  0.751552  1
  Tc  Tc6  1  0.330010  0.165004  0.248470  1
  Ru  Ru7  1  0.817722  0.650291  0.248427  1
  Ru  Ru8  1  0.647323  0.823661  0.751554  1
  Ru  Ru9  1  0.024317  0.012158  0.001678  1
  Ru  Ru10  1  0.817722  0.167430  0.248427  1
  Ru  Ru11  1  0.023642  0.011821  0.498441  1
