# generated using pymatgen
data_Pr6Al24Ir2Os5Rh
_symmetry_space_group_name_H-M   'P 1'
_cell_length_a   8.93846907
_cell_length_b   8.90928384
_cell_length_c   9.68760928
_cell_angle_alpha   90.32014462
_cell_angle_beta   89.90091282
_cell_angle_gamma   119.58401568
_symmetry_Int_Tables_number   1
_chemical_formula_structural   Pr6Al24Ir2Os5Rh
_chemical_formula_sum   'Pr6 Al24 Ir2 Os5 Rh1'
_cell_volume   670.89001343
_cell_formula_units_Z   1
loop_
 _symmetry_equiv_pos_site_id
 _symmetry_equiv_pos_as_xyz
  1  'x, y, z'
loop_
 _atom_site_type_symbol
 _atom_site_label
 _atom_site_symmetry_multiplicity
 _atom_site_fract_x
 _atom_site_fract_y
 _atom_site_fract_z
 _atom_site_occupancy
  Pr  Pr0  1  0.187474  0.384060  0.250352  1
  Pr  Pr1  1  0.812526  0.615940  0.749648  1
  Pr  Pr2  1  0.618142  0.812401  0.250870  1
  Pr  Pr3  1  0.381858  0.187599  0.749130  1
  Pr  Pr4  1  0.191399  0.805996  0.248776  1
  Pr  Pr5  1  0.808601  0.194004  0.751224  1
  Al  Al6  1  0.332054  0.665992  0.012396  1
  Al  Al7  1  0.667946  0.334008  0.987604  1
  Al  Al8  1  0.668535  0.332220  0.510901  1
  Al  Al9  1  0.331465  0.667780  0.489099  1
  Al  Al10  1  0.160513  0.325319  0.575662  1
  Al  Al11  1  0.839487  0.674681  0.424338  1
  Al  Al12  1  0.675638  0.839797  0.576569  1
  Al  Al13  1  0.838107  0.674478  0.073882  1
  Al  Al14  1  0.324362  0.160203  0.423431  1
  Al  Al15  1  0.161893  0.325522  0.926118  1
  Al  Al16  1  0.163730  0.836570  0.573630  1
  Al  Al17  1  0.324921  0.162820  0.074642  1
  Al  Al18  1  0.836270  0.163430  0.426370  1
  Al  Al19  1  0.675079  0.837180  0.925358  1
  Al  Al20  1  0.837654  0.164404  0.073331  1
  Al  Al21  1  0.162346  0.835596  0.926669  1
  Al  Al22  1  0.562292  0.125834  0.250592  1
  Al  Al23  1  0.437708  0.874166  0.749408  1
  Al  Al24  1  0.873647  0.437293  0.249554  1
  Al  Al25  1  0.126353  0.562707  0.750446  1
  Al  Al26  1  0.561840  0.437649  0.248581  1
  Al  Al27  1  0.438160  0.562351  0.751419  1
  Al  Al28  1  0.999533  0.000552  0.249967  1
  Al  Al29  1  0.000467  0.999448  0.750033  1
  Ir  Ir30  1  0.500000  0.000000  0.000000  1
  Ir  Ir31  1  0.500000  0.500000  0.000000  1
  Os  Os32  1  0.000000  0.500000  0.000000  1
  Os  Os33  1  0.500000  0.000000  0.500000  1
  Os  Os34  1  0.000000  0.500000  0.500000  1
  Os  Os35  1  0.000000  0.000000  0.000000  1
  Os  Os36  1  0.000000  0.000000  0.500000  1
  Rh  Rh37  1  0.500000  0.500000  0.500000  1
