# generated using pymatgen
data_Tb7Nd(C2Cl3)2
_symmetry_space_group_name_H-M   'P 1'
_cell_length_a   3.68725600
_cell_length_b   10.60486485
_cell_length_c   20.04282671
_cell_angle_alpha   90.35586412
_cell_angle_beta   90.00000000
_cell_angle_gamma   90.00000000
_symmetry_Int_Tables_number   1
_chemical_formula_structural   Tb7Nd(C2Cl3)2
_chemical_formula_sum   'Tb14 Nd2 C8 Cl12'
_cell_volume   783.71656108
_cell_formula_units_Z   2
loop_
 _symmetry_equiv_pos_site_id
 _symmetry_equiv_pos_as_xyz
  1  'x, y, z'
loop_
 _atom_site_type_symbol
 _atom_site_label
 _atom_site_symmetry_multiplicity
 _atom_site_fract_x
 _atom_site_fract_y
 _atom_site_fract_z
 _atom_site_occupancy
  Tb  Tb0  1  0.750000  0.635934  0.074535  1
  Tb  Tb1  1  0.250000  0.364066  0.925465  1
  Tb  Tb2  1  0.250000  0.865722  0.745639  1
  Tb  Tb3  1  0.750000  0.134278  0.254361  1
  Tb  Tb4  1  0.750000  0.634519  0.243597  1
  Tb  Tb5  1  0.250000  0.365481  0.756403  1
  Tb  Tb6  1  0.250000  0.872480  0.165179  1
  Tb  Tb7  1  0.750000  0.127520  0.834821  1
  Tb  Tb8  1  0.750000  0.625971  0.667419  1
  Tb  Tb9  1  0.250000  0.374029  0.332581  1
  Tb  Tb10  1  0.250000  0.897106  0.330904  1
  Tb  Tb11  1  0.750000  0.102894  0.669096  1
  Tb  Tb12  1  0.750000  0.604104  0.833185  1
  Tb  Tb13  1  0.250000  0.395896  0.166815  1
  Nd  Nd14  1  0.250000  0.861371  0.572429  1
  Nd  Nd15  1  0.750000  0.138629  0.427571  1
  C  C16  1  0.250000  0.613488  0.752489  1
  C  C17  1  0.750000  0.386512  0.247511  1
  C  C18  1  0.750000  0.884119  0.249434  1
  C  C19  1  0.250000  0.115881  0.750566  1
  C  C20  1  0.250000  0.632851  0.152276  1
  C  C21  1  0.750000  0.367149  0.847724  1
  C  C22  1  0.750000  0.864896  0.656603  1
  C  C23  1  0.250000  0.135104  0.343397  1
  Cl  Cl24  1  0.250000  0.604173  0.560585  1
  Cl  Cl25  1  0.750000  0.395827  0.439415  1
  Cl  Cl26  1  0.750000  0.883273  0.057188  1
  Cl  Cl27  1  0.250000  0.116727  0.942812  1
  Cl  Cl28  1  0.250000  0.621966  0.953443  1
  Cl  Cl29  1  0.750000  0.378034  0.046557  1
  Cl  Cl30  1  0.750000  0.870527  0.447668  1
  Cl  Cl31  1  0.250000  0.129473  0.552332  1
  Cl  Cl32  1  0.250000  0.637071  0.351460  1
  Cl  Cl33  1  0.750000  0.362929  0.648540  1
  Cl  Cl34  1  0.750000  0.864532  0.854692  1
  Cl  Cl35  1  0.250000  0.135468  0.145308  1
