# generated using pymatgen
data_Er5GaSnSb
_symmetry_space_group_name_H-M   'P 1'
_cell_length_a   8.75925901
_cell_length_b   8.76351319
_cell_length_c   6.43607800
_cell_angle_alpha   90.00000000
_cell_angle_beta   90.00000000
_cell_angle_gamma   120.01605772
_symmetry_Int_Tables_number   1
_chemical_formula_structural   Er5GaSnSb
_chemical_formula_sum   'Er10 Ga2 Sn2 Sb2'
_cell_volume   427.78667087
_cell_formula_units_Z   2
loop_
 _symmetry_equiv_pos_site_id
 _symmetry_equiv_pos_as_xyz
  1  'x, y, z'
loop_
 _atom_site_type_symbol
 _atom_site_label
 _atom_site_symmetry_multiplicity
 _atom_site_fract_x
 _atom_site_fract_y
 _atom_site_fract_z
 _atom_site_occupancy
  Er  Er0  1  0.012396  0.768525  0.750000  1
  Er  Er1  1  0.012396  0.243870  0.250000  1
  Er  Er2  1  0.756082  0.753933  0.250000  1
  Er  Er3  1  0.756082  0.002151  0.750000  1
  Er  Er4  1  0.241553  0.231222  0.750000  1
  Er  Er5  1  0.241553  0.010331  0.250000  1
  Er  Er6  1  0.334063  0.667032  0.500000  1
  Er  Er7  1  0.653518  0.326759  0.000000  1
  Er  Er8  1  0.653518  0.326759  0.500000  1
  Er  Er9  1  0.334063  0.667032  0.000000  1
  Ga  Ga10  1  0.395274  0.997687  0.750000  1
  Ga  Ga11  1  0.395274  0.397587  0.250000  1
  Sn  Sn12  1  0.998096  0.605163  0.250000  1
  Sn  Sn13  1  0.998096  0.392934  0.750000  1
  Sb  Sb14  1  0.609018  0.608036  0.750000  1
  Sb  Sb15  1  0.609018  0.000982  0.250000  1
