# generated using pymatgen
data_SrGeRu2N
_symmetry_space_group_name_H-M   'P 1'
_cell_length_a   5.98060052
_cell_length_b   5.98059880
_cell_length_c   7.36007500
_cell_angle_alpha   90.00000000
_cell_angle_beta   90.00000000
_cell_angle_gamma   140.71107665
_symmetry_Int_Tables_number   1
_chemical_formula_structural   SrGeRu2N
_chemical_formula_sum   'Sr2 Ge2 Ru4 N2'
_cell_volume   166.69940442
_cell_formula_units_Z   2
loop_
 _symmetry_equiv_pos_site_id
 _symmetry_equiv_pos_as_xyz
  1  'x, y, z'
loop_
 _atom_site_type_symbol
 _atom_site_label
 _atom_site_symmetry_multiplicity
 _atom_site_fract_x
 _atom_site_fract_y
 _atom_site_fract_z
 _atom_site_occupancy
  Sr  Sr0  1  0.547905  0.452095  0.250000  1
  Sr  Sr1  1  0.452095  0.547905  0.750000  1
  Ge  Ge2  1  0.270575  0.729425  0.250000  1
  Ge  Ge3  1  0.729425  0.270575  0.750000  1
  Ru  Ru4  1  0.838963  0.161037  0.055989  1
  Ru  Ru5  1  0.161037  0.838963  0.944011  1
  Ru  Ru6  1  0.161037  0.838963  0.555989  1
  Ru  Ru7  1  0.838963  0.161037  0.444011  1
  N  N8  1  0.000000  0.000000  0.000000  1
  N  N9  1  0.000000  0.000000  0.500000  1
