# generated using pymatgen
data_Li3B4PdRh4
_symmetry_space_group_name_H-M   'P 1'
_cell_length_a   6.73724455
_cell_length_b   5.98072452
_cell_length_c   5.42865144
_cell_angle_alpha   74.39101902
_cell_angle_beta   59.03782958
_cell_angle_gamma   51.62637684
_symmetry_Int_Tables_number   1
_chemical_formula_structural   Li3B4PdRh4
_chemical_formula_sum   'Li3 B4 Pd1 Rh4'
_cell_volume   146.63952837
_cell_formula_units_Z   1
loop_
 _symmetry_equiv_pos_site_id
 _symmetry_equiv_pos_as_xyz
  1  'x, y, z'
loop_
 _atom_site_type_symbol
 _atom_site_label
 _atom_site_symmetry_multiplicity
 _atom_site_fract_x
 _atom_site_fract_y
 _atom_site_fract_z
 _atom_site_occupancy
  Li  Li0  1  0.935371  0.771752  0.407339  1
  Li  Li1  1  0.450957  0.322098  0.363373  1
  Li  Li2  1  0.861493  0.371094  0.327564  1
  B  B3  1  0.055661  0.974496  0.590253  1
  B  B4  1  0.676478  0.827443  0.168231  1
  B  B5  1  0.438931  0.566034  0.927988  1
  B  B6  1  0.274647  0.202432  0.847602  1
  Pd  Pd7  1  0.883666  0.382368  0.808149  1
  Rh  Rh8  1  0.104260  0.636918  0.878147  1
  Rh  Rh9  1  0.349047  0.876267  0.152451  1
  Rh  Rh10  1  0.617262  0.141690  0.857750  1
  Rh  Rh11  1  0.407429  0.872208  0.615951  1
