# generated using pymatgen
data_Ho5SnPb2Cl
_symmetry_space_group_name_H-M   'P 1'
_cell_length_a   9.16518300
_cell_length_b   9.15755992
_cell_length_c   6.59931700
_cell_angle_alpha   90.00000000
_cell_angle_beta   90.00000000
_cell_angle_gamma   120.02753696
_symmetry_Int_Tables_number   1
_chemical_formula_structural   Ho5SnPb2Cl
_chemical_formula_sum   'Ho10 Sn2 Pb4 Cl2'
_cell_volume   479.54565091
_cell_formula_units_Z   2
loop_
 _symmetry_equiv_pos_site_id
 _symmetry_equiv_pos_as_xyz
  1  'x, y, z'
loop_
 _atom_site_type_symbol
 _atom_site_label
 _atom_site_symmetry_multiplicity
 _atom_site_fract_x
 _atom_site_fract_y
 _atom_site_fract_z
 _atom_site_occupancy
  Ho  Ho0  1  0.265220  0.000000  0.750000  1
  Ho  Ho1  1  0.734780  0.000000  0.250000  1
  Ho  Ho2  1  0.997590  0.260519  0.750000  1
  Ho  Ho3  1  0.002410  0.739481  0.250000  1
  Ho  Ho4  1  0.737071  0.739481  0.750000  1
  Ho  Ho5  1  0.262929  0.260519  0.250000  1
  Ho  Ho6  1  0.335476  0.670954  0.500000  1
  Ho  Ho7  1  0.664524  0.329046  0.500000  1
  Ho  Ho8  1  0.664524  0.329046  0.000000  1
  Ho  Ho9  1  0.335476  0.670954  0.000000  1
  Sn  Sn10  1  0.611915  0.000000  0.750000  1
  Sn  Sn11  1  0.388085  0.000000  0.250000  1
  Pb  Pb12  1  0.998988  0.611510  0.750000  1
  Pb  Pb13  1  0.001012  0.388490  0.250000  1
  Pb  Pb14  1  0.387478  0.388490  0.750000  1
  Pb  Pb15  1  0.612522  0.611510  0.250000  1
  Cl  Cl16  1  0.000000  0.000000  0.500000  1
  Cl  Cl17  1  0.000000  0.000000  0.000000  1
