# generated using pymatgen
data_RbVF5
_symmetry_space_group_name_H-M   'P 1'
_cell_length_a   5.75328400
_cell_length_b   7.91064400
_cell_length_c   10.51609800
_cell_angle_alpha   90.00000000
_cell_angle_beta   90.00000000
_cell_angle_gamma   90.00000000
_symmetry_Int_Tables_number   1
_chemical_formula_structural   RbVF5
_chemical_formula_sum   'Rb4 V4 F20'
_cell_volume   478.61056143
_cell_formula_units_Z   4
loop_
 _symmetry_equiv_pos_site_id
 _symmetry_equiv_pos_as_xyz
  1  'x, y, z'
loop_
 _atom_site_type_symbol
 _atom_site_label
 _atom_site_symmetry_multiplicity
 _atom_site_fract_x
 _atom_site_fract_y
 _atom_site_fract_z
 _atom_site_occupancy
  Rb  Rb0  1  0.500000  0.884369  0.979698  1
  Rb  Rb1  1  0.500000  0.115631  0.479698  1
  Rb  Rb2  1  0.000000  0.373771  0.126705  1
  Rb  Rb3  1  0.000000  0.626229  0.626705  1
  V  V4  1  0.000000  0.882050  0.241482  1
  V  V5  1  0.500000  0.575435  0.338149  1
  V  V6  1  0.500000  0.424565  0.838149  1
  V  V7  1  0.000000  0.117950  0.741482  1
  F  F8  1  0.270948  0.547606  0.918914  1
  F  F9  1  0.749402  0.702240  0.242203  1
  F  F10  1  0.228457  0.046015  0.233617  1
  F  F11  1  0.749402  0.297760  0.742203  1
  F  F12  1  0.500000  0.252126  0.951418  1
  F  F13  1  0.771543  0.953985  0.733617  1
  F  F14  1  0.500000  0.564301  0.700607  1
  F  F15  1  0.228457  0.953985  0.733617  1
  F  F16  1  0.000000  0.845293  0.071115  1
  F  F17  1  0.771543  0.046015  0.233617  1
  F  F18  1  0.500000  0.435699  0.200607  1
  F  F19  1  0.729052  0.452394  0.418914  1
  F  F20  1  0.250598  0.702240  0.242203  1
  F  F21  1  0.000000  0.865305  0.412868  1
  F  F22  1  0.000000  0.154707  0.571115  1
  F  F23  1  0.250598  0.297760  0.742203  1
  F  F24  1  0.000000  0.134695  0.912868  1
  F  F25  1  0.270948  0.452394  0.418914  1
  F  F26  1  0.500000  0.747874  0.451418  1
  F  F27  1  0.729052  0.547606  0.918914  1
