# generated using pymatgen
data_TbYAs4O9
_symmetry_space_group_name_H-M   'P 1'
_cell_length_a   6.77398682
_cell_length_b   7.57610394
_cell_length_c   9.83824605
_cell_angle_alpha   94.98075782
_cell_angle_beta   104.18642888
_cell_angle_gamma   104.72876268
_symmetry_Int_Tables_number   1
_chemical_formula_structural   TbYAs4O9
_chemical_formula_sum   'Tb2 Y2 As8 O18'
_cell_volume   467.39393863
_cell_formula_units_Z   2
loop_
 _symmetry_equiv_pos_site_id
 _symmetry_equiv_pos_as_xyz
  1  'x, y, z'
loop_
 _atom_site_type_symbol
 _atom_site_label
 _atom_site_symmetry_multiplicity
 _atom_site_fract_x
 _atom_site_fract_y
 _atom_site_fract_z
 _atom_site_occupancy
  Tb  Tb0  1  0.244188  0.939388  0.615782  1
  Tb  Tb1  1  0.755812  0.060612  0.384218  1
  Y  Y2  1  0.720811  0.530628  0.408904  1
  Y  Y3  1  0.279189  0.469372  0.591096  1
  As  As4  1  0.681341  0.774964  0.077171  1
  As  As5  1  0.318659  0.225036  0.922829  1
  As  As6  1  0.172034  0.753069  0.913153  1
  As  As7  1  0.827966  0.246931  0.086847  1
  As  As8  1  0.744673  0.915681  0.709588  1
  As  As9  1  0.255327  0.084319  0.290412  1
  As  As10  1  0.809699  0.351023  0.701642  1
  As  As11  1  0.190301  0.648977  0.298358  1
  O  O12  1  0.723471  0.750407  0.257659  1
  O  O13  1  0.276529  0.249593  0.742341  1
  O  O14  1  0.316254  0.978819  0.871221  1
  O  O15  1  0.683746  0.021181  0.128779  1
  O  O16  1  0.607751  0.323975  0.985351  1
  O  O17  1  0.392249  0.676025  0.014649  1
  O  O18  1  0.128571  0.647561  0.738349  1
  O  O19  1  0.871429  0.352439  0.261651  1
  O  O20  1  0.846448  0.874516  0.559313  1
  O  O21  1  0.153552  0.125484  0.440687  1
  O  O22  1  0.485018  0.769160  0.666980  1
  O  O23  1  0.514982  0.230840  0.333020  1
  O  O24  1  0.372530  0.534820  0.379256  1
  O  O25  1  0.627470  0.465180  0.620744  1
  O  O26  1  0.089292  0.669243  0.453003  1
  O  O27  1  0.910708  0.330757  0.546997  1
  O  O28  1  0.374844  0.898909  0.358480  1
  O  O29  1  0.625156  0.101091  0.641520  1
