# generated using pymatgen
data_LuCr3Si(PRh)3
_symmetry_space_group_name_H-M   'P 1'
_cell_length_a   7.03771700
_cell_length_b   7.03771837
_cell_length_c   3.56036600
_cell_angle_alpha   90.00000000
_cell_angle_beta   90.00000000
_cell_angle_gamma   119.99999826
_symmetry_Int_Tables_number   1
_chemical_formula_structural   LuCr3Si(PRh)3
_chemical_formula_sum   'Lu1 Cr3 Si1 P3 Rh3'
_cell_volume   152.71755661
_cell_formula_units_Z   1
loop_
 _symmetry_equiv_pos_site_id
 _symmetry_equiv_pos_as_xyz
  1  'x, y, z'
loop_
 _atom_site_type_symbol
 _atom_site_label
 _atom_site_symmetry_multiplicity
 _atom_site_fract_x
 _atom_site_fract_y
 _atom_site_fract_z
 _atom_site_occupancy
  Lu  Lu0  1  0.333333  0.666667  0.000000  1
  Cr  Cr1  1  0.244681  0.122340  0.000000  1
  Cr  Cr2  1  0.877660  0.755319  0.000000  1
  Cr  Cr3  1  0.877660  0.122340  0.000000  1
  Si  Si4  1  0.666667  0.333333  0.000000  1
  P  P5  1  0.716560  0.858281  0.500000  1
  P  P6  1  0.141719  0.283440  0.500000  1
  P  P7  1  0.141719  0.858281  0.500000  1
  Rh  Rh8  1  0.939911  0.469956  0.500000  1
  Rh  Rh9  1  0.530044  0.060089  0.500000  1
  Rh  Rh10  1  0.530044  0.469956  0.500000  1
