# generated using pymatgen
data_Pr4Er6Sn7Hg
_symmetry_space_group_name_H-M   'P 1'
_cell_length_a   8.01110000
_cell_length_b   8.43824700
_cell_length_c   15.68104700
_cell_angle_alpha   90.00000000
_cell_angle_beta   90.00000000
_cell_angle_gamma   90.00000000
_symmetry_Int_Tables_number   1
_chemical_formula_structural   Pr4Er6Sn7Hg
_chemical_formula_sum   'Pr8 Er12 Sn14 Hg2'
_cell_volume   1060.03314052
_cell_formula_units_Z   2
loop_
 _symmetry_equiv_pos_site_id
 _symmetry_equiv_pos_as_xyz
  1  'x, y, z'
loop_
 _atom_site_type_symbol
 _atom_site_label
 _atom_site_symmetry_multiplicity
 _atom_site_fract_x
 _atom_site_fract_y
 _atom_site_fract_z
 _atom_site_occupancy
  Pr  Pr0  1  0.498859  0.314045  0.907176  1
  Pr  Pr1  1  0.998859  0.185955  0.592824  1
  Pr  Pr2  1  0.498855  0.679133  0.405000  1
  Pr  Pr3  1  0.998855  0.820867  0.095000  1
  Pr  Pr4  1  0.498855  0.679133  0.095000  1
  Pr  Pr5  1  0.998855  0.820867  0.405000  1
  Pr  Pr6  1  0.498859  0.314045  0.592824  1
  Pr  Pr7  1  0.998859  0.185955  0.907176  1
  Er  Er8  1  0.334681  0.833400  0.873454  1
  Er  Er9  1  0.834681  0.666600  0.626546  1
  Er  Er10  1  0.664953  0.164877  0.374029  1
  Er  Er11  1  0.164953  0.335123  0.125971  1
  Er  Er12  1  0.664953  0.164877  0.125971  1
  Er  Er13  1  0.164953  0.335123  0.374029  1
  Er  Er14  1  0.334681  0.833400  0.626546  1
  Er  Er15  1  0.834681  0.666600  0.873454  1
  Er  Er16  1  0.177647  0.496734  0.750000  1
  Er  Er17  1  0.677647  0.003266  0.750000  1
  Er  Er18  1  0.829133  0.502429  0.250000  1
  Er  Er19  1  0.329133  0.997571  0.250000  1
  Sn  Sn20  1  0.323311  0.039743  0.041090  1
  Sn  Sn21  1  0.823311  0.460257  0.458910  1
  Sn  Sn22  1  0.680409  0.960504  0.542401  1
  Sn  Sn23  1  0.180409  0.539496  0.957599  1
  Sn  Sn24  1  0.680409  0.960504  0.957599  1
  Sn  Sn25  1  0.180409  0.539496  0.542401  1
  Sn  Sn26  1  0.323311  0.039743  0.458910  1
  Sn  Sn27  1  0.823311  0.460257  0.041090  1
  Sn  Sn28  1  0.468966  0.376848  0.250000  1
  Sn  Sn29  1  0.968966  0.123152  0.250000  1
  Sn  Sn30  1  0.296571  0.134822  0.750000  1
  Sn  Sn31  1  0.796571  0.365178  0.750000  1
  Sn  Sn32  1  0.692977  0.854899  0.250000  1
  Sn  Sn33  1  0.192977  0.645101  0.250000  1
  Hg  Hg34  1  0.532574  0.623080  0.750000  1
  Hg  Hg35  1  0.032574  0.876920  0.750000  1
