# generated using pymatgen
data_Zr4Re6IrOs
_symmetry_space_group_name_H-M   'P 1'
_cell_length_a   5.21639600
_cell_length_b   5.21639697
_cell_length_c   8.90048800
_cell_angle_alpha   90.00000000
_cell_angle_beta   90.00000000
_cell_angle_gamma   120.00000650
_symmetry_Int_Tables_number   1
_chemical_formula_structural   Zr4Re6IrOs
_chemical_formula_sum   'Zr4 Re6 Ir1 Os1'
_cell_volume   209.74209894
_cell_formula_units_Z   1
loop_
 _symmetry_equiv_pos_site_id
 _symmetry_equiv_pos_as_xyz
  1  'x, y, z'
loop_
 _atom_site_type_symbol
 _atom_site_label
 _atom_site_symmetry_multiplicity
 _atom_site_fract_x
 _atom_site_fract_y
 _atom_site_fract_z
 _atom_site_occupancy
  Zr  Zr0  1  0.333333  0.666667  0.434432  1
  Zr  Zr1  1  0.666667  0.333333  0.565568  1
  Zr  Zr2  1  0.666667  0.333333  0.935079  1
  Zr  Zr3  1  0.333333  0.666667  0.064921  1
  Re  Re4  1  0.828874  0.171126  0.249763  1
  Re  Re5  1  0.828874  0.657750  0.249763  1
  Re  Re6  1  0.342250  0.171126  0.249763  1
  Re  Re7  1  0.171126  0.828874  0.750237  1
  Re  Re8  1  0.171126  0.342250  0.750237  1
  Re  Re9  1  0.657750  0.828874  0.750237  1
  Ir  Ir10  1  0.000000  0.000000  0.500000  1
  Os  Os11  1  0.000000  0.000000  0.000000  1
