# generated using pymatgen
data_HfSc2SiTc3As2
_symmetry_space_group_name_H-M   'P 1'
_cell_length_a   7.78299982
_cell_length_b   7.78300131
_cell_length_c   7.78300151
_cell_angle_alpha   126.82889457
_cell_angle_beta   127.01991488
_cell_angle_gamma   78.37414496
_symmetry_Int_Tables_number   1
_chemical_formula_structural   HfSc2SiTc3As2
_chemical_formula_sum   'Hf2 Sc4 Si2 Tc6 As4'
_cell_volume   291.77857798
_cell_formula_units_Z   2
loop_
 _symmetry_equiv_pos_site_id
 _symmetry_equiv_pos_as_xyz
  1  'x, y, z'
loop_
 _atom_site_type_symbol
 _atom_site_label
 _atom_site_symmetry_multiplicity
 _atom_site_fract_x
 _atom_site_fract_y
 _atom_site_fract_z
 _atom_site_occupancy
  Hf  Hf0  1  0.052678  0.253403  0.700725  1
  Hf  Hf1  1  0.947322  0.648045  0.200725  1
  Sc  Sc2  1  0.450310  0.653699  0.703389  1
  Sc  Sc3  1  0.549690  0.253079  0.203389  1
  Sc  Sc4  1  0.751166  0.855075  0.603908  1
  Sc  Sc5  1  0.248834  0.852743  0.103908  1
  Si  Si6  1  0.253636  0.255093  0.501458  1
  Si  Si7  1  0.746364  0.247821  0.001458  1
  Tc  Tc8  1  0.500000  0.502638  0.002638  1
  Tc  Tc9  1  0.000000  0.502638  0.502638  1
  Tc  Tc10  1  0.119373  0.255799  0.122670  1
  Tc  Tc11  1  0.880627  0.003297  0.136426  1
  Tc  Tc12  1  0.366871  0.003297  0.622670  1
  Tc  Tc13  1  0.633129  0.255799  0.636426  1
  As  As14  1  0.335250  0.588528  0.255310  1
  As  As15  1  0.664750  0.920060  0.253277  1
  As  As16  1  0.166784  0.920060  0.755310  1
  As  As17  1  0.833216  0.588528  0.753277  1
