# generated using pymatgen
data_Dy2YGa6(Ni2Ru)3
_symmetry_space_group_name_H-M   'P 1'
_cell_length_a   9.15050600
_cell_length_b   9.15050593
_cell_length_c   3.91284100
_cell_angle_alpha   90.00000000
_cell_angle_beta   90.00000000
_cell_angle_gamma   120.00000747
_symmetry_Int_Tables_number   1
_chemical_formula_structural   Dy2YGa6(Ni2Ru)3
_chemical_formula_sum   'Dy2 Y1 Ga6 Ni6 Ru3'
_cell_volume   283.73506883
_cell_formula_units_Z   1
loop_
 _symmetry_equiv_pos_site_id
 _symmetry_equiv_pos_as_xyz
  1  'x, y, z'
loop_
 _atom_site_type_symbol
 _atom_site_label
 _atom_site_symmetry_multiplicity
 _atom_site_fract_x
 _atom_site_fract_y
 _atom_site_fract_z
 _atom_site_occupancy
  Dy  Dy0  1  0.000000  0.000000  0.000000  1
  Dy  Dy1  1  0.333333  0.666667  0.500000  1
  Y  Y2  1  0.666667  0.333333  0.500000  1
  Ga  Ga3  1  0.313921  0.313955  0.500000  1
  Ga  Ga4  1  0.686045  0.999966  0.500000  1
  Ga  Ga5  1  0.686045  0.686079  0.500000  1
  Ga  Ga6  1  0.000034  0.313955  0.500000  1
  Ga  Ga7  1  0.000034  0.686079  0.500000  1
  Ga  Ga8  1  0.313921  0.999966  0.500000  1
  Ni  Ni9  1  0.175315  0.350629  0.000000  1
  Ni  Ni10  1  0.824881  0.649762  0.000000  1
  Ni  Ni11  1  0.175315  0.824685  0.000000  1
  Ni  Ni12  1  0.649371  0.824685  0.000000  1
  Ni  Ni13  1  0.350238  0.175119  0.000000  1
  Ni  Ni14  1  0.824881  0.175119  0.000000  1
  Ru  Ru15  1  0.499535  0.999071  0.000000  1
  Ru  Ru16  1  0.000929  0.500465  0.000000  1
  Ru  Ru17  1  0.499535  0.500465  0.000000  1
