# generated using pymatgen
data_Mg5Si10P2Ir19
_symmetry_space_group_name_H-M   'P 1'
_cell_length_a   12.78437232
_cell_length_b   12.70656629
_cell_length_c   3.90611700
_cell_angle_alpha   90.00000000
_cell_angle_beta   90.00000000
_cell_angle_gamma   119.79887938
_symmetry_Int_Tables_number   1
_chemical_formula_structural   Mg5Si10P2Ir19
_chemical_formula_sum   'Mg5 Si10 P2 Ir19'
_cell_volume   550.63027364
_cell_formula_units_Z   1
loop_
 _symmetry_equiv_pos_site_id
 _symmetry_equiv_pos_as_xyz
  1  'x, y, z'
loop_
 _atom_site_type_symbol
 _atom_site_label
 _atom_site_symmetry_multiplicity
 _atom_site_fract_x
 _atom_site_fract_y
 _atom_site_fract_z
 _atom_site_occupancy
  Mg  Mg0  1  0.332825  0.665908  0.500000  1
  Mg  Mg1  1  0.667175  0.333082  0.500000  1
  Mg  Mg2  1  0.000000  0.816639  0.000000  1
  Mg  Mg3  1  0.178944  0.183227  0.000000  1
  Mg  Mg4  1  0.821056  0.004283  0.000000  1
  Si  Si5  1  0.000000  0.633290  0.500000  1
  Si  Si6  1  0.367090  0.367822  0.500000  1
  Si  Si7  1  0.632910  0.000733  0.500000  1
  Si  Si8  1  0.520817  0.685093  0.000000  1
  Si  Si9  1  0.314187  0.834643  0.000000  1
  Si  Si10  1  0.164831  0.478479  0.000000  1
  Si  Si11  1  0.479183  0.164275  0.000000  1
  Si  Si12  1  0.685813  0.520455  0.000000  1
  Si  Si13  1  0.835169  0.313647  0.000000  1
  Si  Si14  1  0.000000  0.174040  0.500000  1
  P  P15  1  0.819928  0.823021  0.500000  1
  P  P16  1  0.180072  0.003093  0.500000  1
  Ir  Ir17  1  0.509073  0.867681  0.000000  1
  Ir  Ir18  1  0.131231  0.641686  0.000000  1
  Ir  Ir19  1  0.359645  0.489905  0.000000  1
  Ir  Ir20  1  0.490927  0.358607  0.000000  1
  Ir  Ir21  1  0.868769  0.510454  0.000000  1
  Ir  Ir22  1  0.640355  0.130259  0.000000  1
  Ir  Ir23  1  0.000000  0.447551  0.500000  1
  Ir  Ir24  1  0.553461  0.552496  0.500000  1
  Ir  Ir25  1  0.446539  0.999036  0.500000  1
  Ir  Ir26  1  0.000000  0.276641  0.000000  1
  Ir  Ir27  1  0.723245  0.724046  0.000000  1
  Ir  Ir28  1  0.276755  0.000801  0.000000  1
  Ir  Ir29  1  0.628471  0.811338  0.500000  1
  Ir  Ir30  1  0.188109  0.818681  0.500000  1
  Ir  Ir31  1  0.183450  0.373043  0.500000  1
  Ir  Ir32  1  0.371529  0.182867  0.500000  1
  Ir  Ir33  1  0.811891  0.630573  0.500000  1
  Ir  Ir34  1  0.816550  0.189593  0.500000  1
  Ir  Ir35  1  0.000000  0.993011  0.500000  1
