# generated using pymatgen
data_LaThGa6
_symmetry_space_group_name_H-M   'P 1'
_cell_length_a   6.51168800
_cell_length_b   6.51168917
_cell_length_c   4.68989800
_cell_angle_alpha   90.00000000
_cell_angle_beta   90.00000000
_cell_angle_gamma   120.00000423
_symmetry_Int_Tables_number   1
_chemical_formula_structural   LaThGa6
_chemical_formula_sum   'La1 Th1 Ga6'
_cell_volume   172.21907638
_cell_formula_units_Z   1
loop_
 _symmetry_equiv_pos_site_id
 _symmetry_equiv_pos_as_xyz
  1  'x, y, z'
loop_
 _atom_site_type_symbol
 _atom_site_label
 _atom_site_symmetry_multiplicity
 _atom_site_fract_x
 _atom_site_fract_y
 _atom_site_fract_z
 _atom_site_occupancy
  La  La0  1  0.333333  0.666667  0.750000  1
  Th  Th1  1  0.666667  0.333333  0.250000  1
  Ga  Ga2  1  0.141880  0.283760  0.250000  1
  Ga  Ga3  1  0.716240  0.858120  0.250000  1
  Ga  Ga4  1  0.141880  0.858120  0.250000  1
  Ga  Ga5  1  0.858389  0.716777  0.750000  1
  Ga  Ga6  1  0.283223  0.141611  0.750000  1
  Ga  Ga7  1  0.858389  0.141611  0.750000  1
