# generated using pymatgen
data_Ce4HfGa3Ir4
_symmetry_space_group_name_H-M   'P 1'
_cell_length_a   4.37056000
_cell_length_b   7.03794283
_cell_length_c   8.01882903
_cell_angle_alpha   89.13063951
_cell_angle_beta   90.00000000
_cell_angle_gamma   90.00000000
_symmetry_Int_Tables_number   1
_chemical_formula_structural   Ce4HfGa3Ir4
_chemical_formula_sum   'Ce4 Hf1 Ga3 Ir4'
_cell_volume   246.62879473
_cell_formula_units_Z   1
loop_
 _symmetry_equiv_pos_site_id
 _symmetry_equiv_pos_as_xyz
  1  'x, y, z'
loop_
 _atom_site_type_symbol
 _atom_site_label
 _atom_site_symmetry_multiplicity
 _atom_site_fract_x
 _atom_site_fract_y
 _atom_site_fract_z
 _atom_site_occupancy
  Ce  Ce0  1  0.250000  0.529408  0.176785  1
  Ce  Ce1  1  0.750000  0.463063  0.826466  1
  Ce  Ce2  1  0.750000  0.979683  0.694603  1
  Ce  Ce3  1  0.250000  0.039875  0.306705  1
  Hf  Hf4  1  0.250000  0.625610  0.561610  1
  Ga  Ga5  1  0.750000  0.357314  0.432200  1
  Ga  Ga6  1  0.750000  0.852897  0.068589  1
  Ga  Ga7  1  0.250000  0.147908  0.933101  1
  Ir  Ir8  1  0.250000  0.763913  0.879029  1
  Ir  Ir9  1  0.750000  0.237934  0.111026  1
  Ir  Ir10  1  0.750000  0.747734  0.395638  1
  Ir  Ir11  1  0.250000  0.254660  0.614246  1
