# generated using pymatgen
data_TbY2Zn3Ge2Pd
_symmetry_space_group_name_H-M   'P 1'
_cell_length_a   7.01479400
_cell_length_b   7.01753235
_cell_length_c   4.25952600
_cell_angle_alpha   90.00000000
_cell_angle_beta   90.00000000
_cell_angle_gamma   119.98710203
_symmetry_Int_Tables_number   1
_chemical_formula_structural   TbY2Zn3Ge2Pd
_chemical_formula_sum   'Tb1 Y2 Zn3 Ge2 Pd1'
_cell_volume   181.61331280
_cell_formula_units_Z   1
loop_
 _symmetry_equiv_pos_site_id
 _symmetry_equiv_pos_as_xyz
  1  'x, y, z'
loop_
 _atom_site_type_symbol
 _atom_site_label
 _atom_site_symmetry_multiplicity
 _atom_site_fract_x
 _atom_site_fract_y
 _atom_site_fract_z
 _atom_site_occupancy
  Tb  Tb0  1  0.414122  0.000000  0.000000  1
  Y  Y1  1  0.000129  0.415085  0.000000  1
  Y  Y2  1  0.585046  0.584916  0.000000  1
  Zn  Zn3  1  0.764766  0.000000  0.500001  1
  Zn  Zn4  1  0.235586  0.236012  0.500001  1
  Zn  Zn5  1  0.999572  0.763988  0.500001  1
  Ge  Ge6  1  0.666530  0.333250  0.500001  1
  Ge  Ge7  1  0.333281  0.666750  0.500001  1
  Pd  Pd8  1  0.000968  0.000000  0.000000  1
