# generated using pymatgen
data_Tb2PSe
_symmetry_space_group_name_H-M   'P 1'
_cell_length_a   7.08102954
_cell_length_b   7.08102985
_cell_length_c   7.08102959
_cell_angle_alpha   33.29920577
_cell_angle_beta   33.29920083
_cell_angle_gamma   33.29921046
_symmetry_Int_Tables_number   1
_chemical_formula_structural   Tb2PSe
_chemical_formula_sum   'Tb2 P1 Se1'
_cell_volume   95.28201690
_cell_formula_units_Z   1
loop_
 _symmetry_equiv_pos_site_id
 _symmetry_equiv_pos_as_xyz
  1  'x, y, z'
loop_
 _atom_site_type_symbol
 _atom_site_label
 _atom_site_symmetry_multiplicity
 _atom_site_fract_x
 _atom_site_fract_y
 _atom_site_fract_z
 _atom_site_occupancy
  Tb  Tb0  1  0.242799  0.242799  0.242799  1
  Tb  Tb1  1  0.757201  0.757201  0.757201  1
  P  P2  1  0.500000  0.500000  0.500000  1
  Se  Se3  1  0.000000  0.000000  0.000000  1
