# generated using pymatgen
data_YHo2Fe8Co
_symmetry_space_group_name_H-M   'P 1'
_cell_length_a   8.65399218
_cell_length_b   8.65399241
_cell_length_c   8.65399243
_cell_angle_alpha   34.30943784
_cell_angle_beta   34.30943343
_cell_angle_gamma   34.30943659
_symmetry_Int_Tables_number   1
_chemical_formula_structural   YHo2Fe8Co
_chemical_formula_sum   'Y1 Ho2 Fe8 Co1'
_cell_volume   183.64231294
_cell_formula_units_Z   1
loop_
 _symmetry_equiv_pos_site_id
 _symmetry_equiv_pos_as_xyz
  1  'x, y, z'
loop_
 _atom_site_type_symbol
 _atom_site_label
 _atom_site_symmetry_multiplicity
 _atom_site_fract_x
 _atom_site_fract_y
 _atom_site_fract_z
 _atom_site_occupancy
  Y  Y0  1  0.000000  0.000000  0.000000  1
  Ho  Ho1  1  0.142069  0.142069  0.142069  1
  Ho  Ho2  1  0.857931  0.857931  0.857931  1
  Fe  Fe3  1  0.332645  0.332645  0.332645  1
  Fe  Fe4  1  0.667355  0.667355  0.667355  1
  Fe  Fe5  1  0.082411  0.581530  0.581530  1
  Fe  Fe6  1  0.581530  0.581530  0.082411  1
  Fe  Fe7  1  0.581530  0.082411  0.581530  1
  Fe  Fe8  1  0.418470  0.917589  0.418470  1
  Fe  Fe9  1  0.917589  0.418470  0.418470  1
  Fe  Fe10  1  0.418470  0.418470  0.917589  1
  Co  Co11  1  0.500000  0.500000  0.500000  1
