# generated using pymatgen
data_Tb3Dy(Si2Os)2
_symmetry_space_group_name_H-M   'P 1'
_cell_length_a   5.76446636
_cell_length_b   5.76446687
_cell_length_c   10.08402414
_cell_angle_alpha   116.97255172
_cell_angle_beta   116.97255234
_cell_angle_gamma   43.07809070
_symmetry_Int_Tables_number   1
_chemical_formula_structural   Tb3Dy(Si2Os)2
_chemical_formula_sum   'Tb3 Dy1 Si4 Os2'
_cell_volume   199.80798923
_cell_formula_units_Z   1
loop_
 _symmetry_equiv_pos_site_id
 _symmetry_equiv_pos_as_xyz
  1  'x, y, z'
loop_
 _atom_site_type_symbol
 _atom_site_label
 _atom_site_symmetry_multiplicity
 _atom_site_fract_x
 _atom_site_fract_y
 _atom_site_fract_z
 _atom_site_occupancy
  Tb  Tb0  1  0.814466  0.814466  0.388937  1
  Tb  Tb1  1  0.185423  0.185423  0.610840  1
  Tb  Tb2  1  0.991411  0.991411  0.821012  1
  Dy  Dy3  1  0.007999  0.007999  0.178558  1
  Si  Si4  1  0.645422  0.645422  0.061156  1
  Si  Si5  1  0.502347  0.502347  0.374628  1
  Si  Si6  1  0.498095  0.498095  0.624903  1
  Si  Si7  1  0.354630  0.354630  0.939266  1
  Os  Os8  1  0.271703  0.271703  0.126737  1
  Os  Os9  1  0.728505  0.728505  0.873964  1
