# generated using pymatgen
data_Nd4Y2Al21Si3Os8
_symmetry_space_group_name_H-M   'P 1'
_cell_length_a   8.78667224
_cell_length_b   8.78667276
_cell_length_c   9.72343300
_cell_angle_alpha   90.00155030
_cell_angle_beta   89.99845157
_cell_angle_gamma   120.13658932
_symmetry_Int_Tables_number   1
_chemical_formula_structural   Nd4Y2Al21Si3Os8
_chemical_formula_sum   'Nd4 Y2 Al21 Si3 Os8'
_cell_volume   649.23173777
_cell_formula_units_Z   1
loop_
 _symmetry_equiv_pos_site_id
 _symmetry_equiv_pos_as_xyz
  1  'x, y, z'
loop_
 _atom_site_type_symbol
 _atom_site_label
 _atom_site_symmetry_multiplicity
 _atom_site_fract_x
 _atom_site_fract_y
 _atom_site_fract_z
 _atom_site_occupancy
  Nd  Nd0  1  0.192413  0.385071  0.247935  1
  Nd  Nd1  1  0.807239  0.614009  0.752874  1
  Nd  Nd2  1  0.614929  0.807587  0.247935  1
  Nd  Nd3  1  0.385991  0.192761  0.752874  1
  Y  Y4  1  0.195077  0.804923  0.247250  1
  Y  Y5  1  0.804097  0.195903  0.753035  1
  Al  Al6  1  0.333045  0.666955  0.479723  1
  Al  Al7  1  0.163224  0.328543  0.573044  1
  Al  Al8  1  0.835922  0.669786  0.425130  1
  Al  Al9  1  0.671457  0.836776  0.573044  1
  Al  Al10  1  0.835866  0.669672  0.075669  1
  Al  Al11  1  0.330214  0.164078  0.425130  1
  Al  Al12  1  0.164431  0.331134  0.924130  1
  Al  Al13  1  0.164516  0.835484  0.571186  1
  Al  Al14  1  0.330328  0.164134  0.075669  1
  Al  Al15  1  0.834583  0.165417  0.426817  1
  Al  Al16  1  0.668866  0.835569  0.924130  1
  Al  Al17  1  0.834556  0.165444  0.073885  1
  Al  Al18  1  0.165811  0.834189  0.925720  1
  Al  Al19  1  0.563223  0.127691  0.248740  1
  Al  Al20  1  0.437300  0.873087  0.748592  1
  Al  Al21  1  0.872309  0.436777  0.248740  1
  Al  Al22  1  0.126913  0.562700  0.748592  1
  Al  Al23  1  0.564955  0.435045  0.248662  1
  Al  Al24  1  0.435584  0.564416  0.748727  1
  Al  Al25  1  0.002144  0.997856  0.248695  1
  Al  Al26  1  0.997701  0.002299  0.749450  1
  Si  Si27  1  0.332707  0.667293  0.034613  1
  Si  Si28  1  0.667257  0.332743  0.966231  1
  Si  Si29  1  0.667280  0.332720  0.535199  1
  Os  Os30  1  0.499783  0.999563  0.999007  1
  Os  Os31  1  0.000437  0.500217  0.999007  1
  Os  Os32  1  0.504273  0.008507  0.501165  1
  Os  Os33  1  0.499689  0.500311  0.999160  1
  Os  Os34  1  0.991493  0.495727  0.501165  1
  Os  Os35  1  0.504426  0.495574  0.501092  1
  Os  Os36  1  0.999958  0.000042  0.998792  1
  Os  Os37  1  0.000004  0.999996  0.499192  1
