# generated using pymatgen
data_LaGeF7
_symmetry_space_group_name_H-M   'P 1'
_cell_length_a   5.66368903
_cell_length_b   9.13387188
_cell_length_c   12.19165100
_cell_angle_alpha   61.88212245
_cell_angle_beta   89.99399090
_cell_angle_gamma   89.99978378
_symmetry_Int_Tables_number   1
_chemical_formula_structural   LaGeF7
_chemical_formula_sum   'La4 Ge4 F28'
_cell_volume   556.25701517
_cell_formula_units_Z   4
loop_
 _symmetry_equiv_pos_site_id
 _symmetry_equiv_pos_as_xyz
  1  'x, y, z'
loop_
 _atom_site_type_symbol
 _atom_site_label
 _atom_site_symmetry_multiplicity
 _atom_site_fract_x
 _atom_site_fract_y
 _atom_site_fract_z
 _atom_site_occupancy
  La  La0  1  0.759529  0.806754  0.265017  1
  La  La1  1  0.259371  0.193328  0.234945  1
  La  La2  1  0.240533  0.193349  0.734961  1
  La  La3  1  0.740553  0.806877  0.764877  1
  Ge  Ge4  1  0.256345  0.725633  0.043080  1
  Ge  Ge5  1  0.243783  0.725688  0.543030  1
  Ge  Ge6  1  0.743745  0.274324  0.956949  1
  Ge  Ge7  1  0.756209  0.274372  0.456934  1
  F  F8  1  0.974978  0.714092  0.462690  1
  F  F9  1  0.474970  0.285844  0.037353  1
  F  F10  1  0.024955  0.285891  0.537331  1
  F  F11  1  0.525121  0.714129  0.962666  1
  F  F12  1  0.069473  0.708540  0.927505  1
  F  F13  1  0.569143  0.291403  0.572432  1
  F  F14  1  0.930886  0.291371  0.072428  1
  F  F15  1  0.430892  0.708583  0.427586  1
  F  F16  1  0.736169  0.500747  0.865117  1
  F  F17  1  0.236104  0.499317  0.634850  1
  F  F18  1  0.263729  0.499095  0.135004  1
  F  F19  1  0.763919  0.500782  0.365137  1
  F  F20  1  0.739855  0.048496  0.044918  1
  F  F21  1  0.239826  0.951505  0.455109  1
  F  F22  1  0.260072  0.951502  0.955195  1
  F  F23  1  0.760159  0.048515  0.544901  1
  F  F24  1  0.058180  0.739288  0.662148  1
  F  F25  1  0.558090  0.260693  0.837820  1
  F  F26  1  0.941866  0.260633  0.337873  1
  F  F27  1  0.441731  0.739326  0.162292  1
  F  F28  1  0.006015  0.269924  0.870458  1
  F  F29  1  0.506005  0.730059  0.629479  1
  F  F30  1  0.993588  0.730014  0.129356  1
  F  F31  1  0.493963  0.269881  0.370532  1
  F  F32  1  0.097436  0.967297  0.228218  1
  F  F33  1  0.597408  0.032697  0.271830  1
  F  F34  1  0.902805  0.032625  0.771757  1
  F  F35  1  0.402596  0.967425  0.728222  1
