# generated using pymatgen
data_Tb5Nd5Th2(Si2Ni)4
_symmetry_space_group_name_H-M   'P 1'
_cell_length_a   4.22167000
_cell_length_b   11.68405895
_cell_length_c   11.37831178
_cell_angle_alpha   89.95573343
_cell_angle_beta   90.00000000
_cell_angle_gamma   90.00000000
_symmetry_Int_Tables_number   1
_chemical_formula_structural   Tb5Nd5Th2(Si2Ni)4
_chemical_formula_sum   'Tb5 Nd5 Th2 Si8 Ni4'
_cell_volume   561.24918300
_cell_formula_units_Z   1
loop_
 _symmetry_equiv_pos_site_id
 _symmetry_equiv_pos_as_xyz
  1  'x, y, z'
loop_
 _atom_site_type_symbol
 _atom_site_label
 _atom_site_symmetry_multiplicity
 _atom_site_fract_x
 _atom_site_fract_y
 _atom_site_fract_z
 _atom_site_occupancy
  Tb  Tb0  1  0.250000  0.375361  0.061156  1
  Tb  Tb1  1  0.250000  0.810334  0.708393  1
  Tb  Tb2  1  0.250000  0.684392  0.206741  1
  Tb  Tb3  1  0.750000  0.201493  0.286866  1
  Tb  Tb4  1  0.750000  0.303966  0.789491  1
  Nd  Nd5  1  0.750000  0.937211  0.118120  1
  Nd  Nd6  1  0.750000  0.563761  0.619884  1
  Nd  Nd7  1  0.250000  0.123548  0.560521  1
  Nd  Nd8  1  0.750000  0.879333  0.435787  1
  Nd  Nd9  1  0.750000  0.618996  0.939563  1
  Th  Th10  1  0.250000  0.058307  0.889895  1
  Th  Th11  1  0.250000  0.442540  0.389587  1
  Si  Si12  1  0.250000  0.808340  0.969136  1
  Si  Si13  1  0.250000  0.691508  0.467523  1
  Si  Si14  1  0.750000  0.192100  0.029092  1
  Si  Si15  1  0.750000  0.313230  0.530806  1
  Si  Si16  1  0.250000  0.479172  0.806991  1
  Si  Si17  1  0.250000  0.023541  0.302669  1
  Si  Si18  1  0.750000  0.503146  0.197568  1
  Si  Si19  1  0.750000  0.988855  0.699409  1
  Ni  Ni20  1  0.250000  0.363622  0.629460  1
  Ni  Ni21  1  0.250000  0.139866  0.127358  1
  Ni  Ni22  1  0.750000  0.632971  0.365919  1
  Ni  Ni23  1  0.750000  0.864407  0.868064  1
