# generated using pymatgen
data_Nd8SiPI12
_symmetry_space_group_name_H-M   'P 1'
_cell_length_a   4.34305200
_cell_length_b   14.33335052
_cell_length_c   15.16649066
_cell_angle_alpha   90.06792445
_cell_angle_beta   90.00000000
_cell_angle_gamma   90.00000000
_symmetry_Int_Tables_number   1
_chemical_formula_structural   Nd8SiPI12
_chemical_formula_sum   'Nd8 Si1 P1 I12'
_cell_volume   944.12076095
_cell_formula_units_Z   1
loop_
 _symmetry_equiv_pos_site_id
 _symmetry_equiv_pos_as_xyz
  1  'x, y, z'
loop_
 _atom_site_type_symbol
 _atom_site_label
 _atom_site_symmetry_multiplicity
 _atom_site_fract_x
 _atom_site_fract_y
 _atom_site_fract_z
 _atom_site_occupancy
  Nd  Nd0  1  0.500000  0.112803  0.349165  1
  Nd  Nd1  1  0.500000  0.887197  0.650835  1
  Nd  Nd2  1  0.500000  0.616008  0.154832  1
  Nd  Nd3  1  0.500000  0.383992  0.845168  1
  Nd  Nd4  1  0.000000  0.107947  0.572254  1
  Nd  Nd5  1  0.000000  0.892053  0.427746  1
  Nd  Nd6  1  0.000000  0.614170  0.923557  1
  Nd  Nd7  1  0.000000  0.385830  0.076443  1
  Si  Si8  1  0.500000  0.500000  0.000000  1
  P  P9  1  0.500000  0.000000  0.500000  1
  I  I10  1  0.500000  0.242439  0.163403  1
  I  I11  1  0.500000  0.757561  0.836597  1
  I  I12  1  0.500000  0.746327  0.340165  1
  I  I13  1  0.500000  0.253673  0.659835  1
  I  I14  1  0.000000  0.258634  0.415029  1
  I  I15  1  0.000000  0.741366  0.584971  1
  I  I16  1  0.000000  0.760585  0.085395  1
  I  I17  1  0.000000  0.239415  0.914605  1
  I  I18  1  0.000000  0.998373  0.240688  1
  I  I19  1  0.000000  0.001627  0.759312  1
  I  I20  1  0.000000  0.498495  0.261281  1
  I  I21  1  0.000000  0.501505  0.738719  1
