# generated using pymatgen
data_PrLu3(Rh2O7)2
_symmetry_space_group_name_H-M   'P 1'
_cell_length_a   7.15931554
_cell_length_b   7.24845077
_cell_length_c   7.15931600
_cell_angle_alpha   60.40595718
_cell_angle_beta   59.99999788
_cell_angle_gamma   60.40596050
_symmetry_Int_Tables_number   1
_chemical_formula_structural   PrLu3(Rh2O7)2
_chemical_formula_sum   'Pr1 Lu3 Rh4 O14'
_cell_volume   264.30842567
_cell_formula_units_Z   1
loop_
 _symmetry_equiv_pos_site_id
 _symmetry_equiv_pos_as_xyz
  1  'x, y, z'
loop_
 _atom_site_type_symbol
 _atom_site_label
 _atom_site_symmetry_multiplicity
 _atom_site_fract_x
 _atom_site_fract_y
 _atom_site_fract_z
 _atom_site_occupancy
  Pr  Pr0  1  0.125000  0.625000  0.125000  1
  Lu  Lu1  1  0.125000  0.125000  0.125000  1
  Lu  Lu2  1  0.625000  0.125000  0.125000  1
  Lu  Lu3  1  0.125000  0.125000  0.625000  1
  Rh  Rh4  1  0.625000  0.625000  0.625000  1
  Rh  Rh5  1  0.625000  0.625000  0.125000  1
  Rh  Rh6  1  0.125000  0.625000  0.625000  1
  Rh  Rh7  1  0.625000  0.125000  0.625000  1
  O  O8  1  0.255879  0.232363  0.255879  1
  O  O9  1  0.287414  0.725861  0.287414  1
  O  O10  1  0.962441  0.963302  0.537129  1
  O  O11  1  0.537129  0.963302  0.537129  1
  O  O12  1  0.699309  0.725861  0.287414  1
  O  O13  1  0.962586  0.524139  0.550691  1
  O  O14  1  0.712871  0.286698  0.712871  1
  O  O15  1  0.287559  0.286698  0.712871  1
  O  O16  1  0.712871  0.286698  0.287559  1
  O  O17  1  0.287414  0.725861  0.699309  1
  O  O18  1  0.962586  0.524139  0.962586  1
  O  O19  1  0.550691  0.524139  0.962586  1
  O  O20  1  0.994121  0.017637  0.994121  1
  O  O21  1  0.537129  0.963302  0.962441  1
