# generated using pymatgen
data_NdThCo18Si7Ge
_symmetry_space_group_name_H-M   'P 1'
_cell_length_a   7.95870700
_cell_length_b   7.95535205
_cell_length_c   7.96955768
_cell_angle_alpha   121.62919044
_cell_angle_beta   121.64977805
_cell_angle_gamma   87.26581190
_symmetry_Int_Tables_number   1
_chemical_formula_structural   NdThCo18Si7Ge
_chemical_formula_sum   'Nd1 Th1 Co18 Si7 Ge1'
_cell_volume   347.25878249
_cell_formula_units_Z   1
loop_
 _symmetry_equiv_pos_site_id
 _symmetry_equiv_pos_as_xyz
  1  'x, y, z'
loop_
 _atom_site_type_symbol
 _atom_site_label
 _atom_site_symmetry_multiplicity
 _atom_site_fract_x
 _atom_site_fract_y
 _atom_site_fract_z
 _atom_site_occupancy
  Nd  Nd0  1  0.249832  0.251399  0.000216  1
  Th  Th1  1  0.752112  0.749824  0.000445  1
  Co  Co2  1  0.689037  0.451646  0.502677  1
  Co  Co3  1  0.453225  0.950507  0.756276  1
  Co  Co4  1  0.186259  0.688454  0.236650  1
  Co  Co5  1  0.557534  0.054986  0.251607  1
  Co  Co6  1  0.949478  0.186544  0.497785  1
  Co  Co7  1  0.197590  0.931552  0.132776  1
  Co  Co8  1  0.801740  0.070114  0.870892  1
  Co  Co9  1  0.431748  0.698156  0.132468  1
  Co  Co10  1  0.570315  0.302061  0.870834  1
  Co  Co11  1  0.698542  0.568690  0.268330  1
  Co  Co12  1  0.300166  0.427701  0.729571  1
  Co  Co13  1  0.927031  0.799807  0.729576  1
  Co  Co14  1  0.313012  0.547848  0.497735  1
  Co  Co15  1  0.810112  0.312638  0.761154  1
  Co  Co16  1  0.997015  0.497025  0.497263  1
  Co  Co17  1  0.499921  0.999820  0.500674  1
  Co  Co18  1  0.068539  0.198590  0.268638  1
  Co  Co19  1  0.044806  0.810346  0.491828  1
  Si  Si20  1  0.047473  0.544461  0.835622  1
  Si  Si21  1  0.545377  0.708830  0.496577  1
  Si  Si22  1  0.790820  0.954282  0.503519  1
  Si  Si23  1  0.451549  0.288279  0.498238  1
  Si  Si24  1  0.954454  0.451464  0.163696  1
  Si  Si25  1  0.708178  0.210593  0.162701  1
  Si  Si26  1  0.211746  0.048222  0.501990  1
  Ge  Ge27  1  0.292388  0.796164  0.840261  1
