# generated using pymatgen
data_EuTm2RuO7
_symmetry_space_group_name_H-M   'P 1'
_cell_length_a   6.38294663
_cell_length_b   6.38294584
_cell_length_c   7.42021900
_cell_angle_alpha   90.00000000
_cell_angle_beta   90.00000000
_cell_angle_gamma   109.13424297
_symmetry_Int_Tables_number   1
_chemical_formula_structural   EuTm2RuO7
_chemical_formula_sum   'Eu2 Tm4 Ru2 O14'
_cell_volume   285.61266315
_cell_formula_units_Z   2
loop_
 _symmetry_equiv_pos_site_id
 _symmetry_equiv_pos_as_xyz
  1  'x, y, z'
loop_
 _atom_site_type_symbol
 _atom_site_label
 _atom_site_symmetry_multiplicity
 _atom_site_fract_x
 _atom_site_fract_y
 _atom_site_fract_z
 _atom_site_occupancy
  Eu  Eu0  1  0.000000  0.000000  0.500000  1
  Eu  Eu1  1  0.000000  0.000000  0.000000  1
  Tm  Tm2  1  0.485119  0.936387  0.750000  1
  Tm  Tm3  1  0.514881  0.063613  0.250000  1
  Tm  Tm4  1  0.936387  0.485119  0.750000  1
  Tm  Tm5  1  0.063613  0.514881  0.250000  1
  Ru  Ru6  1  0.500000  0.500000  0.500000  1
  Ru  Ru7  1  0.500000  0.500000  0.000000  1
  O  O8  1  0.592979  0.592979  0.750000  1
  O  O9  1  0.407021  0.407021  0.250000  1
  O  O10  1  0.838827  0.119891  0.750000  1
  O  O11  1  0.161173  0.880109  0.250000  1
  O  O12  1  0.119891  0.838827  0.750000  1
  O  O13  1  0.880109  0.161173  0.250000  1
  O  O14  1  0.444665  0.181706  0.962304  1
  O  O15  1  0.555335  0.818294  0.462304  1
  O  O16  1  0.181706  0.444665  0.962304  1
  O  O17  1  0.818294  0.555335  0.462304  1
  O  O18  1  0.444665  0.181706  0.537696  1
  O  O19  1  0.555335  0.818294  0.037696  1
  O  O20  1  0.818294  0.555335  0.037696  1
  O  O21  1  0.181706  0.444665  0.537696  1
