# generated using pymatgen
data_NdSmB2(Pt3Rh)2
_symmetry_space_group_name_H-M   'P 1'
_cell_length_a   5.47573502
_cell_length_b   5.45088558
_cell_length_c   7.63436500
_cell_angle_alpha   90.00000000
_cell_angle_beta   90.00000000
_cell_angle_gamma   119.84998989
_symmetry_Int_Tables_number   1
_chemical_formula_structural   NdSmB2(Pt3Rh)2
_chemical_formula_sum   'Nd1 Sm1 B2 Pt6 Rh2'
_cell_volume   197.63667502
_cell_formula_units_Z   1
loop_
 _symmetry_equiv_pos_site_id
 _symmetry_equiv_pos_as_xyz
  1  'x, y, z'
loop_
 _atom_site_type_symbol
 _atom_site_label
 _atom_site_symmetry_multiplicity
 _atom_site_fract_x
 _atom_site_fract_y
 _atom_site_fract_z
 _atom_site_occupancy
  Nd  Nd0  1  0.000000  0.000000  0.500000  1
  Sm  Sm1  1  0.000000  0.000000  0.000000  1
  B  B2  1  0.328869  0.664436  0.000000  1
  B  B3  1  0.671131  0.335564  0.000000  1
  Pt  Pt4  1  0.315737  0.657869  0.500000  1
  Pt  Pt5  1  0.684263  0.342131  0.500000  1
  Pt  Pt6  1  0.500000  0.000000  0.200417  1
  Pt  Pt7  1  0.500000  0.000000  0.799583  1
  Pt  Pt8  1  0.500000  0.500000  0.200417  1
  Pt  Pt9  1  0.500000  0.500000  0.799583  1
  Rh  Rh10  1  0.000000  0.500000  0.190249  1
  Rh  Rh11  1  0.000000  0.500000  0.809751  1
