# generated using pymatgen
data_Ho20Ru11Se
_symmetry_space_group_name_H-M   'P 1'
_cell_length_a   10.82101789
_cell_length_b   10.82101796
_cell_length_c   6.36761815
_cell_angle_alpha   89.98569859
_cell_angle_beta   89.98569963
_cell_angle_gamma   89.56620302
_symmetry_Int_Tables_number   1
_chemical_formula_structural   Ho20Ru11Se
_chemical_formula_sum   'Ho20 Ru11 Se1'
_cell_volume   745.59119430
_cell_formula_units_Z   1
loop_
 _symmetry_equiv_pos_site_id
 _symmetry_equiv_pos_as_xyz
  1  'x, y, z'
loop_
 _atom_site_type_symbol
 _atom_site_label
 _atom_site_symmetry_multiplicity
 _atom_site_fract_x
 _atom_site_fract_y
 _atom_site_fract_z
 _atom_site_occupancy
  Ho  Ho0  1  0.291641  0.087208  0.377345  1
  Ho  Ho1  1  0.292212  0.922526  0.875429  1
  Ho  Ho2  1  0.709257  0.087677  0.877436  1
  Ho  Ho3  1  0.709000  0.913251  0.378241  1
  Ho  Ho4  1  0.595366  0.796323  0.878079  1
  Ho  Ho5  1  0.587316  0.205679  0.374677  1
  Ho  Ho6  1  0.416457  0.798996  0.369263  1
  Ho  Ho7  1  0.413618  0.209950  0.876144  1
  Ho  Ho8  1  0.203677  0.404634  0.621921  1
  Ho  Ho9  1  0.201004  0.583543  0.130737  1
  Ho  Ho10  1  0.794321  0.412684  0.125323  1
  Ho  Ho11  1  0.790050  0.586382  0.623856  1
  Ho  Ho12  1  0.912792  0.708359  0.122655  1
  Ho  Ho13  1  0.912323  0.290743  0.622564  1
  Ho  Ho14  1  0.077474  0.707788  0.624571  1
  Ho  Ho15  1  0.086749  0.291000  0.121759  1
  Ho  Ho16  1  0.000496  0.000172  0.499222  1
  Ho  Ho17  1  0.999828  0.999504  0.000778  1
  Ho  Ho18  1  0.503669  0.496123  0.003651  1
  Ho  Ho19  1  0.503877  0.496331  0.496349  1
  Ru  Ru20  1  0.846382  0.153618  0.250000  1
  Ru  Ru21  1  0.847153  0.846197  0.750907  1
  Ru  Ru22  1  0.153803  0.152847  0.749093  1
  Ru  Ru23  1  0.154734  0.845266  0.250000  1
  Ru  Ru24  1  0.653201  0.346799  0.750000  1
  Ru  Ru25  1  0.647846  0.651111  0.251731  1
  Ru  Ru26  1  0.348889  0.352154  0.248269  1
  Ru  Ru27  1  0.500406  0.998252  0.122286  1
  Ru  Ru28  1  0.500615  0.000459  0.625233  1
  Ru  Ru29  1  0.999541  0.499385  0.874767  1
  Ru  Ru30  1  0.001748  0.499594  0.377714  1
  Se  Se31  1  0.344555  0.655445  0.750000  1
