# generated using pymatgen
data_YHo17(TmSn8)2
_symmetry_space_group_name_H-M   'P 1'
_cell_length_a   8.02337765
_cell_length_b   8.13603834
_cell_length_c   15.40852200
_cell_angle_alpha   90.00914785
_cell_angle_beta   89.85512111
_cell_angle_gamma   89.91848149
_symmetry_Int_Tables_number   1
_chemical_formula_structural   YHo17(TmSn8)2
_chemical_formula_sum   'Y1 Ho17 Tm2 Sn16'
_cell_volume   1005.84108272
_cell_formula_units_Z   1
loop_
 _symmetry_equiv_pos_site_id
 _symmetry_equiv_pos_as_xyz
  1  'x, y, z'
loop_
 _atom_site_type_symbol
 _atom_site_label
 _atom_site_symmetry_multiplicity
 _atom_site_fract_x
 _atom_site_fract_y
 _atom_site_fract_z
 _atom_site_occupancy
  Y  Y0  1  0.020801  0.178742  0.903646  1
  Ho  Ho1  1  0.368267  0.837525  0.877155  1
  Ho  Ho2  1  0.869085  0.662068  0.622029  1
  Ho  Ho3  1  0.630420  0.162222  0.377427  1
  Ho  Ho4  1  0.132031  0.337866  0.122738  1
  Ho  Ho5  1  0.631720  0.162552  0.122921  1
  Ho  Ho6  1  0.130644  0.337956  0.377646  1
  Ho  Ho7  1  0.369666  0.837666  0.622397  1
  Ho  Ho8  1  0.868519  0.662185  0.877468  1
  Ho  Ho9  1  0.522073  0.321868  0.903193  1
  Ho  Ho10  1  0.022532  0.178780  0.597120  1
  Ho  Ho11  1  0.477294  0.678544  0.402663  1
  Ho  Ho12  1  0.978654  0.821073  0.096779  1
  Ho  Ho13  1  0.478315  0.678490  0.096962  1
  Ho  Ho14  1  0.977624  0.821500  0.402903  1
  Ho  Ho15  1  0.522551  0.321574  0.596887  1
  Ho  Ho16  1  0.199935  0.503888  0.749672  1
  Ho  Ho17  1  0.699771  0.996163  0.749738  1
  Tm  Tm18  1  0.800005  0.496148  0.250171  1
  Tm  Tm19  1  0.300047  0.003803  0.250310  1
  Sn  Sn20  1  0.293305  0.036695  0.041953  1
  Sn  Sn21  1  0.791388  0.462780  0.458225  1
  Sn  Sn22  1  0.708378  0.963241  0.541365  1
  Sn  Sn23  1  0.207673  0.537763  0.958652  1
  Sn  Sn24  1  0.705980  0.961603  0.958876  1
  Sn  Sn25  1  0.208545  0.537298  0.541341  1
  Sn  Sn26  1  0.291532  0.036960  0.458447  1
  Sn  Sn27  1  0.792803  0.462444  0.041706  1
  Sn  Sn28  1  0.566588  0.617607  0.749890  1
  Sn  Sn29  1  0.066259  0.882023  0.749777  1
  Sn  Sn30  1  0.433805  0.382696  0.250207  1
  Sn  Sn31  1  0.934155  0.117692  0.250049  1
  Sn  Sn32  1  0.333007  0.149397  0.750148  1
  Sn  Sn33  1  0.832231  0.350989  0.749887  1
  Sn  Sn34  1  0.667300  0.850444  0.249825  1
  Sn  Sn35  1  0.167098  0.649752  0.249826  1
