# generated using pymatgen
data_Yb3Y5(P3Rh4)4
_symmetry_space_group_name_H-M   'P 1'
_cell_length_a   12.97153200
_cell_length_b   12.97153179
_cell_length_c   3.91282500
_cell_angle_alpha   90.00000000
_cell_angle_beta   90.00000000
_cell_angle_gamma   120.00000053
_symmetry_Int_Tables_number   1
_chemical_formula_structural   Yb3Y5(P3Rh4)4
_chemical_formula_sum   'Yb3 Y5 P12 Rh16'
_cell_volume   570.16898527
_cell_formula_units_Z   1
loop_
 _symmetry_equiv_pos_site_id
 _symmetry_equiv_pos_as_xyz
  1  'x, y, z'
loop_
 _atom_site_type_symbol
 _atom_site_label
 _atom_site_symmetry_multiplicity
 _atom_site_fract_x
 _atom_site_fract_y
 _atom_site_fract_z
 _atom_site_occupancy
  Yb  Yb0  1  0.561500  0.561500  0.000000  1
  Yb  Yb1  1  0.438500  0.000000  0.000000  1
  Yb  Yb2  1  0.000000  0.438500  0.000000  1
  Y  Y3  1  0.188545  0.188545  0.500000  1
  Y  Y4  1  0.811455  0.000000  0.500000  1
  Y  Y5  1  0.000000  0.811455  0.500000  1
  Y  Y6  1  0.333333  0.666667  0.000000  1
  Y  Y7  1  0.666667  0.333333  0.000000  1
  P  P8  1  0.822667  0.822667  0.000000  1
  P  P9  1  0.177333  0.000000  0.000000  1
  P  P10  1  0.000000  0.177333  0.000000  1
  P  P11  1  0.175112  0.483211  0.500000  1
  P  P12  1  0.516789  0.691901  0.500000  1
  P  P13  1  0.308099  0.824888  0.500000  1
  P  P14  1  0.691901  0.516789  0.500000  1
  P  P15  1  0.824888  0.308099  0.500000  1
  P  P16  1  0.483211  0.175112  0.500000  1
  P  P17  1  0.355103  0.355103  0.000000  1
  P  P18  1  0.644897  0.000000  0.000000  1
  P  P19  1  0.000000  0.644897  0.000000  1
  Rh  Rh20  1  0.725710  0.725710  0.500000  1
  Rh  Rh21  1  0.274290  0.000000  0.500000  1
  Rh  Rh22  1  0.000000  0.274290  0.500000  1
  Rh  Rh23  1  0.179657  0.371975  0.000000  1
  Rh  Rh24  1  0.628025  0.807682  0.000000  1
  Rh  Rh25  1  0.192318  0.820343  0.000000  1
  Rh  Rh26  1  0.807682  0.628025  0.000000  1
  Rh  Rh27  1  0.820343  0.192318  0.000000  1
  Rh  Rh28  1  0.371975  0.179657  0.000000  1
  Rh  Rh29  1  0.357591  0.486607  0.500000  1
  Rh  Rh30  1  0.513393  0.870984  0.500000  1
  Rh  Rh31  1  0.129016  0.642409  0.500000  1
  Rh  Rh32  1  0.870984  0.513393  0.500000  1
  Rh  Rh33  1  0.642409  0.129016  0.500000  1
  Rh  Rh34  1  0.486607  0.357591  0.500000  1
  Rh  Rh35  1  0.000000  0.000000  0.000000  1
