# generated using pymatgen
data_V2ZnCo4Si
_symmetry_space_group_name_H-M   'P 1'
_cell_length_a   6.98816824
_cell_length_b   6.98816831
_cell_length_c   6.98816872
_cell_angle_alpha   33.52243090
_cell_angle_beta   33.52243231
_cell_angle_gamma   33.52243742
_symmetry_Int_Tables_number   1
_chemical_formula_structural   V2ZnCo4Si
_chemical_formula_sum   'V2 Zn1 Co4 Si1'
_cell_volume   92.70447876
_cell_formula_units_Z   1
loop_
 _symmetry_equiv_pos_site_id
 _symmetry_equiv_pos_as_xyz
  1  'x, y, z'
loop_
 _atom_site_type_symbol
 _atom_site_label
 _atom_site_symmetry_multiplicity
 _atom_site_fract_x
 _atom_site_fract_y
 _atom_site_fract_z
 _atom_site_occupancy
  V  V0  1  0.251431  0.251431  0.251431  1
  V  V1  1  0.748569  0.748569  0.748569  1
  Zn  Zn2  1  0.000000  0.000000  0.000000  1
  Co  Co3  1  0.871142  0.871142  0.871142  1
  Co  Co4  1  0.379614  0.379614  0.379614  1
  Co  Co5  1  0.128858  0.128858  0.128858  1
  Co  Co6  1  0.620386  0.620386  0.620386  1
  Si  Si7  1  0.500000  0.500000  0.500000  1
