# generated using pymatgen
data_Nd2Al6Ga6Ir
_symmetry_space_group_name_H-M   'P 1'
_cell_length_a   6.03479700
_cell_length_b   6.03479700
_cell_length_c   15.86526600
_cell_angle_alpha   90.00000000
_cell_angle_beta   90.00000000
_cell_angle_gamma   90.00000000
_symmetry_Int_Tables_number   1
_chemical_formula_structural   Nd2Al6Ga6Ir
_chemical_formula_sum   'Nd4 Al12 Ga12 Ir2'
_cell_volume   577.79355009
_cell_formula_units_Z   2
loop_
 _symmetry_equiv_pos_site_id
 _symmetry_equiv_pos_as_xyz
  1  'x, y, z'
loop_
 _atom_site_type_symbol
 _atom_site_label
 _atom_site_symmetry_multiplicity
 _atom_site_fract_x
 _atom_site_fract_y
 _atom_site_fract_z
 _atom_site_occupancy
  Nd  Nd0  1  0.750000  0.250000  0.246442  1
  Nd  Nd1  1  0.250000  0.750000  0.246442  1
  Nd  Nd2  1  0.250000  0.750000  0.752951  1
  Nd  Nd3  1  0.750000  0.250000  0.752951  1
  Al  Al4  1  0.499962  0.999962  0.913887  1
  Al  Al5  1  0.999962  0.000038  0.913887  1
  Al  Al6  1  0.500038  0.499962  0.913887  1
  Al  Al7  1  0.000038  0.500038  0.913887  1
  Al  Al8  1  0.499916  0.999916  0.085968  1
  Al  Al9  1  0.999916  0.000084  0.085968  1
  Al  Al10  1  0.500084  0.499916  0.085968  1
  Al  Al11  1  0.000084  0.500084  0.085968  1
  Al  Al12  1  0.582150  0.082150  0.432609  1
  Al  Al13  1  0.082150  0.917850  0.432609  1
  Al  Al14  1  0.417850  0.582150  0.432609  1
  Al  Al15  1  0.917850  0.417850  0.432609  1
  Ga  Ga16  1  0.250000  0.250000  0.188746  1
  Ga  Ga17  1  0.750000  0.750000  0.188746  1
  Ga  Ga18  1  0.750000  0.750000  0.811176  1
  Ga  Ga19  1  0.250000  0.250000  0.811176  1
  Ga  Ga20  1  0.250000  0.250000  0.344074  1
  Ga  Ga21  1  0.750000  0.750000  0.344074  1
  Ga  Ga22  1  0.750000  0.750000  0.655521  1
  Ga  Ga23  1  0.250000  0.250000  0.655521  1
  Ga  Ga24  1  0.416945  0.916945  0.568067  1
  Ga  Ga25  1  0.916945  0.083055  0.568067  1
  Ga  Ga26  1  0.583055  0.416945  0.568067  1
  Ga  Ga27  1  0.083055  0.583055  0.568067  1
  Ir  Ir28  1  0.750000  0.250000  0.000029  1
  Ir  Ir29  1  0.250000  0.750000  0.000029  1
