# generated using pymatgen
data_Ho9Sc(IrPd2)2
_symmetry_space_group_name_H-M   'P 1'
_cell_length_a   10.95898900
_cell_length_b   10.95898900
_cell_length_c   6.28272800
_cell_angle_alpha   90.00000000
_cell_angle_beta   90.00000000
_cell_angle_gamma   90.00000000
_symmetry_Int_Tables_number   1
_chemical_formula_structural   Ho9Sc(IrPd2)2
_chemical_formula_sum   'Ho18 Sc2 Ir4 Pd8'
_cell_volume   754.55211386
_cell_formula_units_Z   2
loop_
 _symmetry_equiv_pos_site_id
 _symmetry_equiv_pos_as_xyz
  1  'x, y, z'
loop_
 _atom_site_type_symbol
 _atom_site_label
 _atom_site_symmetry_multiplicity
 _atom_site_fract_x
 _atom_site_fract_y
 _atom_site_fract_z
 _atom_site_occupancy
  Ho  Ho0  1  0.290986  0.085522  0.373901  1
  Ho  Ho1  1  0.290986  0.914478  0.873901  1
  Ho  Ho2  1  0.709014  0.085522  0.873901  1
  Ho  Ho3  1  0.709014  0.914478  0.373901  1
  Ho  Ho4  1  0.587114  0.796833  0.870963  1
  Ho  Ho5  1  0.587114  0.203167  0.370963  1
  Ho  Ho6  1  0.412886  0.796833  0.370963  1
  Ho  Ho7  1  0.412886  0.203167  0.870963  1
  Ho  Ho8  1  0.203167  0.412886  0.629037  1
  Ho  Ho9  1  0.203167  0.587114  0.129037  1
  Ho  Ho10  1  0.796833  0.412886  0.129037  1
  Ho  Ho11  1  0.796833  0.587114  0.629037  1
  Ho  Ho12  1  0.914478  0.709014  0.126099  1
  Ho  Ho13  1  0.914478  0.290986  0.626099  1
  Ho  Ho14  1  0.085522  0.709014  0.626099  1
  Ho  Ho15  1  0.085522  0.290986  0.126099  1
  Ho  Ho16  1  0.500000  0.500000  0.000000  1
  Ho  Ho17  1  0.500000  0.500000  0.500000  1
  Sc  Sc18  1  0.000000  0.000000  0.500000  1
  Sc  Sc19  1  0.000000  0.000000  0.000000  1
  Ir  Ir20  1  0.500000  0.000000  0.119487  1
  Ir  Ir21  1  0.500000  0.000000  0.619487  1
  Ir  Ir22  1  0.000000  0.500000  0.880513  1
  Ir  Ir23  1  0.000000  0.500000  0.380513  1
  Pd  Pd24  1  0.852663  0.147337  0.250000  1
  Pd  Pd25  1  0.852663  0.852663  0.750000  1
  Pd  Pd26  1  0.147337  0.147337  0.750000  1
  Pd  Pd27  1  0.147337  0.852663  0.250000  1
  Pd  Pd28  1  0.655225  0.344775  0.750000  1
  Pd  Pd29  1  0.655225  0.655225  0.250000  1
  Pd  Pd30  1  0.344775  0.344775  0.250000  1
  Pd  Pd31  1  0.344775  0.655225  0.750000  1
