# generated using pymatgen
data_Th2RhI2
_symmetry_space_group_name_H-M   'P 1'
_cell_length_a   4.20788800
_cell_length_b   4.20788895
_cell_length_c   11.61341100
_cell_angle_alpha   90.00000000
_cell_angle_beta   90.00000000
_cell_angle_gamma   119.99999254
_symmetry_Int_Tables_number   1
_chemical_formula_structural   Th2RhI2
_chemical_formula_sum   'Th2 Rh1 I2'
_cell_volume   178.08153971
_cell_formula_units_Z   1
loop_
 _symmetry_equiv_pos_site_id
 _symmetry_equiv_pos_as_xyz
  1  'x, y, z'
loop_
 _atom_site_type_symbol
 _atom_site_label
 _atom_site_symmetry_multiplicity
 _atom_site_fract_x
 _atom_site_fract_y
 _atom_site_fract_z
 _atom_site_occupancy
  Th  Th0  1  0.333333  0.666667  0.867552  1
  Th  Th1  1  0.666667  0.333333  0.132448  1
  Rh  Rh2  1  0.000000  0.000000  0.000000  1
  I  I3  1  0.666667  0.333333  0.666496  1
  I  I4  1  0.333333  0.666667  0.333504  1
