# generated using pymatgen
data_LaNd7Cd2RuPt
_symmetry_space_group_name_H-M   'P 1'
_cell_length_a   9.97817949
_cell_length_b   9.97817835
_cell_length_c   10.06422100
_cell_angle_alpha   59.71433509
_cell_angle_beta   59.71433892
_cell_angle_gamma   59.90455378
_symmetry_Int_Tables_number   1
_chemical_formula_structural   LaNd7Cd2RuPt
_chemical_formula_sum   'La2 Nd14 Cd4 Ru2 Pt2'
_cell_volume   704.96486058
_cell_formula_units_Z   2
loop_
 _symmetry_equiv_pos_site_id
 _symmetry_equiv_pos_as_xyz
  1  'x, y, z'
loop_
 _atom_site_type_symbol
 _atom_site_label
 _atom_site_symmetry_multiplicity
 _atom_site_fract_x
 _atom_site_fract_y
 _atom_site_fract_z
 _atom_site_occupancy
  La  La0  1  0.345408  0.345408  0.356503  1
  La  La1  1  0.345408  0.345408  0.952683  1
  Nd  Nd2  1  0.345184  0.953687  0.350564  1
  Nd  Nd3  1  0.953687  0.345184  0.350564  1
  Nd  Nd4  1  0.815790  0.189051  0.190641  1
  Nd  Nd5  1  0.189051  0.815790  0.804518  1
  Nd  Nd6  1  0.189051  0.815790  0.190641  1
  Nd  Nd7  1  0.815790  0.189051  0.804518  1
  Nd  Nd8  1  0.188997  0.188997  0.811003  1
  Nd  Nd9  1  0.807261  0.807261  0.192739  1
  Nd  Nd10  1  0.936333  0.559529  0.565809  1
  Nd  Nd11  1  0.559529  0.936333  0.938329  1
  Nd  Nd12  1  0.559529  0.936333  0.565809  1
  Nd  Nd13  1  0.936333  0.559529  0.938329  1
  Nd  Nd14  1  0.562344  0.562344  0.937656  1
  Nd  Nd15  1  0.937484  0.937484  0.562516  1
  Cd  Cd16  1  0.580663  0.580663  0.578792  1
  Cd  Cd17  1  0.580663  0.580663  0.259882  1
  Cd  Cd18  1  0.582727  0.257527  0.579873  1
  Cd  Cd19  1  0.257527  0.582727  0.579873  1
  Ru  Ru20  1  0.145490  0.145490  0.134828  1
  Ru  Ru21  1  0.145490  0.145490  0.574193  1
  Pt  Pt22  1  0.145298  0.574966  0.139868  1
  Pt  Pt23  1  0.574966  0.145298  0.139868  1
