# generated using pymatgen
data_HoLuAlZnPt2
_symmetry_space_group_name_H-M   'P 1'
_cell_length_a   4.31287000
_cell_length_b   6.75143613
_cell_length_c   7.91606731
_cell_angle_alpha   88.60888973
_cell_angle_beta   90.00000000
_cell_angle_gamma   90.00000000
_symmetry_Int_Tables_number   1
_chemical_formula_structural   HoLuAlZnPt2
_chemical_formula_sum   'Ho2 Lu2 Al2 Zn2 Pt4'
_cell_volume   230.43263722
_cell_formula_units_Z   2
loop_
 _symmetry_equiv_pos_site_id
 _symmetry_equiv_pos_as_xyz
  1  'x, y, z'
loop_
 _atom_site_type_symbol
 _atom_site_label
 _atom_site_symmetry_multiplicity
 _atom_site_fract_x
 _atom_site_fract_y
 _atom_site_fract_z
 _atom_site_occupancy
  Ho  Ho0  1  0.250000  0.535191  0.178847  1
  Ho  Ho1  1  0.750000  0.464809  0.821153  1
  Lu  Lu2  1  0.750000  0.968525  0.683407  1
  Lu  Lu3  1  0.250000  0.031475  0.316593  1
  Al  Al4  1  0.250000  0.640793  0.557951  1
  Al  Al5  1  0.750000  0.359207  0.442049  1
  Zn  Zn6  1  0.750000  0.858783  0.062409  1
  Zn  Zn7  1  0.250000  0.141217  0.937591  1
  Pt  Pt8  1  0.250000  0.758310  0.866475  1
  Pt  Pt9  1  0.750000  0.241690  0.133525  1
  Pt  Pt10  1  0.750000  0.738059  0.388674  1
  Pt  Pt11  1  0.250000  0.261941  0.611326  1
