# generated using pymatgen
data_Er5Hf3Zr2(Si5Ir2)4
_symmetry_space_group_name_H-M   'P 1'
_cell_length_a   12.48247920
_cell_length_b   12.48435520
_cell_length_c   4.15492900
_cell_angle_alpha   90.00000000
_cell_angle_beta   90.00000000
_cell_angle_gamma   90.06807519
_symmetry_Int_Tables_number   1
_chemical_formula_structural   Er5Hf3Zr2(Si5Ir2)4
_chemical_formula_sum   'Er5 Hf3 Zr2 Si20 Ir8'
_cell_volume   647.48582951
_cell_formula_units_Z   1
loop_
 _symmetry_equiv_pos_site_id
 _symmetry_equiv_pos_as_xyz
  1  'x, y, z'
loop_
 _atom_site_type_symbol
 _atom_site_label
 _atom_site_symmetry_multiplicity
 _atom_site_fract_x
 _atom_site_fract_y
 _atom_site_fract_z
 _atom_site_occupancy
  Er  Er0  1  0.000109  0.999937  0.000000  1
  Er  Er1  1  0.884513  0.384579  0.500000  1
  Er  Er2  1  0.115765  0.615712  0.500000  1
  Er  Er3  1  0.384228  0.115792  0.500000  1
  Er  Er4  1  0.615680  0.884134  0.500000  1
  Hf  Hf5  1  0.326205  0.825118  0.500000  1
  Hf  Hf6  1  0.174504  0.326419  0.500000  1
  Hf  Hf7  1  0.825372  0.673455  0.500000  1
  Zr  Zr8  1  0.499886  0.500137  0.000000  1
  Zr  Zr9  1  0.674348  0.175424  0.500000  1
  Si  Si10  1  0.565879  0.067041  0.000000  1
  Si  Si11  1  0.434015  0.932801  0.000000  1
  Si  Si12  1  0.067086  0.434132  0.000000  1
  Si  Si13  1  0.932942  0.565900  0.000000  1
  Si  Si14  1  0.665285  0.700817  0.000000  1
  Si  Si15  1  0.334185  0.299366  0.000000  1
  Si  Si16  1  0.164360  0.800637  0.000000  1
  Si  Si17  1  0.836037  0.199060  0.000000  1
  Si  Si18  1  0.299083  0.665380  0.000000  1
  Si  Si19  1  0.700511  0.335138  0.000000  1
  Si  Si20  1  0.199317  0.164249  0.000000  1
  Si  Si21  1  0.800957  0.835182  0.000000  1
  Si  Si22  1  0.652500  0.508090  0.500000  1
  Si  Si23  1  0.347393  0.492167  0.500000  1
  Si  Si24  1  0.156188  0.992377  0.500000  1
  Si  Si25  1  0.844023  0.007495  0.500000  1
  Si  Si26  1  0.491947  0.652559  0.500000  1
  Si  Si27  1  0.508013  0.347611  0.500000  1
  Si  Si28  1  0.007704  0.156081  0.500000  1
  Si  Si29  1  0.992431  0.843783  0.500000  1
  Ir  Ir30  1  0.743669  0.521639  0.000000  1
  Ir  Ir31  1  0.256222  0.478779  0.000000  1
  Ir  Ir32  1  0.246523  0.978544  0.000000  1
  Ir  Ir33  1  0.753961  0.020090  0.000000  1
  Ir  Ir34  1  0.478646  0.743699  0.000000  1
  Ir  Ir35  1  0.520107  0.256807  0.000000  1
  Ir  Ir36  1  0.021724  0.246495  0.000000  1
  Ir  Ir37  1  0.978681  0.753374  0.000000  1
