# generated using pymatgen
data_Li2Ru3RhW2
_symmetry_space_group_name_H-M   'P 1'
_cell_length_a   4.28755800
_cell_length_b   6.07981074
_cell_length_c   12.78759656
_cell_angle_alpha   89.94348001
_cell_angle_beta   89.99943797
_cell_angle_gamma   90.00431253
_symmetry_Int_Tables_number   1
_chemical_formula_structural   Li2Ru3RhW2
_chemical_formula_sum   'Li6 Ru9 Rh3 W6'
_cell_volume   333.34103707
_cell_formula_units_Z   3
loop_
 _symmetry_equiv_pos_site_id
 _symmetry_equiv_pos_as_xyz
  1  'x, y, z'
loop_
 _atom_site_type_symbol
 _atom_site_label
 _atom_site_symmetry_multiplicity
 _atom_site_fract_x
 _atom_site_fract_y
 _atom_site_fract_z
 _atom_site_occupancy
  Li  Li0  1  0.000017  0.001184  0.000572  1
  Li  Li1  1  0.499779  0.497836  0.165702  1
  Li  Li2  1  0.999783  0.001031  0.333251  1
  Li  Li3  1  0.499980  0.500009  0.500229  1
  Li  Li4  1  0.000229  0.000432  0.666328  1
  Li  Li5  1  0.500208  0.499859  0.833924  1
  Ru  Ru6  1  0.999813  0.749808  0.165240  1
  Ru  Ru7  1  0.499813  0.250909  0.331678  1
  Ru  Ru8  1  0.499848  0.748754  0.332142  1
  Ru  Ru9  1  0.000001  0.250272  0.499568  1
  Ru  Ru10  1  0.999963  0.750087  0.499536  1
  Ru  Ru11  1  0.500179  0.250876  0.667431  1
  Ru  Ru12  1  0.500216  0.750028  0.667504  1
  Ru  Ru13  1  0.000157  0.249189  0.835147  1
  Ru  Ru14  1  0.000145  0.750580  0.835093  1
  Rh  Rh15  1  0.499999  0.249084  0.001021  1
  Rh  Rh16  1  0.500039  0.751288  0.000441  1
  Rh  Rh17  1  0.999838  0.250177  0.165295  1
  W  W18  1  0.000026  0.501899  0.996472  1
  W  W19  1  0.499796  0.992093  0.172754  1
  W  W20  1  0.999847  0.502161  0.336690  1
  W  W21  1  0.499976  0.001372  0.500090  1
  W  W22  1  0.000195  0.500051  0.666464  1
  W  W23  1  0.500155  0.001019  0.827430  1
