# generated using pymatgen
data_Tb17Dy2ErSn16
_symmetry_space_group_name_H-M   'P 1'
_cell_length_a   8.06093000
_cell_length_b   8.21108404
_cell_length_c   15.52155600
_cell_angle_alpha   90.00000000
_cell_angle_beta   90.00000000
_cell_angle_gamma   89.96982385
_symmetry_Int_Tables_number   1
_chemical_formula_structural   Tb17Dy2ErSn16
_chemical_formula_sum   'Tb17 Dy2 Er1 Sn16'
_cell_volume   1027.35571904
_cell_formula_units_Z   1
loop_
 _symmetry_equiv_pos_site_id
 _symmetry_equiv_pos_as_xyz
  1  'x, y, z'
loop_
 _atom_site_type_symbol
 _atom_site_label
 _atom_site_symmetry_multiplicity
 _atom_site_fract_x
 _atom_site_fract_y
 _atom_site_fract_z
 _atom_site_occupancy
  Tb  Tb0  1  0.367594  0.836054  0.878081  1
  Tb  Tb1  1  0.868019  0.663620  0.621915  1
  Tb  Tb2  1  0.632234  0.163804  0.378102  1
  Tb  Tb3  1  0.132223  0.336186  0.121756  1
  Tb  Tb4  1  0.632234  0.163804  0.121898  1
  Tb  Tb5  1  0.132223  0.336186  0.378244  1
  Tb  Tb6  1  0.367594  0.836054  0.621919  1
  Tb  Tb7  1  0.868019  0.663620  0.878085  1
  Tb  Tb8  1  0.520838  0.320464  0.902201  1
  Tb  Tb9  1  0.021103  0.179822  0.597788  1
  Tb  Tb10  1  0.479067  0.679673  0.402278  1
  Tb  Tb11  1  0.979006  0.820335  0.097797  1
  Tb  Tb12  1  0.479067  0.679673  0.097722  1
  Tb  Tb13  1  0.979006  0.820335  0.402203  1
  Tb  Tb14  1  0.520838  0.320464  0.597799  1
  Tb  Tb15  1  0.021103  0.179822  0.902212  1
  Tb  Tb16  1  0.698645  0.997511  0.750000  1
  Dy  Dy17  1  0.801198  0.497409  0.250000  1
  Dy  Dy18  1  0.301199  0.002596  0.250000  1
  Er  Er19  1  0.199051  0.502773  0.750000  1
  Sn  Sn20  1  0.292291  0.035156  0.041848  1
  Sn  Sn21  1  0.792270  0.464695  0.458152  1
  Sn  Sn22  1  0.707712  0.964778  0.541856  1
  Sn  Sn23  1  0.207689  0.535112  0.957705  1
  Sn  Sn24  1  0.707712  0.964778  0.958144  1
  Sn  Sn25  1  0.207689  0.535112  0.542295  1
  Sn  Sn26  1  0.292291  0.035156  0.458152  1
  Sn  Sn27  1  0.792270  0.464695  0.041848  1
  Sn  Sn28  1  0.564833  0.618193  0.750000  1
  Sn  Sn29  1  0.065924  0.880967  0.750000  1
  Sn  Sn30  1  0.434359  0.381378  0.250000  1
  Sn  Sn31  1  0.934536  0.118665  0.250000  1
  Sn  Sn32  1  0.328954  0.148075  0.750000  1
  Sn  Sn33  1  0.829562  0.353283  0.750000  1
  Sn  Sn34  1  0.670710  0.852680  0.250000  1
  Sn  Sn35  1  0.170936  0.647066  0.250000  1
