# generated using pymatgen
data_Dy4Co5P12Ir13Rh2
_symmetry_space_group_name_H-M   'P 1'
_cell_length_a   3.90993200
_cell_length_b   10.68106961
_cell_length_c   12.36090116
_cell_angle_alpha   89.86537899
_cell_angle_beta   90.00000000
_cell_angle_gamma   90.00000000
_symmetry_Int_Tables_number   1
_chemical_formula_structural   Dy4Co5P12Ir13Rh2
_chemical_formula_sum   'Dy4 Co5 P12 Ir13 Rh2'
_cell_volume   516.21769215
_cell_formula_units_Z   1
loop_
 _symmetry_equiv_pos_site_id
 _symmetry_equiv_pos_as_xyz
  1  'x, y, z'
loop_
 _atom_site_type_symbol
 _atom_site_label
 _atom_site_symmetry_multiplicity
 _atom_site_fract_x
 _atom_site_fract_y
 _atom_site_fract_z
 _atom_site_occupancy
  Dy  Dy0  1  0.250000  0.582361  0.710852  1
  Dy  Dy1  1  0.250000  0.914992  0.209752  1
  Dy  Dy2  1  0.750000  0.416227  0.290323  1
  Dy  Dy3  1  0.750000  0.087716  0.790613  1
  Co  Co4  1  0.750000  0.382693  0.803840  1
  Co  Co5  1  0.250000  0.462224  0.931276  1
  Co  Co6  1  0.250000  0.039281  0.434894  1
  Co  Co7  1  0.750000  0.537560  0.063460  1
  Co  Co8  1  0.750000  0.963370  0.566372  1
  P  P9  1  0.250000  0.427704  0.103695  1
  P  P10  1  0.250000  0.076698  0.606876  1
  P  P11  1  0.750000  0.566227  0.887978  1
  P  P12  1  0.750000  0.924768  0.395133  1
  P  P13  1  0.250000  0.274797  0.870027  1
  P  P14  1  0.250000  0.229191  0.370329  1
  P  P15  1  0.750000  0.729309  0.127521  1
  P  P16  1  0.750000  0.769868  0.628639  1
  P  P17  1  0.250000  0.595667  0.386671  1
  P  P18  1  0.250000  0.902789  0.885619  1
  P  P19  1  0.750000  0.403554  0.625181  1
  P  P20  1  0.750000  0.096880  0.114746  1
  Ir  Ir21  1  0.750000  0.279212  0.011712  1
  Ir  Ir22  1  0.750000  0.220534  0.521466  1
  Ir  Ir23  1  0.250000  0.405338  0.477080  1
  Ir  Ir24  1  0.250000  0.093254  0.976400  1
  Ir  Ir25  1  0.750000  0.588049  0.523596  1
  Ir  Ir26  1  0.750000  0.909703  0.020704  1
  Ir  Ir27  1  0.250000  0.231600  0.176800  1
  Ir  Ir28  1  0.250000  0.275742  0.681440  1
  Ir  Ir29  1  0.750000  0.766964  0.820319  1
  Ir  Ir30  1  0.750000  0.729818  0.320468  1
  Ir  Ir31  1  0.250000  0.887449  0.699072  1
  Ir  Ir32  1  0.250000  0.613745  0.198387  1
  Ir  Ir33  1  0.750000  0.115746  0.302664  1
  Rh  Rh34  1  0.250000  0.720167  0.983154  1
  Rh  Rh35  1  0.250000  0.778802  0.482939  1
