# generated using pymatgen
data_YbScCo4(SiC)2
_symmetry_space_group_name_H-M   'P 1'
_cell_length_a   5.49197078
_cell_length_b   5.49197077
_cell_length_c   6.66191600
_cell_angle_alpha   90.00000000
_cell_angle_beta   90.00000000
_cell_angle_gamma   141.35279126
_symmetry_Int_Tables_number   1
_chemical_formula_structural   YbScCo4(SiC)2
_chemical_formula_sum   'Yb1 Sc1 Co4 Si2 C2'
_cell_volume   125.48859152
_cell_formula_units_Z   1
loop_
 _symmetry_equiv_pos_site_id
 _symmetry_equiv_pos_as_xyz
  1  'x, y, z'
loop_
 _atom_site_type_symbol
 _atom_site_label
 _atom_site_symmetry_multiplicity
 _atom_site_fract_x
 _atom_site_fract_y
 _atom_site_fract_z
 _atom_site_occupancy
  Yb  Yb0  1  0.451173  0.548827  0.750000  1
  Sc  Sc1  1  0.546909  0.453091  0.250000  1
  Co  Co2  1  0.835846  0.164154  0.058897  1
  Co  Co3  1  0.163999  0.836001  0.946662  1
  Co  Co4  1  0.163999  0.836001  0.553338  1
  Co  Co5  1  0.835846  0.164154  0.441103  1
  Si  Si6  1  0.270039  0.729961  0.250000  1
  Si  Si7  1  0.729363  0.270637  0.750000  1
  C  C8  1  0.001413  0.998587  0.011619  1
  C  C9  1  0.001413  0.998587  0.488381  1
