# generated using pymatgen
data_UFe3BC
_symmetry_space_group_name_H-M   'P 1'
_cell_length_a   5.09069604
_cell_length_b   5.08946452
_cell_length_c   2.77909900
_cell_angle_alpha   90.00000000
_cell_angle_beta   90.00000000
_cell_angle_gamma   119.99490342
_symmetry_Int_Tables_number   1
_chemical_formula_structural   UFe3BC
_chemical_formula_sum   'U1 Fe3 B1 C1'
_cell_volume   62.36001470
_cell_formula_units_Z   1
loop_
 _symmetry_equiv_pos_site_id
 _symmetry_equiv_pos_as_xyz
  1  'x, y, z'
loop_
 _atom_site_type_symbol
 _atom_site_label
 _atom_site_symmetry_multiplicity
 _atom_site_fract_x
 _atom_site_fract_y
 _atom_site_fract_z
 _atom_site_occupancy
  U  U0  1  0.999999  0.999973  0.000000  1
  Fe  Fe1  1  0.503545  0.007033  0.500001  1
  Fe  Fe2  1  0.503520  0.496418  0.500001  1
  Fe  Fe3  1  0.992935  0.496409  0.500001  1
  B  B4  1  0.333408  0.666837  0.000000  1
  C  C5  1  0.666692  0.333431  0.000000  1
