# generated using pymatgen
data_LuInCu3Ir
_symmetry_space_group_name_H-M   'P 1'
_cell_length_a   5.22093097
_cell_length_b   5.22093009
_cell_length_c   5.22093014
_cell_angle_alpha   57.71946810
_cell_angle_beta   57.71947393
_cell_angle_gamma   57.71947680
_symmetry_Int_Tables_number   1
_chemical_formula_structural   LuInCu3Ir
_chemical_formula_sum   'Lu1 In1 Cu3 Ir1'
_cell_volume   95.35817555
_cell_formula_units_Z   1
loop_
 _symmetry_equiv_pos_site_id
 _symmetry_equiv_pos_as_xyz
  1  'x, y, z'
loop_
 _atom_site_type_symbol
 _atom_site_label
 _atom_site_symmetry_multiplicity
 _atom_site_fract_x
 _atom_site_fract_y
 _atom_site_fract_z
 _atom_site_occupancy
  Lu  Lu0  1  0.252522  0.252522  0.252522  1
  In  In1  1  0.000823  0.000823  0.000823  1
  Cu  Cu2  1  0.623851  0.623851  0.124676  1
  Cu  Cu3  1  0.623851  0.124676  0.623851  1
  Cu  Cu4  1  0.124676  0.623851  0.623851  1
  Ir  Ir5  1  0.624277  0.624277  0.624277  1
