# generated using pymatgen
data_TbLu(FeOs)2
_symmetry_space_group_name_H-M   'P 1'
_cell_length_a   5.19720611
_cell_length_b   5.25544469
_cell_length_c   5.25544317
_cell_angle_alpha   59.80970869
_cell_angle_beta   60.36589120
_cell_angle_gamma   60.36589696
_symmetry_Int_Tables_number   1
_chemical_formula_structural   TbLu(FeOs)2
_chemical_formula_sum   'Tb1 Lu1 Fe2 Os2'
_cell_volume   101.91036581
_cell_formula_units_Z   1
loop_
 _symmetry_equiv_pos_site_id
 _symmetry_equiv_pos_as_xyz
  1  'x, y, z'
loop_
 _atom_site_type_symbol
 _atom_site_label
 _atom_site_symmetry_multiplicity
 _atom_site_fract_x
 _atom_site_fract_y
 _atom_site_fract_z
 _atom_site_occupancy
  Tb  Tb0  1  0.997834  0.002166  0.002166  1
  Lu  Lu1  1  0.252309  0.247691  0.247691  1
  Fe  Fe2  1  0.125503  0.624937  0.624937  1
  Fe  Fe3  1  0.624623  0.624937  0.624937  1
  Os  Os4  1  0.624865  0.625167  0.125101  1
  Os  Os5  1  0.624865  0.125101  0.625167  1
