# generated using pymatgen
data_Lu3Hf2P12Ru19
_symmetry_space_group_name_H-M   'P 1'
_cell_length_a   12.44958600
_cell_length_b   12.44958709
_cell_length_c   3.95053700
_cell_angle_alpha   90.00000000
_cell_angle_beta   90.00000000
_cell_angle_gamma   119.99999711
_symmetry_Int_Tables_number   1
_chemical_formula_structural   Lu3Hf2P12Ru19
_chemical_formula_sum   'Lu3 Hf2 P12 Ru19'
_cell_volume   530.26948423
_cell_formula_units_Z   1
loop_
 _symmetry_equiv_pos_site_id
 _symmetry_equiv_pos_as_xyz
  1  'x, y, z'
loop_
 _atom_site_type_symbol
 _atom_site_label
 _atom_site_symmetry_multiplicity
 _atom_site_fract_x
 _atom_site_fract_y
 _atom_site_fract_z
 _atom_site_occupancy
  Lu  Lu0  1  0.000000  0.184179  0.500000  1
  Lu  Lu1  1  0.815821  0.815821  0.500000  1
  Lu  Lu2  1  0.184179  0.000000  0.500000  1
  Hf  Hf3  1  0.666667  0.333333  0.000000  1
  Hf  Hf4  1  0.333333  0.666667  0.000000  1
  P  P5  1  0.000000  0.816446  0.000000  1
  P  P6  1  0.183554  0.183554  0.000000  1
  P  P7  1  0.816446  0.000000  0.000000  1
  P  P8  1  0.694461  0.173459  0.500000  1
  P  P9  1  0.826541  0.521002  0.500000  1
  P  P10  1  0.478998  0.305539  0.500000  1
  P  P11  1  0.173459  0.694461  0.500000  1
  P  P12  1  0.521002  0.826541  0.500000  1
  P  P13  1  0.305539  0.478998  0.500000  1
  P  P14  1  0.000000  0.370319  0.000000  1
  P  P15  1  0.629681  0.629681  0.000000  1
  P  P16  1  0.370319  0.000000  0.000000  1
  Ru  Ru17  1  0.000000  0.553578  0.000000  1
  Ru  Ru18  1  0.446422  0.446422  0.000000  1
  Ru  Ru19  1  0.553578  0.000000  0.000000  1
  Ru  Ru20  1  0.000000  0.717711  0.500000  1
  Ru  Ru21  1  0.282289  0.282289  0.500000  1
  Ru  Ru22  1  0.717711  0.000000  0.500000  1
  Ru  Ru23  1  0.808004  0.185761  0.000000  1
  Ru  Ru24  1  0.814239  0.622243  0.000000  1
  Ru  Ru25  1  0.377757  0.191996  0.000000  1
  Ru  Ru26  1  0.185761  0.808004  0.000000  1
  Ru  Ru27  1  0.622243  0.814239  0.000000  1
  Ru  Ru28  1  0.191996  0.377757  0.000000  1
  Ru  Ru29  1  0.870382  0.366521  0.500000  1
  Ru  Ru30  1  0.633479  0.503862  0.500000  1
  Ru  Ru31  1  0.496138  0.129618  0.500000  1
  Ru  Ru32  1  0.366521  0.870382  0.500000  1
  Ru  Ru33  1  0.503862  0.633479  0.500000  1
  Ru  Ru34  1  0.129618  0.496138  0.500000  1
  Ru  Ru35  1  0.000000  0.000000  0.000000  1
