# generated using pymatgen
data_Li2Pr2TlSi2
_symmetry_space_group_name_H-M   'P 1'
_cell_length_a   9.90491100
_cell_length_b   9.90491084
_cell_length_c   6.92877300
_cell_angle_alpha   90.00000000
_cell_angle_beta   90.00000000
_cell_angle_gamma   153.28688491
_symmetry_Int_Tables_number   1
_chemical_formula_structural   Li2Pr2TlSi2
_chemical_formula_sum   'Li4 Pr4 Tl2 Si4'
_cell_volume   305.56940148
_cell_formula_units_Z   2
loop_
 _symmetry_equiv_pos_site_id
 _symmetry_equiv_pos_as_xyz
  1  'x, y, z'
loop_
 _atom_site_type_symbol
 _atom_site_label
 _atom_site_symmetry_multiplicity
 _atom_site_fract_x
 _atom_site_fract_y
 _atom_site_fract_z
 _atom_site_occupancy
  Li  Li0  1  0.818535  0.181465  0.556204  1
  Li  Li1  1  0.181465  0.818535  0.443796  1
  Li  Li2  1  0.181465  0.818535  0.056204  1
  Li  Li3  1  0.818535  0.181465  0.943796  1
  Pr  Pr4  1  0.546183  0.453817  0.250000  1
  Pr  Pr5  1  0.453817  0.546183  0.750000  1
  Pr  Pr6  1  0.352480  0.647520  0.250000  1
  Pr  Pr7  1  0.647520  0.352480  0.750000  1
  Tl  Tl8  1  0.720076  0.279924  0.250000  1
  Tl  Tl9  1  0.279924  0.720076  0.750000  1
  Si  Si10  1  0.943221  0.056779  0.074643  1
  Si  Si11  1  0.056779  0.943221  0.925357  1
  Si  Si12  1  0.056779  0.943221  0.574643  1
  Si  Si13  1  0.943221  0.056779  0.425357  1
