# generated using pymatgen
data_SrPrCd2(Ir2O7)2
_symmetry_space_group_name_H-M   'P 1'
_cell_length_a   7.33553842
_cell_length_b   7.34924641
_cell_length_c   7.26588100
_cell_angle_alpha   60.37453693
_cell_angle_beta   60.31363177
_cell_angle_gamma   61.06963229
_symmetry_Int_Tables_number   1
_chemical_formula_structural   SrPrCd2(Ir2O7)2
_chemical_formula_sum   'Sr1 Pr1 Cd2 Ir4 O14'
_cell_volume   280.61573108
_cell_formula_units_Z   1
loop_
 _symmetry_equiv_pos_site_id
 _symmetry_equiv_pos_as_xyz
  1  'x, y, z'
loop_
 _atom_site_type_symbol
 _atom_site_label
 _atom_site_symmetry_multiplicity
 _atom_site_fract_x
 _atom_site_fract_y
 _atom_site_fract_z
 _atom_site_occupancy
  Sr  Sr0  1  0.625000  0.125000  0.125000  1
  Pr  Pr1  1  0.125000  0.625000  0.125000  1
  Cd  Cd2  1  0.125000  0.125000  0.625000  1
  Cd  Cd3  1  0.125000  0.125000  0.125000  1
  Ir  Ir4  1  0.625000  0.625000  0.625000  1
  Ir  Ir5  1  0.125000  0.625000  0.625000  1
  Ir  Ir6  1  0.625000  0.125000  0.625000  1
  Ir  Ir7  1  0.625000  0.625000  0.125000  1
  O  O8  1  0.949127  0.552087  0.548984  1
  O  O9  1  0.305951  0.306954  0.693548  1
  O  O10  1  0.949127  0.552087  0.949802  1
  O  O11  1  0.699963  0.304819  0.302419  1
  O  O12  1  0.540257  0.550301  0.954721  1
  O  O13  1  0.550037  0.945181  0.557202  1
  O  O14  1  0.550037  0.945181  0.947581  1
  O  O15  1  0.226655  0.242051  0.265647  1
  O  O16  1  0.300873  0.697913  0.701016  1
  O  O17  1  0.699963  0.304819  0.692798  1
  O  O18  1  0.023345  0.007949  0.984353  1
  O  O19  1  0.944049  0.943046  0.556452  1
  O  O20  1  0.300873  0.697913  0.300198  1
  O  O21  1  0.709743  0.699699  0.295279  1
