# generated using pymatgen
data_LaYb3Al3Os5
_symmetry_space_group_name_H-M   'P 1'
_cell_length_a   5.34033838
_cell_length_b   5.40449874
_cell_length_c   8.72761800
_cell_angle_alpha   90.00000000
_cell_angle_beta   90.26790078
_cell_angle_gamma   120.39820873
_symmetry_Int_Tables_number   1
_chemical_formula_structural   LaYb3Al3Os5
_chemical_formula_sum   'La1 Yb3 Al3 Os5'
_cell_volume   217.26386242
_cell_formula_units_Z   1
loop_
 _symmetry_equiv_pos_site_id
 _symmetry_equiv_pos_as_xyz
  1  'x, y, z'
loop_
 _atom_site_type_symbol
 _atom_site_label
 _atom_site_symmetry_multiplicity
 _atom_site_fract_x
 _atom_site_fract_y
 _atom_site_fract_z
 _atom_site_occupancy
  La  La0  1  0.332422  0.666211  0.065927  1
  Yb  Yb1  1  0.333011  0.666506  0.437872  1
  Yb  Yb2  1  0.667325  0.333662  0.556962  1
  Yb  Yb3  1  0.668589  0.334294  0.941033  1
  Al  Al4  1  0.186592  0.338396  0.746571  1
  Al  Al5  1  0.186592  0.848196  0.746571  1
  Al  Al6  1  0.329676  0.164838  0.252085  1
  Os  Os7  1  0.836364  0.654292  0.253613  1
  Os  Os8  1  0.677334  0.838667  0.745352  1
  Os  Os9  1  0.972162  0.986081  0.995735  1
  Os  Os10  1  0.836364  0.182073  0.253613  1
  Os  Os11  1  0.973568  0.986785  0.504669  1
