# generated using pymatgen
data_La4Al19Rh5
_symmetry_space_group_name_H-M   'P 1'
_cell_length_a   7.69980541
_cell_length_b   7.69980524
_cell_length_c   9.69892235
_cell_angle_alpha   89.66270890
_cell_angle_beta   89.66272064
_cell_angle_gamma   118.98759986
_symmetry_Int_Tables_number   1
_chemical_formula_structural   La4Al19Rh5
_chemical_formula_sum   'La4 Al19 Rh5'
_cell_volume   502.95035020
_cell_formula_units_Z   1
loop_
 _symmetry_equiv_pos_site_id
 _symmetry_equiv_pos_as_xyz
  1  'x, y, z'
loop_
 _atom_site_type_symbol
 _atom_site_label
 _atom_site_symmetry_multiplicity
 _atom_site_fract_x
 _atom_site_fract_y
 _atom_site_fract_z
 _atom_site_occupancy
  La  La0  1  0.996063  0.680349  0.246638  1
  La  La1  1  0.003937  0.319651  0.753362  1
  La  La2  1  0.680349  0.996063  0.246638  1
  La  La3  1  0.319651  0.003937  0.753362  1
  Al  Al4  1  0.144129  0.144129  0.263639  1
  Al  Al5  1  0.855871  0.855871  0.736361  1
  Al  Al6  1  0.009475  0.351188  0.078794  1
  Al  Al7  1  0.990525  0.648812  0.921206  1
  Al  Al8  1  0.998930  0.662659  0.568416  1
  Al  Al9  1  0.337341  0.001070  0.431584  1
  Al  Al10  1  0.001070  0.337341  0.431584  1
  Al  Al11  1  0.662659  0.998930  0.568416  1
  Al  Al12  1  0.648812  0.990525  0.921206  1
  Al  Al13  1  0.351188  0.009475  0.078794  1
  Al  Al14  1  0.333981  0.333981  0.540362  1
  Al  Al15  1  0.666019  0.666019  0.459638  1
  Al  Al16  1  0.651469  0.651469  0.056009  1
  Al  Al17  1  0.348531  0.348531  0.943991  1
  Al  Al18  1  0.340539  0.550072  0.253148  1
  Al  Al19  1  0.659461  0.449928  0.746852  1
  Al  Al20  1  0.550072  0.340539  0.253148  1
  Al  Al21  1  0.449928  0.659461  0.746852  1
  Al  Al22  1  0.000000  0.000000  0.000000  1
  Rh  Rh23  1  0.671177  0.328823  0.000000  1
  Rh  Rh24  1  0.328823  0.671177  0.000000  1
  Rh  Rh25  1  0.329508  0.670492  0.500000  1
  Rh  Rh26  1  0.670492  0.329508  0.500000  1
  Rh  Rh27  1  0.000000  0.000000  0.500000  1
