# generated using pymatgen
data_AcCe2Zn11
_symmetry_space_group_name_H-M   'P 1'
_cell_length_a   4.56484911
_cell_length_b   8.37581639
_cell_length_c   8.37581636
_cell_angle_alpha   107.50374477
_cell_angle_beta   105.81318409
_cell_angle_gamma   105.81318409
_symmetry_Int_Tables_number   1
_chemical_formula_structural   AcCe2Zn11
_chemical_formula_sum   'Ac1 Ce2 Zn11'
_cell_volume   271.04732827
_cell_formula_units_Z   1
loop_
 _symmetry_equiv_pos_site_id
 _symmetry_equiv_pos_as_xyz
  1  'x, y, z'
loop_
 _atom_site_type_symbol
 _atom_site_label
 _atom_site_symmetry_multiplicity
 _atom_site_fract_x
 _atom_site_fract_y
 _atom_site_fract_z
 _atom_site_occupancy
  Ac  Ac0  1  0.000000  0.000000  0.000000  1
  Ce  Ce1  1  0.000001  0.704154  0.295846  1
  Ce  Ce2  1  0.000001  0.295846  0.704154  1
  Zn  Zn3  1  0.355448  0.694593  0.016302  1
  Zn  Zn4  1  0.290633  0.434678  0.146587  1
  Zn  Zn5  1  0.644554  0.983699  0.305407  1
  Zn  Zn6  1  0.822477  0.322477  0.322477  1
  Zn  Zn7  1  0.290633  0.146587  0.434678  1
  Zn  Zn8  1  0.500000  0.500000  0.500000  1
  Zn  Zn9  1  0.709368  0.853413  0.565322  1
  Zn  Zn10  1  0.177524  0.677523  0.677523  1
  Zn  Zn11  1  0.355448  0.016302  0.694593  1
  Zn  Zn12  1  0.709368  0.565322  0.853413  1
  Zn  Zn13  1  0.644554  0.305407  0.983699  1
