# generated using pymatgen
data_Tb2DyAl5Ga4
_symmetry_space_group_name_H-M   'P 1'
_cell_length_a   7.83343853
_cell_length_b   7.84451036
_cell_length_c   7.84450926
_cell_angle_alpha   46.73889243
_cell_angle_beta   46.86383395
_cell_angle_gamma   46.86385643
_symmetry_Int_Tables_number   1
_chemical_formula_structural   Tb2DyAl5Ga4
_chemical_formula_sum   'Tb2 Dy1 Al5 Ga4'
_cell_volume   234.23103472
_cell_formula_units_Z   1
loop_
 _symmetry_equiv_pos_site_id
 _symmetry_equiv_pos_as_xyz
  1  'x, y, z'
loop_
 _atom_site_type_symbol
 _atom_site_label
 _atom_site_symmetry_multiplicity
 _atom_site_fract_x
 _atom_site_fract_y
 _atom_site_fract_z
 _atom_site_occupancy
  Tb  Tb0  1  0.213551  0.217904  0.217904  1
  Tb  Tb1  1  0.996745  0.998278  0.998278  1
  Dy  Dy2  1  0.787292  0.784533  0.784533  1
  Al  Al3  1  0.499217  0.502393  0.999755  1
  Al  Al4  1  0.499217  0.999755  0.502393  1
  Al  Al5  1  0.999964  0.501520  0.501520  1
  Al  Al6  1  0.301563  0.294777  0.731096  1
  Al  Al7  1  0.301563  0.731096  0.294777  1
  Ga  Ga8  1  0.699054  0.704343  0.269886  1
  Ga  Ga9  1  0.267086  0.701516  0.701516  1
  Ga  Ga10  1  0.699054  0.269886  0.704343  1
  Ga  Ga11  1  0.735691  0.293998  0.293998  1
