# generated using pymatgen
data_AlGa5(FeRh2)6
_symmetry_space_group_name_H-M   'P 1'
_cell_length_a   4.27663900
_cell_length_b   6.04637300
_cell_length_c   12.83830500
_cell_angle_alpha   89.99997714
_cell_angle_beta   89.99908928
_cell_angle_gamma   89.99994478
_symmetry_Int_Tables_number   1
_chemical_formula_structural   AlGa5(FeRh2)6
_chemical_formula_sum   'Al1 Ga5 Fe6 Rh12'
_cell_volume   331.97487522
_cell_formula_units_Z   1
loop_
 _symmetry_equiv_pos_site_id
 _symmetry_equiv_pos_as_xyz
  1  'x, y, z'
loop_
 _atom_site_type_symbol
 _atom_site_label
 _atom_site_symmetry_multiplicity
 _atom_site_fract_x
 _atom_site_fract_y
 _atom_site_fract_z
 _atom_site_occupancy
  Al  Al0  1  0.500216  0.500001  0.833366  1
  Ga  Ga1  1  0.000001  0.000000  0.000023  1
  Ga  Ga2  1  0.499763  0.500001  0.166643  1
  Ga  Ga3  1  0.999809  0.000000  0.333357  1
  Ga  Ga4  1  0.500000  0.500001  0.499996  1
  Ga  Ga5  1  0.000193  0.000000  0.666621  1
  Fe  Fe6  1  0.000003  0.500001  0.999722  1
  Fe  Fe7  1  0.499561  0.000000  0.166792  1
  Fe  Fe8  1  0.999563  0.500001  0.333325  1
  Fe  Fe9  1  0.500002  0.000000  0.499884  1
  Fe  Fe10  1  0.000440  0.500001  0.666954  1
  Fe  Fe11  1  0.500437  0.000000  0.833325  1
  Rh  Rh12  1  0.500002  0.250706  0.999583  1
  Rh  Rh13  1  0.500002  0.749293  0.999583  1
  Rh  Rh14  1  0.999536  0.249940  0.166640  1
  Rh  Rh15  1  0.999535  0.750062  0.166640  1
  Rh  Rh16  1  0.499548  0.250066  0.333346  1
  Rh  Rh17  1  0.499548  0.749934  0.333346  1
  Rh  Rh18  1  0.000002  0.249896  0.500038  1
  Rh  Rh19  1  0.000002  0.750106  0.500038  1
  Rh  Rh20  1  0.500449  0.250675  0.667064  1
  Rh  Rh21  1  0.500449  0.749326  0.667064  1
  Rh  Rh22  1  0.000470  0.251100  0.833325  1
  Rh  Rh23  1  0.000470  0.748902  0.833325  1
