# generated using pymatgen
data_NdZnCuAgPt2
_symmetry_space_group_name_H-M   'P 1'
_cell_length_a   5.24594731
_cell_length_b   5.31368355
_cell_length_c   5.31368361
_cell_angle_alpha   63.07974266
_cell_angle_beta   59.45818347
_cell_angle_gamma   59.45818478
_symmetry_Int_Tables_number   1
_chemical_formula_structural   NdZnCuAgPt2
_chemical_formula_sum   'Nd1 Zn1 Cu1 Ag1 Pt2'
_cell_volume   106.02581906
_cell_formula_units_Z   1
loop_
 _symmetry_equiv_pos_site_id
 _symmetry_equiv_pos_as_xyz
  1  'x, y, z'
loop_
 _atom_site_type_symbol
 _atom_site_label
 _atom_site_symmetry_multiplicity
 _atom_site_fract_x
 _atom_site_fract_y
 _atom_site_fract_z
 _atom_site_occupancy
  Nd  Nd0  1  0.990774  0.006055  0.006055  1
  Zn  Zn1  1  0.131487  0.617345  0.617345  1
  Cu  Cu2  1  0.632540  0.619129  0.619129  1
  Ag  Ag3  1  0.237726  0.260450  0.260450  1
  Pt  Pt4  1  0.628736  0.623326  0.123698  1
  Pt  Pt5  1  0.628736  0.123698  0.623326  1
