# generated using pymatgen
data_Dy3Lu9(Si3Os)4
_symmetry_space_group_name_H-M   'P 1'
_cell_length_a   4.17269000
_cell_length_b   10.85885345
_cell_length_c   12.24322900
_cell_angle_alpha   89.90982081
_cell_angle_beta   90.00000000
_cell_angle_gamma   90.00000000
_symmetry_Int_Tables_number   1
_chemical_formula_structural   Dy3Lu9(Si3Os)4
_chemical_formula_sum   'Dy3 Lu9 Si12 Os4'
_cell_volume   554.74772233
_cell_formula_units_Z   1
loop_
 _symmetry_equiv_pos_site_id
 _symmetry_equiv_pos_as_xyz
  1  'x, y, z'
loop_
 _atom_site_type_symbol
 _atom_site_label
 _atom_site_symmetry_multiplicity
 _atom_site_fract_x
 _atom_site_fract_y
 _atom_site_fract_z
 _atom_site_occupancy
  Dy  Dy0  1  0.250000  0.842246  0.300335  1
  Dy  Dy1  1  0.750000  0.343102  0.199447  1
  Dy  Dy2  1  0.750000  0.156826  0.699422  1
  Lu  Lu3  1  0.250000  0.878667  0.019046  1
  Lu  Lu4  1  0.250000  0.620072  0.520878  1
  Lu  Lu5  1  0.750000  0.119786  0.979971  1
  Lu  Lu6  1  0.750000  0.380822  0.480869  1
  Lu  Lu7  1  0.250000  0.916699  0.607598  1
  Lu  Lu8  1  0.250000  0.581509  0.106028  1
  Lu  Lu9  1  0.750000  0.082551  0.393281  1
  Lu  Lu10  1  0.750000  0.418757  0.892643  1
  Lu  Lu11  1  0.250000  0.658691  0.799879  1
  Si  Si12  1  0.250000  0.008681  0.821636  1
  Si  Si13  1  0.250000  0.491475  0.321943  1
  Si  Si14  1  0.750000  0.991056  0.178415  1
  Si  Si15  1  0.750000  0.511282  0.678904  1
  Si  Si16  1  0.250000  0.248973  0.840451  1
  Si  Si17  1  0.250000  0.251443  0.340506  1
  Si  Si18  1  0.750000  0.750185  0.158660  1
  Si  Si19  1  0.750000  0.747695  0.660667  1
  Si  Si20  1  0.250000  0.203437  0.542980  1
  Si  Si21  1  0.250000  0.297241  0.042242  1
  Si  Si22  1  0.750000  0.797229  0.457848  1
  Si  Si23  1  0.750000  0.700412  0.954865  1
  Os  Os24  1  0.250000  0.391201  0.680204  1
  Os  Os25  1  0.250000  0.111028  0.178967  1
  Os  Os26  1  0.750000  0.611224  0.321251  1
  Os  Os27  1  0.750000  0.887707  0.821067  1
