# generated using pymatgen
data_RbV2(SeO3)4
_symmetry_space_group_name_H-M   'P 1'
_cell_length_a   5.33721000
_cell_length_b   10.47530469
_cell_length_c   14.26725237
_cell_angle_alpha   48.41091754
_cell_angle_beta   90.00000000
_cell_angle_gamma   90.00000000
_symmetry_Int_Tables_number   1
_chemical_formula_structural   RbV2(SeO3)4
_chemical_formula_sum   'Rb2 V4 Se8 O24'
_cell_volume   596.59431176
_cell_formula_units_Z   2
loop_
 _symmetry_equiv_pos_site_id
 _symmetry_equiv_pos_as_xyz
  1  'x, y, z'
loop_
 _atom_site_type_symbol
 _atom_site_label
 _atom_site_symmetry_multiplicity
 _atom_site_fract_x
 _atom_site_fract_y
 _atom_site_fract_z
 _atom_site_occupancy
  Rb  Rb0  1  0.061283  0.000000  0.750000  1
  Rb  Rb1  1  0.938717  0.000000  0.250000  1
  V  V2  1  0.000000  0.500000  0.500000  1
  V  V3  1  0.500000  0.000000  0.000000  1
  V  V4  1  0.500000  0.000000  0.500000  1
  V  V5  1  0.000000  0.500000  0.000000  1
  Se  Se6  1  0.493045  0.346538  0.183334  1
  Se  Se7  1  0.007365  0.745630  0.596917  1
  Se  Se8  1  0.007365  0.254370  0.903083  1
  Se  Se9  1  0.992635  0.254370  0.403083  1
  Se  Se10  1  0.506955  0.346538  0.683334  1
  Se  Se11  1  0.506955  0.653462  0.816666  1
  Se  Se12  1  0.493045  0.653462  0.316666  1
  Se  Se13  1  0.992635  0.745630  0.096917  1
  O  O14  1  0.213688  0.693858  0.352732  1
  O  O15  1  0.295288  0.815682  0.033493  1
  O  O16  1  0.786312  0.693858  0.852732  1
  O  O17  1  0.807637  0.912920  0.974310  1
  O  O18  1  0.704712  0.815682  0.533493  1
  O  O19  1  0.307682  0.349607  0.588061  1
  O  O20  1  0.192363  0.087080  0.025690  1
  O  O21  1  0.692318  0.349607  0.088061  1
  O  O22  1  0.786312  0.306142  0.647268  1
  O  O23  1  0.569603  0.136943  0.324863  1
  O  O24  1  0.692318  0.650393  0.411939  1
  O  O25  1  0.295288  0.184318  0.466507  1
  O  O26  1  0.569603  0.863057  0.175137  1
  O  O27  1  0.807637  0.087080  0.525690  1
  O  O28  1  0.430397  0.136943  0.824863  1
  O  O29  1  0.049462  0.413022  0.906566  1
  O  O30  1  0.704712  0.184318  0.966507  1
  O  O31  1  0.950538  0.413022  0.406566  1
  O  O32  1  0.049462  0.586978  0.593434  1
  O  O33  1  0.430397  0.863057  0.675137  1
  O  O34  1  0.307682  0.650393  0.911939  1
  O  O35  1  0.192363  0.912920  0.474310  1
  O  O36  1  0.950538  0.586978  0.093434  1
  O  O37  1  0.213688  0.306142  0.147268  1
