# generated using pymatgen
data_Tb15ThTl3InIr4
_symmetry_space_group_name_H-M   'P 1'
_cell_length_a   9.75263964
_cell_length_b   9.75775631
_cell_length_c   9.76229313
_cell_angle_alpha   60.08458602
_cell_angle_beta   60.03269729
_cell_angle_gamma   60.01733898
_symmetry_Int_Tables_number   1
_chemical_formula_structural   Tb15ThTl3InIr4
_chemical_formula_sum   'Tb15 Th1 Tl3 In1 Ir4'
_cell_volume   657.58238024
_cell_formula_units_Z   1
loop_
 _symmetry_equiv_pos_site_id
 _symmetry_equiv_pos_as_xyz
  1  'x, y, z'
loop_
 _atom_site_type_symbol
 _atom_site_label
 _atom_site_symmetry_multiplicity
 _atom_site_fract_x
 _atom_site_fract_y
 _atom_site_fract_z
 _atom_site_occupancy
  Tb  Tb0  1  0.940553  0.939019  0.559988  1
  Tb  Tb1  1  0.940254  0.559066  0.937981  1
  Tb  Tb2  1  0.310159  0.689666  0.310442  1
  Tb  Tb3  1  0.938934  0.560221  0.561910  1
  Tb  Tb4  1  0.310286  0.307971  0.692003  1
  Tb  Tb5  1  0.098837  0.100568  0.098995  1
  Tb  Tb6  1  0.562699  0.559066  0.937981  1
  Tb  Tb7  1  0.099377  0.101428  0.699819  1
  Tb  Tb8  1  0.689741  0.307971  0.692003  1
  Tb  Tb9  1  0.689733  0.689666  0.310442  1
  Tb  Tb10  1  0.690556  0.308421  0.310468  1
  Tb  Tb11  1  0.310353  0.688278  0.691016  1
  Tb  Tb12  1  0.560441  0.939019  0.559988  1
  Tb  Tb13  1  0.701601  0.100568  0.098995  1
  Tb  Tb14  1  0.560041  0.940271  0.939648  1
  Th  Th15  1  0.096259  0.710632  0.096851  1
  Tl  Tl16  1  0.335964  0.335595  0.334454  1
  Tl  Tl17  1  0.993987  0.335595  0.334454  1
  Tl  Tl18  1  0.335923  0.993473  0.334679  1
  In  In19  1  0.333607  0.334509  0.998277  1
  Ir  Ir20  1  0.892139  0.891826  0.892180  1
  Ir  Ir21  1  0.892547  0.891472  0.323433  1
  Ir  Ir22  1  0.323853  0.891826  0.892180  1
  Ir  Ir23  1  0.892157  0.323874  0.891813  1
