# generated using pymatgen
data_Dy9ScIn6
_symmetry_space_group_name_H-M   'P 1'
_cell_length_a   5.93134316
_cell_length_b   9.15044899
_cell_length_c   9.15044942
_cell_angle_alpha   83.97043752
_cell_angle_beta   71.08887066
_cell_angle_gamma   71.08887223
_symmetry_Int_Tables_number   1
_chemical_formula_structural   Dy9ScIn6
_chemical_formula_sum   'Dy9 Sc1 In6'
_cell_volume   444.46825109
_cell_formula_units_Z   1
loop_
 _symmetry_equiv_pos_site_id
 _symmetry_equiv_pos_as_xyz
  1  'x, y, z'
loop_
 _atom_site_type_symbol
 _atom_site_label
 _atom_site_symmetry_multiplicity
 _atom_site_fract_x
 _atom_site_fract_y
 _atom_site_fract_z
 _atom_site_occupancy
  Dy  Dy0  1  0.722003  0.862360  0.696459  1
  Dy  Dy1  1  0.280821  0.137640  0.303541  1
  Dy  Dy2  1  0.777997  0.303541  0.137640  1
  Dy  Dy3  1  0.219179  0.696459  0.862360  1
  Dy  Dy4  1  0.581538  0.696459  0.137640  1
  Dy  Dy5  1  0.415637  0.303541  0.862360  1
  Dy  Dy6  1  0.084363  0.137640  0.696459  1
  Dy  Dy7  1  0.918462  0.862360  0.303541  1
  Dy  Dy8  1  0.750000  0.500000  0.500000  1
  Sc  Sc9  1  0.250000  0.500000  0.500000  1
  In  In10  1  0.165629  0.500000  0.181005  1
  In  In11  1  0.846634  0.500000  0.818995  1
  In  In12  1  0.334371  0.818995  0.500000  1
  In  In13  1  0.653366  0.181005  0.500000  1
  In  In14  1  0.250000  0.000000  0.000000  1
  In  In15  1  0.750000  0.000000  0.000000  1
