# generated using pymatgen
data_Yb2Y(B3Ir4)2
_symmetry_space_group_name_H-M   'P 1'
_cell_length_a   9.92627355
_cell_length_b   9.07819758
_cell_length_c   5.60947194
_cell_angle_alpha   81.33224056
_cell_angle_beta   64.70463121
_cell_angle_gamma   33.96312204
_symmetry_Int_Tables_number   1
_chemical_formula_structural   Yb2Y(B3Ir4)2
_chemical_formula_sum   'Yb2 Y1 B6 Ir8'
_cell_volume   233.63665051
_cell_formula_units_Z   1
loop_
 _symmetry_equiv_pos_site_id
 _symmetry_equiv_pos_as_xyz
  1  'x, y, z'
loop_
 _atom_site_type_symbol
 _atom_site_label
 _atom_site_symmetry_multiplicity
 _atom_site_fract_x
 _atom_site_fract_y
 _atom_site_fract_z
 _atom_site_occupancy
  Yb  Yb0  1  0.180448  0.180448  0.819552  1
  Yb  Yb1  1  0.819552  0.819552  0.180448  1
  Y  Y2  1  0.000000  0.000000  0.000000  1
  B  B3  1  0.827639  0.519691  0.480309  1
  B  B4  1  0.172361  0.480309  0.519691  1
  B  B5  1  0.480309  0.172361  0.827639  1
  B  B6  1  0.669426  0.330574  0.669426  1
  B  B7  1  0.519691  0.827639  0.172361  1
  B  B8  1  0.330574  0.669426  0.330574  1
  Ir  Ir9  1  0.413626  0.413626  0.586374  1
  Ir  Ir10  1  0.585671  0.585671  0.914329  1
  Ir  Ir11  1  0.085671  0.085671  0.414329  1
  Ir  Ir12  1  0.914329  0.914329  0.585671  1
  Ir  Ir13  1  0.586374  0.586374  0.413626  1
  Ir  Ir14  1  0.250000  0.250000  0.250000  1
  Ir  Ir15  1  0.414329  0.414329  0.085671  1
  Ir  Ir16  1  0.750000  0.750000  0.750000  1
