# generated using pymatgen
data_LiMnAg3GeO6
_symmetry_space_group_name_H-M   'P 1'
_cell_length_a   5.17337847
_cell_length_b   5.17337795
_cell_length_c   6.47846309
_cell_angle_alpha   82.36333077
_cell_angle_beta   82.36333439
_cell_angle_gamma   119.94932398
_symmetry_Int_Tables_number   1
_chemical_formula_structural   LiMnAg3GeO6
_chemical_formula_sum   'Li1 Mn1 Ag3 Ge1 O6'
_cell_volume   144.84046765
_cell_formula_units_Z   1
loop_
 _symmetry_equiv_pos_site_id
 _symmetry_equiv_pos_as_xyz
  1  'x, y, z'
loop_
 _atom_site_type_symbol
 _atom_site_label
 _atom_site_symmetry_multiplicity
 _atom_site_fract_x
 _atom_site_fract_y
 _atom_site_fract_z
 _atom_site_occupancy
  Li  Li0  1  0.500006  0.499994  0.000000  1
  Mn  Mn1  1  0.166687  0.833313  0.000000  1
  Ag  Ag2  1  0.669436  0.330564  0.500000  1
  Ag  Ag3  1  0.999770  0.000230  0.500000  1
  Ag  Ag4  1  0.330759  0.669241  0.500000  1
  Ge  Ge5  1  0.833254  0.166746  0.000000  1
  O  O6  1  0.555893  0.194373  0.838920  1
  O  O7  1  0.082147  0.085063  0.162058  1
  O  O8  1  0.914937  0.917853  0.837942  1
  O  O9  1  0.805627  0.444107  0.161080  1
  O  O10  1  0.450016  0.808531  0.161141  1
  O  O11  1  0.191469  0.549984  0.838859  1
