# generated using pymatgen
data_YbTm(Co3Si2)2
_symmetry_space_group_name_H-M   'P 1'
_cell_length_a   6.23799904
_cell_length_b   6.23799846
_cell_length_c   6.23799841
_cell_angle_alpha   130.31780429
_cell_angle_beta   113.94887290
_cell_angle_gamma   86.96488587
_symmetry_Int_Tables_number   1
_chemical_formula_structural   YbTm(Co3Si2)2
_chemical_formula_sum   'Yb1 Tm1 Co6 Si4'
_cell_volume   161.30475697
_cell_formula_units_Z   1
loop_
 _symmetry_equiv_pos_site_id
 _symmetry_equiv_pos_as_xyz
  1  'x, y, z'
loop_
 _atom_site_type_symbol
 _atom_site_label
 _atom_site_symmetry_multiplicity
 _atom_site_fract_x
 _atom_site_fract_y
 _atom_site_fract_z
 _atom_site_occupancy
  Yb  Yb0  1  0.250000  0.535274  0.285274  1
  Tm  Tm1  1  0.750000  0.461220  0.711220  1
  Co  Co2  1  0.998629  0.000437  0.499067  1
  Co  Co3  1  0.501371  0.000437  0.001808  1
  Co  Co4  1  0.719919  0.001283  0.720088  1
  Co  Co5  1  0.218804  0.500170  0.720088  1
  Co  Co6  1  0.281196  0.001283  0.281365  1
  Co  Co7  1  0.780081  0.500170  0.281365  1
  Si  Si8  1  0.080642  0.879938  0.799296  1
  Si  Si9  1  0.920738  0.121304  0.200566  1
  Si  Si10  1  0.579262  0.779830  0.200566  1
  Si  Si11  1  0.419358  0.218653  0.799296  1
