# generated using pymatgen
data_Ho5Er11(In3Pd)2
_symmetry_space_group_name_H-M   'P 1'
_cell_length_a   10.44405416
_cell_length_b   10.44538115
_cell_length_c   6.90252426
_cell_angle_alpha   89.97530693
_cell_angle_beta   89.99499013
_cell_angle_gamma   120.01140588
_symmetry_Int_Tables_number   1
_chemical_formula_structural   Ho5Er11(In3Pd)2
_chemical_formula_sum   'Ho5 Er11 In6 Pd2'
_cell_volume   652.05163339
_cell_formula_units_Z   1
loop_
 _symmetry_equiv_pos_site_id
 _symmetry_equiv_pos_as_xyz
  1  'x, y, z'
loop_
 _atom_site_type_symbol
 _atom_site_label
 _atom_site_symmetry_multiplicity
 _atom_site_fract_x
 _atom_site_fract_y
 _atom_site_fract_z
 _atom_site_occupancy
  Ho  Ho0  1  0.527779  0.055863  0.795305  1
  Ho  Ho1  1  0.944063  0.472134  0.795014  1
  Ho  Ho2  1  0.527869  0.472077  0.795627  1
  Ho  Ho3  1  0.472180  0.944180  0.295368  1
  Ho  Ho4  1  0.055819  0.527865  0.295094  1
  Er  Er5  1  0.472006  0.528494  0.295544  1
  Er  Er6  1  0.825274  0.650876  0.504173  1
  Er  Er7  1  0.349620  0.174951  0.504220  1
  Er  Er8  1  0.825715  0.174454  0.503976  1
  Er  Er9  1  0.174672  0.349251  0.004396  1
  Er  Er10  1  0.650626  0.825419  0.004663  1
  Er  Er11  1  0.174525  0.825503  0.004224  1
  Er  Er12  1  0.666554  0.333692  0.165822  1
  Er  Er13  1  0.333323  0.666627  0.665578  1
  Er  Er14  1  0.000029  0.000019  0.777056  1
  Er  Er15  1  0.000014  0.000158  0.277324  1
  In  In16  1  0.837025  0.673384  0.036549  1
  In  In17  1  0.326192  0.162956  0.036960  1
  In  In18  1  0.836761  0.163336  0.036988  1
  In  In19  1  0.163175  0.326522  0.536871  1
  In  In20  1  0.673454  0.836728  0.536654  1
  In  In21  1  0.163077  0.836271  0.536845  1
  Pd  Pd22  1  0.667009  0.332612  0.565343  1
  Pd  Pd23  1  0.333237  0.666626  0.066313  1
