# generated using pymatgen
data_Hf18Ta2Re6GeRu
_symmetry_space_group_name_H-M   'P 1'
_cell_length_a   8.68940200
_cell_length_b   8.68940261
_cell_length_c   8.59111300
_cell_angle_alpha   90.00000000
_cell_angle_beta   90.00000000
_cell_angle_gamma   120.00000530
_symmetry_Int_Tables_number   1
_chemical_formula_structural   Hf18Ta2Re6GeRu
_chemical_formula_sum   'Hf18 Ta2 Re6 Ge1 Ru1'
_cell_volume   561.77168984
_cell_formula_units_Z   1
loop_
 _symmetry_equiv_pos_site_id
 _symmetry_equiv_pos_as_xyz
  1  'x, y, z'
loop_
 _atom_site_type_symbol
 _atom_site_label
 _atom_site_symmetry_multiplicity
 _atom_site_fract_x
 _atom_site_fract_y
 _atom_site_fract_z
 _atom_site_occupancy
  Hf  Hf0  1  0.195170  0.804830  0.454244  1
  Hf  Hf1  1  0.195170  0.390341  0.454244  1
  Hf  Hf2  1  0.609659  0.804830  0.454244  1
  Hf  Hf3  1  0.800014  0.199986  0.552599  1
  Hf  Hf4  1  0.800014  0.600028  0.552599  1
  Hf  Hf5  1  0.399972  0.199986  0.552599  1
  Hf  Hf6  1  0.800014  0.199986  0.947401  1
  Hf  Hf7  1  0.800014  0.600028  0.947401  1
  Hf  Hf8  1  0.399972  0.199986  0.947401  1
  Hf  Hf9  1  0.195170  0.804830  0.045756  1
  Hf  Hf10  1  0.195170  0.390341  0.045756  1
  Hf  Hf11  1  0.609659  0.804830  0.045756  1
  Hf  Hf12  1  0.539777  0.460223  0.250000  1
  Hf  Hf13  1  0.539777  0.079554  0.250000  1
  Hf  Hf14  1  0.920446  0.460223  0.250000  1
  Hf  Hf15  1  0.459228  0.540772  0.750000  1
  Hf  Hf16  1  0.459228  0.918456  0.750000  1
  Hf  Hf17  1  0.081544  0.540772  0.750000  1
  Ta  Ta18  1  0.000000  0.000000  0.499854  1
  Ta  Ta19  1  0.000000  0.000000  0.000146  1
  Re  Re20  1  0.886634  0.113366  0.250000  1
  Re  Re21  1  0.886634  0.773268  0.250000  1
  Re  Re22  1  0.226732  0.113366  0.250000  1
  Re  Re23  1  0.113869  0.886131  0.750000  1
  Re  Re24  1  0.113869  0.227738  0.750000  1
  Re  Re25  1  0.772262  0.886131  0.750000  1
  Ge  Ge26  1  0.333333  0.666667  0.250000  1
  Ru  Ru27  1  0.666667  0.333333  0.750000  1
