# generated using pymatgen
data_Hf6Fe3Co13(MoP6)2
_symmetry_space_group_name_H-M   'P 1'
_cell_length_a   11.94109800
_cell_length_b   11.92502206
_cell_length_c   3.66973000
_cell_angle_alpha   90.00000000
_cell_angle_beta   90.00000000
_cell_angle_gamma   119.97271087
_symmetry_Int_Tables_number   1
_chemical_formula_structural   Hf6Fe3Co13(MoP6)2
_chemical_formula_sum   'Hf6 Fe3 Co13 Mo2 P12'
_cell_volume   452.67608982
_cell_formula_units_Z   1
loop_
 _symmetry_equiv_pos_site_id
 _symmetry_equiv_pos_as_xyz
  1  'x, y, z'
loop_
 _atom_site_type_symbol
 _atom_site_label
 _atom_site_symmetry_multiplicity
 _atom_site_fract_x
 _atom_site_fract_y
 _atom_site_fract_z
 _atom_site_occupancy
  Hf  Hf0  1  0.820896  0.819997  0.500000  1
  Hf  Hf1  1  0.001525  0.174692  0.500000  1
  Hf  Hf2  1  0.335178  0.667356  0.000000  1
  Hf  Hf3  1  0.664835  0.333097  0.000000  1
  Hf  Hf4  1  0.000198  0.555614  0.000000  1
  Hf  Hf5  1  0.177293  0.999522  0.500000  1
  Fe  Fe6  1  0.624733  0.823879  0.000000  1
  Fe  Fe7  1  0.000030  0.720539  0.500000  1
  Fe  Fe8  1  0.280908  0.280097  0.500000  1
  Co  Co9  1  0.374907  0.196592  0.000000  1
  Co  Co10  1  0.868646  0.350235  0.500000  1
  Co  Co11  1  0.720866  0.001130  0.500000  1
  Co  Co12  1  0.817075  0.626551  0.000000  1
  Co  Co13  1  0.182611  0.809350  0.000000  1
  Co  Co14  1  0.357748  0.874035  0.500000  1
  Co  Co15  1  0.130500  0.480566  0.500000  1
  Co  Co16  1  0.643243  0.516515  0.500000  1
  Co  Co17  1  0.000199  0.000247  0.000000  1
  Co  Co18  1  0.513567  0.645249  0.500000  1
  Co  Co19  1  0.484776  0.131744  0.500000  1
  Co  Co20  1  0.195532  0.371138  0.000000  1
  Co  Co21  1  0.804332  0.175436  0.000000  1
  Mo  Mo22  1  0.448980  0.450149  0.000000  1
  Mo  Mo23  1  0.552212  0.002293  0.000000  1
  P  P24  1  0.000111  0.344941  0.000000  1
  P  P25  1  0.826785  0.517603  0.500000  1
  P  P26  1  0.684836  0.166767  0.500000  1
  P  P27  1  0.177743  0.175367  0.000000  1
  P  P28  1  0.642290  0.647619  0.000000  1
  P  P29  1  0.822375  0.996043  0.000000  1
  P  P30  1  0.519324  0.832796  0.500000  1
  P  P31  1  0.173636  0.690953  0.500000  1
  P  P32  1  0.357260  0.003307  0.000000  1
  P  P33  1  0.481019  0.315190  0.500000  1
  P  P34  1  0.999600  0.823584  0.000000  1
  P  P35  1  0.314231  0.479809  0.500000  1
