# generated using pymatgen
data_CsLiRhF6
_symmetry_space_group_name_H-M   'P 1'
_cell_length_a   11.14768000
_cell_length_b   5.99981149
_cell_length_c   9.63562500
_cell_angle_alpha   88.98280948
_cell_angle_beta   90.00000000
_cell_angle_gamma   90.00000000
_symmetry_Int_Tables_number   1
_chemical_formula_structural   CsLiRhF6
_chemical_formula_sum   'Cs4 Li4 Rh4 F24'
_cell_volume   644.36737614
_cell_formula_units_Z   4
loop_
 _symmetry_equiv_pos_site_id
 _symmetry_equiv_pos_as_xyz
  1  'x, y, z'
loop_
 _atom_site_type_symbol
 _atom_site_label
 _atom_site_symmetry_multiplicity
 _atom_site_fract_x
 _atom_site_fract_y
 _atom_site_fract_z
 _atom_site_occupancy
  Cs  Cs0  1  0.692120  0.302286  0.003980  1
  Cs  Cs1  1  0.192120  0.697714  0.496020  1
  Cs  Cs2  1  0.307880  0.697714  0.996020  1
  Cs  Cs3  1  0.807880  0.302286  0.503980  1
  Li  Li4  1  0.594968  0.758507  0.674534  1
  Li  Li5  1  0.094968  0.241493  0.825466  1
  Li  Li6  1  0.405032  0.241493  0.325466  1
  Li  Li7  1  0.905032  0.758507  0.174534  1
  Rh  Rh8  1  0.913212  0.775426  0.777609  1
  Rh  Rh9  1  0.413212  0.224574  0.722391  1
  Rh  Rh10  1  0.086788  0.224574  0.222391  1
  Rh  Rh11  1  0.586788  0.775426  0.277609  1
  F  F12  1  0.749538  0.643173  0.749870  1
  F  F13  1  0.249538  0.356827  0.750130  1
  F  F14  1  0.250462  0.356827  0.250130  1
  F  F15  1  0.750462  0.643173  0.249870  1
  F  F16  1  0.900172  0.715800  0.976824  1
  F  F17  1  0.400172  0.284200  0.523176  1
  F  F18  1  0.099828  0.284200  0.023176  1
  F  F19  1  0.599828  0.715800  0.476824  1
  F  F20  1  0.072451  0.922688  0.799833  1
  F  F21  1  0.572451  0.077312  0.700167  1
  F  F22  1  0.927549  0.077312  0.200167  1
  F  F23  1  0.427549  0.922688  0.299833  1
  F  F24  1  0.924130  0.820543  0.579907  1
  F  F25  1  0.424130  0.179457  0.920093  1
  F  F26  1  0.075870  0.179457  0.420093  1
  F  F27  1  0.575870  0.820543  0.079907  1
  F  F28  1  0.841647  0.063573  0.796906  1
  F  F29  1  0.341647  0.936427  0.703094  1
  F  F30  1  0.158353  0.936427  0.203094  1
  F  F31  1  0.658353  0.063573  0.296906  1
  F  F32  1  0.990272  0.483484  0.753084  1
  F  F33  1  0.490272  0.516516  0.746916  1
  F  F34  1  0.009728  0.516516  0.246916  1
  F  F35  1  0.509728  0.483484  0.253084  1
