# generated using pymatgen
data_PrSmCo2(B4Os3)2
_symmetry_space_group_name_H-M   'P 1'
_cell_length_a   7.36965097
_cell_length_b   7.57701152
_cell_length_c   3.97886800
_cell_angle_alpha   90.00000000
_cell_angle_beta   90.00000000
_cell_angle_gamma   88.07178077
_symmetry_Int_Tables_number   1
_chemical_formula_structural   PrSmCo2(B4Os3)2
_chemical_formula_sum   'Pr1 Sm1 Co2 B8 Os6'
_cell_volume   222.05390567
_cell_formula_units_Z   1
loop_
 _symmetry_equiv_pos_site_id
 _symmetry_equiv_pos_as_xyz
  1  'x, y, z'
loop_
 _atom_site_type_symbol
 _atom_site_label
 _atom_site_symmetry_multiplicity
 _atom_site_fract_x
 _atom_site_fract_y
 _atom_site_fract_z
 _atom_site_occupancy
  Pr  Pr0  1  0.000000  0.000000  0.029678  1
  Sm  Sm1  1  0.500000  0.500000  0.586984  1
  Co  Co2  1  0.612626  0.868650  0.882280  1
  Co  Co3  1  0.387374  0.131350  0.882280  1
  B  B4  1  0.335029  0.793421  0.882982  1
  B  B5  1  0.664971  0.206579  0.882982  1
  B  B6  1  0.311383  0.159647  0.382308  1
  B  B7  1  0.688617  0.840353  0.382308  1
  B  B8  1  0.165302  0.719199  0.603185  1
  B  B9  1  0.834698  0.280801  0.603185  1
  B  B10  1  0.227483  0.326933  0.101811  1
  B  B11  1  0.772517  0.673067  0.101811  1
  Os  Os12  1  0.847117  0.397820  0.104198  1
  Os  Os13  1  0.152883  0.602180  0.104198  1
  Os  Os14  1  0.887165  0.652139  0.603938  1
  Os  Os15  1  0.112835  0.347861  0.603938  1
  Os  Os16  1  0.629390  0.117849  0.380970  1
  Os  Os17  1  0.370610  0.882151  0.380970  1
