# generated using pymatgen
data_AcLa3(Sn2Ir)8
_symmetry_space_group_name_H-M   'P 1'
_cell_length_a   4.58320800
_cell_length_b   7.30919251
_cell_length_c   18.77887132
_cell_angle_alpha   89.95707502
_cell_angle_beta   90.00000000
_cell_angle_gamma   90.00000000
_symmetry_Int_Tables_number   1
_chemical_formula_structural   AcLa3(Sn2Ir)8
_chemical_formula_sum   'Ac1 La3 Sn16 Ir8'
_cell_volume   629.08355456
_cell_formula_units_Z   1
loop_
 _symmetry_equiv_pos_site_id
 _symmetry_equiv_pos_as_xyz
  1  'x, y, z'
loop_
 _atom_site_type_symbol
 _atom_site_label
 _atom_site_symmetry_multiplicity
 _atom_site_fract_x
 _atom_site_fract_y
 _atom_site_fract_z
 _atom_site_occupancy
  Ac  Ac0  1  0.250000  0.996974  0.857994  1
  La  La1  1  0.250000  0.502033  0.358047  1
  La  La2  1  0.750000  0.002319  0.142445  1
  La  La3  1  0.750000  0.497932  0.641713  1
  Sn  Sn4  1  0.250000  0.303600  0.182647  1
  Sn  Sn5  1  0.250000  0.196811  0.681547  1
  Sn  Sn6  1  0.750000  0.691719  0.816853  1
  Sn  Sn7  1  0.750000  0.803737  0.317620  1
  Sn  Sn8  1  0.250000  0.722104  0.194642  1
  Sn  Sn9  1  0.250000  0.777105  0.692900  1
  Sn  Sn10  1  0.750000  0.281385  0.804369  1
  Sn  Sn11  1  0.750000  0.222169  0.305641  1
  Sn  Sn12  1  0.250000  0.862641  0.032825  1
  Sn  Sn13  1  0.250000  0.635762  0.531303  1
  Sn  Sn14  1  0.750000  0.138739  0.970517  1
  Sn  Sn15  1  0.750000  0.364455  0.468647  1
  Sn  Sn16  1  0.250000  0.518709  0.932210  1
  Sn  Sn17  1  0.250000  0.980658  0.432073  1
  Sn  Sn18  1  0.750000  0.481418  0.068385  1
  Sn  Sn19  1  0.750000  0.019228  0.567673  1
  Ir  Ir20  1  0.250000  0.251230  0.035608  1
  Ir  Ir21  1  0.250000  0.249237  0.534694  1
  Ir  Ir22  1  0.750000  0.748791  0.965649  1
  Ir  Ir23  1  0.750000  0.750715  0.465092  1
  Ir  Ir24  1  0.250000  0.017539  0.286407  1
  Ir  Ir25  1  0.250000  0.482939  0.785764  1
  Ir  Ir26  1  0.750000  0.982166  0.712959  1
  Ir  Ir27  1  0.750000  0.517886  0.213774  1
