# generated using pymatgen
data_Hf6Al16IrPdRh3Au2
_symmetry_space_group_name_H-M   'P 1'
_cell_length_a   8.78906175
_cell_length_b   8.77992735
_cell_length_c   8.78383700
_cell_angle_alpha   59.83100222
_cell_angle_beta   59.95084750
_cell_angle_gamma   59.99518984
_symmetry_Int_Tables_number   1
_chemical_formula_structural   Hf6Al16IrPdRh3Au2
_chemical_formula_sum   'Hf6 Al16 Ir1 Pd1 Rh3 Au2'
_cell_volume   478.48468412
_cell_formula_units_Z   1
loop_
 _symmetry_equiv_pos_site_id
 _symmetry_equiv_pos_as_xyz
  1  'x, y, z'
loop_
 _atom_site_type_symbol
 _atom_site_label
 _atom_site_symmetry_multiplicity
 _atom_site_fract_x
 _atom_site_fract_y
 _atom_site_fract_z
 _atom_site_occupancy
  Hf  Hf0  1  0.680651  0.318923  0.319272  1
  Hf  Hf1  1  0.319349  0.681077  0.680728  1
  Hf  Hf2  1  0.319229  0.678392  0.321601  1
  Hf  Hf3  1  0.680771  0.321608  0.678399  1
  Hf  Hf4  1  0.314599  0.316209  0.683065  1
  Hf  Hf5  1  0.685401  0.683791  0.316935  1
  Al  Al6  1  0.336009  0.337541  0.335179  1
  Al  Al7  1  0.663991  0.662459  0.664821  1
  Al  Al8  1  0.339085  0.339526  0.993512  1
  Al  Al9  1  0.330957  0.993452  0.342106  1
  Al  Al10  1  0.660915  0.660474  0.006488  1
  Al  Al11  1  0.669043  0.006548  0.657894  1
  Al  Al12  1  0.991435  0.332246  0.342661  1
  Al  Al13  1  0.008565  0.667754  0.657339  1
  Al  Al14  1  0.110817  0.111127  0.131636  1
  Al  Al15  1  0.889183  0.888873  0.868364  1
  Al  Al16  1  0.114428  0.124483  0.641569  1
  Al  Al17  1  0.123775  0.642272  0.128150  1
  Al  Al18  1  0.885572  0.875517  0.358431  1
  Al  Al19  1  0.876225  0.357728  0.871850  1
  Al  Al20  1  0.645176  0.127064  0.120325  1
  Al  Al21  1  0.354824  0.872936  0.879675  1
  Ir  Ir22  1  0.000000  0.500000  0.500000  1
  Pd  Pd23  1  0.500000  0.000000  0.500000  1
  Rh  Rh24  1  0.000000  0.000000  0.500000  1
  Rh  Rh25  1  0.500000  0.500000  0.000000  1
  Rh  Rh26  1  0.000000  0.000000  0.000000  1
  Au  Au27  1  0.500000  0.000000  0.000000  1
  Au  Au28  1  0.000000  0.500000  0.000000  1
