# generated using pymatgen
data_MgFe5P3
_symmetry_space_group_name_H-M   'P 1'
_cell_length_a   3.58870900
_cell_length_b   10.11388400
_cell_length_c   11.68544400
_cell_angle_alpha   90.00000000
_cell_angle_beta   90.00000000
_cell_angle_gamma   90.00000000
_symmetry_Int_Tables_number   1
_chemical_formula_structural   MgFe5P3
_chemical_formula_sum   'Mg4 Fe20 P12'
_cell_volume   424.13238100
_cell_formula_units_Z   4
loop_
 _symmetry_equiv_pos_site_id
 _symmetry_equiv_pos_as_xyz
  1  'x, y, z'
loop_
 _atom_site_type_symbol
 _atom_site_label
 _atom_site_symmetry_multiplicity
 _atom_site_fract_x
 _atom_site_fract_y
 _atom_site_fract_z
 _atom_site_occupancy
  Mg  Mg0  1  0.250000  0.577786  0.704968  1
  Mg  Mg1  1  0.250000  0.922214  0.204968  1
  Mg  Mg2  1  0.750000  0.422214  0.295032  1
  Mg  Mg3  1  0.750000  0.077786  0.795032  1
  Fe  Fe4  1  0.250000  0.705356  0.987663  1
  Fe  Fe5  1  0.250000  0.794644  0.487663  1
  Fe  Fe6  1  0.750000  0.294644  0.012337  1
  Fe  Fe7  1  0.750000  0.205356  0.512337  1
  Fe  Fe8  1  0.250000  0.407637  0.486017  1
  Fe  Fe9  1  0.250000  0.092363  0.986017  1
  Fe  Fe10  1  0.750000  0.592363  0.513983  1
  Fe  Fe11  1  0.750000  0.907637  0.013983  1
  Fe  Fe12  1  0.250000  0.218396  0.175335  1
  Fe  Fe13  1  0.250000  0.281604  0.675335  1
  Fe  Fe14  1  0.750000  0.781604  0.824665  1
  Fe  Fe15  1  0.750000  0.718396  0.324665  1
  Fe  Fe16  1  0.250000  0.874686  0.702184  1
  Fe  Fe17  1  0.250000  0.625314  0.202184  1
  Fe  Fe18  1  0.750000  0.125314  0.297816  1
  Fe  Fe19  1  0.750000  0.374686  0.797816  1
  Fe  Fe20  1  0.250000  0.464097  0.930179  1
  Fe  Fe21  1  0.250000  0.035903  0.430179  1
  Fe  Fe22  1  0.750000  0.535903  0.069821  1
  Fe  Fe23  1  0.750000  0.964097  0.569821  1
  P  P24  1  0.250000  0.419590  0.113266  1
  P  P25  1  0.250000  0.080410  0.613266  1
  P  P26  1  0.750000  0.580410  0.886734  1
  P  P27  1  0.750000  0.919590  0.386734  1
  P  P28  1  0.250000  0.260286  0.869358  1
  P  P29  1  0.250000  0.239714  0.369358  1
  P  P30  1  0.750000  0.739714  0.130642  1
  P  P31  1  0.750000  0.760286  0.630642  1
  P  P32  1  0.250000  0.601714  0.395982  1
  P  P33  1  0.250000  0.898286  0.895982  1
  P  P34  1  0.750000  0.398286  0.604018  1
  P  P35  1  0.750000  0.101714  0.104018  1
