# generated using pymatgen
data_LaBeSnRh3
_symmetry_space_group_name_H-M   'P 1'
_cell_length_a   5.69579927
_cell_length_b   6.87051099
_cell_length_c   6.87051044
_cell_angle_alpha   65.89546453
_cell_angle_beta   65.46376573
_cell_angle_gamma   65.46377045
_symmetry_Int_Tables_number   1
_chemical_formula_structural   LaBeSnRh3
_chemical_formula_sum   'La2 Be2 Sn2 Rh6'
_cell_volume   213.26320014
_cell_formula_units_Z   2
loop_
 _symmetry_equiv_pos_site_id
 _symmetry_equiv_pos_as_xyz
  1  'x, y, z'
loop_
 _atom_site_type_symbol
 _atom_site_label
 _atom_site_symmetry_multiplicity
 _atom_site_fract_x
 _atom_site_fract_y
 _atom_site_fract_z
 _atom_site_occupancy
  La  La0  1  0.471842  0.779995  0.779995  1
  La  La1  1  0.528158  0.220005  0.220005  1
  Be  Be2  1  0.146750  0.101668  0.101668  1
  Be  Be3  1  0.853250  0.898332  0.898332  1
  Sn  Sn4  1  0.183846  0.566730  0.566730  1
  Sn  Sn5  1  0.816154  0.433270  0.433270  1
  Rh  Rh6  1  0.500000  0.205011  0.794989  1
  Rh  Rh7  1  0.000000  0.793852  0.206148  1
  Rh  Rh8  1  0.500000  0.794989  0.205011  1
  Rh  Rh9  1  0.000000  0.206148  0.793852  1
  Rh  Rh10  1  0.000000  0.500000  0.000000  1
  Rh  Rh11  1  0.000000  0.000000  0.500000  1
