# generated using pymatgen
data_TbDy19Ir11Au
_symmetry_space_group_name_H-M   'P 1'
_cell_length_a   10.96878615
_cell_length_b   10.96776679
_cell_length_c   6.35967021
_cell_angle_alpha   89.95500976
_cell_angle_beta   89.97062530
_cell_angle_gamma   89.59068126
_symmetry_Int_Tables_number   1
_chemical_formula_structural   TbDy19Ir11Au
_chemical_formula_sum   'Tb1 Dy19 Ir11 Au1'
_cell_volume   765.06811051
_cell_formula_units_Z   1
loop_
 _symmetry_equiv_pos_site_id
 _symmetry_equiv_pos_as_xyz
  1  'x, y, z'
loop_
 _atom_site_type_symbol
 _atom_site_label
 _atom_site_symmetry_multiplicity
 _atom_site_fract_x
 _atom_site_fract_y
 _atom_site_fract_z
 _atom_site_occupancy
  Tb  Tb0  1  0.289151  0.088077  0.376670  1
  Dy  Dy1  1  0.292784  0.910264  0.876790  1
  Dy  Dy2  1  0.703641  0.084365  0.865590  1
  Dy  Dy3  1  0.704750  0.903971  0.381149  1
  Dy  Dy4  1  0.588090  0.790804  0.879733  1
  Dy  Dy5  1  0.579278  0.210054  0.378737  1
  Dy  Dy6  1  0.410511  0.790672  0.378577  1
  Dy  Dy7  1  0.409567  0.207687  0.878354  1
  Dy  Dy8  1  0.209184  0.411989  0.620327  1
  Dy  Dy9  1  0.209154  0.589596  0.121446  1
  Dy  Dy10  1  0.790057  0.421035  0.121227  1
  Dy  Dy11  1  0.792425  0.590635  0.621570  1
  Dy  Dy12  1  0.912099  0.710329  0.122917  1
  Dy  Dy13  1  0.915540  0.296337  0.634411  1
  Dy  Dy14  1  0.089519  0.707214  0.623214  1
  Dy  Dy15  1  0.095792  0.295400  0.118693  1
  Dy  Dy16  1  0.002723  0.995342  0.501057  1
  Dy  Dy17  1  0.004486  0.996923  0.999068  1
  Dy  Dy18  1  0.498942  0.498810  0.998570  1
  Dy  Dy19  1  0.501274  0.501089  0.501475  1
  Ir  Ir20  1  0.846755  0.848362  0.749594  1
  Ir  Ir21  1  0.151381  0.153489  0.751185  1
  Ir  Ir22  1  0.155336  0.844151  0.249794  1
  Ir  Ir23  1  0.655577  0.344472  0.750035  1
  Ir  Ir24  1  0.653914  0.651988  0.248153  1
  Ir  Ir25  1  0.348057  0.346552  0.251644  1
  Ir  Ir26  1  0.346373  0.653631  0.750005  1
  Ir  Ir27  1  0.500669  0.999643  0.125718  1
  Ir  Ir28  1  0.499680  0.000041  0.621954  1
  Ir  Ir29  1  0.999788  0.500689  0.878348  1
  Ir  Ir30  1  0.000156  0.499713  0.373979  1
  Au  Au31  1  0.843346  0.156677  0.250016  1
