# generated using pymatgen
data_Hf5ZrZnAuN2
_symmetry_space_group_name_H-M   'P 1'
_cell_length_a   5.91819735
_cell_length_b   5.91819875
_cell_length_c   8.92858000
_cell_angle_alpha   90.00000000
_cell_angle_beta   90.00000000
_cell_angle_gamma   147.26297469
_symmetry_Int_Tables_number   1
_chemical_formula_structural   Hf5ZrZnAuN2
_chemical_formula_sum   'Hf5 Zr1 Zn1 Au1 N2'
_cell_volume   169.11620330
_cell_formula_units_Z   1
loop_
 _symmetry_equiv_pos_site_id
 _symmetry_equiv_pos_as_xyz
  1  'x, y, z'
loop_
 _atom_site_type_symbol
 _atom_site_label
 _atom_site_symmetry_multiplicity
 _atom_site_fract_x
 _atom_site_fract_y
 _atom_site_fract_z
 _atom_site_occupancy
  Hf  Hf0  1  0.627156  0.372844  0.955962  1
  Hf  Hf1  1  0.373305  0.626695  0.451552  1
  Hf  Hf2  1  0.373305  0.626695  0.048448  1
  Hf  Hf3  1  0.627156  0.372844  0.544038  1
  Hf  Hf4  1  0.956357  0.043643  0.750000  1
  Zr  Zr5  1  0.047858  0.952142  0.250000  1
  Zn  Zn6  1  0.747509  0.252491  0.250000  1
  Au  Au7  1  0.250964  0.749036  0.750000  1
  N  N8  1  0.998196  0.001804  0.998048  1
  N  N9  1  0.998196  0.001804  0.501952  1
