# generated using pymatgen
data_Eu3Al2GaIr2
_symmetry_space_group_name_H-M   'P 1'
_cell_length_a   5.84631200
_cell_length_b   7.95804700
_cell_length_c   15.18593800
_cell_angle_alpha   90.00000000
_cell_angle_beta   90.00000000
_cell_angle_gamma   90.00000000
_symmetry_Int_Tables_number   1
_chemical_formula_structural   Eu3Al2GaIr2
_chemical_formula_sum   'Eu12 Al8 Ga4 Ir8'
_cell_volume   706.52919250
_cell_formula_units_Z   4
loop_
 _symmetry_equiv_pos_site_id
 _symmetry_equiv_pos_as_xyz
  1  'x, y, z'
loop_
 _atom_site_type_symbol
 _atom_site_label
 _atom_site_symmetry_multiplicity
 _atom_site_fract_x
 _atom_site_fract_y
 _atom_site_fract_z
 _atom_site_occupancy
  Eu  Eu0  1  0.895272  0.463577  0.109929  1
  Eu  Eu1  1  0.395272  0.036423  0.890071  1
  Eu  Eu2  1  0.604728  0.963577  0.390071  1
  Eu  Eu3  1  0.104728  0.536423  0.609929  1
  Eu  Eu4  1  0.104728  0.536423  0.890071  1
  Eu  Eu5  1  0.604728  0.963577  0.109929  1
  Eu  Eu6  1  0.395272  0.036423  0.609929  1
  Eu  Eu7  1  0.895272  0.463577  0.390071  1
  Eu  Eu8  1  0.390234  0.316343  0.250000  1
  Eu  Eu9  1  0.890234  0.183657  0.750000  1
  Eu  Eu10  1  0.109766  0.816343  0.250000  1
  Eu  Eu11  1  0.609766  0.683657  0.750000  1
  Al  Al12  1  0.398340  0.339707  0.034971  1
  Al  Al13  1  0.898340  0.160293  0.965029  1
  Al  Al14  1  0.101660  0.839707  0.465029  1
  Al  Al15  1  0.601660  0.660293  0.534971  1
  Al  Al16  1  0.601660  0.660293  0.965029  1
  Al  Al17  1  0.101660  0.839707  0.034971  1
  Al  Al18  1  0.898340  0.160293  0.534971  1
  Al  Al19  1  0.398340  0.339707  0.465029  1
  Ga  Ga20  1  0.907688  0.166421  0.250000  1
  Ga  Ga21  1  0.407688  0.333579  0.750000  1
  Ga  Ga22  1  0.592312  0.666421  0.250000  1
  Ga  Ga23  1  0.092312  0.833579  0.750000  1
  Ir  Ir24  1  0.129510  0.129310  0.101813  1
  Ir  Ir25  1  0.629510  0.370690  0.898187  1
  Ir  Ir26  1  0.370490  0.629310  0.398187  1
  Ir  Ir27  1  0.870490  0.870690  0.601813  1
  Ir  Ir28  1  0.870490  0.870690  0.898187  1
  Ir  Ir29  1  0.370490  0.629310  0.101813  1
  Ir  Ir30  1  0.629510  0.370690  0.601813  1
  Ir  Ir31  1  0.129510  0.129310  0.398187  1
