# generated using pymatgen
data_Ho12GaSi4Sn
_symmetry_space_group_name_H-M   'P 1'
_cell_length_a   8.42494589
_cell_length_b   8.42454053
_cell_length_c   8.42494521
_cell_angle_alpha   112.12277201
_cell_angle_beta   111.35989216
_cell_angle_gamma   105.02339548
_symmetry_Int_Tables_number   1
_chemical_formula_structural   Ho12GaSi4Sn
_chemical_formula_sum   'Ho12 Ga1 Si4 Sn1'
_cell_volume   458.22600900
_cell_formula_units_Z   1
loop_
 _symmetry_equiv_pos_site_id
 _symmetry_equiv_pos_as_xyz
  1  'x, y, z'
loop_
 _atom_site_type_symbol
 _atom_site_label
 _atom_site_symmetry_multiplicity
 _atom_site_fract_x
 _atom_site_fract_y
 _atom_site_fract_z
 _atom_site_occupancy
  Ho  Ho0  1  0.433707  0.234809  0.198968  1
  Ho  Ho1  1  0.566293  0.765191  0.801032  1
  Ho  Ho2  1  0.035841  0.234809  0.801103  1
  Ho  Ho3  1  0.964159  0.765191  0.198897  1
  Ho  Ho4  1  0.181964  0.273768  0.455776  1
  Ho  Ho5  1  0.818036  0.726232  0.544224  1
  Ho  Ho6  1  0.182008  0.726232  0.908197  1
  Ho  Ho7  1  0.817992  0.273768  0.091803  1
  Ho  Ho8  1  0.320651  0.618726  0.298074  1
  Ho  Ho9  1  0.679349  0.381274  0.701926  1
  Ho  Ho10  1  0.320702  0.022637  0.701934  1
  Ho  Ho11  1  0.679298  0.977363  0.298066  1
  Ga  Ga12  1  0.000000  0.000000  0.000000  1
  Si  Si13  1  0.367812  0.000000  0.367812  1
  Si  Si14  1  0.632188  0.000000  0.632188  1
  Si  Si15  1  0.115978  0.615981  0.500003  1
  Si  Si16  1  0.884022  0.384019  0.499997  1
  Sn  Sn17  1  0.500000  0.500000  0.000000  1
