# generated using pymatgen
data_HoLu4AlSb2
_symmetry_space_group_name_H-M   'P 1'
_cell_length_a   8.72871287
_cell_length_b   8.73745505
_cell_length_c   6.28630400
_cell_angle_alpha   90.00000000
_cell_angle_beta   90.00000000
_cell_angle_gamma   119.88849780
_symmetry_Int_Tables_number   1
_chemical_formula_structural   HoLu4AlSb2
_chemical_formula_sum   'Ho2 Lu8 Al2 Sb4'
_cell_volume   415.66938389
_cell_formula_units_Z   2
loop_
 _symmetry_equiv_pos_site_id
 _symmetry_equiv_pos_as_xyz
  1  'x, y, z'
loop_
 _atom_site_type_symbol
 _atom_site_label
 _atom_site_symmetry_multiplicity
 _atom_site_fract_x
 _atom_site_fract_y
 _atom_site_fract_z
 _atom_site_occupancy
  Ho  Ho0  1  0.008675  0.242961  0.250000  1
  Ho  Ho1  1  0.241706  0.009374  0.250000  1
  Lu  Lu2  1  0.335746  0.667928  0.999986  1
  Lu  Lu3  1  0.655481  0.327738  0.500030  1
  Lu  Lu4  1  0.655481  0.327738  0.999970  1
  Lu  Lu5  1  0.335746  0.667928  0.500014  1
  Lu  Lu6  1  0.755843  0.998781  0.750000  1
  Lu  Lu7  1  0.755688  0.756803  0.250000  1
  Lu  Lu8  1  0.008787  0.766555  0.750000  1
  Lu  Lu9  1  0.241757  0.231839  0.750000  1
  Al  Al10  1  0.397211  0.996627  0.750000  1
  Al  Al11  1  0.398831  0.402027  0.250000  1
  Sb  Sb12  1  0.997205  0.606655  0.250000  1
  Sb  Sb13  1  0.998214  0.390775  0.750000  1
  Sb  Sb14  1  0.607249  0.605833  0.750000  1
  Sb  Sb15  1  0.606382  0.000436  0.250000  1
