# generated using pymatgen
data_Sr4Mg(TcO6)2
_symmetry_space_group_name_H-M   'P 1'
_cell_length_a   5.57710273
_cell_length_b   5.57710228
_cell_length_c   9.56832400
_cell_angle_alpha   73.05606800
_cell_angle_beta   106.94393058
_cell_angle_gamma   119.99999604
_symmetry_Int_Tables_number   1
_chemical_formula_structural   Sr4Mg(TcO6)2
_chemical_formula_sum   'Sr4 Mg1 Tc2 O12'
_cell_volume   242.70865166
_cell_formula_units_Z   1
loop_
 _symmetry_equiv_pos_site_id
 _symmetry_equiv_pos_as_xyz
  1  'x, y, z'
loop_
 _atom_site_type_symbol
 _atom_site_label
 _atom_site_symmetry_multiplicity
 _atom_site_fract_x
 _atom_site_fract_y
 _atom_site_fract_z
 _atom_site_occupancy
  Sr  Sr0  1  0.707555  0.292444  0.122667  1
  Sr  Sr1  1  0.130876  0.869123  0.392627  1
  Sr  Sr2  1  0.869123  0.130875  0.607373  1
  Sr  Sr3  1  0.292444  0.707555  0.877334  1
  Mg  Mg4  1  0.000000  0.000000  0.000000  1
  Tc  Tc5  1  0.421254  0.578746  0.263760  1
  Tc  Tc6  1  0.578747  0.421253  0.736240  1
  O  O7  1  0.216906  0.302606  0.131205  1
  O  O8  1  0.697393  0.783094  0.131205  1
  O  O9  1  0.216906  0.783094  0.131205  1
  O  O10  1  0.131317  0.380086  0.371146  1
  O  O11  1  0.619915  0.380087  0.371146  1
  O  O12  1  0.619915  0.868684  0.371146  1
  O  O13  1  0.380086  0.131318  0.628854  1
  O  O14  1  0.868684  0.619914  0.628854  1
  O  O15  1  0.380086  0.619915  0.628854  1
  O  O16  1  0.783093  0.216905  0.868794  1
  O  O17  1  0.302605  0.216905  0.868794  1
  O  O18  1  0.783093  0.697393  0.868794  1
