# generated using pymatgen
data_Ca2Ac4Si3Ge
_symmetry_space_group_name_H-M   'P 1'
_cell_length_a   8.00419400
_cell_length_b   8.00419304
_cell_length_c   4.64117300
_cell_angle_alpha   90.00000000
_cell_angle_beta   90.00000000
_cell_angle_gamma   89.82569706
_symmetry_Int_Tables_number   1
_chemical_formula_structural   Ca2Ac4Si3Ge
_chemical_formula_sum   'Ca2 Ac4 Si3 Ge1'
_cell_volume   297.34518325
_cell_formula_units_Z   1
loop_
 _symmetry_equiv_pos_site_id
 _symmetry_equiv_pos_as_xyz
  1  'x, y, z'
loop_
 _atom_site_type_symbol
 _atom_site_label
 _atom_site_symmetry_multiplicity
 _atom_site_fract_x
 _atom_site_fract_y
 _atom_site_fract_z
 _atom_site_occupancy
  Ca  Ca0  1  0.999074  0.001394  0.000000  1
  Ca  Ca1  1  0.501394  0.499074  0.000000  1
  Ac  Ac2  1  0.677289  0.177289  0.500000  1
  Ac  Ac3  1  0.323870  0.823870  0.500000  1
  Ac  Ac4  1  0.177608  0.320729  0.500000  1
  Ac  Ac5  1  0.820729  0.677608  0.500000  1
  Si  Si6  1  0.887900  0.387900  0.000000  1
  Si  Si7  1  0.608993  0.891092  0.000000  1
  Si  Si8  1  0.391092  0.108993  0.000000  1
  Ge  Ge9  1  0.112054  0.612054  0.000000  1
