# generated using pymatgen
data_Tb3Er5In3Ir
_symmetry_space_group_name_H-M   'P 1'
_cell_length_a   10.36447600
_cell_length_b   10.36454952
_cell_length_c   7.07883900
_cell_angle_alpha   90.00000000
_cell_angle_beta   90.00000000
_cell_angle_gamma   120.00028953
_symmetry_Int_Tables_number   1
_chemical_formula_structural   Tb3Er5In3Ir
_chemical_formula_sum   'Tb6 Er10 In6 Ir2'
_cell_volume   658.55064716
_cell_formula_units_Z   2
loop_
 _symmetry_equiv_pos_site_id
 _symmetry_equiv_pos_as_xyz
  1  'x, y, z'
loop_
 _atom_site_type_symbol
 _atom_site_label
 _atom_site_symmetry_multiplicity
 _atom_site_fract_x
 _atom_site_fract_y
 _atom_site_fract_z
 _atom_site_occupancy
  Tb  Tb0  1  0.533104  0.066211  0.792696  1
  Tb  Tb1  1  0.933790  0.466898  0.792700  1
  Tb  Tb2  1  0.533109  0.466897  0.792695  1
  Tb  Tb3  1  0.466896  0.933789  0.292696  1
  Tb  Tb4  1  0.066210  0.533102  0.292700  1
  Tb  Tb5  1  0.466891  0.533103  0.292695  1
  Er  Er6  1  0.823549  0.647105  0.498432  1
  Er  Er7  1  0.352900  0.176451  0.498434  1
  Er  Er8  1  0.823566  0.176445  0.498420  1
  Er  Er9  1  0.176451  0.352895  0.998432  1
  Er  Er10  1  0.647100  0.823549  0.998434  1
  Er  Er11  1  0.176434  0.823555  0.998420  1
  Er  Er12  1  0.666685  0.333354  0.175929  1
  Er  Er13  1  0.333315  0.666646  0.675929  1
  Er  Er14  1  0.000001  0.000004  0.778802  1
  Er  Er15  1  0.999999  0.999996  0.278802  1
  In  In16  1  0.837399  0.674799  0.041075  1
  In  In17  1  0.325196  0.162600  0.041075  1
  In  In18  1  0.837401  0.162601  0.041083  1
  In  In19  1  0.162601  0.325201  0.541075  1
  In  In20  1  0.674804  0.837400  0.541075  1
  In  In21  1  0.162599  0.837399  0.541083  1
  Ir  Ir22  1  0.666670  0.333330  0.566613  1
  Ir  Ir23  1  0.333330  0.666670  0.066613  1
