# generated using pymatgen
data_Tb(LuS2)2
_symmetry_space_group_name_H-M   'P 1'
_cell_length_a   3.85145200
_cell_length_b   6.60003413
_cell_length_c   6.71005318
_cell_angle_alpha   71.71817891
_cell_angle_beta   90.00000000
_cell_angle_gamma   90.00000000
_symmetry_Int_Tables_number   1
_chemical_formula_structural   Tb(LuS2)2
_chemical_formula_sum   'Tb1 Lu2 S4'
_cell_volume   161.95824498
_cell_formula_units_Z   1
loop_
 _symmetry_equiv_pos_site_id
 _symmetry_equiv_pos_as_xyz
  1  'x, y, z'
loop_
 _atom_site_type_symbol
 _atom_site_label
 _atom_site_symmetry_multiplicity
 _atom_site_fract_x
 _atom_site_fract_y
 _atom_site_fract_z
 _atom_site_occupancy
  Tb  Tb0  1  0.000000  0.500000  0.500000  1
  Lu  Lu1  1  0.000000  0.000000  0.000000  1
  Lu  Lu2  1  0.500000  0.500000  0.000000  1
  S  S3  1  0.500000  0.756436  0.243989  1
  S  S4  1  0.000000  0.258272  0.234937  1
  S  S5  1  0.500000  0.243564  0.756011  1
  S  S6  1  0.000000  0.741728  0.765063  1
