# generated using pymatgen
data_Er2Zr(ScGa2)2
_symmetry_space_group_name_H-M   'P 1'
_cell_length_a   7.23138950
_cell_length_b   7.51131258
_cell_length_c   14.32489300
_cell_angle_alpha   90.04666769
_cell_angle_beta   89.97871827
_cell_angle_gamma   89.99111554
_symmetry_Int_Tables_number   1
_chemical_formula_structural   Er2Zr(ScGa2)2
_chemical_formula_sum   'Er8 Zr4 Sc8 Ga16'
_cell_volume   778.08814266
_cell_formula_units_Z   4
loop_
 _symmetry_equiv_pos_site_id
 _symmetry_equiv_pos_as_xyz
  1  'x, y, z'
loop_
 _atom_site_type_symbol
 _atom_site_label
 _atom_site_symmetry_multiplicity
 _atom_site_fract_x
 _atom_site_fract_y
 _atom_site_fract_z
 _atom_site_occupancy
  Er  Er0  1  0.010088  0.176659  0.407101  1
  Er  Er1  1  0.510686  0.324345  0.406265  1
  Er  Er2  1  0.489071  0.678393  0.907002  1
  Er  Er3  1  0.488283  0.676894  0.592467  1
  Er  Er4  1  0.987785  0.823282  0.592562  1
  Er  Er5  1  0.989902  0.822109  0.906650  1
  Er  Er6  1  0.511551  0.320612  0.092376  1
  Er  Er7  1  0.012694  0.178801  0.093020  1
  Zr  Zr8  1  0.328138  0.173989  0.623939  1
  Zr  Zr9  1  0.672441  0.823745  0.376491  1
  Zr  Zr10  1  0.172751  0.675213  0.377288  1
  Zr  Zr11  1  0.828634  0.326933  0.876455  1
  Sc  Sc12  1  0.660486  0.995155  0.749862  1
  Sc  Sc13  1  0.825847  0.327318  0.622917  1
  Sc  Sc14  1  0.839592  0.494053  0.248577  1
  Sc  Sc15  1  0.339859  0.005251  0.249054  1
  Sc  Sc16  1  0.325823  0.171232  0.877216  1
  Sc  Sc17  1  0.172887  0.670758  0.123523  1
  Sc  Sc18  1  0.673223  0.830710  0.123640  1
  Sc  Sc19  1  0.160937  0.504652  0.750057  1
  Ga  Ga20  1  0.282602  0.871401  0.748121  1
  Ga  Ga21  1  0.470823  0.616733  0.251706  1
  Ga  Ga22  1  0.029304  0.117815  0.748907  1
  Ga  Ga23  1  0.529597  0.381869  0.751102  1
  Ga  Ga24  1  0.161590  0.462996  0.540850  1
  Ga  Ga25  1  0.971052  0.883015  0.252387  1
  Ga  Ga26  1  0.717510  0.128382  0.251652  1
  Ga  Ga27  1  0.838190  0.535686  0.041134  1
  Ga  Ga28  1  0.339256  0.963149  0.042306  1
  Ga  Ga29  1  0.159981  0.462904  0.957956  1
  Ga  Ga30  1  0.659328  0.037162  0.540816  1
  Ga  Ga31  1  0.339335  0.964698  0.458967  1
  Ga  Ga32  1  0.840126  0.537185  0.458059  1
  Ga  Ga33  1  0.782634  0.628468  0.749995  1
  Ga  Ga34  1  0.216923  0.372114  0.251856  1
  Ga  Ga35  1  0.661071  0.036315  0.957730  1
