# generated using pymatgen
data_Nd6Sb13Rh20
_symmetry_space_group_name_H-M   'P 1'
_cell_length_a   14.65806700
_cell_length_b   14.65806641
_cell_length_c   4.21876700
_cell_angle_alpha   90.00000000
_cell_angle_beta   90.00000000
_cell_angle_gamma   119.99999907
_symmetry_Int_Tables_number   1
_chemical_formula_structural   Nd6Sb13Rh20
_chemical_formula_sum   'Nd6 Sb13 Rh20'
_cell_volume   784.99983130
_cell_formula_units_Z   1
loop_
 _symmetry_equiv_pos_site_id
 _symmetry_equiv_pos_as_xyz
  1  'x, y, z'
loop_
 _atom_site_type_symbol
 _atom_site_label
 _atom_site_symmetry_multiplicity
 _atom_site_fract_x
 _atom_site_fract_y
 _atom_site_fract_z
 _atom_site_occupancy
  Nd  Nd0  1  0.530798  0.719568  0.248061  1
  Nd  Nd1  1  0.280432  0.811230  0.248061  1
  Nd  Nd2  1  0.188770  0.469202  0.248061  1
  Nd  Nd3  1  0.469202  0.280432  0.751939  1
  Nd  Nd4  1  0.719568  0.188770  0.751939  1
  Nd  Nd5  1  0.811230  0.530798  0.751939  1
  Sb  Sb6  1  0.524854  0.136891  0.251457  1
  Sb  Sb7  1  0.863109  0.387964  0.251457  1
  Sb  Sb8  1  0.612036  0.475146  0.251457  1
  Sb  Sb9  1  0.948236  0.719216  0.248437  1
  Sb  Sb10  1  0.280784  0.229020  0.248437  1
  Sb  Sb11  1  0.770980  0.051764  0.248437  1
  Sb  Sb12  1  0.387964  0.524854  0.748543  1
  Sb  Sb13  1  0.475146  0.863109  0.748543  1
  Sb  Sb14  1  0.136891  0.612036  0.748543  1
  Sb  Sb15  1  0.719216  0.770980  0.751563  1
  Sb  Sb16  1  0.229020  0.948236  0.751563  1
  Sb  Sb17  1  0.051764  0.280784  0.751563  1
  Sb  Sb18  1  0.000000  0.000000  0.000000  1
  Rh  Rh19  1  0.333333  0.666667  0.753735  1
  Rh  Rh20  1  0.924922  0.250541  0.252790  1
  Rh  Rh21  1  0.749459  0.674381  0.252790  1
  Rh  Rh22  1  0.325619  0.075078  0.252790  1
  Rh  Rh23  1  0.436353  0.020960  0.751804  1
  Rh  Rh24  1  0.979040  0.415395  0.751804  1
  Rh  Rh25  1  0.584605  0.563647  0.751804  1
  Rh  Rh26  1  0.666667  0.333333  0.246265  1
  Rh  Rh27  1  0.088476  0.190305  0.253990  1
  Rh  Rh28  1  0.809695  0.898171  0.253990  1
  Rh  Rh29  1  0.101829  0.911524  0.253990  1
  Rh  Rh30  1  0.020960  0.584605  0.248196  1
  Rh  Rh31  1  0.415395  0.436353  0.248196  1
  Rh  Rh32  1  0.563647  0.979040  0.248196  1
  Rh  Rh33  1  0.674381  0.924922  0.747210  1
  Rh  Rh34  1  0.075078  0.749459  0.747210  1
  Rh  Rh35  1  0.250541  0.325619  0.747210  1
  Rh  Rh36  1  0.911524  0.809695  0.746010  1
  Rh  Rh37  1  0.190305  0.101829  0.746010  1
  Rh  Rh38  1  0.898171  0.088476  0.746010  1
