# generated using pymatgen
data_Er3ZrMn7CoP6
_symmetry_space_group_name_H-M   'P 1'
_cell_length_a   3.69387300
_cell_length_b   10.89613700
_cell_length_c   12.83072300
_cell_angle_alpha   90.00000000
_cell_angle_beta   90.00000000
_cell_angle_gamma   90.00000000
_symmetry_Int_Tables_number   1
_chemical_formula_structural   Er3ZrMn7CoP6
_chemical_formula_sum   'Er6 Zr2 Mn14 Co2 P12'
_cell_volume   516.42308061
_cell_formula_units_Z   2
loop_
 _symmetry_equiv_pos_site_id
 _symmetry_equiv_pos_as_xyz
  1  'x, y, z'
loop_
 _atom_site_type_symbol
 _atom_site_label
 _atom_site_symmetry_multiplicity
 _atom_site_fract_x
 _atom_site_fract_y
 _atom_site_fract_z
 _atom_site_occupancy
  Er  Er0  1  0.750000  0.250000  0.462379  1
  Er  Er1  1  0.250000  0.750000  0.537621  1
  Er  Er2  1  0.250000  0.923906  0.793031  1
  Er  Er3  1  0.250000  0.576094  0.793031  1
  Er  Er4  1  0.750000  0.076094  0.206969  1
  Er  Er5  1  0.750000  0.423906  0.206969  1
  Zr  Zr6  1  0.250000  0.250000  0.832748  1
  Zr  Zr7  1  0.750000  0.750000  0.167252  1
  Mn  Mn8  1  0.750000  0.250000  0.010210  1
  Mn  Mn9  1  0.250000  0.750000  0.989790  1
  Mn  Mn10  1  0.250000  0.417437  0.004529  1
  Mn  Mn11  1  0.250000  0.082563  0.004529  1
  Mn  Mn12  1  0.750000  0.582563  0.995471  1
  Mn  Mn13  1  0.750000  0.917437  0.995471  1
  Mn  Mn14  1  0.250000  0.455810  0.563850  1
  Mn  Mn15  1  0.250000  0.044190  0.563850  1
  Mn  Mn16  1  0.750000  0.544190  0.436150  1
  Mn  Mn17  1  0.750000  0.955810  0.436150  1
  Mn  Mn18  1  0.250000  0.871012  0.308614  1
  Mn  Mn19  1  0.250000  0.628988  0.308614  1
  Mn  Mn20  1  0.750000  0.128988  0.691386  1
  Mn  Mn21  1  0.750000  0.371012  0.691386  1
  Co  Co22  1  0.250000  0.250000  0.293819  1
  Co  Co23  1  0.750000  0.750000  0.706181  1
  P  P24  1  0.250000  0.250000  0.120451  1
  P  P25  1  0.750000  0.750000  0.879549  1
  P  P26  1  0.250000  0.250000  0.626845  1
  P  P27  1  0.750000  0.750000  0.373155  1
  P  P28  1  0.250000  0.430257  0.381726  1
  P  P29  1  0.250000  0.069743  0.381726  1
  P  P30  1  0.750000  0.569743  0.618274  1
  P  P31  1  0.750000  0.930257  0.618274  1
  P  P32  1  0.250000  0.913208  0.112332  1
  P  P33  1  0.250000  0.586792  0.112332  1
  P  P34  1  0.750000  0.086792  0.887668  1
  P  P35  1  0.750000  0.413208  0.887668  1
