# generated using pymatgen
data_Ba2SrIn5Au6
_symmetry_space_group_name_H-M   'P 1'
_cell_length_a   4.70713000
_cell_length_b   8.28672100
_cell_length_c   9.47796100
_cell_angle_alpha   90.00000000
_cell_angle_beta   90.00000000
_cell_angle_gamma   90.00000000
_symmetry_Int_Tables_number   1
_chemical_formula_structural   Ba2SrIn5Au6
_chemical_formula_sum   'Ba2 Sr1 In5 Au6'
_cell_volume   369.70372563
_cell_formula_units_Z   1
loop_
 _symmetry_equiv_pos_site_id
 _symmetry_equiv_pos_as_xyz
  1  'x, y, z'
loop_
 _atom_site_type_symbol
 _atom_site_label
 _atom_site_symmetry_multiplicity
 _atom_site_fract_x
 _atom_site_fract_y
 _atom_site_fract_z
 _atom_site_occupancy
  Ba  Ba0  1  0.500000  0.000000  0.730385  1
  Ba  Ba1  1  0.000000  0.500000  0.264163  1
  Sr  Sr2  1  0.000000  0.000000  0.355506  1
  In  In3  1  0.000000  0.309387  0.891380  1
  In  In4  1  0.500000  0.192645  0.113276  1
  In  In5  1  0.000000  0.690613  0.891380  1
  In  In6  1  0.500000  0.807355  0.113276  1
  In  In7  1  0.500000  0.500000  0.642829  1
  Au  Au8  1  0.000000  0.713170  0.594083  1
  Au  Au9  1  0.500000  0.745171  0.414536  1
  Au  Au10  1  0.500000  0.500000  0.956252  1
  Au  Au11  1  0.000000  0.000000  0.024317  1
  Au  Au12  1  0.500000  0.254829  0.414536  1
  Au  Au13  1  0.000000  0.286830  0.594083  1
