# generated using pymatgen
data_Li6MgAs5Rh12
_symmetry_space_group_name_H-M   'P 1'
_cell_length_a   4.18055200
_cell_length_b   5.96932900
_cell_length_c   12.65618801
_cell_angle_alpha   90.00000000
_cell_angle_beta   90.00442961
_cell_angle_gamma   90.00000000
_symmetry_Int_Tables_number   1
_chemical_formula_structural   Li6MgAs5Rh12
_chemical_formula_sum   'Li6 Mg1 As5 Rh12'
_cell_volume   315.83631379
_cell_formula_units_Z   1
loop_
 _symmetry_equiv_pos_site_id
 _symmetry_equiv_pos_as_xyz
  1  'x, y, z'
loop_
 _atom_site_type_symbol
 _atom_site_label
 _atom_site_symmetry_multiplicity
 _atom_site_fract_x
 _atom_site_fract_y
 _atom_site_fract_z
 _atom_site_occupancy
  Li  Li0  1  0.000000  0.499999  0.000000  1
  Li  Li1  1  0.499944  0.000000  0.164527  1
  Li  Li2  1  0.999977  0.499999  0.335477  1
  Li  Li3  1  0.500001  0.000000  0.500000  1
  Li  Li4  1  0.000022  0.499999  0.664523  1
  Li  Li5  1  0.500055  0.000000  0.835473  1
  Mg  Mg6  1  0.000000  0.000000  0.000000  1
  As  As7  1  0.499964  0.499999  0.162303  1
  As  As8  1  0.999954  0.000000  0.331161  1
  As  As9  1  0.500001  0.499999  0.500000  1
  As  As10  1  0.000045  0.000000  0.668838  1
  As  As11  1  0.500037  0.499999  0.837696  1
  Rh  Rh12  1  0.500000  0.259648  0.000000  1
  Rh  Rh13  1  0.500000  0.740353  0.000000  1
  Rh  Rh14  1  0.999952  0.256119  0.174030  1
  Rh  Rh15  1  0.999952  0.743882  0.174030  1
  Rh  Rh16  1  0.499951  0.251240  0.336331  1
  Rh  Rh17  1  0.499951  0.748758  0.336331  1
  Rh  Rh18  1  0.000000  0.247977  0.500000  1
  Rh  Rh19  1  0.000000  0.752022  0.500000  1
  Rh  Rh20  1  0.500048  0.251240  0.663669  1
  Rh  Rh21  1  0.500048  0.748758  0.663669  1
  Rh  Rh22  1  0.000048  0.256119  0.825970  1
  Rh  Rh23  1  0.000048  0.743882  0.825970  1
