# generated using pymatgen
data_Li8Pr7ThPt8
_symmetry_space_group_name_H-M   'P 1'
_cell_length_a   9.68056366
_cell_length_b   9.68042650
_cell_length_c   7.30779829
_cell_angle_alpha   90.33373195
_cell_angle_beta   89.66612234
_cell_angle_gamma   130.51870812
_symmetry_Int_Tables_number   1
_chemical_formula_structural   Li8Pr7ThPt8
_chemical_formula_sum   'Li8 Pr7 Th1 Pt8'
_cell_volume   520.59155061
_cell_formula_units_Z   1
loop_
 _symmetry_equiv_pos_site_id
 _symmetry_equiv_pos_as_xyz
  1  'x, y, z'
loop_
 _atom_site_type_symbol
 _atom_site_label
 _atom_site_symmetry_multiplicity
 _atom_site_fract_x
 _atom_site_fract_y
 _atom_site_fract_z
 _atom_site_occupancy
  Li  Li0  1  0.847005  0.153009  0.872715  1
  Li  Li1  1  0.846851  0.650720  0.629737  1
  Li  Li2  1  0.349290  0.153149  0.629741  1
  Li  Li3  1  0.150385  0.849607  0.378151  1
  Li  Li4  1  0.154247  0.347980  0.125502  1
  Li  Li5  1  0.652027  0.845760  0.125487  1
  Li  Li6  1  0.653713  0.346304  0.377960  1
  Li  Li7  1  0.347336  0.652653  0.874340  1
  Pr  Pr8  1  0.530176  0.969083  0.548633  1
  Pr  Pr9  1  0.030917  0.469823  0.548626  1
  Pr  Pr10  1  0.532332  0.467665  0.954191  1
  Pr  Pr11  1  0.468641  0.030994  0.052368  1
  Pr  Pr12  1  0.969011  0.531349  0.052359  1
  Pr  Pr13  1  0.967230  0.032763  0.453352  1
  Pr  Pr14  1  0.031911  0.968059  0.956035  1
  Th  Th15  1  0.468941  0.531081  0.457370  1
  Pt  Pt16  1  0.816104  0.183889  0.254257  1
  Pt  Pt17  1  0.807037  0.681032  0.253509  1
  Pt  Pt18  1  0.318966  0.192971  0.253498  1
  Pt  Pt19  1  0.183214  0.816768  0.759951  1
  Pt  Pt20  1  0.190509  0.321282  0.740495  1
  Pt  Pt21  1  0.678727  0.809497  0.740492  1
  Pt  Pt22  1  0.684383  0.315619  0.759058  1
  Pt  Pt23  1  0.321049  0.678942  0.260178  1
