# generated using pymatgen
data_Hf4Pd2C
_symmetry_space_group_name_H-M   'P 1'
_cell_length_a   8.81265243
_cell_length_b   8.81265277
_cell_length_c   8.81265200
_cell_angle_alpha   60.00000291
_cell_angle_beta   60.00000160
_cell_angle_gamma   60.00000021
_symmetry_Int_Tables_number   1
_chemical_formula_structural   Hf4Pd2C
_chemical_formula_sum   'Hf16 Pd8 C4'
_cell_volume   483.95495318
_cell_formula_units_Z   4
loop_
 _symmetry_equiv_pos_site_id
 _symmetry_equiv_pos_as_xyz
  1  'x, y, z'
loop_
 _atom_site_type_symbol
 _atom_site_label
 _atom_site_symmetry_multiplicity
 _atom_site_fract_x
 _atom_site_fract_y
 _atom_site_fract_z
 _atom_site_occupancy
  Hf  Hf0  1  0.125000  0.625000  0.625000  1
  Hf  Hf1  1  0.625000  0.125000  0.625000  1
  Hf  Hf2  1  0.625000  0.625000  0.125000  1
  Hf  Hf3  1  0.625000  0.625000  0.625000  1
  Hf  Hf4  1  0.817773  0.817773  0.182227  1
  Hf  Hf5  1  0.182227  0.182227  0.817773  1
  Hf  Hf6  1  0.817773  0.182227  0.817773  1
  Hf  Hf7  1  0.182227  0.817773  0.182227  1
  Hf  Hf8  1  0.182227  0.817773  0.817773  1
  Hf  Hf9  1  0.817773  0.182227  0.182227  1
  Hf  Hf10  1  0.432227  0.432227  0.067773  1
  Hf  Hf11  1  0.067773  0.067773  0.432227  1
  Hf  Hf12  1  0.432227  0.067773  0.432227  1
  Hf  Hf13  1  0.067773  0.432227  0.067773  1
  Hf  Hf14  1  0.067773  0.432227  0.432227  1
  Hf  Hf15  1  0.432227  0.067773  0.067773  1
  Pd  Pd16  1  0.768414  0.410528  0.410528  1
  Pd  Pd17  1  0.410528  0.768414  0.410528  1
  Pd  Pd18  1  0.410528  0.410528  0.768414  1
  Pd  Pd19  1  0.410528  0.410528  0.410528  1
  Pd  Pd20  1  0.481586  0.839472  0.839472  1
  Pd  Pd21  1  0.839472  0.481586  0.839472  1
  Pd  Pd22  1  0.839472  0.839472  0.481586  1
  Pd  Pd23  1  0.839472  0.839472  0.839472  1
  C  C24  1  0.625000  0.125000  0.125000  1
  C  C25  1  0.125000  0.625000  0.125000  1
  C  C26  1  0.125000  0.125000  0.625000  1
  C  C27  1  0.125000  0.125000  0.125000  1
