# generated using pymatgen
data_Ba4Tb5Ho(BiS8)2
_symmetry_space_group_name_H-M   'P 1'
_cell_length_a   4.08586700
_cell_length_b   12.38232214
_cell_length_c   14.70949116
_cell_angle_alpha   90.01701259
_cell_angle_beta   90.00000000
_cell_angle_gamma   90.00000000
_symmetry_Int_Tables_number   1
_chemical_formula_structural   Ba4Tb5Ho(BiS8)2
_chemical_formula_sum   'Ba4 Tb5 Ho1 Bi2 S16'
_cell_volume   744.19021361
_cell_formula_units_Z   1
loop_
 _symmetry_equiv_pos_site_id
 _symmetry_equiv_pos_as_xyz
  1  'x, y, z'
loop_
 _atom_site_type_symbol
 _atom_site_label
 _atom_site_symmetry_multiplicity
 _atom_site_fract_x
 _atom_site_fract_y
 _atom_site_fract_z
 _atom_site_occupancy
  Ba  Ba0  1  0.250000  0.759011  0.337843  1
  Ba  Ba1  1  0.250000  0.259071  0.162023  1
  Ba  Ba2  1  0.750000  0.241747  0.661657  1
  Ba  Ba3  1  0.750000  0.741558  0.838479  1
  Tb  Tb4  1  0.750000  0.567679  0.610970  1
  Tb  Tb5  1  0.750000  0.067932  0.889125  1
  Tb  Tb6  1  0.250000  0.920660  0.601944  1
  Tb  Tb7  1  0.750000  0.577616  0.099843  1
  Tb  Tb8  1  0.750000  0.077726  0.400029  1
  Ho  Ho9  1  0.250000  0.420897  0.898119  1
  Bi  Bi10  1  0.250000  0.433639  0.390447  1
  Bi  Bi11  1  0.250000  0.933651  0.109552  1
  S  S12  1  0.250000  0.208180  0.834873  1
  S  S13  1  0.250000  0.707256  0.665426  1
  S  S14  1  0.750000  0.787640  0.167703  1
  S  S15  1  0.750000  0.287643  0.332272  1
  S  S16  1  0.250000  0.123461  0.524069  1
  S  S17  1  0.250000  0.622610  0.975540  1
  S  S18  1  0.750000  0.875249  0.477626  1
  S  S19  1  0.750000  0.375502  0.021431  1
  S  S20  1  0.250000  0.023008  0.286284  1
  S  S21  1  0.250000  0.522967  0.213713  1
  S  S22  1  0.750000  0.977135  0.716119  1
  S  S23  1  0.750000  0.476593  0.784855  1
  S  S24  1  0.250000  0.419730  0.580651  1
  S  S25  1  0.250000  0.919708  0.919361  1
  S  S26  1  0.750000  0.586080  0.425736  1
  S  S27  1  0.750000  0.086053  0.074312  1
