# generated using pymatgen
data_Ce8Si15Hg
_symmetry_space_group_name_H-M   'P 1'
_cell_length_a   8.11877500
_cell_length_b   8.11877577
_cell_length_c   8.32408300
_cell_angle_alpha   90.00000000
_cell_angle_beta   90.00000000
_cell_angle_gamma   120.00000093
_symmetry_Int_Tables_number   1
_chemical_formula_structural   Ce8Si15Hg
_chemical_formula_sum   'Ce8 Si15 Hg1'
_cell_volume   475.16898114
_cell_formula_units_Z   1
loop_
 _symmetry_equiv_pos_site_id
 _symmetry_equiv_pos_as_xyz
  1  'x, y, z'
loop_
 _atom_site_type_symbol
 _atom_site_label
 _atom_site_symmetry_multiplicity
 _atom_site_fract_x
 _atom_site_fract_y
 _atom_site_fract_z
 _atom_site_occupancy
  Ce  Ce0  1  0.495068  0.504899  0.742966  1
  Ce  Ce1  1  0.495688  0.504317  0.256807  1
  Ce  Ce2  1  0.009874  0.504936  0.742939  1
  Ce  Ce3  1  0.008609  0.504306  0.256768  1
  Ce  Ce4  1  0.495063  0.990139  0.742959  1
  Ce  Ce5  1  0.495724  0.991476  0.256725  1
  Ce  Ce6  1  0.999993  0.000001  0.747489  1
  Ce  Ce7  1  0.999985  0.000002  0.253268  1
  Si  Si8  1  0.842031  0.157867  0.001922  1
  Si  Si9  1  0.169253  0.830831  0.999103  1
  Si  Si10  1  0.315861  0.157913  0.001907  1
  Si  Si11  1  0.166896  0.833213  0.499529  1
  Si  Si12  1  0.661533  0.830777  0.999050  1
  Si  Si13  1  0.833663  0.166196  0.500523  1
  Si  Si14  1  0.842054  0.684170  0.001963  1
  Si  Si15  1  0.666271  0.833149  0.499574  1
  Si  Si16  1  0.169236  0.338405  0.999150  1
  Si  Si17  1  0.332549  0.166254  0.500561  1
  Si  Si18  1  0.166867  0.333653  0.499477  1
  Si  Si19  1  0.833692  0.667484  0.500478  1
  Si  Si20  1  0.333397  0.666705  0.000958  1
  Si  Si21  1  0.333413  0.666725  0.499273  1
  Si  Si22  1  0.666615  0.333266  0.500108  1
  Hg  Hg23  1  0.666664  0.333316  0.996499  1
