# generated using pymatgen
data_Tb2RuWC3
_symmetry_space_group_name_H-M   'P 1'
_cell_length_a   6.09581644
_cell_length_b   6.09581632
_cell_length_c   5.72027156
_cell_angle_alpha   67.21796634
_cell_angle_beta   67.21796584
_cell_angle_gamma   32.08634625
_symmetry_Int_Tables_number   1
_chemical_formula_structural   Tb2RuWC3
_chemical_formula_sum   'Tb2 Ru1 W1 C3'
_cell_volume   103.34007049
_cell_formula_units_Z   1
loop_
 _symmetry_equiv_pos_site_id
 _symmetry_equiv_pos_as_xyz
  1  'x, y, z'
loop_
 _atom_site_type_symbol
 _atom_site_label
 _atom_site_symmetry_multiplicity
 _atom_site_fract_x
 _atom_site_fract_y
 _atom_site_fract_z
 _atom_site_occupancy
  Tb  Tb0  1  0.607828  0.607828  0.170494  1
  Tb  Tb1  1  0.391770  0.391770  0.815720  1
  Ru  Ru2  1  0.158047  0.158047  0.683062  1
  W  W3  1  0.840738  0.840738  0.324397  1
  C  C4  1  0.752995  0.752995  0.729407  1
  C  C5  1  0.248333  0.248333  0.270661  1
  C  C6  1  0.000291  0.000291  0.006259  1
