# generated using pymatgen
data_HfTa4Si3
_symmetry_space_group_name_H-M   'P 1'
_cell_length_a   7.65301288
_cell_length_b   7.65301176
_cell_length_c   7.65307204
_cell_angle_alpha   128.98276263
_cell_angle_beta   128.98275368
_cell_angle_gamma   75.03767501
_symmetry_Int_Tables_number   1
_chemical_formula_structural   HfTa4Si3
_chemical_formula_sum   'Hf2 Ta8 Si6'
_cell_volume   263.73047571
_cell_formula_units_Z   2
loop_
 _symmetry_equiv_pos_site_id
 _symmetry_equiv_pos_as_xyz
  1  'x, y, z'
loop_
 _atom_site_type_symbol
 _atom_site_label
 _atom_site_symmetry_multiplicity
 _atom_site_fract_x
 _atom_site_fract_y
 _atom_site_fract_z
 _atom_site_occupancy
  Hf  Hf0  1  0.014880  0.182496  0.500000  1
  Hf  Hf1  1  0.682496  0.514880  0.500000  1
  Ta  Ta2  1  0.514472  0.014472  0.828128  1
  Ta  Ta3  1  0.186345  0.686345  0.171873  1
  Ta  Ta4  1  0.984093  0.811625  0.500000  1
  Ta  Ta5  1  0.311625  0.484093  0.500000  1
  Ta  Ta6  1  0.485906  0.985906  0.170556  1
  Ta  Ta7  1  0.815349  0.315349  0.829442  1
  Ta  Ta8  1  0.003584  0.003584  0.000000  1
  Ta  Ta9  1  0.503584  0.503584  0.000000  1
  Si  Si10  1  0.747051  0.747051  0.000000  1
  Si  Si11  1  0.247051  0.247051  0.000000  1
  Si  Si12  1  0.372111  0.130117  0.500000  1
  Si  Si13  1  0.630117  0.872111  0.500000  1
  Si  Si14  1  0.869636  0.369636  0.237935  1
  Si  Si15  1  0.131701  0.631701  0.762065  1
