# generated using pymatgen
data_CoSn16Pd3
_symmetry_space_group_name_H-M   'P 1'
_cell_length_a   12.72567920
_cell_length_b   12.72567976
_cell_length_c   12.72793332
_cell_angle_alpha   150.84869610
_cell_angle_beta   150.84869929
_cell_angle_gamma   41.67035156
_symmetry_Int_Tables_number   1
_chemical_formula_structural   CoSn16Pd3
_chemical_formula_sum   'Co1 Sn16 Pd3'
_cell_volume   488.01202508
_cell_formula_units_Z   1
loop_
 _symmetry_equiv_pos_site_id
 _symmetry_equiv_pos_as_xyz
  1  'x, y, z'
loop_
 _atom_site_type_symbol
 _atom_site_label
 _atom_site_symmetry_multiplicity
 _atom_site_fract_x
 _atom_site_fract_y
 _atom_site_fract_z
 _atom_site_occupancy
  Co  Co0  1  0.000000  0.500000  0.500000  1
  Sn  Sn1  1  0.987892  0.487016  0.846030  1
  Sn  Sn2  1  0.358137  0.859014  0.846030  1
  Sn  Sn3  1  0.012984  0.512108  0.153970  1
  Sn  Sn4  1  0.255303  0.604834  0.983719  1
  Sn  Sn5  1  0.105047  0.120763  0.350096  1
  Sn  Sn6  1  0.857916  0.010992  0.498865  1
  Sn  Sn7  1  0.512127  0.359051  0.501135  1
  Sn  Sn8  1  0.140949  0.987873  0.498865  1
  Sn  Sn9  1  0.489008  0.642084  0.501135  1
  Sn  Sn10  1  0.745049  0.729333  0.350096  1
  Sn  Sn11  1  0.379237  0.394953  0.649904  1
  Sn  Sn12  1  0.770667  0.754951  0.649904  1
  Sn  Sn13  1  0.640986  0.141863  0.153970  1
  Sn  Sn14  1  0.895166  0.244697  0.016281  1
  Sn  Sn15  1  0.228415  0.878885  0.983719  1
  Sn  Sn16  1  0.621115  0.271585  0.016281  1
  Pd  Pd17  1  0.500000  0.000000  0.500000  1
  Pd  Pd18  1  0.750000  0.750000  0.000000  1
  Pd  Pd19  1  0.250000  0.250000  0.000000  1
