# generated using pymatgen
data_Cs3Y(TaS4)2
_symmetry_space_group_name_H-M   'P 1'
_cell_length_a   9.82151202
_cell_length_b   10.83740736
_cell_length_c   11.55747408
_cell_angle_alpha   107.47665438
_cell_angle_beta   103.81211889
_cell_angle_gamma   113.38516859
_symmetry_Int_Tables_number   1
_chemical_formula_structural   Cs3Y(TaS4)2
_chemical_formula_sum   'Cs6 Y2 Ta4 S16'
_cell_volume   982.87830431
_cell_formula_units_Z   2
loop_
 _symmetry_equiv_pos_site_id
 _symmetry_equiv_pos_as_xyz
  1  'x, y, z'
loop_
 _atom_site_type_symbol
 _atom_site_label
 _atom_site_symmetry_multiplicity
 _atom_site_fract_x
 _atom_site_fract_y
 _atom_site_fract_z
 _atom_site_occupancy
  Cs  Cs0  1  0.000001  0.500002  0.000001  1
  Cs  Cs1  1  0.500002  0.500002  0.000005  1
  Cs  Cs2  1  0.265622  0.015640  0.031178  1
  Cs  Cs3  1  0.483087  0.733088  0.466126  1
  Cs  Cs4  1  0.516916  0.266915  0.533880  1
  Cs  Cs5  1  0.734375  0.984359  0.968814  1
  Y  Y6  1  0.998902  0.248876  0.497841  1
  Y  Y7  1  0.001096  0.751123  0.502157  1
  Ta  Ta8  1  0.766649  0.356744  0.266487  1
  Ta  Ta9  1  0.999809  0.909720  0.266436  1
  Ta  Ta10  1  0.000191  0.090281  0.733561  1
  Ta  Ta11  1  0.233349  0.643253  0.733514  1
  S  S12  1  0.657274  0.275510  0.043996  1
  S  S13  1  0.886680  0.768437  0.043947  1
  S  S14  1  0.112336  0.159780  0.310032  1
  S  S15  1  0.697723  0.150266  0.310061  1
  S  S16  1  0.040943  0.502844  0.354306  1
  S  S17  1  0.813355  0.851501  0.354298  1
  S  S18  1  0.188166  0.858149  0.365818  1
  S  S19  1  0.677683  0.507749  0.365856  1
  S  S20  1  0.322312  0.492246  0.634144  1
  S  S21  1  0.811834  0.141848  0.634179  1
  S  S22  1  0.186644  0.148494  0.645698  1
  S  S23  1  0.959056  0.497157  0.645696  1
  S  S24  1  0.302274  0.849730  0.689938  1
  S  S25  1  0.887663  0.840220  0.689968  1
  S  S26  1  0.113322  0.231567  0.956050  1
  S  S27  1  0.342730  0.724492  0.956006  1
