# generated using pymatgen
data_HoScB6Rh
_symmetry_space_group_name_H-M   'P 1'
_cell_length_a   3.54606900
_cell_length_b   8.99546200
_cell_length_c   11.34697600
_cell_angle_alpha   90.00000000
_cell_angle_beta   90.00000000
_cell_angle_gamma   90.00000000
_symmetry_Int_Tables_number   1
_chemical_formula_structural   HoScB6Rh
_chemical_formula_sum   'Ho4 Sc4 B24 Rh4'
_cell_volume   361.95184230
_cell_formula_units_Z   4
loop_
 _symmetry_equiv_pos_site_id
 _symmetry_equiv_pos_as_xyz
  1  'x, y, z'
loop_
 _atom_site_type_symbol
 _atom_site_label
 _atom_site_symmetry_multiplicity
 _atom_site_fract_x
 _atom_site_fract_y
 _atom_site_fract_z
 _atom_site_occupancy
  Ho  Ho0  1  0.500000  0.320219  0.413855  1
  Ho  Ho1  1  0.500000  0.679781  0.586145  1
  Ho  Ho2  1  0.500000  0.179781  0.913855  1
  Ho  Ho3  1  0.500000  0.820219  0.086145  1
  Sc  Sc4  1  0.500000  0.444772  0.124790  1
  Sc  Sc5  1  0.500000  0.555228  0.875210  1
  Sc  Sc6  1  0.500000  0.055228  0.624790  1
  Sc  Sc7  1  0.500000  0.944772  0.375210  1
  B  B8  1  0.000000  0.100365  0.472898  1
  B  B9  1  0.000000  0.899635  0.527102  1
  B  B10  1  0.000000  0.399635  0.972898  1
  B  B11  1  0.000000  0.600365  0.027102  1
  B  B12  1  0.000000  0.130160  0.318295  1
  B  B13  1  0.000000  0.869840  0.681705  1
  B  B14  1  0.000000  0.369840  0.818295  1
  B  B15  1  0.000000  0.630160  0.181705  1
  B  B16  1  0.000000  0.054713  0.065645  1
  B  B17  1  0.000000  0.945287  0.934355  1
  B  B18  1  0.000000  0.445287  0.565645  1
  B  B19  1  0.000000  0.554713  0.434355  1
  B  B20  1  0.000000  0.481682  0.285225  1
  B  B21  1  0.000000  0.518318  0.714775  1
  B  B22  1  0.000000  0.018318  0.785225  1
  B  B23  1  0.000000  0.981682  0.214775  1
  B  B24  1  0.000000  0.253810  0.080254  1
  B  B25  1  0.000000  0.746190  0.919746  1
  B  B26  1  0.000000  0.246190  0.580254  1
  B  B27  1  0.000000  0.753810  0.419746  1
  B  B28  1  0.000000  0.295843  0.235516  1
  B  B29  1  0.000000  0.704157  0.764484  1
  B  B30  1  0.000000  0.204157  0.735516  1
  B  B31  1  0.000000  0.795843  0.264484  1
  Rh  Rh32  1  0.500000  0.141513  0.181438  1
  Rh  Rh33  1  0.500000  0.858487  0.818562  1
  Rh  Rh34  1  0.500000  0.358487  0.681438  1
  Rh  Rh35  1  0.500000  0.641513  0.318562  1
