# generated using pymatgen
data_Gd4Y2OsI10
_symmetry_space_group_name_H-M   'P 1'
_cell_length_a   7.84548545
_cell_length_b   9.87246264
_cell_length_c   9.88251700
_cell_angle_alpha   107.00826140
_cell_angle_beta   96.63748253
_cell_angle_gamma   104.58118243
_symmetry_Int_Tables_number   1
_chemical_formula_structural   Gd4Y2OsI10
_chemical_formula_sum   'Gd4 Y2 Os1 I10'
_cell_volume   693.42355543
_cell_formula_units_Z   1
loop_
 _symmetry_equiv_pos_site_id
 _symmetry_equiv_pos_as_xyz
  1  'x, y, z'
loop_
 _atom_site_type_symbol
 _atom_site_label
 _atom_site_symmetry_multiplicity
 _atom_site_fract_x
 _atom_site_fract_y
 _atom_site_fract_z
 _atom_site_occupancy
  Gd  Gd0  1  0.115990  0.043355  0.760121  1
  Gd  Gd1  1  0.884010  0.956645  0.239879  1
  Gd  Gd2  1  0.966868  0.274763  0.080416  1
  Gd  Gd3  1  0.033132  0.725237  0.919584  1
  Y  Y4  1  0.353165  0.125924  0.167698  1
  Y  Y5  1  0.646835  0.874076  0.832302  1
  Os  Os6  1  0.000000  0.000000  0.000000  1
  I  I7  1  0.346207  0.443539  0.268889  1
  I  I8  1  0.653793  0.556461  0.731111  1
  I  I9  1  0.257591  0.086679  0.457163  1
  I  I10  1  0.742409  0.913321  0.542837  1
  I  I11  1  0.085783  0.368730  0.821180  1
  I  I12  1  0.914217  0.631270  0.178820  1
  I  I13  1  0.454495  0.819676  0.090319  1
  I  I14  1  0.545505  0.180324  0.909681  1
  I  I15  1  0.776208  0.253226  0.342996  1
  I  I16  1  0.223792  0.746774  0.657004  1
