# generated using pymatgen
data_TiAl2Fe4Mo
_symmetry_space_group_name_H-M   'P 1'
_cell_length_a   4.12478200
_cell_length_b   5.83196400
_cell_length_c   12.34855000
_cell_angle_alpha   90.00000000
_cell_angle_beta   89.99994435
_cell_angle_gamma   90.00000000
_symmetry_Int_Tables_number   1
_chemical_formula_structural   TiAl2Fe4Mo
_chemical_formula_sum   'Ti3 Al6 Fe12 Mo3'
_cell_volume   297.05153404
_cell_formula_units_Z   3
loop_
 _symmetry_equiv_pos_site_id
 _symmetry_equiv_pos_as_xyz
  1  'x, y, z'
loop_
 _atom_site_type_symbol
 _atom_site_label
 _atom_site_symmetry_multiplicity
 _atom_site_fract_x
 _atom_site_fract_y
 _atom_site_fract_z
 _atom_site_occupancy
  Ti  Ti0  1  0.499999  0.000000  0.503935  1
  Ti  Ti1  1  0.999997  0.500000  0.666752  1
  Ti  Ti2  1  0.499996  0.000000  0.829314  1
  Al  Al3  1  0.000000  0.000000  0.998199  1
  Al  Al4  1  0.500014  0.500000  0.166785  1
  Al  Al5  1  0.000001  0.000000  0.335043  1
  Al  Al6  1  0.500000  0.500000  0.503448  1
  Al  Al7  1  0.999997  0.000000  0.666737  1
  Al  Al8  1  0.499991  0.500000  0.829809  1
  Fe  Fe9  1  0.499999  0.251992  0.002927  1
  Fe  Fe10  1  0.499999  0.748009  0.002927  1
  Fe  Fe11  1  0.000005  0.248642  0.166696  1
  Fe  Fe12  1  0.000005  0.751357  0.166696  1
  Fe  Fe13  1  0.500002  0.252039  0.330421  1
  Fe  Fe14  1  0.500002  0.747960  0.330421  1
  Fe  Fe15  1  0.000000  0.252137  0.496659  1
  Fe  Fe16  1  0.000000  0.747862  0.496659  1
  Fe  Fe17  1  0.499999  0.248574  0.666682  1
  Fe  Fe18  1  0.499999  0.751425  0.666682  1
  Fe  Fe19  1  0.999993  0.252103  0.836616  1
  Fe  Fe20  1  0.999993  0.747896  0.836616  1
  Mo  Mo21  1  0.999999  0.500000  0.994791  1
  Mo  Mo22  1  0.500003  0.000000  0.166674  1
  Mo  Mo23  1  0.000002  0.500000  0.338513  1
