# generated using pymatgen
data_Pu3Hf(Al3Ir)6
_symmetry_space_group_name_H-M   'P 1'
_cell_length_a   7.54169440
_cell_length_b   7.54586022
_cell_length_c   9.43440700
_cell_angle_alpha   90.00000000
_cell_angle_beta   90.00000000
_cell_angle_gamma   119.57131156
_symmetry_Int_Tables_number   1
_chemical_formula_structural   Pu3Hf(Al3Ir)6
_chemical_formula_sum   'Pu3 Hf1 Al18 Ir6'
_cell_volume   466.96336230
_cell_formula_units_Z   1
loop_
 _symmetry_equiv_pos_site_id
 _symmetry_equiv_pos_as_xyz
  1  'x, y, z'
loop_
 _atom_site_type_symbol
 _atom_site_label
 _atom_site_symmetry_multiplicity
 _atom_site_fract_x
 _atom_site_fract_y
 _atom_site_fract_z
 _atom_site_occupancy
  Pu  Pu0  1  0.993233  0.670202  0.250000  1
  Pu  Pu1  1  0.003494  0.328847  0.750000  1
  Pu  Pu2  1  0.674565  0.996033  0.250000  1
  Hf  Hf3  1  0.327664  0.002617  0.750000  1
  Al  Al4  1  0.131181  0.129125  0.250000  1
  Al  Al5  1  0.877330  0.874597  0.750000  1
  Al  Al6  1  0.001830  0.336874  0.074476  1
  Al  Al7  1  0.001824  0.667158  0.923013  1
  Al  Al8  1  0.001824  0.667158  0.576987  1
  Al  Al9  1  0.335558  0.999513  0.428000  1
  Al  Al10  1  0.001830  0.336874  0.425524  1
  Al  Al11  1  0.661851  0.999458  0.577193  1
  Al  Al12  1  0.661851  0.999458  0.922807  1
  Al  Al13  1  0.335558  0.999513  0.072000  1
  Al  Al14  1  0.332687  0.330671  0.557383  1
  Al  Al15  1  0.665687  0.665768  0.448593  1
  Al  Al16  1  0.665687  0.665768  0.051407  1
  Al  Al17  1  0.332687  0.330671  0.942617  1
  Al  Al18  1  0.340551  0.550273  0.250000  1
  Al  Al19  1  0.656103  0.446473  0.750000  1
  Al  Al20  1  0.546977  0.339143  0.250000  1
  Al  Al21  1  0.450738  0.664931  0.750000  1
  Ir  Ir22  1  0.668837  0.326943  0.998056  1
  Ir  Ir23  1  0.328717  0.672318  0.997699  1
  Ir  Ir24  1  0.328717  0.672318  0.502301  1
  Ir  Ir25  1  0.668837  0.326943  0.501944  1
  Ir  Ir26  1  0.002091  0.000176  0.998509  1
  Ir  Ir27  1  0.002091  0.000176  0.501491  1
