# generated using pymatgen
data_TbEr3Sb6Ru2Rh5
_symmetry_space_group_name_H-M   'P 1'
_cell_length_a   7.57946174
_cell_length_b   7.57978181
_cell_length_c   7.57978101
_cell_angle_alpha   109.31215766
_cell_angle_beta   109.60292670
_cell_angle_gamma   109.60292294
_symmetry_Int_Tables_number   1
_chemical_formula_structural   TbEr3Sb6Ru2Rh5
_chemical_formula_sum   'Tb1 Er3 Sb6 Ru2 Rh5'
_cell_volume   334.78540234
_cell_formula_units_Z   1
loop_
 _symmetry_equiv_pos_site_id
 _symmetry_equiv_pos_as_xyz
  1  'x, y, z'
loop_
 _atom_site_type_symbol
 _atom_site_label
 _atom_site_symmetry_multiplicity
 _atom_site_fract_x
 _atom_site_fract_y
 _atom_site_fract_z
 _atom_site_occupancy
  Tb  Tb0  1  0.500000  0.500845  0.499155  1
  Er  Er1  1  0.500000  0.999076  0.000924  1
  Er  Er2  1  0.001835  0.500902  0.000893  1
  Er  Er3  1  0.998165  0.999107  0.499098  1
  Sb  Sb4  1  0.999335  0.314291  0.314295  1
  Sb  Sb5  1  0.685164  0.999597  0.684117  1
  Sb  Sb6  1  0.685135  0.686237  0.001682  1
  Sb  Sb7  1  0.000665  0.685705  0.685709  1
  Sb  Sb8  1  0.314865  0.998318  0.313763  1
  Sb  Sb9  1  0.314836  0.315883  0.000403  1
  Ru  Ru10  1  0.000000  0.000007  0.999993  1
  Ru  Ru11  1  0.500000  0.750389  0.249611  1
  Rh  Rh12  1  0.751018  0.499941  0.250240  1
  Rh  Rh13  1  0.248982  0.749760  0.500059  1
  Rh  Rh14  1  0.248996  0.499947  0.749642  1
  Rh  Rh15  1  0.500000  0.249638  0.750362  1
  Rh  Rh16  1  0.751004  0.250358  0.500053  1
