# generated using pymatgen
data_LiTb6Mn(Co4P3)4
_symmetry_space_group_name_H-M   'P 1'
_cell_length_a   3.71082800
_cell_length_b   10.56947200
_cell_length_c   12.22411500
_cell_angle_alpha   90.00000000
_cell_angle_beta   90.00000000
_cell_angle_gamma   90.00000000
_symmetry_Int_Tables_number   1
_chemical_formula_structural   LiTb6Mn(Co4P3)4
_chemical_formula_sum   'Li1 Tb6 Mn1 Co16 P12'
_cell_volume   479.44803654
_cell_formula_units_Z   1
loop_
 _symmetry_equiv_pos_site_id
 _symmetry_equiv_pos_as_xyz
  1  'x, y, z'
loop_
 _atom_site_type_symbol
 _atom_site_label
 _atom_site_symmetry_multiplicity
 _atom_site_fract_x
 _atom_site_fract_y
 _atom_site_fract_z
 _atom_site_occupancy
  Li  Li0  1  0.000000  0.000000  0.848597  1
  Tb  Tb1  1  0.000000  0.500000  0.522575  1
  Tb  Tb2  1  0.500000  0.000000  0.477523  1
  Tb  Tb3  1  0.500000  0.818330  0.205723  1
  Tb  Tb4  1  0.500000  0.181670  0.205723  1
  Tb  Tb5  1  0.000000  0.681126  0.794324  1
  Tb  Tb6  1  0.000000  0.318874  0.794324  1
  Mn  Mn7  1  0.500000  0.500000  0.160382  1
  Co  Co8  1  0.500000  0.500000  0.702917  1
  Co  Co9  1  0.000000  0.000000  0.295335  1
  Co  Co10  1  0.000000  0.500000  0.987089  1
  Co  Co11  1  0.500000  0.000000  0.013474  1
  Co  Co12  1  0.500000  0.335200  0.996609  1
  Co  Co13  1  0.500000  0.664800  0.996609  1
  Co  Co14  1  0.000000  0.169071  0.005003  1
  Co  Co15  1  0.000000  0.830929  0.005003  1
  Co  Co16  1  0.500000  0.297600  0.428924  1
  Co  Co17  1  0.500000  0.702400  0.428924  1
  Co  Co18  1  0.000000  0.204166  0.567839  1
  Co  Co19  1  0.000000  0.795834  0.567839  1
  Co  Co20  1  0.500000  0.878010  0.706610  1
  Co  Co21  1  0.500000  0.121990  0.706610  1
  Co  Co22  1  0.000000  0.619654  0.290546  1
  Co  Co23  1  0.000000  0.380346  0.290546  1
  P  P24  1  0.500000  0.500000  0.883496  1
  P  P25  1  0.000000  0.000000  0.114587  1
  P  P26  1  0.500000  0.500000  0.345992  1
  P  P27  1  0.000000  0.000000  0.655456  1
  P  P28  1  0.500000  0.309645  0.614714  1
  P  P29  1  0.500000  0.690355  0.614714  1
  P  P30  1  0.000000  0.190161  0.383781  1
  P  P31  1  0.000000  0.809839  0.383781  1
  P  P32  1  0.500000  0.843105  0.894697  1
  P  P33  1  0.500000  0.156895  0.894697  1
  P  P34  1  0.000000  0.652507  0.107518  1
  P  P35  1  0.000000  0.347493  0.107518  1
