# generated using pymatgen
data_Tb2AsPd14
_symmetry_space_group_name_H-M   'P 1'
_cell_length_a   8.98102600
_cell_length_b   8.98102600
_cell_length_c   7.12081800
_cell_angle_alpha   90.00000000
_cell_angle_beta   90.00000000
_cell_angle_gamma   90.00000000
_symmetry_Int_Tables_number   1
_chemical_formula_structural   Tb2AsPd14
_chemical_formula_sum   'Tb4 As2 Pd28'
_cell_volume   574.35683437
_cell_formula_units_Z   2
loop_
 _symmetry_equiv_pos_site_id
 _symmetry_equiv_pos_as_xyz
  1  'x, y, z'
loop_
 _atom_site_type_symbol
 _atom_site_label
 _atom_site_symmetry_multiplicity
 _atom_site_fract_x
 _atom_site_fract_y
 _atom_site_fract_z
 _atom_site_occupancy
  Tb  Tb0  1  0.500000  0.000000  0.934478  1
  Tb  Tb1  1  0.000000  0.500000  0.065522  1
  Tb  Tb2  1  0.000000  0.000000  0.500000  1
  Tb  Tb3  1  0.500000  0.500000  0.500000  1
  As  As4  1  0.500000  0.000000  0.447552  1
  As  As5  1  0.000000  0.500000  0.552448  1
  Pd  Pd6  1  0.331524  0.831524  0.620804  1
  Pd  Pd7  1  0.331524  0.168476  0.620804  1
  Pd  Pd8  1  0.668476  0.831524  0.620804  1
  Pd  Pd9  1  0.668476  0.168476  0.620804  1
  Pd  Pd10  1  0.168476  0.668476  0.379196  1
  Pd  Pd11  1  0.168476  0.331524  0.379196  1
  Pd  Pd12  1  0.831524  0.668476  0.379196  1
  Pd  Pd13  1  0.831524  0.331524  0.379196  1
  Pd  Pd14  1  0.500000  0.765940  0.252890  1
  Pd  Pd15  1  0.500000  0.234060  0.252890  1
  Pd  Pd16  1  0.265940  0.000000  0.252890  1
  Pd  Pd17  1  0.734060  0.000000  0.252890  1
  Pd  Pd18  1  0.000000  0.734060  0.747110  1
  Pd  Pd19  1  0.000000  0.265940  0.747110  1
  Pd  Pd20  1  0.234060  0.500000  0.747110  1
  Pd  Pd21  1  0.765940  0.500000  0.747110  1
  Pd  Pd22  1  0.500000  0.349060  0.853807  1
  Pd  Pd23  1  0.500000  0.650940  0.853807  1
  Pd  Pd24  1  0.849060  0.000000  0.853807  1
  Pd  Pd25  1  0.150940  0.000000  0.853807  1
  Pd  Pd26  1  0.000000  0.150940  0.146193  1
  Pd  Pd27  1  0.000000  0.849060  0.146193  1
  Pd  Pd28  1  0.650940  0.500000  0.146193  1
  Pd  Pd29  1  0.349060  0.500000  0.146193  1
  Pd  Pd30  1  0.250000  0.750000  0.000000  1
  Pd  Pd31  1  0.250000  0.250000  0.000000  1
  Pd  Pd32  1  0.750000  0.750000  0.000000  1
  Pd  Pd33  1  0.750000  0.250000  0.000000  1
