# generated using pymatgen
data_Hf15Sc3Ta2(BeRe3)2
_symmetry_space_group_name_H-M   'P 1'
_cell_length_a   8.67370300
_cell_length_b   8.67370263
_cell_length_c   8.47236700
_cell_angle_alpha   90.00000000
_cell_angle_beta   90.00000000
_cell_angle_gamma   119.99999761
_symmetry_Int_Tables_number   1
_chemical_formula_structural   Hf15Sc3Ta2(BeRe3)2
_chemical_formula_sum   'Hf15 Sc3 Ta2 Be2 Re6'
_cell_volume   552.00686369
_cell_formula_units_Z   1
loop_
 _symmetry_equiv_pos_site_id
 _symmetry_equiv_pos_as_xyz
  1  'x, y, z'
loop_
 _atom_site_type_symbol
 _atom_site_label
 _atom_site_symmetry_multiplicity
 _atom_site_fract_x
 _atom_site_fract_y
 _atom_site_fract_z
 _atom_site_occupancy
  Hf  Hf0  1  0.199871  0.800129  0.446226  1
  Hf  Hf1  1  0.199871  0.399741  0.446226  1
  Hf  Hf2  1  0.600259  0.800129  0.446226  1
  Hf  Hf3  1  0.800590  0.199410  0.553546  1
  Hf  Hf4  1  0.800590  0.601180  0.553546  1
  Hf  Hf5  1  0.398820  0.199410  0.553546  1
  Hf  Hf6  1  0.800590  0.199410  0.946454  1
  Hf  Hf7  1  0.800590  0.601180  0.946454  1
  Hf  Hf8  1  0.398820  0.199410  0.946454  1
  Hf  Hf9  1  0.199871  0.800129  0.053774  1
  Hf  Hf10  1  0.199871  0.399741  0.053774  1
  Hf  Hf11  1  0.600259  0.800129  0.053774  1
  Hf  Hf12  1  0.460584  0.539416  0.750000  1
  Hf  Hf13  1  0.460584  0.921172  0.750000  1
  Hf  Hf14  1  0.078828  0.539416  0.750000  1
  Sc  Sc15  1  0.539117  0.460883  0.250000  1
  Sc  Sc16  1  0.539117  0.078232  0.250000  1
  Sc  Sc17  1  0.921768  0.460883  0.250000  1
  Ta  Ta18  1  0.000000  0.000000  0.497817  1
  Ta  Ta19  1  0.000000  0.000000  0.002183  1
  Be  Be20  1  0.333333  0.666667  0.250000  1
  Be  Be21  1  0.666667  0.333333  0.750000  1
  Re  Re22  1  0.886473  0.113527  0.250000  1
  Re  Re23  1  0.886473  0.772944  0.250000  1
  Re  Re24  1  0.227056  0.113527  0.250000  1
  Re  Re25  1  0.113752  0.886248  0.750000  1
  Re  Re26  1  0.113752  0.227505  0.750000  1
  Re  Re27  1  0.772495  0.886248  0.750000  1
