# generated using pymatgen
data_PrNd5Cd23P
_symmetry_space_group_name_H-M   'P 1'
_cell_length_a   10.06837412
_cell_length_b   10.06837438
_cell_length_c   10.06920700
_cell_angle_alpha   59.99726110
_cell_angle_beta   59.99726023
_cell_angle_gamma   60.00547021
_symmetry_Int_Tables_number   1
_chemical_formula_structural   PrNd5Cd23P
_chemical_formula_sum   'Pr1 Nd5 Cd23 P1'
_cell_volume   721.77018464
_cell_formula_units_Z   1
loop_
 _symmetry_equiv_pos_site_id
 _symmetry_equiv_pos_as_xyz
  1  'x, y, z'
loop_
 _atom_site_type_symbol
 _atom_site_label
 _atom_site_symmetry_multiplicity
 _atom_site_fract_x
 _atom_site_fract_y
 _atom_site_fract_z
 _atom_site_occupancy
  Pr  Pr0  1  0.797831  0.797831  0.202169  1
  Nd  Nd1  1  0.201535  0.798680  0.201320  1
  Nd  Nd2  1  0.798680  0.201535  0.201320  1
  Nd  Nd3  1  0.201684  0.201684  0.798316  1
  Nd  Nd4  1  0.798680  0.201535  0.798465  1
  Nd  Nd5  1  0.201535  0.798680  0.798465  1
  Cd  Cd6  1  0.833260  0.833260  0.500732  1
  Cd  Cd7  1  0.833286  0.500139  0.833287  1
  Cd  Cd8  1  0.500139  0.833286  0.833287  1
  Cd  Cd9  1  0.833260  0.833260  0.832748  1
  Cd  Cd10  1  0.166713  0.166713  0.499861  1
  Cd  Cd11  1  0.167252  0.499268  0.166740  1
  Cd  Cd12  1  0.499268  0.167252  0.166740  1
  Cd  Cd13  1  0.166713  0.166713  0.166714  1
  Cd  Cd14  1  0.621137  0.621137  0.135739  1
  Cd  Cd15  1  0.621311  0.135966  0.621361  1
  Cd  Cd16  1  0.135966  0.621311  0.621361  1
  Cd  Cd17  1  0.621137  0.621137  0.621985  1
  Cd  Cd18  1  0.378639  0.378639  0.864034  1
  Cd  Cd19  1  0.378015  0.864261  0.378863  1
  Cd  Cd20  1  0.864261  0.378015  0.378863  1
  Cd  Cd21  1  0.378639  0.378639  0.378689  1
  Cd  Cd22  1  0.000115  0.000115  0.499885  1
  Cd  Cd23  1  0.499815  0.000167  0.500185  1
  Cd  Cd24  1  0.000167  0.499815  0.500185  1
  Cd  Cd25  1  0.500115  0.500115  0.999885  1
  Cd  Cd26  1  0.000167  0.499815  0.999833  1
  Cd  Cd27  1  0.499815  0.000167  0.999833  1
  Cd  Cd28  1  0.500025  0.500025  0.499975  1
  P  P29  1  0.000842  0.000842  0.999158  1
