# generated using pymatgen
data_Dy9Ho6Lu(Ga3Co)2
_symmetry_space_group_name_H-M   'P 1'
_cell_length_a   9.95751604
_cell_length_b   9.95751627
_cell_length_c   6.96485754
_cell_angle_alpha   89.98552685
_cell_angle_beta   90.01446718
_cell_angle_gamma   119.97243450
_symmetry_Int_Tables_number   1
_chemical_formula_structural   Dy9Ho6Lu(Ga3Co)2
_chemical_formula_sum   'Dy9 Ho6 Lu1 Ga6 Co2'
_cell_volume   598.22623704
_cell_formula_units_Z   1
loop_
 _symmetry_equiv_pos_site_id
 _symmetry_equiv_pos_as_xyz
  1  'x, y, z'
loop_
 _atom_site_type_symbol
 _atom_site_label
 _atom_site_symmetry_multiplicity
 _atom_site_fract_x
 _atom_site_fract_y
 _atom_site_fract_z
 _atom_site_occupancy
  Dy  Dy0  1  0.666640  0.333360  0.328604  1
  Dy  Dy1  1  0.462731  0.537269  0.207758  1
  Dy  Dy2  1  0.074298  0.537964  0.208565  1
  Dy  Dy3  1  0.462036  0.925702  0.208565  1
  Dy  Dy4  1  0.537010  0.462990  0.708436  1
  Dy  Dy5  1  0.926889  0.464053  0.708094  1
  Dy  Dy6  1  0.535947  0.073111  0.708094  1
  Dy  Dy7  1  0.000627  0.999373  0.233870  1
  Dy  Dy8  1  0.000220  0.999780  0.730362  1
  Ho  Ho9  1  0.653211  0.826527  0.512806  1
  Ho  Ho10  1  0.173473  0.346789  0.512806  1
  Ho  Ho11  1  0.827150  0.172850  0.011898  1
  Ho  Ho12  1  0.345586  0.172867  0.012171  1
  Ho  Ho13  1  0.827133  0.654414  0.012171  1
  Ho  Ho14  1  0.332936  0.667064  0.825940  1
  Lu  Lu15  1  0.174054  0.825946  0.513185  1
  Ga  Ga16  1  0.163741  0.836259  0.953869  1
  Ga  Ga17  1  0.672102  0.836083  0.955806  1
  Ga  Ga18  1  0.163917  0.327898  0.955806  1
  Ga  Ga19  1  0.837126  0.162874  0.457563  1
  Ga  Ga20  1  0.324846  0.160883  0.457816  1
  Ga  Ga21  1  0.839117  0.675154  0.457816  1
  Co  Co22  1  0.332561  0.667439  0.445755  1
  Co  Co23  1  0.666647  0.333353  0.947083  1
