# generated using pymatgen
data_HoLu3(ZnIn)4
_symmetry_space_group_name_H-M   'P 1'
_cell_length_a   4.62943100
_cell_length_b   7.99621900
_cell_length_c   7.16003504
_cell_angle_alpha   89.99333974
_cell_angle_beta   90.00000000
_cell_angle_gamma   90.00000000
_symmetry_Int_Tables_number   1
_chemical_formula_structural   HoLu3(ZnIn)4
_chemical_formula_sum   'Ho1 Lu3 Zn4 In4'
_cell_volume   265.04977531
_cell_formula_units_Z   1
loop_
 _symmetry_equiv_pos_site_id
 _symmetry_equiv_pos_as_xyz
  1  'x, y, z'
loop_
 _atom_site_type_symbol
 _atom_site_label
 _atom_site_symmetry_multiplicity
 _atom_site_fract_x
 _atom_site_fract_y
 _atom_site_fract_z
 _atom_site_occupancy
  Ho  Ho0  1  0.750000  0.753177  0.010217  1
  Lu  Lu1  1  0.250000  0.251690  0.511767  1
  Lu  Lu2  1  0.250000  0.247430  0.011297  1
  Lu  Lu3  1  0.750000  0.747949  0.510036  1
  Zn  Zn4  1  0.250000  0.917195  0.213293  1
  Zn  Zn5  1  0.250000  0.582585  0.704568  1
  Zn  Zn6  1  0.750000  0.083801  0.702322  1
  Zn  Zn7  1  0.750000  0.416204  0.201723  1
  In  In8  1  0.250000  0.917103  0.778982  1
  In  In9  1  0.250000  0.582082  0.282721  1
  In  In10  1  0.750000  0.085561  0.287251  1
  In  In11  1  0.750000  0.415221  0.785820  1
