# generated using pymatgen
data_Dy3ThCdIr
_symmetry_space_group_name_H-M   'P 1'
_cell_length_a   9.76214053
_cell_length_b   9.76214182
_cell_length_c   9.76213700
_cell_angle_alpha   60.00001972
_cell_angle_beta   60.00001534
_cell_angle_gamma   59.99997844
_symmetry_Int_Tables_number   1
_chemical_formula_structural   Dy3ThCdIr
_chemical_formula_sum   'Dy12 Th4 Cd4 Ir4'
_cell_volume   657.83975032
_cell_formula_units_Z   4
loop_
 _symmetry_equiv_pos_site_id
 _symmetry_equiv_pos_as_xyz
  1  'x, y, z'
loop_
 _atom_site_type_symbol
 _atom_site_label
 _atom_site_symmetry_multiplicity
 _atom_site_fract_x
 _atom_site_fract_y
 _atom_site_fract_z
 _atom_site_occupancy
  Dy  Dy0  1  0.061675  0.438325  0.438325  1
  Dy  Dy1  1  0.438325  0.061675  0.061675  1
  Dy  Dy2  1  0.438325  0.061675  0.438325  1
  Dy  Dy3  1  0.061675  0.438325  0.061675  1
  Dy  Dy4  1  0.438325  0.438325  0.061675  1
  Dy  Dy5  1  0.061675  0.061675  0.438325  1
  Dy  Dy6  1  0.184785  0.815215  0.815215  1
  Dy  Dy7  1  0.815215  0.184785  0.184785  1
  Dy  Dy8  1  0.815215  0.184785  0.815215  1
  Dy  Dy9  1  0.184785  0.815215  0.184785  1
  Dy  Dy10  1  0.815215  0.815215  0.184785  1
  Dy  Dy11  1  0.184785  0.184785  0.815215  1
  Th  Th12  1  0.599283  0.599283  0.599284  1
  Th  Th13  1  0.599283  0.599283  0.202149  1
  Th  Th14  1  0.599284  0.202149  0.599283  1
  Th  Th15  1  0.202149  0.599284  0.599283  1
  Cd  Cd16  1  0.832861  0.832861  0.832861  1
  Cd  Cd17  1  0.832861  0.832861  0.501417  1
  Cd  Cd18  1  0.832861  0.501417  0.832861  1
  Cd  Cd19  1  0.501417  0.832861  0.832861  1
  Ir  Ir20  1  0.392922  0.392922  0.392922  1
  Ir  Ir21  1  0.392922  0.392922  0.821233  1
  Ir  Ir22  1  0.392922  0.821233  0.392922  1
  Ir  Ir23  1  0.821233  0.392922  0.392922  1
