# generated using pymatgen
data_DyTh(FeSi2)2
_symmetry_space_group_name_H-M   'P 1'
_cell_length_a   4.03217000
_cell_length_b   4.29321106
_cell_length_c   8.02674006
_cell_angle_alpha   76.20372770
_cell_angle_beta   90.00000000
_cell_angle_gamma   90.00000000
_symmetry_Int_Tables_number   1
_chemical_formula_structural   DyTh(FeSi2)2
_chemical_formula_sum   'Dy1 Th1 Fe2 Si4'
_cell_volume   134.94179916
_cell_formula_units_Z   1
loop_
 _symmetry_equiv_pos_site_id
 _symmetry_equiv_pos_as_xyz
  1  'x, y, z'
loop_
 _atom_site_type_symbol
 _atom_site_label
 _atom_site_symmetry_multiplicity
 _atom_site_fract_x
 _atom_site_fract_y
 _atom_site_fract_z
 _atom_site_occupancy
  Dy  Dy0  1  0.750000  0.395856  0.206812  1
  Th  Th1  1  0.250000  0.604911  0.793549  1
  Fe  Fe2  1  0.250000  0.883733  0.390800  1
  Fe  Fe3  1  0.750000  0.114165  0.610710  1
  Si  Si4  1  0.250000  0.954980  0.099599  1
  Si  Si5  1  0.750000  0.044831  0.908633  1
  Si  Si6  1  0.250000  0.327676  0.490107  1
  Si  Si7  1  0.750000  0.673850  0.499789  1
