# generated using pymatgen
data_Er12Al2Ni3Ru
_symmetry_space_group_name_H-M   'P 1'
_cell_length_a   8.29153612
_cell_length_b   8.29175746
_cell_length_c   8.29153646
_cell_angle_alpha   112.77908887
_cell_angle_beta   109.89750261
_cell_angle_gamma   105.81097602
_symmetry_Int_Tables_number   1
_chemical_formula_structural   Er12Al2Ni3Ru
_chemical_formula_sum   'Er12 Al2 Ni3 Ru1'
_cell_volume   437.20588710
_cell_formula_units_Z   1
loop_
 _symmetry_equiv_pos_site_id
 _symmetry_equiv_pos_as_xyz
  1  'x, y, z'
loop_
 _atom_site_type_symbol
 _atom_site_label
 _atom_site_symmetry_multiplicity
 _atom_site_fract_x
 _atom_site_fract_y
 _atom_site_fract_z
 _atom_site_occupancy
  Er  Er0  1  0.440446  0.245196  0.195275  1
  Er  Er1  1  0.570754  0.766577  0.804176  1
  Er  Er2  1  0.037599  0.233423  0.804177  1
  Er  Er3  1  0.950079  0.754804  0.195250  1
  Er  Er4  1  0.185136  0.281301  0.466459  1
  Er  Er5  1  0.822820  0.719527  0.542372  1
  Er  Er6  1  0.185158  0.718699  0.903835  1
  Er  Er7  1  0.822844  0.280473  0.103293  1
  Er  Er8  1  0.324017  0.634851  0.307601  1
  Er  Er9  1  0.672749  0.365149  0.689165  1
  Er  Er10  1  0.324012  0.016402  0.689148  1
  Er  Er11  1  0.672746  0.983598  0.307610  1
  Al  Al12  1  0.496937  0.500000  0.996937  1
  Al  Al13  1  0.011819  0.000000  0.011819  1
  Ni  Ni14  1  0.654838  0.000000  0.654838  1
  Ni  Ni15  1  0.118899  0.618917  0.500028  1
  Ni  Ni16  1  0.881111  0.381083  0.499982  1
  Ru  Ru17  1  0.328036  0.000000  0.328036  1
