# generated using pymatgen
data_Ca5CuNiAg
_symmetry_space_group_name_H-M   'P 1'
_cell_length_a   9.08701503
_cell_length_b   9.08701431
_cell_length_c   9.16296622
_cell_angle_alpha   129.82972458
_cell_angle_beta   129.82972414
_cell_angle_gamma   73.03883019
_symmetry_Int_Tables_number   1
_chemical_formula_structural   Ca5CuNiAg
_chemical_formula_sum   'Ca10 Cu2 Ni2 Ag2'
_cell_volume   437.11202412
_cell_formula_units_Z   2
loop_
 _symmetry_equiv_pos_site_id
 _symmetry_equiv_pos_as_xyz
  1  'x, y, z'
loop_
 _atom_site_type_symbol
 _atom_site_label
 _atom_site_symmetry_multiplicity
 _atom_site_fract_x
 _atom_site_fract_y
 _atom_site_fract_z
 _atom_site_occupancy
  Ca  Ca0  1  0.526945  0.026945  0.830876  1
  Ca  Ca1  1  0.196069  0.696069  0.169124  1
  Ca  Ca2  1  0.038551  0.185911  0.500000  1
  Ca  Ca3  1  0.685911  0.538551  0.500000  1
  Ca  Ca4  1  0.473055  0.973055  0.169124  1
  Ca  Ca5  1  0.803931  0.303931  0.830876  1
  Ca  Ca6  1  0.961449  0.814089  0.500000  1
  Ca  Ca7  1  0.314089  0.461449  0.500000  1
  Ca  Ca8  1  0.500000  0.500000  0.000000  1
  Ca  Ca9  1  0.000000  0.000000  0.000000  1
  Cu  Cu10  1  0.113591  0.613591  0.727181  1
  Cu  Cu11  1  0.886409  0.386409  0.272819  1
  Ni  Ni12  1  0.610880  0.889120  0.500000  1
  Ni  Ni13  1  0.389120  0.110880  0.500000  1
  Ag  Ag14  1  0.250000  0.250000  0.000000  1
  Ag  Ag15  1  0.750000  0.750000  0.000000  1
