# generated using pymatgen
data_Ca20(Bi3Sb)3
_symmetry_space_group_name_H-M   'P 1'
_cell_length_a   12.77664474
_cell_length_b   9.78099000
_cell_length_c   8.42129649
_cell_angle_alpha   90.00000000
_cell_angle_beta   89.96103397
_cell_angle_gamma   90.00000000
_symmetry_Int_Tables_number   1
_chemical_formula_structural   Ca20(Bi3Sb)3
_chemical_formula_sum   'Ca20 Bi9 Sb3'
_cell_volume   1052.39431014
_cell_formula_units_Z   1
loop_
 _symmetry_equiv_pos_site_id
 _symmetry_equiv_pos_as_xyz
  1  'x, y, z'
loop_
 _atom_site_type_symbol
 _atom_site_label
 _atom_site_symmetry_multiplicity
 _atom_site_fract_x
 _atom_site_fract_y
 _atom_site_fract_z
 _atom_site_occupancy
  Ca  Ca0  1  0.004832  0.250000  0.037376  1
  Ca  Ca1  1  0.708958  0.750000  0.152020  1
  Ca  Ca2  1  0.727677  0.250000  0.179581  1
  Ca  Ca3  1  0.424049  0.540647  0.192453  1
  Ca  Ca4  1  0.424049  0.959352  0.192453  1
  Ca  Ca5  1  0.924699  0.542016  0.309321  1
  Ca  Ca6  1  0.924699  0.957983  0.309321  1
  Ca  Ca7  1  0.227575  0.250000  0.320380  1
  Ca  Ca8  1  0.207243  0.750000  0.349845  1
  Ca  Ca9  1  0.504842  0.250000  0.462512  1
  Ca  Ca10  1  0.495138  0.750000  0.534824  1
  Ca  Ca11  1  0.792853  0.250000  0.649953  1
  Ca  Ca12  1  0.772606  0.750000  0.679275  1
  Ca  Ca13  1  0.075314  0.042171  0.690713  1
  Ca  Ca14  1  0.075314  0.457829  0.690713  1
  Ca  Ca15  1  0.575903  0.044559  0.808315  1
  Ca  Ca16  1  0.575903  0.455441  0.808315  1
  Ca  Ca17  1  0.270511  0.750000  0.819578  1
  Ca  Ca18  1  0.292727  0.250000  0.849987  1
  Ca  Ca19  1  0.995141  0.750000  0.962624  1
  Bi  Bi20  1  0.171261  0.512358  0.063942  1
  Bi  Bi21  1  0.171261  0.987643  0.063942  1
  Bi  Bi22  1  0.671317  0.512215  0.436083  1
  Bi  Bi23  1  0.671317  0.987786  0.436083  1
  Bi  Bi24  1  0.328691  0.012427  0.563957  1
  Bi  Bi25  1  0.328691  0.487573  0.563957  1
  Bi  Bi26  1  0.515512  0.750000  0.921439  1
  Bi  Bi27  1  0.828751  0.012449  0.936074  1
  Bi  Bi28  1  0.828751  0.487551  0.936074  1
  Sb  Sb29  1  0.484323  0.250000  0.078883  1
  Sb  Sb30  1  0.984319  0.250000  0.421137  1
  Sb  Sb31  1  0.015777  0.750000  0.578863  1
