# generated using pymatgen
data_YbHo2Er4PtI12
_symmetry_space_group_name_H-M   'P 1'
_cell_length_a   9.75814139
_cell_length_b   9.75596214
_cell_length_c   9.75237899
_cell_angle_alpha   106.86508184
_cell_angle_beta   106.84676382
_cell_angle_gamma   106.88573162
_symmetry_Int_Tables_number   1
_chemical_formula_structural   YbHo2Er4PtI12
_chemical_formula_sum   'Yb1 Ho2 Er4 Pt1 I12'
_cell_volume   776.01478978
_cell_formula_units_Z   1
loop_
 _symmetry_equiv_pos_site_id
 _symmetry_equiv_pos_as_xyz
  1  'x, y, z'
loop_
 _atom_site_type_symbol
 _atom_site_label
 _atom_site_symmetry_multiplicity
 _atom_site_fract_x
 _atom_site_fract_y
 _atom_site_fract_z
 _atom_site_occupancy
  Yb  Yb0  1  0.999963  0.999792  0.000087  1
  Ho  Ho1  1  0.800422  0.597369  0.525179  1
  Ho  Ho2  1  0.525428  0.800269  0.597550  1
  Er  Er3  1  0.402323  0.474518  0.200745  1
  Er  Er4  1  0.201000  0.402515  0.474528  1
  Er  Er5  1  0.474423  0.200842  0.402622  1
  Er  Er6  1  0.596829  0.525478  0.799062  1
  Pt  Pt7  1  0.500413  0.500224  0.500014  1
  I  I8  1  0.042544  0.348896  0.120342  1
  I  I9  1  0.120325  0.042454  0.349194  1
  I  I10  1  0.348866  0.120335  0.042522  1
  I  I11  1  0.957038  0.650780  0.880544  1
  I  I12  1  0.880412  0.958279  0.651446  1
  I  I13  1  0.651319  0.879713  0.958273  1
  I  I14  1  0.721534  0.572307  0.175238  1
  I  I15  1  0.176284  0.721892  0.572713  1
  I  I16  1  0.572779  0.177002  0.722655  1
  I  I17  1  0.277487  0.427325  0.823713  1
  I  I18  1  0.823667  0.276419  0.427054  1
  I  I19  1  0.426943  0.823590  0.276518  1
