# generated using pymatgen
data_Nd5Dy2Er(Si3Rh)4
_symmetry_space_group_name_H-M   'P 1'
_cell_length_a   8.23110406
_cell_length_b   8.23110437
_cell_length_c   8.17774000
_cell_angle_alpha   90.00000000
_cell_angle_beta   90.00000000
_cell_angle_gamma   119.98671083
_symmetry_Int_Tables_number   1
_chemical_formula_structural   Nd5Dy2Er(Si3Rh)4
_chemical_formula_sum   'Nd5 Dy2 Er1 Si12 Rh4'
_cell_volume   479.88621194
_cell_formula_units_Z   1
loop_
 _symmetry_equiv_pos_site_id
 _symmetry_equiv_pos_as_xyz
  1  'x, y, z'
loop_
 _atom_site_type_symbol
 _atom_site_label
 _atom_site_symmetry_multiplicity
 _atom_site_fract_x
 _atom_site_fract_y
 _atom_site_fract_z
 _atom_site_occupancy
  Nd  Nd0  1  0.000026  0.999974  0.250000  1
  Nd  Nd1  1  0.999991  0.000009  0.750000  1
  Nd  Nd2  1  0.504419  0.495581  0.250000  1
  Nd  Nd3  1  0.504419  0.008868  0.250000  1
  Nd  Nd4  1  0.991132  0.495581  0.250000  1
  Dy  Dy5  1  0.492678  0.985286  0.750000  1
  Dy  Dy6  1  0.014714  0.507322  0.750000  1
  Er  Er7  1  0.492726  0.507274  0.750000  1
  Si  Si8  1  0.166603  0.833397  0.506036  1
  Si  Si9  1  0.166775  0.333308  0.506171  1
  Si  Si10  1  0.666692  0.833225  0.506171  1
  Si  Si11  1  0.831708  0.168292  0.503138  1
  Si  Si12  1  0.831591  0.663362  0.503192  1
  Si  Si13  1  0.336638  0.168409  0.503192  1
  Si  Si14  1  0.831708  0.168292  0.996862  1
  Si  Si15  1  0.831591  0.663362  0.996808  1
  Si  Si16  1  0.336638  0.168409  0.996808  1
  Si  Si17  1  0.166603  0.833397  0.993964  1
  Si  Si18  1  0.166775  0.333308  0.993829  1
  Si  Si19  1  0.666692  0.833225  0.993829  1
  Rh  Rh20  1  0.333446  0.666554  0.491699  1
  Rh  Rh21  1  0.666496  0.333504  0.543157  1
  Rh  Rh22  1  0.666496  0.333504  0.956843  1
  Rh  Rh23  1  0.333446  0.666554  0.008301  1
