# generated using pymatgen
data_TbDy3(ScIr)4
_symmetry_space_group_name_H-M   'P 1'
_cell_length_a   4.26866000
_cell_length_b   7.13237876
_cell_length_c   8.66306400
_cell_angle_alpha   89.95974566
_cell_angle_beta   90.00000000
_cell_angle_gamma   90.00000000
_symmetry_Int_Tables_number   1
_chemical_formula_structural   TbDy3(ScIr)4
_chemical_formula_sum   'Tb1 Dy3 Sc4 Ir4'
_cell_volume   263.75298183
_cell_formula_units_Z   1
loop_
 _symmetry_equiv_pos_site_id
 _symmetry_equiv_pos_as_xyz
  1  'x, y, z'
loop_
 _atom_site_type_symbol
 _atom_site_label
 _atom_site_symmetry_multiplicity
 _atom_site_fract_x
 _atom_site_fract_y
 _atom_site_fract_z
 _atom_site_occupancy
  Tb  Tb0  1  0.750000  0.517764  0.826471  1
  Dy  Dy1  1  0.250000  0.982061  0.326467  1
  Dy  Dy2  1  0.250000  0.481506  0.173538  1
  Dy  Dy3  1  0.750000  0.018630  0.673422  1
  Sc  Sc4  1  0.250000  0.359396  0.565333  1
  Sc  Sc5  1  0.250000  0.858442  0.934545  1
  Sc  Sc6  1  0.750000  0.641620  0.434532  1
  Sc  Sc7  1  0.750000  0.140517  0.065441  1
  Ir  Ir8  1  0.250000  0.238391  0.893756  1
  Ir  Ir9  1  0.250000  0.740030  0.606219  1
  Ir  Ir10  1  0.750000  0.760489  0.106629  1
  Ir  Ir11  1  0.750000  0.261157  0.393647  1
