# generated using pymatgen
data_Ba2PuO6
_symmetry_space_group_name_H-M   'P 1'
_cell_length_a   6.80663200
_cell_length_b   6.25441690
_cell_length_c   11.13879470
_cell_angle_alpha   50.01416926
_cell_angle_beta   90.00000000
_cell_angle_gamma   90.00000000
_symmetry_Int_Tables_number   1
_chemical_formula_structural   Ba2PuO6
_chemical_formula_sum   'Ba4 Pu2 O12'
_cell_volume   363.33008563
_cell_formula_units_Z   2
loop_
 _symmetry_equiv_pos_site_id
 _symmetry_equiv_pos_as_xyz
  1  'x, y, z'
loop_
 _atom_site_type_symbol
 _atom_site_label
 _atom_site_symmetry_multiplicity
 _atom_site_fract_x
 _atom_site_fract_y
 _atom_site_fract_z
 _atom_site_occupancy
  Ba  Ba0  1  0.424562  0.216466  0.246572  1
  Ba  Ba1  1  0.924562  0.783534  0.253428  1
  Ba  Ba2  1  0.575438  0.783534  0.753428  1
  Ba  Ba3  1  0.075438  0.216466  0.746572  1
  Pu  Pu4  1  0.500000  0.000000  0.000000  1
  Pu  Pu5  1  0.000000  0.000000  0.500000  1
  O  O6  1  0.144757  0.779600  0.455369  1
  O  O7  1  0.644757  0.220400  0.044631  1
  O  O8  1  0.855243  0.220400  0.544631  1
  O  O9  1  0.355243  0.779600  0.955369  1
  O  O10  1  0.756750  0.946325  0.424742  1
  O  O11  1  0.256750  0.053675  0.075258  1
  O  O12  1  0.243250  0.053675  0.575258  1
  O  O13  1  0.743250  0.946325  0.924742  1
  O  O14  1  0.059096  0.341394  0.288765  1
  O  O15  1  0.559095  0.658606  0.211235  1
  O  O16  1  0.940904  0.658606  0.711235  1
  O  O17  1  0.440904  0.341394  0.788765  1
