# generated using pymatgen
data_Rb2Ca(TcO3)2
_symmetry_space_group_name_H-M   'P 1'
_cell_length_a   6.23873295
_cell_length_b   6.23873331
_cell_length_c   6.99420100
_cell_angle_alpha   63.51309530
_cell_angle_beta   116.48689607
_cell_angle_gamma   119.99999316
_symmetry_Int_Tables_number   1
_chemical_formula_structural   Rb2Ca(TcO3)2
_chemical_formula_sum   'Rb2 Ca1 Tc2 O6'
_cell_volume   202.08879996
_cell_formula_units_Z   1
loop_
 _symmetry_equiv_pos_site_id
 _symmetry_equiv_pos_as_xyz
  1  'x, y, z'
loop_
 _atom_site_type_symbol
 _atom_site_label
 _atom_site_symmetry_multiplicity
 _atom_site_fract_x
 _atom_site_fract_y
 _atom_site_fract_z
 _atom_site_occupancy
  Rb  Rb0  1  0.782522  0.217479  0.347564  1
  Rb  Rb1  1  0.217479  0.782521  0.652436  1
  Ca  Ca2  1  0.000000  0.000000  0.000000  1
  Tc  Tc3  1  0.437085  0.562915  0.311254  1
  Tc  Tc4  1  0.562915  0.437085  0.688746  1
  O  O5  1  0.249513  0.258795  0.240229  1
  O  O6  1  0.741205  0.750487  0.240229  1
  O  O7  1  0.249513  0.750488  0.240229  1
  O  O8  1  0.750488  0.249511  0.759771  1
  O  O9  1  0.258796  0.249512  0.759771  1
  O  O10  1  0.750488  0.741205  0.759771  1
