# generated using pymatgen
data_Li2P7(Ru5Pt)2
_symmetry_space_group_name_H-M   'P 1'
_cell_length_a   9.38449169
_cell_length_b   9.53563931
_cell_length_c   3.91093700
_cell_angle_alpha   90.00000000
_cell_angle_beta   90.00000000
_cell_angle_gamma   120.79716094
_symmetry_Int_Tables_number   1
_chemical_formula_structural   Li2P7(Ru5Pt)2
_chemical_formula_sum   'Li2 P7 Ru10 Pt2'
_cell_volume   300.62639215
_cell_formula_units_Z   1
loop_
 _symmetry_equiv_pos_site_id
 _symmetry_equiv_pos_as_xyz
  1  'x, y, z'
loop_
 _atom_site_type_symbol
 _atom_site_label
 _atom_site_symmetry_multiplicity
 _atom_site_fract_x
 _atom_site_fract_y
 _atom_site_fract_z
 _atom_site_occupancy
  Li  Li0  1  0.997714  0.999178  0.000000  1
  Li  Li1  1  0.336307  0.668271  0.500000  1
  P  P2  1  0.659538  0.323814  0.000000  1
  P  P3  1  0.085955  0.644706  0.000000  1
  P  P4  1  0.559975  0.905427  0.000000  1
  P  P5  1  0.370915  0.451782  0.000000  1
  P  P6  1  0.785431  0.734261  0.500000  1
  P  P7  1  0.939215  0.201108  0.500000  1
  P  P8  1  0.251512  0.062240  0.500000  1
  Ru  Ru9  1  0.609909  0.694292  0.000000  1
  Ru  Ru10  1  0.825809  0.596286  0.000000  1
  Ru  Ru11  1  0.778505  0.170955  0.000000  1
  Ru  Ru12  1  0.382489  0.217289  0.000000  1
  Ru  Ru13  1  0.061659  0.780355  0.500000  1
  Ru  Ru14  1  0.709981  0.935498  0.500000  1
  Ru  Ru15  1  0.222082  0.295390  0.500000  1
  Ru  Ru16  1  0.882869  0.419810  0.500000  1
  Ru  Ru17  1  0.536955  0.126719  0.500000  1
  Ru  Ru18  1  0.582978  0.453342  0.500000  1
  Pt  Pt19  1  0.106246  0.417556  0.000000  1
  Pt  Pt20  1  0.313958  0.901719  0.000000  1
