# generated using pymatgen
data_K2Be3SiAs4
_symmetry_space_group_name_H-M   'P 1'
_cell_length_a   7.75131870
_cell_length_b   7.75131847
_cell_length_c   5.37019000
_cell_angle_alpha   90.00000000
_cell_angle_beta   90.00000000
_cell_angle_gamma   139.54726218
_symmetry_Int_Tables_number   1
_chemical_formula_structural   K2Be3SiAs4
_chemical_formula_sum   'K2 Be3 Si1 As4'
_cell_volume   209.34637495
_cell_formula_units_Z   1
loop_
 _symmetry_equiv_pos_site_id
 _symmetry_equiv_pos_as_xyz
  1  'x, y, z'
loop_
 _atom_site_type_symbol
 _atom_site_label
 _atom_site_symmetry_multiplicity
 _atom_site_fract_x
 _atom_site_fract_y
 _atom_site_fract_z
 _atom_site_occupancy
  K  K0  1  0.500000  0.000000  0.247693  1
  K  K1  1  0.000000  0.500000  0.752307  1
  Be  Be2  1  0.500000  0.500000  0.500000  1
  Be  Be3  1  0.500000  0.500000  0.000000  1
  Be  Be4  1  0.000000  0.000000  0.500000  1
  Si  Si5  1  0.000000  0.000000  0.000000  1
  As  As6  1  0.649839  0.843866  0.746492  1
  As  As7  1  0.156134  0.350161  0.253508  1
  As  As8  1  0.843866  0.649839  0.253508  1
  As  As9  1  0.350161  0.156134  0.746492  1
