# generated using pymatgen
data_EuHoLuGa8Ag3
_symmetry_space_group_name_H-M   'P 1'
_cell_length_a   4.35380249
_cell_length_b   8.37524849
_cell_length_c   8.37524822
_cell_angle_alpha   69.86789283
_cell_angle_beta   74.93461998
_cell_angle_gamma   74.93462897
_symmetry_Int_Tables_number   1
_chemical_formula_structural   EuHoLuGa8Ag3
_chemical_formula_sum   'Eu1 Ho1 Lu1 Ga8 Ag3'
_cell_volume   271.94423559
_cell_formula_units_Z   1
loop_
 _symmetry_equiv_pos_site_id
 _symmetry_equiv_pos_as_xyz
  1  'x, y, z'
loop_
 _atom_site_type_symbol
 _atom_site_label
 _atom_site_symmetry_multiplicity
 _atom_site_fract_x
 _atom_site_fract_y
 _atom_site_fract_z
 _atom_site_occupancy
  Eu  Eu0  1  0.499738  0.500262  0.500262  1
  Ho  Ho1  1  0.799515  0.200485  0.200485  1
  Lu  Lu2  1  0.200048  0.799952  0.799952  1
  Ga  Ga3  1  0.354835  0.363026  0.927303  1
  Ga  Ga4  1  0.645291  0.637579  0.071840  1
  Ga  Ga5  1  0.354835  0.927303  0.363026  1
  Ga  Ga6  1  0.645291  0.071840  0.637579  1
  Ga  Ga7  1  0.161194  0.470491  0.207121  1
  Ga  Ga8  1  0.838363  0.530195  0.793079  1
  Ga  Ga9  1  0.161194  0.207121  0.470491  1
  Ga  Ga10  1  0.838363  0.793079  0.530195  1
  Ag  Ag11  1  0.500438  0.999562  0.999562  1
  Ag  Ag12  1  0.000447  0.807141  0.191964  1
  Ag  Ag13  1  0.000447  0.191964  0.807141  1
