# generated using pymatgen
data_HfZr7(InPt2)4
_symmetry_space_group_name_H-M   'P 1'
_cell_length_a   7.59281317
_cell_length_b   7.59281384
_cell_length_c   6.84991700
_cell_angle_alpha   90.00000000
_cell_angle_beta   90.00000000
_cell_angle_gamma   90.27402057
_symmetry_Int_Tables_number   1
_chemical_formula_structural   HfZr7(InPt2)4
_chemical_formula_sum   'Hf1 Zr7 In4 Pt8'
_cell_volume   394.89879474
_cell_formula_units_Z   1
loop_
 _symmetry_equiv_pos_site_id
 _symmetry_equiv_pos_as_xyz
  1  'x, y, z'
loop_
 _atom_site_type_symbol
 _atom_site_label
 _atom_site_symmetry_multiplicity
 _atom_site_fract_x
 _atom_site_fract_y
 _atom_site_fract_z
 _atom_site_occupancy
  Hf  Hf0  1  0.183076  0.183076  0.500000  1
  Zr  Zr1  1  0.152714  0.152714  0.000000  1
  Zr  Zr2  1  0.847813  0.847813  0.000000  1
  Zr  Zr3  1  0.653103  0.347855  0.500000  1
  Zr  Zr4  1  0.347855  0.653103  0.500000  1
  Zr  Zr5  1  0.684574  0.314540  0.000000  1
  Zr  Zr6  1  0.314540  0.684574  0.000000  1
  Zr  Zr7  1  0.814876  0.814876  0.500000  1
  In  In8  1  0.500186  0.999916  0.248765  1
  In  In9  1  0.500186  0.999916  0.751235  1
  In  In10  1  0.999916  0.500186  0.248765  1
  In  In11  1  0.999916  0.500186  0.751235  1
  Pt  Pt12  1  0.368238  0.368238  0.221703  1
  Pt  Pt13  1  0.629756  0.629756  0.782257  1
  Pt  Pt14  1  0.629756  0.629756  0.217743  1
  Pt  Pt15  1  0.871282  0.131346  0.717067  1
  Pt  Pt16  1  0.871282  0.131346  0.282933  1
  Pt  Pt17  1  0.368238  0.368238  0.778297  1
  Pt  Pt18  1  0.131346  0.871282  0.282933  1
  Pt  Pt19  1  0.131346  0.871282  0.717067  1
