# generated using pymatgen
data_Mg2Ga3IrPd
_symmetry_space_group_name_H-M   'P 1'
_cell_length_a   5.11699275
_cell_length_b   5.11699458
_cell_length_c   6.93364700
_cell_angle_alpha   108.94805002
_cell_angle_beta   108.94805707
_cell_angle_gamma   45.68251544
_symmetry_Int_Tables_number   1
_chemical_formula_structural   Mg2Ga3IrPd
_chemical_formula_sum   'Mg2 Ga3 Ir1 Pd1'
_cell_volume   121.56406774
_cell_formula_units_Z   1
loop_
 _symmetry_equiv_pos_site_id
 _symmetry_equiv_pos_as_xyz
  1  'x, y, z'
loop_
 _atom_site_type_symbol
 _atom_site_label
 _atom_site_symmetry_multiplicity
 _atom_site_fract_x
 _atom_site_fract_y
 _atom_site_fract_z
 _atom_site_occupancy
  Mg  Mg0  1  0.846988  0.846988  0.201772  1
  Mg  Mg1  1  0.152626  0.152626  0.793937  1
  Ga  Ga2  1  0.495070  0.495070  0.995519  1
  Ga  Ga3  1  0.634889  0.634889  0.459719  1
  Ga  Ga4  1  0.369583  0.369583  0.548006  1
  Ir  Ir5  1  0.864614  0.864614  0.795947  1
  Pd  Pd6  1  0.136231  0.136231  0.205101  1
