# generated using pymatgen
data_Nd6Sb(P3Rh5)4
_symmetry_space_group_name_H-M   'P 1'
_cell_length_a   13.51278000
_cell_length_b   13.51277885
_cell_length_c   3.94423100
_cell_angle_alpha   90.00000000
_cell_angle_beta   90.00000000
_cell_angle_gamma   119.99999793
_symmetry_Int_Tables_number   1
_chemical_formula_structural   Nd6Sb(P3Rh5)4
_chemical_formula_sum   'Nd6 Sb1 P12 Rh20'
_cell_volume   623.70949857
_cell_formula_units_Z   1
loop_
 _symmetry_equiv_pos_site_id
 _symmetry_equiv_pos_as_xyz
  1  'x, y, z'
loop_
 _atom_site_type_symbol
 _atom_site_label
 _atom_site_symmetry_multiplicity
 _atom_site_fract_x
 _atom_site_fract_y
 _atom_site_fract_z
 _atom_site_occupancy
  Nd  Nd0  1  0.529079  0.716671  0.250018  1
  Nd  Nd1  1  0.283329  0.812407  0.250018  1
  Nd  Nd2  1  0.187593  0.470921  0.250018  1
  Nd  Nd3  1  0.470921  0.283329  0.749982  1
  Nd  Nd4  1  0.716671  0.187593  0.749982  1
  Nd  Nd5  1  0.812407  0.529079  0.749982  1
  Sb  Sb6  1  0.000000  0.000000  0.000000  1
  P  P7  1  0.524507  0.137056  0.249933  1
  P  P8  1  0.862944  0.387451  0.249933  1
  P  P9  1  0.612549  0.475493  0.249933  1
  P  P10  1  0.948786  0.716294  0.248250  1
  P  P11  1  0.283706  0.232494  0.248250  1
  P  P12  1  0.767506  0.051214  0.248250  1
  P  P13  1  0.387451  0.524507  0.750067  1
  P  P14  1  0.475493  0.862944  0.750067  1
  P  P15  1  0.137056  0.612549  0.750067  1
  P  P16  1  0.716294  0.767506  0.751750  1
  P  P17  1  0.232494  0.948786  0.751750  1
  P  P18  1  0.051214  0.283706  0.751750  1
  Rh  Rh19  1  0.333333  0.666667  0.753711  1
  Rh  Rh20  1  0.920776  0.251994  0.244474  1
  Rh  Rh21  1  0.748006  0.668782  0.244474  1
  Rh  Rh22  1  0.331218  0.079224  0.244474  1
  Rh  Rh23  1  0.441183  0.025113  0.748704  1
  Rh  Rh24  1  0.974887  0.416071  0.748704  1
  Rh  Rh25  1  0.583929  0.558817  0.748704  1
  Rh  Rh26  1  0.666667  0.333333  0.246289  1
  Rh  Rh27  1  0.098121  0.201422  0.266405  1
  Rh  Rh28  1  0.798578  0.896698  0.266405  1
  Rh  Rh29  1  0.103302  0.901879  0.266405  1
  Rh  Rh30  1  0.025113  0.583929  0.251296  1
  Rh  Rh31  1  0.416071  0.441183  0.251296  1
  Rh  Rh32  1  0.558817  0.974887  0.251296  1
  Rh  Rh33  1  0.668782  0.920776  0.755526  1
  Rh  Rh34  1  0.079224  0.748006  0.755526  1
  Rh  Rh35  1  0.251994  0.331218  0.755526  1
  Rh  Rh36  1  0.901879  0.798578  0.733595  1
  Rh  Rh37  1  0.201422  0.103302  0.733595  1
  Rh  Rh38  1  0.896698  0.098121  0.733595  1
