# generated using pymatgen
data_Tb2SmGeSe2
_symmetry_space_group_name_H-M   'P 1'
_cell_length_a   7.22956831
_cell_length_b   7.22956905
_cell_length_c   7.22956890
_cell_angle_alpha   146.50564969
_cell_angle_beta   132.34337355
_cell_angle_gamma   59.50171784
_symmetry_Int_Tables_number   1
_chemical_formula_structural   Tb2SmGeSe2
_chemical_formula_sum   'Tb2 Sm1 Ge1 Se2'
_cell_volume   152.75955651
_cell_formula_units_Z   1
loop_
 _symmetry_equiv_pos_site_id
 _symmetry_equiv_pos_as_xyz
  1  'x, y, z'
loop_
 _atom_site_type_symbol
 _atom_site_label
 _atom_site_symmetry_multiplicity
 _atom_site_fract_x
 _atom_site_fract_y
 _atom_site_fract_z
 _atom_site_occupancy
  Tb  Tb0  1  0.342097  0.342097  0.000000  1
  Tb  Tb1  1  0.657903  0.657903  0.000000  1
  Sm  Sm2  1  0.000000  0.000000  0.000000  1
  Ge  Ge3  1  0.500000  0.000000  0.500000  1
  Se  Se4  1  0.171379  0.671379  0.500000  1
  Se  Se5  1  0.828621  0.328621  0.500000  1
