# generated using pymatgen
data_Sm(BPt4)2
_symmetry_space_group_name_H-M   'P 1'
_cell_length_a   6.17726251
_cell_length_b   6.17726293
_cell_length_c   9.02299137
_cell_angle_alpha   54.99239470
_cell_angle_beta   54.99239084
_cell_angle_gamma   37.77499145
_symmetry_Int_Tables_number   1
_chemical_formula_structural   Sm(BPt4)2
_chemical_formula_sum   'Sm1 B2 Pt8'
_cell_volume   167.71631087
_cell_formula_units_Z   1
loop_
 _symmetry_equiv_pos_site_id
 _symmetry_equiv_pos_as_xyz
  1  'x, y, z'
loop_
 _atom_site_type_symbol
 _atom_site_label
 _atom_site_symmetry_multiplicity
 _atom_site_fract_x
 _atom_site_fract_y
 _atom_site_fract_z
 _atom_site_occupancy
  Sm  Sm0  1  0.500000  0.500000  0.500000  1
  B  B1  1  0.053327  0.053327  0.709755  1
  B  B2  1  0.946673  0.946673  0.290245  1
  Pt  Pt3  1  0.225827  0.225827  0.421681  1
  Pt  Pt4  1  0.827306  0.827306  0.840037  1
  Pt  Pt5  1  0.172694  0.172694  0.159963  1
  Pt  Pt6  1  0.155834  0.155834  0.848231  1
  Pt  Pt7  1  0.479765  0.479765  0.858474  1
  Pt  Pt8  1  0.520235  0.520235  0.141526  1
  Pt  Pt9  1  0.774173  0.774173  0.578319  1
  Pt  Pt10  1  0.844166  0.844166  0.151769  1
