# generated using pymatgen
data_Y2ZnTc3
_symmetry_space_group_name_H-M   'P 1'
_cell_length_a   5.40039391
_cell_length_b   5.40039455
_cell_length_c   8.78872900
_cell_angle_alpha   90.00000000
_cell_angle_beta   90.00000000
_cell_angle_gamma   119.36503761
_symmetry_Int_Tables_number   1
_chemical_formula_structural   Y2ZnTc3
_chemical_formula_sum   'Y4 Zn2 Tc6'
_cell_volume   223.38343900
_cell_formula_units_Z   2
loop_
 _symmetry_equiv_pos_site_id
 _symmetry_equiv_pos_as_xyz
  1  'x, y, z'
loop_
 _atom_site_type_symbol
 _atom_site_label
 _atom_site_symmetry_multiplicity
 _atom_site_fract_x
 _atom_site_fract_y
 _atom_site_fract_z
 _atom_site_occupancy
  Y  Y0  1  0.335343  0.664657  0.436847  1
  Y  Y1  1  0.668584  0.331416  0.558104  1
  Y  Y2  1  0.668584  0.331416  0.941896  1
  Y  Y3  1  0.335343  0.664657  0.063153  1
  Zn  Zn4  1  0.156754  0.349225  0.750000  1
  Zn  Zn5  1  0.650775  0.843246  0.750000  1
  Tc  Tc6  1  0.009933  0.990067  0.501755  1
  Tc  Tc7  1  0.009933  0.990067  0.998245  1
  Tc  Tc8  1  0.835204  0.164796  0.250000  1
  Tc  Tc9  1  0.832213  0.652261  0.250000  1
  Tc  Tc10  1  0.347739  0.167787  0.250000  1
  Tc  Tc11  1  0.149596  0.850404  0.750000  1
