# generated using pymatgen
data_Li2Yb2ScAlGe3
_symmetry_space_group_name_H-M   'P 1'
_cell_length_a   6.93617792
_cell_length_b   7.11640037
_cell_length_c   4.22635600
_cell_angle_alpha   90.00000000
_cell_angle_beta   90.00000000
_cell_angle_gamma   120.86631550
_symmetry_Int_Tables_number   1
_chemical_formula_structural   Li2Yb2ScAlGe3
_chemical_formula_sum   'Li2 Yb2 Sc1 Al1 Ge3'
_cell_volume   179.06863399
_cell_formula_units_Z   1
loop_
 _symmetry_equiv_pos_site_id
 _symmetry_equiv_pos_as_xyz
  1  'x, y, z'
loop_
 _atom_site_type_symbol
 _atom_site_label
 _atom_site_symmetry_multiplicity
 _atom_site_fract_x
 _atom_site_fract_y
 _atom_site_fract_z
 _atom_site_occupancy
  Li  Li0  1  0.237496  0.994274  0.500000  1
  Li  Li1  1  0.997838  0.239034  0.500000  1
  Yb  Yb2  1  0.422542  0.425115  0.000000  1
  Yb  Yb3  1  0.571343  0.008323  0.000000  1
  Sc  Sc4  1  0.007902  0.582464  0.000000  1
  Al  Al5  1  0.757025  0.754109  0.500000  1
  Ge  Ge6  1  0.323613  0.663457  0.500000  1
  Ge  Ge7  1  0.691183  0.357034  0.500000  1
  Ge  Ge8  1  0.991059  0.976192  0.000000  1
