# generated using pymatgen
data_VCo2TcB2
_symmetry_space_group_name_H-M   'P 1'
_cell_length_a   3.17961600
_cell_length_b   5.65571000
_cell_length_c   6.48929400
_cell_angle_alpha   90.00000000
_cell_angle_beta   90.00000000
_cell_angle_gamma   90.00000000
_symmetry_Int_Tables_number   1
_chemical_formula_structural   VCo2TcB2
_chemical_formula_sum   'V2 Co4 Tc2 B4'
_cell_volume   116.69688320
_cell_formula_units_Z   2
loop_
 _symmetry_equiv_pos_site_id
 _symmetry_equiv_pos_as_xyz
  1  'x, y, z'
loop_
 _atom_site_type_symbol
 _atom_site_label
 _atom_site_symmetry_multiplicity
 _atom_site_fract_x
 _atom_site_fract_y
 _atom_site_fract_z
 _atom_site_occupancy
  V  V0  1  0.750000  0.974097  0.173178  1
  V  V1  1  0.750000  0.474097  0.326822  1
  Co  Co2  1  0.250000  0.146424  0.435892  1
  Co  Co3  1  0.250000  0.646424  0.064108  1
  Co  Co4  1  0.750000  0.854825  0.551164  1
  Co  Co5  1  0.750000  0.354825  0.948836  1
  Tc  Tc6  1  0.250000  0.028001  0.829979  1
  Tc  Tc7  1  0.250000  0.528001  0.670021  1
  B  B8  1  0.250000  0.269289  0.128060  1
  B  B9  1  0.250000  0.769289  0.371940  1
  B  B10  1  0.750000  0.727364  0.872779  1
  B  B11  1  0.750000  0.227364  0.627221  1
