# generated using pymatgen
data_LiCaHo3Al17Pd6
_symmetry_space_group_name_H-M   'P 1'
_cell_length_a   7.62552816
_cell_length_b   7.61798650
_cell_length_c   9.48143700
_cell_angle_alpha   90.00000000
_cell_angle_beta   90.00000000
_cell_angle_gamma   119.24421760
_symmetry_Int_Tables_number   1
_chemical_formula_structural   LiCaHo3Al17Pd6
_chemical_formula_sum   'Li1 Ca1 Ho3 Al17 Pd6'
_cell_volume   480.58729212
_cell_formula_units_Z   1
loop_
 _symmetry_equiv_pos_site_id
 _symmetry_equiv_pos_as_xyz
  1  'x, y, z'
loop_
 _atom_site_type_symbol
 _atom_site_label
 _atom_site_symmetry_multiplicity
 _atom_site_fract_x
 _atom_site_fract_y
 _atom_site_fract_z
 _atom_site_occupancy
  Li  Li0  1  0.127638  0.129260  0.250000  1
  Ca  Ca1  1  0.995562  0.668215  0.250000  1
  Ho  Ho2  1  0.005597  0.329200  0.750000  1
  Ho  Ho3  1  0.665380  0.995731  0.250000  1
  Ho  Ho4  1  0.326851  0.004484  0.750000  1
  Al  Al5  1  0.866342  0.867018  0.750000  1
  Al  Al6  1  0.001598  0.328423  0.082512  1
  Al  Al7  1  0.999861  0.664443  0.923798  1
  Al  Al8  1  0.999861  0.664443  0.576202  1
  Al  Al9  1  0.330118  0.001890  0.419228  1
  Al  Al10  1  0.001598  0.328423  0.417488  1
  Al  Al11  1  0.664825  0.000627  0.575992  1
  Al  Al12  1  0.664825  0.000627  0.924008  1
  Al  Al13  1  0.330118  0.001890  0.080772  1
  Al  Al14  1  0.334702  0.334665  0.546365  1
  Al  Al15  1  0.671487  0.672301  0.441216  1
  Al  Al16  1  0.671487  0.672301  0.058784  1
  Al  Al17  1  0.334702  0.334665  0.953635  1
  Al  Al18  1  0.343930  0.543136  0.250000  1
  Al  Al19  1  0.658432  0.451266  0.750000  1
  Al  Al20  1  0.539754  0.336291  0.250000  1
  Al  Al21  1  0.453328  0.658609  0.750000  1
  Pd  Pd22  1  0.674725  0.328998  0.998900  1
  Pd  Pd23  1  0.329876  0.674948  0.998516  1
  Pd  Pd24  1  0.329876  0.674948  0.501484  1
  Pd  Pd25  1  0.674725  0.328998  0.501100  1
  Pd  Pd26  1  0.001401  0.002102  0.991007  1
  Pd  Pd27  1  0.001401  0.002102  0.508993  1
