# generated using pymatgen
data_Mg3Rh4W
_symmetry_space_group_name_H-M   'P 1'
_cell_length_a   7.59474989
_cell_length_b   7.59474982
_cell_length_c   7.59475036
_cell_angle_alpha   33.94238854
_cell_angle_beta   33.94238929
_cell_angle_gamma   33.94239068
_symmetry_Int_Tables_number   1
_chemical_formula_structural   Mg3Rh4W
_chemical_formula_sum   'Mg3 Rh4 W1'
_cell_volume   121.72700360
_cell_formula_units_Z   1
loop_
 _symmetry_equiv_pos_site_id
 _symmetry_equiv_pos_as_xyz
  1  'x, y, z'
loop_
 _atom_site_type_symbol
 _atom_site_label
 _atom_site_symmetry_multiplicity
 _atom_site_fract_x
 _atom_site_fract_y
 _atom_site_fract_z
 _atom_site_occupancy
  Mg  Mg0  1  0.246621  0.246621  0.246621  1
  Mg  Mg1  1  0.753379  0.753379  0.753379  1
  Mg  Mg2  1  0.500000  0.500000  0.500000  1
  Rh  Rh3  1  0.629834  0.629834  0.629834  1
  Rh  Rh4  1  0.119614  0.119614  0.119614  1
  Rh  Rh5  1  0.880386  0.880386  0.880386  1
  Rh  Rh6  1  0.370166  0.370166  0.370166  1
  W  W7  1  0.000000  0.000000  0.000000  1
