# generated using pymatgen
data_Mn11Nb12CrN4
_symmetry_space_group_name_H-M   'P 1'
_cell_length_a   8.07222085
_cell_length_b   8.07222134
_cell_length_c   8.07222087
_cell_angle_alpha   60.15760348
_cell_angle_beta   60.15761207
_cell_angle_gamma   60.15761172
_symmetry_Int_Tables_number   1
_chemical_formula_structural   Mn11Nb12CrN4
_chemical_formula_sum   'Mn11 Nb12 Cr1 N4'
_cell_volume   373.26023943
_cell_formula_units_Z   1
loop_
 _symmetry_equiv_pos_site_id
 _symmetry_equiv_pos_as_xyz
  1  'x, y, z'
loop_
 _atom_site_type_symbol
 _atom_site_label
 _atom_site_symmetry_multiplicity
 _atom_site_fract_x
 _atom_site_fract_y
 _atom_site_fract_z
 _atom_site_occupancy
  Mn  Mn0  1  0.125000  0.625000  0.625000  1
  Mn  Mn1  1  0.625000  0.125000  0.625000  1
  Mn  Mn2  1  0.625000  0.625000  0.125000  1
  Mn  Mn3  1  0.732522  0.423339  0.423339  1
  Mn  Mn4  1  0.423339  0.732522  0.423339  1
  Mn  Mn5  1  0.423339  0.423339  0.732522  1
  Mn  Mn6  1  0.423770  0.423770  0.423770  1
  Mn  Mn7  1  0.517478  0.826661  0.826661  1
  Mn  Mn8  1  0.826661  0.517478  0.826661  1
  Mn  Mn9  1  0.826661  0.826661  0.517478  1
  Mn  Mn10  1  0.826230  0.826230  0.826230  1
  Nb  Nb11  1  0.805446  0.805446  0.193117  1
  Nb  Nb12  1  0.196336  0.196336  0.803990  1
  Nb  Nb13  1  0.805446  0.193117  0.805446  1
  Nb  Nb14  1  0.196336  0.803990  0.196336  1
  Nb  Nb15  1  0.193117  0.805446  0.805446  1
  Nb  Nb16  1  0.803990  0.196336  0.196336  1
  Nb  Nb17  1  0.444554  0.444554  0.056883  1
  Nb  Nb18  1  0.053664  0.053664  0.446010  1
  Nb  Nb19  1  0.444554  0.056883  0.444554  1
  Nb  Nb20  1  0.053664  0.446010  0.053664  1
  Nb  Nb21  1  0.056883  0.444554  0.444554  1
  Nb  Nb22  1  0.446010  0.053664  0.053664  1
  Cr  Cr23  1  0.625000  0.625000  0.625000  1
  N  N24  1  0.625000  0.125000  0.125000  1
  N  N25  1  0.125000  0.625000  0.125000  1
  N  N26  1  0.125000  0.125000  0.625000  1
  N  N27  1  0.125000  0.125000  0.125000  1
