# generated using pymatgen
data_HfZr5(SnRu2)6
_symmetry_space_group_name_H-M   'P 1'
_cell_length_a   4.59105300
_cell_length_b   6.46058300
_cell_length_c   13.75437400
_cell_angle_alpha   90.00000000
_cell_angle_beta   89.99989594
_cell_angle_gamma   90.00000000
_symmetry_Int_Tables_number   1
_chemical_formula_structural   HfZr5(SnRu2)6
_chemical_formula_sum   'Hf1 Zr5 Sn6 Ru12'
_cell_volume   407.96682244
_cell_formula_units_Z   1
loop_
 _symmetry_equiv_pos_site_id
 _symmetry_equiv_pos_as_xyz
  1  'x, y, z'
loop_
 _atom_site_type_symbol
 _atom_site_label
 _atom_site_symmetry_multiplicity
 _atom_site_fract_x
 _atom_site_fract_y
 _atom_site_fract_z
 _atom_site_occupancy
  Hf  Hf0  1  0.499995  0.500000  0.833292  1
  Zr  Zr1  1  0.000035  0.000000  0.999764  1
  Zr  Zr2  1  0.499996  0.500000  0.166563  1
  Zr  Zr3  1  0.999847  0.000000  0.333323  1
  Zr  Zr4  1  0.499960  0.500000  0.500116  1
  Zr  Zr5  1  0.000388  0.000000  0.666927  1
  Sn  Sn6  1  0.000007  0.500000  0.999896  1
  Sn  Sn7  1  0.499809  0.000000  0.166498  1
  Sn  Sn8  1  0.999965  0.500000  0.333339  1
  Sn  Sn9  1  0.499977  0.000000  0.500146  1
  Sn  Sn10  1  0.000123  0.500000  0.666769  1
  Sn  Sn11  1  0.499997  0.000000  0.833370  1
  Ru  Ru12  1  0.500034  0.250902  0.999165  1
  Ru  Ru13  1  0.500034  0.749098  0.999165  1
  Ru  Ru14  1  0.999920  0.250171  0.166589  1
  Ru  Ru15  1  0.999920  0.749828  0.166589  1
  Ru  Ru16  1  0.499918  0.249826  0.333333  1
  Ru  Ru17  1  0.499918  0.750173  0.333333  1
  Ru  Ru18  1  0.999904  0.250198  0.500075  1
  Ru  Ru19  1  0.999904  0.749803  0.500075  1
  Ru  Ru20  1  0.500222  0.250814  0.667492  1
  Ru  Ru21  1  0.500222  0.749185  0.667492  1
  Ru  Ru22  1  0.999954  0.252174  0.833344  1
  Ru  Ru23  1  0.999954  0.747825  0.833344  1
