# generated using pymatgen
data_Nd3Th(Zn5Sn)2
_symmetry_space_group_name_H-M   'P 1'
_cell_length_a   8.58222735
_cell_length_b   8.58222763
_cell_length_c   9.08243200
_cell_angle_alpha   90.00000000
_cell_angle_beta   90.00000000
_cell_angle_gamma   149.61489600
_symmetry_Int_Tables_number   1
_chemical_formula_structural   Nd3Th(Zn5Sn)2
_chemical_formula_sum   'Nd3 Th1 Zn10 Sn2'
_cell_volume   338.36792450
_cell_formula_units_Z   1
loop_
 _symmetry_equiv_pos_site_id
 _symmetry_equiv_pos_as_xyz
  1  'x, y, z'
loop_
 _atom_site_type_symbol
 _atom_site_label
 _atom_site_symmetry_multiplicity
 _atom_site_fract_x
 _atom_site_fract_y
 _atom_site_fract_z
 _atom_site_occupancy
  Nd  Nd0  1  0.795276  0.204724  0.750000  1
  Nd  Nd1  1  0.000205  0.999795  0.502010  1
  Nd  Nd2  1  0.000205  0.999795  0.997990  1
  Th  Th3  1  0.205222  0.794778  0.250000  1
  Zn  Zn4  1  0.813285  0.186715  0.392332  1
  Zn  Zn5  1  0.185756  0.814244  0.608513  1
  Zn  Zn6  1  0.813285  0.186715  0.107668  1
  Zn  Zn7  1  0.185756  0.814244  0.891487  1
  Zn  Zn8  1  0.657163  0.342837  0.482770  1
  Zn  Zn9  1  0.343726  0.656274  0.517011  1
  Zn  Zn10  1  0.657163  0.342837  0.017230  1
  Zn  Zn11  1  0.343726  0.656274  0.982989  1
  Zn  Zn12  1  0.394707  0.605293  0.250000  1
  Zn  Zn13  1  0.605400  0.394600  0.750000  1
  Sn  Sn14  1  0.554351  0.445649  0.250000  1
  Sn  Sn15  1  0.444774  0.555226  0.750000  1
