# generated using pymatgen
data_Li2AcTmSn2
_symmetry_space_group_name_H-M   'P 1'
_cell_length_a   4.78864500
_cell_length_b   7.85780931
_cell_length_c   8.27706715
_cell_angle_alpha   90.00534744
_cell_angle_beta   90.00000000
_cell_angle_gamma   90.00000000
_symmetry_Int_Tables_number   1
_chemical_formula_structural   Li2AcTmSn2
_chemical_formula_sum   'Li4 Ac2 Tm2 Sn4'
_cell_volume   311.45162739
_cell_formula_units_Z   2
loop_
 _symmetry_equiv_pos_site_id
 _symmetry_equiv_pos_as_xyz
  1  'x, y, z'
loop_
 _atom_site_type_symbol
 _atom_site_label
 _atom_site_symmetry_multiplicity
 _atom_site_fract_x
 _atom_site_fract_y
 _atom_site_fract_z
 _atom_site_occupancy
  Li  Li0  1  0.750000  0.190533  0.416099  1
  Li  Li1  1  0.250000  0.176686  0.917471  1
  Li  Li2  1  0.750000  0.823314  0.082529  1
  Li  Li3  1  0.250000  0.809467  0.583901  1
  Ac  Ac4  1  0.250000  0.500475  0.248365  1
  Ac  Ac5  1  0.750000  0.499525  0.751635  1
  Tm  Tm6  1  0.250000  0.000428  0.253145  1
  Tm  Tm7  1  0.750000  0.999572  0.746855  1
  Sn  Sn8  1  0.250000  0.223838  0.584228  1
  Sn  Sn9  1  0.750000  0.221916  0.083383  1
  Sn  Sn10  1  0.250000  0.778084  0.916617  1
  Sn  Sn11  1  0.750000  0.776162  0.415772  1
