# generated using pymatgen
data_Dy2UIr2Ru
_symmetry_space_group_name_H-M   'P 1'
_cell_length_a   5.36652928
_cell_length_b   5.27720534
_cell_length_c   5.36653100
_cell_angle_alpha   65.40824165
_cell_angle_beta   64.65473257
_cell_angle_gamma   65.40824222
_symmetry_Int_Tables_number   1
_chemical_formula_structural   Dy2UIr2Ru
_chemical_formula_sum   'Dy2 U1 Ir2 Ru1'
_cell_volume   119.54111723
_cell_formula_units_Z   1
loop_
 _symmetry_equiv_pos_site_id
 _symmetry_equiv_pos_as_xyz
  1  'x, y, z'
loop_
 _atom_site_type_symbol
 _atom_site_label
 _atom_site_symmetry_multiplicity
 _atom_site_fract_x
 _atom_site_fract_y
 _atom_site_fract_z
 _atom_site_occupancy
  Dy  Dy0  1  0.751468  0.747241  0.751468  1
  Dy  Dy1  1  0.498532  0.502759  0.498532  1
  U  U2  1  0.125000  0.125000  0.125000  1
  Ir  Ir3  1  0.125000  0.125000  0.625000  1
  Ir  Ir4  1  0.625000  0.125000  0.125000  1
  Ru  Ru5  1  0.125000  0.625000  0.125000  1
