# generated using pymatgen
data_Li3MgNi2As6Ir5
_symmetry_space_group_name_H-M   'P 1'
_cell_length_a   6.97575611
_cell_length_b   6.90686841
_cell_length_c   6.90686753
_cell_angle_alpha   108.88112965
_cell_angle_beta   109.70607825
_cell_angle_gamma   109.70608082
_symmetry_Int_Tables_number   1
_chemical_formula_structural   Li3MgNi2As6Ir5
_chemical_formula_sum   'Li3 Mg1 Ni2 As6 Ir5'
_cell_volume   256.53860997
_cell_formula_units_Z   1
loop_
 _symmetry_equiv_pos_site_id
 _symmetry_equiv_pos_as_xyz
  1  'x, y, z'
loop_
 _atom_site_type_symbol
 _atom_site_label
 _atom_site_symmetry_multiplicity
 _atom_site_fract_x
 _atom_site_fract_y
 _atom_site_fract_z
 _atom_site_occupancy
  Li  Li0  1  0.999576  0.991147  0.500095  1
  Li  Li1  1  0.500000  0.003604  0.996396  1
  Li  Li2  1  0.000424  0.499905  0.008853  1
  Mg  Mg3  1  0.500000  0.503094  0.496906  1
  Ni  Ni4  1  0.247924  0.498369  0.749760  1
  Ni  Ni5  1  0.752076  0.250240  0.501631  1
  As  As6  1  0.691872  0.693687  0.006440  1
  As  As7  1  0.306604  0.309909  0.987357  1
  As  As8  1  0.009004  0.684023  0.694851  1
  As  As9  1  0.990996  0.305149  0.315977  1
  As  As10  1  0.693396  0.012643  0.690091  1
  As  As11  1  0.308128  0.993560  0.306313  1
  Ir  Ir12  1  0.000000  0.001029  0.998971  1
  Ir  Ir13  1  0.500000  0.258176  0.741824  1
  Ir  Ir14  1  0.500000  0.754730  0.245270  1
  Ir  Ir15  1  0.745177  0.494400  0.253664  1
  Ir  Ir16  1  0.254823  0.746336  0.505600  1
