# generated using pymatgen
data_Y6Th2Mg2FeNi
_symmetry_space_group_name_H-M   'P 1'
_cell_length_a   9.68869854
_cell_length_b   9.68869838
_cell_length_c   9.72527600
_cell_angle_alpha   59.87504257
_cell_angle_beta   59.87504312
_cell_angle_gamma   59.79281865
_symmetry_Int_Tables_number   1
_chemical_formula_structural   Y6Th2Mg2FeNi
_chemical_formula_sum   'Y12 Th4 Mg4 Fe2 Ni2'
_cell_volume   643.29905577
_cell_formula_units_Z   2
loop_
 _symmetry_equiv_pos_site_id
 _symmetry_equiv_pos_as_xyz
  1  'x, y, z'
loop_
 _atom_site_type_symbol
 _atom_site_label
 _atom_site_symmetry_multiplicity
 _atom_site_fract_x
 _atom_site_fract_y
 _atom_site_fract_z
 _atom_site_occupancy
  Y  Y0  1  0.816346  0.186366  0.187898  1
  Y  Y1  1  0.186366  0.816346  0.809390  1
  Y  Y2  1  0.186366  0.816346  0.187898  1
  Y  Y3  1  0.816346  0.186366  0.809390  1
  Y  Y4  1  0.186970  0.186970  0.813030  1
  Y  Y5  1  0.813507  0.813507  0.186493  1
  Y  Y6  1  0.934721  0.561163  0.567231  1
  Y  Y7  1  0.561163  0.934721  0.936885  1
  Y  Y8  1  0.561163  0.934721  0.567231  1
  Y  Y9  1  0.934721  0.561163  0.936885  1
  Y  Y10  1  0.562511  0.562511  0.937489  1
  Y  Y11  1  0.934291  0.934291  0.565709  1
  Th  Th12  1  0.341674  0.341674  0.351008  1
  Th  Th13  1  0.341674  0.341674  0.965645  1
  Th  Th14  1  0.339105  0.970613  0.345141  1
  Th  Th15  1  0.970613  0.339105  0.345141  1
  Mg  Mg16  1  0.578353  0.578353  0.581425  1
  Mg  Mg17  1  0.578353  0.578353  0.261867  1
  Mg  Mg18  1  0.578661  0.259938  0.580700  1
  Mg  Mg19  1  0.259938  0.578661  0.580700  1
  Fe  Fe20  1  0.150464  0.150464  0.142636  1
  Fe  Fe21  1  0.150464  0.150464  0.556436  1
  Ni  Ni22  1  0.145058  0.571171  0.141885  1
  Ni  Ni23  1  0.571171  0.145058  0.141885  1
