# generated using pymatgen
data_BaGa2PtO6
_symmetry_space_group_name_H-M   'P 1'
_cell_length_a   7.01566205
_cell_length_b   7.01566211
_cell_length_c   7.01566150
_cell_angle_alpha   44.03259507
_cell_angle_beta   44.03259237
_cell_angle_gamma   44.03259103
_symmetry_Int_Tables_number   1
_chemical_formula_structural   BaGa2PtO6
_chemical_formula_sum   'Ba1 Ga2 Pt1 O6'
_cell_volume   151.53221395
_cell_formula_units_Z   1
loop_
 _symmetry_equiv_pos_site_id
 _symmetry_equiv_pos_as_xyz
  1  'x, y, z'
loop_
 _atom_site_type_symbol
 _atom_site_label
 _atom_site_symmetry_multiplicity
 _atom_site_fract_x
 _atom_site_fract_y
 _atom_site_fract_z
 _atom_site_occupancy
  Ba  Ba0  1  0.000000  0.000000  0.000000  1
  Ga  Ga1  1  0.176266  0.176266  0.176266  1
  Ga  Ga2  1  0.823734  0.823734  0.823734  1
  Pt  Pt3  1  0.500000  0.500000  0.500000  1
  O  O4  1  0.782864  0.438036  0.113683  1
  O  O5  1  0.561965  0.886316  0.217136  1
  O  O6  1  0.113684  0.782863  0.438036  1
  O  O7  1  0.886316  0.217137  0.561964  1
  O  O8  1  0.438035  0.113684  0.782864  1
  O  O9  1  0.217136  0.561964  0.886317  1
