# generated using pymatgen
data_Y2Th5PaH24
_symmetry_space_group_name_H-M   'P 1'
_cell_length_a   6.74935000
_cell_length_b   6.71248100
_cell_length_c   6.74935000
_cell_angle_alpha   90.00000000
_cell_angle_beta   90.00000000
_cell_angle_gamma   90.00000000
_symmetry_Int_Tables_number   1
_chemical_formula_structural   Y2Th5PaH24
_chemical_formula_sum   'Y2 Th5 Pa1 H24'
_cell_volume   305.77851638
_cell_formula_units_Z   1
loop_
 _symmetry_equiv_pos_site_id
 _symmetry_equiv_pos_as_xyz
  1  'x, y, z'
loop_
 _atom_site_type_symbol
 _atom_site_label
 _atom_site_symmetry_multiplicity
 _atom_site_fract_x
 _atom_site_fract_y
 _atom_site_fract_z
 _atom_site_occupancy
  Y  Y0  1  0.000000  0.002190  0.000000  1
  Y  Y1  1  0.500000  0.497810  0.500000  1
  Th  Th2  1  0.249996  0.000572  0.500000  1
  Th  Th3  1  0.750004  0.000572  0.500000  1
  Th  Th4  1  0.000000  0.499428  0.250004  1
  Th  Th5  1  0.000000  0.499428  0.749996  1
  Th  Th6  1  0.500000  0.750000  0.000000  1
  Pa  Pa7  1  0.500000  0.250000  0.000000  1
  H  H8  1  0.000000  0.153347  0.302831  1
  H  H9  1  0.500000  0.198195  0.660203  1
  H  H10  1  0.500000  0.799435  0.346100  1
  H  H11  1  0.800482  0.653556  0.500000  1
  H  H12  1  0.199518  0.653556  0.500000  1
  H  H13  1  0.348460  0.490713  0.805677  1
  H  H14  1  0.651540  0.490713  0.805677  1
  H  H15  1  0.305677  0.009287  0.151540  1
  H  H16  1  0.160203  0.301805  0.000000  1
  H  H17  1  0.846100  0.700565  0.000000  1
  H  H18  1  0.305677  0.009287  0.848460  1
  H  H19  1  0.839797  0.301805  0.000000  1
  H  H20  1  0.694323  0.009287  0.151540  1
  H  H21  1  0.694323  0.009287  0.848460  1
  H  H22  1  0.153900  0.700565  0.000000  1
  H  H23  1  0.000000  0.846444  0.699518  1
  H  H24  1  0.000000  0.153347  0.697169  1
  H  H25  1  0.000000  0.846444  0.300482  1
  H  H26  1  0.651540  0.490713  0.194323  1
  H  H27  1  0.348460  0.490713  0.194323  1
  H  H28  1  0.802831  0.346653  0.500000  1
  H  H29  1  0.197169  0.346653  0.500000  1
  H  H30  1  0.500000  0.799435  0.653900  1
  H  H31  1  0.500000  0.198195  0.339797  1
