# generated using pymatgen
data_Rb3Cr(SeO4)3
_symmetry_space_group_name_H-M   'P 1'
_cell_length_a   9.49536253
_cell_length_b   9.49536221
_cell_length_c   9.49536200
_cell_angle_alpha   108.66344773
_cell_angle_beta   108.66345346
_cell_angle_gamma   108.66346830
_symmetry_Int_Tables_number   1
_chemical_formula_structural   Rb3Cr(SeO4)3
_chemical_formula_sum   'Rb6 Cr2 Se6 O24'
_cell_volume   678.03495172
_cell_formula_units_Z   2
loop_
 _symmetry_equiv_pos_site_id
 _symmetry_equiv_pos_as_xyz
  1  'x, y, z'
loop_
 _atom_site_type_symbol
 _atom_site_label
 _atom_site_symmetry_multiplicity
 _atom_site_fract_x
 _atom_site_fract_y
 _atom_site_fract_z
 _atom_site_occupancy
  Rb  Rb0  1  0.107895  0.641367  0.255335  1
  Rb  Rb1  1  0.255335  0.107895  0.641367  1
  Rb  Rb2  1  0.641367  0.255335  0.107895  1
  Rb  Rb3  1  0.299917  0.688933  0.837498  1
  Rb  Rb4  1  0.837498  0.299917  0.688933  1
  Rb  Rb5  1  0.688933  0.837498  0.299917  1
  Cr  Cr6  1  0.469106  0.469106  0.469106  1
  Cr  Cr7  1  0.968297  0.968297  0.968297  1
  Se  Se8  1  0.888450  0.701636  0.574208  1
  Se  Se9  1  0.574208  0.888450  0.701636  1
  Se  Se10  1  0.701636  0.574208  0.888450  1
  Se  Se11  1  0.361933  0.049805  0.236872  1
  Se  Se12  1  0.236872  0.361933  0.049805  1
  Se  Se13  1  0.049805  0.236872  0.361933  1
  O  O14  1  0.957775  0.756865  0.450691  1
  O  O15  1  0.450691  0.957775  0.756865  1
  O  O16  1  0.756865  0.450691  0.957775  1
  O  O17  1  0.674596  0.603457  0.456893  1
  O  O18  1  0.456893  0.674596  0.603457  1
  O  O19  1  0.603457  0.456893  0.674596  1
  O  O20  1  0.888875  0.736225  0.949656  1
  O  O21  1  0.949656  0.888875  0.736225  1
  O  O22  1  0.736225  0.949656  0.888875  1
  O  O23  1  0.632791  0.956994  0.580587  1
  O  O24  1  0.580587  0.632791  0.956994  1
  O  O25  1  0.956994  0.580587  0.632791  1
  O  O26  1  0.263471  0.333409  0.479486  1
  O  O27  1  0.479486  0.263471  0.333409  1
  O  O28  1  0.333409  0.479486  0.263471  1
  O  O29  1  0.048367  0.200386  0.986561  1
  O  O30  1  0.986561  0.048367  0.200386  1
  O  O31  1  0.200386  0.986561  0.048367  1
  O  O32  1  0.980254  0.184093  0.486389  1
  O  O33  1  0.486389  0.980254  0.184093  1
  O  O34  1  0.184093  0.486389  0.980254  1
  O  O35  1  0.301892  0.983063  0.358076  1
  O  O36  1  0.358076  0.301892  0.983063  1
  O  O37  1  0.983063  0.358076  0.301892  1
