# generated using pymatgen
data_NaSrPa2Cl12
_symmetry_space_group_name_H-M   'P 1'
_cell_length_a   6.93173400
_cell_length_b   6.93173400
_cell_length_c   11.19654900
_cell_angle_alpha   90.00000000
_cell_angle_beta   90.00000000
_cell_angle_gamma   90.00000000
_symmetry_Int_Tables_number   1
_chemical_formula_structural   NaSrPa2Cl12
_chemical_formula_sum   'Na1 Sr1 Pa2 Cl12'
_cell_volume   537.98226910
_cell_formula_units_Z   1
loop_
 _symmetry_equiv_pos_site_id
 _symmetry_equiv_pos_as_xyz
  1  'x, y, z'
loop_
 _atom_site_type_symbol
 _atom_site_label
 _atom_site_symmetry_multiplicity
 _atom_site_fract_x
 _atom_site_fract_y
 _atom_site_fract_z
 _atom_site_occupancy
  Na  Na0  1  0.000000  0.000000  0.250000  1
  Sr  Sr1  1  0.000000  0.000000  0.750000  1
  Pa  Pa2  1  0.500000  0.000000  0.495835  1
  Pa  Pa3  1  0.000000  0.500000  0.004165  1
  Cl  Cl4  1  0.793189  0.185576  0.984706  1
  Cl  Cl5  1  0.814424  0.793189  0.515294  1
  Cl  Cl6  1  0.185576  0.206811  0.515294  1
  Cl  Cl7  1  0.206811  0.814424  0.984706  1
  Cl  Cl8  1  0.204286  0.330370  0.166020  1
  Cl  Cl9  1  0.658787  0.215002  0.662636  1
  Cl  Cl10  1  0.341213  0.784998  0.662636  1
  Cl  Cl11  1  0.795714  0.669630  0.166020  1
  Cl  Cl12  1  0.784998  0.658787  0.837364  1
  Cl  Cl13  1  0.330370  0.795714  0.333980  1
  Cl  Cl14  1  0.669630  0.204286  0.333980  1
  Cl  Cl15  1  0.215002  0.341213  0.837364  1
