# generated using pymatgen
data_Th2BeC2
_symmetry_space_group_name_H-M   'P 1'
_cell_length_a   3.81247568
_cell_length_b   3.81247616
_cell_length_c   6.48924765
_cell_angle_alpha   107.08277885
_cell_angle_beta   107.08279833
_cell_angle_gamma   90.00001465
_symmetry_Int_Tables_number   1
_chemical_formula_structural   Th2BeC2
_chemical_formula_sum   'Th2 Be1 C2'
_cell_volume   85.79679580
_cell_formula_units_Z   1
loop_
 _symmetry_equiv_pos_site_id
 _symmetry_equiv_pos_as_xyz
  1  'x, y, z'
loop_
 _atom_site_type_symbol
 _atom_site_label
 _atom_site_symmetry_multiplicity
 _atom_site_fract_x
 _atom_site_fract_y
 _atom_site_fract_z
 _atom_site_occupancy
  Th  Th0  1  0.644689  0.644689  0.289383  1
  Th  Th1  1  0.355309  0.355309  0.710617  1
  Be  Be2  1  0.000000  0.000000  0.000000  1
  C  C3  1  0.148984  0.148984  0.297969  1
  C  C4  1  0.851015  0.851015  0.702031  1
