# generated using pymatgen
data_TaNbNi7(B3Ru7)2
_symmetry_space_group_name_H-M   'P 1'
_cell_length_a   7.83028182
_cell_length_b   7.83028172
_cell_length_c   7.83028200
_cell_angle_alpha   60.58621726
_cell_angle_beta   60.58622251
_cell_angle_gamma   60.58621642
_symmetry_Int_Tables_number   1
_chemical_formula_structural   TaNbNi7(B3Ru7)2
_chemical_formula_sum   'Ta1 Nb1 Ni7 B6 Ru14'
_cell_volume   343.97742414
_cell_formula_units_Z   1
loop_
 _symmetry_equiv_pos_site_id
 _symmetry_equiv_pos_as_xyz
  1  'x, y, z'
loop_
 _atom_site_type_symbol
 _atom_site_label
 _atom_site_symmetry_multiplicity
 _atom_site_fract_x
 _atom_site_fract_y
 _atom_site_fract_z
 _atom_site_occupancy
  Ta  Ta0  1  0.252835  0.252835  0.252835  1
  Nb  Nb1  1  0.746804  0.746804  0.746804  1
  Ni  Ni2  1  0.380303  0.380303  0.850474  1
  Ni  Ni3  1  0.380303  0.850474  0.380303  1
  Ni  Ni4  1  0.619373  0.619373  0.150667  1
  Ni  Ni5  1  0.619373  0.150667  0.619373  1
  Ni  Ni6  1  0.850474  0.380303  0.380303  1
  Ni  Ni7  1  0.150667  0.619373  0.619373  1
  Ni  Ni8  1  0.000053  0.000053  0.000053  1
  B  B9  1  0.724059  0.279792  0.279792  1
  B  B10  1  0.275761  0.720200  0.720200  1
  B  B11  1  0.279792  0.724059  0.279792  1
  B  B12  1  0.720200  0.275761  0.720200  1
  B  B13  1  0.279792  0.279792  0.724059  1
  B  B14  1  0.720200  0.720200  0.275761  1
  Ru  Ru15  1  0.337210  0.002298  0.002298  1
  Ru  Ru16  1  0.662422  0.998117  0.998117  1
  Ru  Ru17  1  0.000138  0.339361  0.660336  1
  Ru  Ru18  1  0.000138  0.660336  0.339361  1
  Ru  Ru19  1  0.002298  0.337210  0.002298  1
  Ru  Ru20  1  0.660336  0.000138  0.339361  1
  Ru  Ru21  1  0.998117  0.662422  0.998117  1
  Ru  Ru22  1  0.339361  0.000138  0.660336  1
  Ru  Ru23  1  0.002298  0.002298  0.337210  1
  Ru  Ru24  1  0.998117  0.998117  0.662422  1
  Ru  Ru25  1  0.660336  0.339361  0.000138  1
  Ru  Ru26  1  0.339361  0.660336  0.000138  1
  Ru  Ru27  1  0.387001  0.387001  0.387001  1
  Ru  Ru28  1  0.612878  0.612878  0.612878  1
