# generated using pymatgen
data_La5Nd3CdHgPt2
_symmetry_space_group_name_H-M   'P 1'
_cell_length_a   10.14787345
_cell_length_b   10.14787352
_cell_length_c   10.14939400
_cell_angle_alpha   59.99504345
_cell_angle_beta   59.99504324
_cell_angle_gamma   60.01291288
_symmetry_Int_Tables_number   1
_chemical_formula_structural   La5Nd3CdHgPt2
_chemical_formula_sum   'La10 Nd6 Cd2 Hg2 Pt4'
_cell_volume   739.06905620
_cell_formula_units_Z   2
loop_
 _symmetry_equiv_pos_site_id
 _symmetry_equiv_pos_as_xyz
  1  'x, y, z'
loop_
 _atom_site_type_symbol
 _atom_site_label
 _atom_site_symmetry_multiplicity
 _atom_site_fract_x
 _atom_site_fract_y
 _atom_site_fract_z
 _atom_site_occupancy
  La  La0  1  0.349985  0.349985  0.349604  1
  La  La1  1  0.349985  0.349985  0.950425  1
  La  La2  1  0.351995  0.945766  0.351119  1
  La  La3  1  0.945766  0.351995  0.351119  1
  La  La4  1  0.807567  0.192602  0.193439  1
  La  La5  1  0.192602  0.807567  0.806392  1
  La  La6  1  0.192602  0.807567  0.193439  1
  La  La7  1  0.807567  0.192602  0.806392  1
  La  La8  1  0.192225  0.192225  0.807775  1
  La  La9  1  0.805805  0.805805  0.194195  1
  Nd  Nd10  1  0.935052  0.564699  0.566813  1
  Nd  Nd11  1  0.564699  0.935052  0.933436  1
  Nd  Nd12  1  0.564699  0.935052  0.566813  1
  Nd  Nd13  1  0.935052  0.564699  0.933436  1
  Nd  Nd14  1  0.564280  0.564280  0.935720  1
  Nd  Nd15  1  0.933088  0.933088  0.566912  1
  Cd  Cd16  1  0.579675  0.258519  0.580904  1
  Cd  Cd17  1  0.258519  0.579675  0.580904  1
  Hg  Hg18  1  0.584135  0.584135  0.586668  1
  Hg  Hg19  1  0.584135  0.584135  0.245062  1
  Pt  Pt20  1  0.142657  0.142657  0.143109  1
  Pt  Pt21  1  0.142657  0.142657  0.571578  1
  Pt  Pt22  1  0.142352  0.572903  0.142372  1
  Pt  Pt23  1  0.572903  0.142352  0.142372  1
