# generated using pymatgen
data_Er3Tm(Si2Tc)2
_symmetry_space_group_name_H-M   'P 1'
_cell_length_a   5.75561824
_cell_length_b   5.75561860
_cell_length_c   10.01087837
_cell_angle_alpha   63.75329254
_cell_angle_beta   63.75328888
_cell_angle_gamma   42.41328906
_symmetry_Int_Tables_number   1
_chemical_formula_structural   Er3Tm(Si2Tc)2
_chemical_formula_sum   'Er3 Tm1 Si4 Tc2'
_cell_volume   196.90971419
_cell_formula_units_Z   1
loop_
 _symmetry_equiv_pos_site_id
 _symmetry_equiv_pos_as_xyz
  1  'x, y, z'
loop_
 _atom_site_type_symbol
 _atom_site_label
 _atom_site_symmetry_multiplicity
 _atom_site_fract_x
 _atom_site_fract_y
 _atom_site_fract_z
 _atom_site_occupancy
  Er  Er0  1  0.187544  0.187544  0.890610  1
  Er  Er1  1  0.994843  0.994843  0.677303  1
  Er  Er2  1  0.812462  0.812462  0.109506  1
  Tm  Tm3  1  0.004653  0.004653  0.323042  1
  Si  Si4  1  0.502834  0.502834  0.121990  1
  Si  Si5  1  0.497481  0.497481  0.878300  1
  Si  Si6  1  0.359238  0.359238  0.560075  1
  Si  Si7  1  0.640776  0.640776  0.439610  1
  Tc  Tc8  1  0.272301  0.272301  0.369860  1
  Tc  Tc9  1  0.727871  0.727871  0.629704  1
