# generated using pymatgen
data_CaNp5O12
_symmetry_space_group_name_H-M   'P 1'
_cell_length_a   6.58208134
_cell_length_b   6.58208038
_cell_length_c   6.58488515
_cell_angle_alpha   80.39317627
_cell_angle_beta   80.39318287
_cell_angle_gamma   120.00745502
_symmetry_Int_Tables_number   1
_chemical_formula_structural   CaNp5O12
_chemical_formula_sum   'Ca1 Np5 O12'
_cell_volume   232.87276351
_cell_formula_units_Z   1
loop_
 _symmetry_equiv_pos_site_id
 _symmetry_equiv_pos_as_xyz
  1  'x, y, z'
loop_
 _atom_site_type_symbol
 _atom_site_label
 _atom_site_symmetry_multiplicity
 _atom_site_fract_x
 _atom_site_fract_y
 _atom_site_fract_z
 _atom_site_occupancy
  Ca  Ca0  1  0.500000  0.500000  0.500000  1
  Np  Np1  1  0.832923  0.167077  0.500000  1
  Np  Np2  1  0.167077  0.832923  0.500000  1
  Np  Np3  1  0.665074  0.334926  0.000000  1
  Np  Np4  1  0.000000  0.000000  0.000000  1
  Np  Np5  1  0.334926  0.665074  0.000000  1
  O  O6  1  0.106531  0.106531  0.635359  1
  O  O7  1  0.706593  0.043089  0.879977  1
  O  O8  1  0.956911  0.293407  0.120023  1
  O  O9  1  0.366198  0.366198  0.891768  1
  O  O10  1  0.043089  0.706593  0.879977  1
  O  O11  1  0.542840  0.197480  0.365671  1
  O  O12  1  0.893469  0.893469  0.364641  1
  O  O13  1  0.457160  0.802520  0.634329  1
  O  O14  1  0.633802  0.633802  0.108232  1
  O  O15  1  0.293407  0.956911  0.120023  1
  O  O16  1  0.802520  0.457160  0.634329  1
  O  O17  1  0.197480  0.542840  0.365671  1
