# generated using pymatgen
data_Tb4FeCoNi14(MoP3)4
_symmetry_space_group_name_H-M   'P 1'
_cell_length_a   3.70946100
_cell_length_b   10.53509500
_cell_length_c   12.14486400
_cell_angle_alpha   90.00000000
_cell_angle_beta   90.00000000
_cell_angle_gamma   90.00000000
_symmetry_Int_Tables_number   1
_chemical_formula_structural   Tb4FeCoNi14(MoP3)4
_chemical_formula_sum   'Tb4 Fe1 Co1 Ni14 Mo4 P12'
_cell_volume   474.61550458
_cell_formula_units_Z   1
loop_
 _symmetry_equiv_pos_site_id
 _symmetry_equiv_pos_as_xyz
  1  'x, y, z'
loop_
 _atom_site_type_symbol
 _atom_site_label
 _atom_site_symmetry_multiplicity
 _atom_site_fract_x
 _atom_site_fract_y
 _atom_site_fract_z
 _atom_site_occupancy
  Tb  Tb0  1  0.250000  0.583349  0.706622  1
  Tb  Tb1  1  0.250000  0.916221  0.206415  1
  Tb  Tb2  1  0.750000  0.417139  0.293110  1
  Tb  Tb3  1  0.750000  0.082876  0.793161  1
  Fe  Fe4  1  0.750000  0.967187  0.566476  1
  Co  Co5  1  0.750000  0.533095  0.066841  1
  Ni  Ni6  1  0.250000  0.409073  0.488641  1
  Ni  Ni7  1  0.250000  0.091221  0.988551  1
  Ni  Ni8  1  0.750000  0.589408  0.512517  1
  Ni  Ni9  1  0.750000  0.910136  0.012537  1
  Ni  Ni10  1  0.250000  0.223039  0.176107  1
  Ni  Ni11  1  0.250000  0.276927  0.676220  1
  Ni  Ni12  1  0.750000  0.779489  0.823466  1
  Ni  Ni13  1  0.750000  0.720654  0.323605  1
  Ni  Ni14  1  0.250000  0.882322  0.702942  1
  Ni  Ni15  1  0.250000  0.617269  0.202536  1
  Ni  Ni16  1  0.750000  0.116977  0.296253  1
  Ni  Ni17  1  0.750000  0.382572  0.796564  1
  Ni  Ni18  1  0.250000  0.465358  0.932547  1
  Ni  Ni19  1  0.250000  0.035464  0.431765  1
  Mo  Mo20  1  0.250000  0.707335  0.988795  1
  Mo  Mo21  1  0.250000  0.793085  0.489320  1
  Mo  Mo22  1  0.750000  0.292811  0.010477  1
  Mo  Mo23  1  0.750000  0.206455  0.510941  1
  P  P24  1  0.250000  0.423770  0.114131  1
  P  P25  1  0.250000  0.076109  0.614025  1
  P  P26  1  0.750000  0.579243  0.886719  1
  P  P27  1  0.750000  0.920734  0.386908  1
  P  P28  1  0.250000  0.266995  0.866426  1
  P  P29  1  0.250000  0.233411  0.366524  1
  P  P30  1  0.750000  0.731482  0.133178  1
  P  P31  1  0.750000  0.768543  0.633158  1
  P  P32  1  0.250000  0.598248  0.390745  1
  P  P33  1  0.250000  0.902004  0.890933  1
  P  P34  1  0.750000  0.400428  0.610455  1
  P  P35  1  0.750000  0.099570  0.110385  1
