# generated using pymatgen
data_Ho12Fe3CoBiAu
_symmetry_space_group_name_H-M   'P 1'
_cell_length_a   8.35985735
_cell_length_b   8.36028400
_cell_length_c   8.35985667
_cell_angle_alpha   111.61900110
_cell_angle_beta   110.57603551
_cell_angle_gamma   106.26520485
_symmetry_Int_Tables_number   1
_chemical_formula_structural   Ho12Fe3CoBiAu
_chemical_formula_sum   'Ho12 Fe3 Co1 Bi1 Au1'
_cell_volume   448.70009559
_cell_formula_units_Z   1
loop_
 _symmetry_equiv_pos_site_id
 _symmetry_equiv_pos_as_xyz
  1  'x, y, z'
loop_
 _atom_site_type_symbol
 _atom_site_label
 _atom_site_symmetry_multiplicity
 _atom_site_fract_x
 _atom_site_fract_y
 _atom_site_fract_z
 _atom_site_occupancy
  Ho  Ho0  1  0.814290  0.711010  0.522985  1
  Ho  Ho1  1  0.188030  0.291206  0.476965  1
  Ho  Ho2  1  0.188026  0.711010  0.896720  1
  Ho  Ho3  1  0.814240  0.291206  0.103176  1
  Ho  Ho4  1  0.688913  0.382436  0.693524  1
  Ho  Ho5  1  0.309913  0.616568  0.306654  1
  Ho  Ho6  1  0.688871  0.995364  0.306494  1
  Ho  Ho7  1  0.309942  0.003239  0.693296  1
  Ho  Ho8  1  0.576099  0.785033  0.790991  1
  Ho  Ho9  1  0.422933  0.214887  0.208053  1
  Ho  Ho10  1  0.994044  0.785033  0.208935  1
  Ho  Ho11  1  0.006833  0.214887  0.791954  1
  Fe  Fe12  1  0.614598  0.001540  0.613986  1
  Fe  Fe13  1  0.387554  0.001540  0.386943  1
  Fe  Fe14  1  0.105700  0.605219  0.499519  1
  Co  Co15  1  0.888933  0.388882  0.499948  1
  Bi  Bi16  1  0.500856  0.500856  0.000000  1
  Au  Au17  1  0.000226  0.000085  0.999858  1
