# generated using pymatgen
data_Y4ErP12Ru19
_symmetry_space_group_name_H-M   'P 1'
_cell_length_a   12.53970110
_cell_length_b   12.54191193
_cell_length_c   3.98064600
_cell_angle_alpha   90.00000000
_cell_angle_beta   90.00000000
_cell_angle_gamma   120.00582902
_symmetry_Int_Tables_number   1
_chemical_formula_structural   Y4ErP12Ru19
_chemical_formula_sum   'Y4 Er1 P12 Ru19'
_cell_volume   542.13769913
_cell_formula_units_Z   1
loop_
 _symmetry_equiv_pos_site_id
 _symmetry_equiv_pos_as_xyz
  1  'x, y, z'
loop_
 _atom_site_type_symbol
 _atom_site_label
 _atom_site_symmetry_multiplicity
 _atom_site_fract_x
 _atom_site_fract_y
 _atom_site_fract_z
 _atom_site_occupancy
  Y  Y0  1  0.183542  0.183519  0.500000  1
  Y  Y1  1  0.816458  0.999977  0.500000  1
  Y  Y2  1  0.333315  0.666707  0.000000  1
  Y  Y3  1  0.666685  0.333392  0.000000  1
  Er  Er4  1  0.000000  0.816717  0.500000  1
  P  P5  1  0.815826  0.815324  0.000000  1
  P  P6  1  0.184174  0.999497  0.000000  1
  P  P7  1  0.000000  0.184261  0.000000  1
  P  P8  1  0.171050  0.477768  0.500000  1
  P  P9  1  0.522548  0.693468  0.500000  1
  P  P10  1  0.306527  0.828925  0.500000  1
  P  P11  1  0.693473  0.522398  0.500000  1
  P  P12  1  0.828950  0.306718  0.500000  1
  P  P13  1  0.477452  0.170920  0.500000  1
  P  P14  1  0.372784  0.372767  0.000000  1
  P  P15  1  0.627216  0.999981  0.000000  1
  P  P16  1  0.000000  0.627611  0.000000  1
  Ru  Ru17  1  0.554631  0.554572  0.000000  1
  Ru  Ru18  1  0.445369  0.999942  0.000000  1
  Ru  Ru19  1  0.000000  0.445686  0.000000  1
  Ru  Ru20  1  0.717219  0.716862  0.500000  1
  Ru  Ru21  1  0.282781  0.999643  0.500000  1
  Ru  Ru22  1  0.000000  0.283309  0.500000  1
  Ru  Ru23  1  0.184653  0.377174  0.000000  1
  Ru  Ru24  1  0.622913  0.807424  0.000000  1
  Ru  Ru25  1  0.191707  0.815234  0.000000  1
  Ru  Ru26  1  0.808293  0.623527  0.000000  1
  Ru  Ru27  1  0.815347  0.192521  0.000000  1
  Ru  Ru28  1  0.377087  0.184511  0.000000  1
  Ru  Ru29  1  0.365844  0.491636  0.500000  1
  Ru  Ru30  1  0.508455  0.874242  0.500000  1
  Ru  Ru31  1  0.125776  0.634418  0.500000  1
  Ru  Ru32  1  0.874224  0.508641  0.500000  1
  Ru  Ru33  1  0.634156  0.125791  0.500000  1
  Ru  Ru34  1  0.491545  0.365786  0.500000  1
  Ru  Ru35  1  0.000000  0.999127  0.000000  1
