# generated using pymatgen
data_Dy3Ir5Rh4
_symmetry_space_group_name_H-M   'P 1'
_cell_length_a   5.30758298
_cell_length_b   5.30902206
_cell_length_c   17.49753739
_cell_angle_alpha   90.00000072
_cell_angle_beta   90.08740679
_cell_angle_gamma   120.00897094
_symmetry_Int_Tables_number   1
_chemical_formula_structural   Dy3Ir5Rh4
_chemical_formula_sum   'Dy6 Ir10 Rh8'
_cell_volume   426.95189460
_cell_formula_units_Z   2
loop_
 _symmetry_equiv_pos_site_id
 _symmetry_equiv_pos_as_xyz
  1  'x, y, z'
loop_
 _atom_site_type_symbol
 _atom_site_label
 _atom_site_symmetry_multiplicity
 _atom_site_fract_x
 _atom_site_fract_y
 _atom_site_fract_z
 _atom_site_occupancy
  Dy  Dy0  1  0.333108  0.666555  0.541830  1
  Dy  Dy1  1  0.666767  0.333382  0.041499  1
  Dy  Dy2  1  0.665441  0.332720  0.458199  1
  Dy  Dy3  1  0.333497  0.666749  0.958578  1
  Dy  Dy4  1  0.333409  0.666705  0.750045  1
  Dy  Dy5  1  0.666377  0.333187  0.248686  1
  Ir  Ir6  1  0.167609  0.334782  0.126550  1
  Ir  Ir7  1  0.832544  0.664515  0.625442  1
  Ir  Ir8  1  0.664162  0.832080  0.125924  1
  Ir  Ir9  1  0.167609  0.832828  0.126550  1
  Ir  Ir10  1  0.832544  0.168029  0.625442  1
  Ir  Ir11  1  0.335003  0.167501  0.625778  1
  Ir  Ir12  1  0.832063  0.664692  0.874072  1
  Ir  Ir13  1  0.832063  0.167371  0.874072  1
  Ir  Ir14  1  0.335419  0.167709  0.874038  1
  Ir  Ir15  1  0.667305  0.833652  0.373785  1
  Rh  Rh16  1  0.170325  0.833958  0.374866  1
  Rh  Rh17  1  0.170325  0.336368  0.374866  1
  Rh  Rh18  1  0.997905  0.998952  0.250255  1
  Rh  Rh19  1  0.000061  0.000030  0.749858  1
  Rh  Rh20  1  0.334004  0.667002  0.250420  1
  Rh  Rh21  1  0.666266  0.333133  0.749715  1
  Rh  Rh22  1  0.000549  0.000274  0.999965  1
  Rh  Rh23  1  0.995647  0.997824  0.499564  1
