# generated using pymatgen
data_Dy2Y6Cd2NiOs
_symmetry_space_group_name_H-M   'P 1'
_cell_length_a   9.61090629
_cell_length_b   9.61090681
_cell_length_c   9.70155700
_cell_angle_alpha   59.68749450
_cell_angle_beta   59.68749270
_cell_angle_gamma   59.50927276
_symmetry_Int_Tables_number   1
_chemical_formula_structural   Dy2Y6Cd2NiOs
_chemical_formula_sum   'Dy4 Y12 Cd4 Ni2 Os2'
_cell_volume   628.29874580
_cell_formula_units_Z   2
loop_
 _symmetry_equiv_pos_site_id
 _symmetry_equiv_pos_as_xyz
  1  'x, y, z'
loop_
 _atom_site_type_symbol
 _atom_site_label
 _atom_site_symmetry_multiplicity
 _atom_site_fract_x
 _atom_site_fract_y
 _atom_site_fract_z
 _atom_site_occupancy
  Dy  Dy0  1  0.600423  0.600423  0.592395  1
  Dy  Dy1  1  0.600423  0.600423  0.206758  1
  Dy  Dy2  1  0.601460  0.206525  0.596007  1
  Dy  Dy3  1  0.206525  0.601460  0.596007  1
  Y  Y4  1  0.061009  0.436447  0.440905  1
  Y  Y5  1  0.436447  0.061009  0.061639  1
  Y  Y6  1  0.436447  0.061009  0.440905  1
  Y  Y7  1  0.061009  0.436447  0.061639  1
  Y  Y8  1  0.438727  0.438727  0.061273  1
  Y  Y9  1  0.059039  0.059039  0.440961  1
  Y  Y10  1  0.189488  0.805504  0.816108  1
  Y  Y11  1  0.805504  0.189488  0.188900  1
  Y  Y12  1  0.805504  0.189488  0.816108  1
  Y  Y13  1  0.189488  0.805504  0.188900  1
  Y  Y14  1  0.814793  0.814793  0.185207  1
  Y  Y15  1  0.191348  0.191348  0.808652  1
  Cd  Cd16  1  0.828845  0.828845  0.832789  1
  Cd  Cd17  1  0.828845  0.828845  0.509520  1
  Cd  Cd18  1  0.829958  0.506585  0.831728  1
  Cd  Cd19  1  0.506585  0.829958  0.831728  1
  Ni  Ni20  1  0.393292  0.825092  0.390809  1
  Ni  Ni21  1  0.825092  0.393292  0.390809  1
  Os  Os22  1  0.394874  0.394874  0.388352  1
  Os  Os23  1  0.394874  0.394874  0.821902  1
