# generated using pymatgen
data_Tb2NdSm3CoBr10
_symmetry_space_group_name_H-M   'P 1'
_cell_length_a   7.46733974
_cell_length_b   9.29261784
_cell_length_c   9.44322392
_cell_angle_alpha   108.42900144
_cell_angle_beta   96.55516754
_cell_angle_gamma   104.94331241
_symmetry_Int_Tables_number   1
_chemical_formula_structural   Tb2NdSm3CoBr10
_chemical_formula_sum   'Tb2 Nd1 Sm3 Co1 Br10'
_cell_volume   586.80110903
_cell_formula_units_Z   1
loop_
 _symmetry_equiv_pos_site_id
 _symmetry_equiv_pos_as_xyz
  1  'x, y, z'
loop_
 _atom_site_type_symbol
 _atom_site_label
 _atom_site_symmetry_multiplicity
 _atom_site_fract_x
 _atom_site_fract_y
 _atom_site_fract_z
 _atom_site_occupancy
  Tb  Tb0  1  0.354922  0.131534  0.675579  1
  Tb  Tb1  1  0.644953  0.869908  0.324636  1
  Nd  Nd2  1  0.031158  0.711961  0.409451  1
  Sm  Sm3  1  0.968405  0.284593  0.589291  1
  Sm  Sm4  1  0.875280  0.953184  0.745703  1
  Sm  Sm5  1  0.125785  0.046712  0.254618  1
  Co  Co6  1  0.000216  0.999715  0.499966  1
  Br  Br7  1  0.455370  0.825693  0.582524  1
  Br  Br8  1  0.547459  0.177061  0.419143  1
  Br  Br9  1  0.912771  0.629877  0.674260  1
  Br  Br10  1  0.085814  0.366960  0.327858  1
  Br  Br11  1  0.253667  0.086261  0.951655  1
  Br  Br12  1  0.747877  0.915834  0.049018  1
  Br  Br13  1  0.350845  0.447231  0.770111  1
  Br  Br14  1  0.642167  0.552320  0.228359  1
  Br  Br15  1  0.777258  0.252975  0.843921  1
  Br  Br16  1  0.226052  0.748181  0.153906  1
