# generated using pymatgen
data_Sc4Ga2RuPt9
_symmetry_space_group_name_H-M   'P 1'
_cell_length_a   4.13570400
_cell_length_b   5.60846326
_cell_length_c   11.03435600
_cell_angle_alpha   90.13798697
_cell_angle_beta   90.00000000
_cell_angle_gamma   90.00000000
_symmetry_Int_Tables_number   1
_chemical_formula_structural   Sc4Ga2RuPt9
_chemical_formula_sum   'Sc4 Ga2 Ru1 Pt9'
_cell_volume   255.94052679
_cell_formula_units_Z   1
loop_
 _symmetry_equiv_pos_site_id
 _symmetry_equiv_pos_as_xyz
  1  'x, y, z'
loop_
 _atom_site_type_symbol
 _atom_site_label
 _atom_site_symmetry_multiplicity
 _atom_site_fract_x
 _atom_site_fract_y
 _atom_site_fract_z
 _atom_site_occupancy
  Sc  Sc0  1  0.500000  0.197520  0.631073  1
  Sc  Sc1  1  0.500000  0.803435  0.363738  1
  Sc  Sc2  1  0.500000  0.696062  0.861413  1
  Sc  Sc3  1  0.500000  0.306926  0.144473  1
  Ga  Ga4  1  0.000000  0.495348  0.496123  1
  Ga  Ga5  1  0.000000  0.003097  0.001704  1
  Ru  Ru6  1  0.500000  0.295390  0.388140  1
  Pt  Pt7  1  0.500000  0.698411  0.610818  1
  Pt  Pt8  1  0.500000  0.799284  0.109167  1
  Pt  Pt9  1  0.500000  0.202316  0.889847  1
  Pt  Pt10  1  0.000000  0.446782  0.746774  1
  Pt  Pt11  1  0.000000  0.552655  0.254073  1
  Pt  Pt12  1  0.000000  0.947477  0.754985  1
  Pt  Pt13  1  0.000000  0.052621  0.246755  1
  Pt  Pt14  1  0.000000  0.501003  0.000184  1
  Pt  Pt15  1  0.000000  0.001675  0.500736  1
