# generated using pymatgen
data_Tb5Ho5Tl5In3Pd4
_symmetry_space_group_name_H-M   'P 1'
_cell_length_a   3.64311800
_cell_length_b   8.21124362
_cell_length_c   18.34683521
_cell_angle_alpha   89.91845106
_cell_angle_beta   90.00000000
_cell_angle_gamma   90.00000000
_symmetry_Int_Tables_number   1
_chemical_formula_structural   Tb5Ho5Tl5In3Pd4
_chemical_formula_sum   'Tb5 Ho5 Tl5 In3 Pd4'
_cell_volume   548.83638580
_cell_formula_units_Z   1
loop_
 _symmetry_equiv_pos_site_id
 _symmetry_equiv_pos_as_xyz
  1  'x, y, z'
loop_
 _atom_site_type_symbol
 _atom_site_label
 _atom_site_symmetry_multiplicity
 _atom_site_fract_x
 _atom_site_fract_y
 _atom_site_fract_z
 _atom_site_occupancy
  Tb  Tb0  1  0.000000  0.499650  0.498577  1
  Tb  Tb1  1  0.000000  0.999521  0.000218  1
  Tb  Tb2  1  0.000000  0.740339  0.282459  1
  Tb  Tb3  1  0.000000  0.260013  0.717348  1
  Tb  Tb4  1  0.000000  0.759549  0.783126  1
  Ho  Ho5  1  0.000000  0.240292  0.217457  1
  Ho  Ho6  1  0.000000  0.616581  0.086017  1
  Ho  Ho7  1  0.000000  0.382841  0.915431  1
  Ho  Ho8  1  0.000000  0.883980  0.585746  1
  Ho  Ho9  1  0.000000  0.117013  0.413805  1
  Tl  Tl10  1  0.500000  0.705886  0.934997  1
  Tl  Tl11  1  0.500000  0.293221  0.066069  1
  Tl  Tl12  1  0.500000  0.794679  0.434505  1
  Tl  Tl13  1  0.500000  0.203833  0.563995  1
  Tl  Tl14  1  0.500000  0.585042  0.649786  1
  In  In15  1  0.500000  0.414144  0.348361  1
  In  In16  1  0.500000  0.915677  0.151000  1
  In  In17  1  0.500000  0.086466  0.849569  1
  Pd  Pd18  1  0.500000  0.526628  0.197492  1
  Pd  Pd19  1  0.500000  0.469759  0.804441  1
  Pd  Pd20  1  0.500000  0.974362  0.697671  1
  Pd  Pd21  1  0.500000  0.030523  0.301928  1
