# generated using pymatgen
data_DyY3ReB12Ru
_symmetry_space_group_name_H-M   'P 1'
_cell_length_a   3.67507400
_cell_length_b   9.16425086
_cell_length_c   11.55463305
_cell_angle_alpha   90.21042568
_cell_angle_beta   90.00000000
_cell_angle_gamma   90.00000000
_symmetry_Int_Tables_number   1
_chemical_formula_structural   DyY3ReB12Ru
_chemical_formula_sum   'Dy2 Y6 Re2 B24 Ru2'
_cell_volume   389.14932926
_cell_formula_units_Z   2
loop_
 _symmetry_equiv_pos_site_id
 _symmetry_equiv_pos_as_xyz
  1  'x, y, z'
loop_
 _atom_site_type_symbol
 _atom_site_label
 _atom_site_symmetry_multiplicity
 _atom_site_fract_x
 _atom_site_fract_y
 _atom_site_fract_z
 _atom_site_occupancy
  Dy  Dy0  1  0.000000  0.442959  0.129468  1
  Dy  Dy1  1  0.000000  0.557041  0.870532  1
  Y  Y2  1  0.000000  0.321301  0.412466  1
  Y  Y3  1  0.000000  0.678699  0.587534  1
  Y  Y4  1  0.000000  0.824901  0.084430  1
  Y  Y5  1  0.000000  0.175099  0.915570  1
  Y  Y6  1  0.000000  0.943010  0.370617  1
  Y  Y7  1  0.000000  0.056990  0.629383  1
  Re  Re8  1  0.000000  0.138744  0.179548  1
  Re  Re9  1  0.000000  0.861256  0.820452  1
  B  B10  1  0.500000  0.554101  0.432800  1
  B  B11  1  0.500000  0.445899  0.567200  1
  B  B12  1  0.500000  0.053312  0.066950  1
  B  B13  1  0.500000  0.946688  0.933050  1
  B  B14  1  0.500000  0.748294  0.418791  1
  B  B15  1  0.500000  0.251706  0.581209  1
  B  B16  1  0.500000  0.248847  0.081247  1
  B  B17  1  0.500000  0.751153  0.918753  1
  B  B18  1  0.500000  0.790456  0.265995  1
  B  B19  1  0.500000  0.209544  0.734005  1
  B  B20  1  0.500000  0.291659  0.234537  1
  B  B21  1  0.500000  0.708341  0.765463  1
  B  B22  1  0.500000  0.631254  0.186350  1
  B  B23  1  0.500000  0.368746  0.813650  1
  B  B24  1  0.500000  0.131714  0.314540  1
  B  B25  1  0.500000  0.868286  0.685460  1
  B  B26  1  0.500000  0.983191  0.212307  1
  B  B27  1  0.500000  0.016809  0.787693  1
  B  B28  1  0.500000  0.483911  0.288124  1
  B  B29  1  0.500000  0.516089  0.711876  1
  B  B30  1  0.500000  0.603671  0.028803  1
  B  B31  1  0.500000  0.396329  0.971197  1
  B  B32  1  0.500000  0.104439  0.471187  1
  B  B33  1  0.500000  0.895561  0.528813  1
  Ru  Ru34  1  0.000000  0.637820  0.321600  1
  Ru  Ru35  1  0.000000  0.362180  0.678400  1
