# generated using pymatgen
data_Ac3Si3Br2
_symmetry_space_group_name_H-M   'P 1'
_cell_length_a   9.97597814
_cell_length_b   9.97597848
_cell_length_c   11.03913469
_cell_angle_alpha   82.56682847
_cell_angle_beta   82.56682708
_cell_angle_gamma   25.72227105
_symmetry_Int_Tables_number   1
_chemical_formula_structural   Ac3Si3Br2
_chemical_formula_sum   'Ac6 Si6 Br4'
_cell_volume   472.59297014
_cell_formula_units_Z   2
loop_
 _symmetry_equiv_pos_site_id
 _symmetry_equiv_pos_as_xyz
  1  'x, y, z'
loop_
 _atom_site_type_symbol
 _atom_site_label
 _atom_site_symmetry_multiplicity
 _atom_site_fract_x
 _atom_site_fract_y
 _atom_site_fract_z
 _atom_site_occupancy
  Ac  Ac0  1  0.673566  0.673566  0.851292  1
  Ac  Ac1  1  0.326434  0.326434  0.148708  1
  Ac  Ac2  1  0.390400  0.390400  0.489685  1
  Ac  Ac3  1  0.609600  0.609600  0.510315  1
  Ac  Ac4  1  0.466259  0.466259  0.830651  1
  Ac  Ac5  1  0.533741  0.533741  0.169349  1
  Si  Si6  1  0.939148  0.939148  0.052298  1
  Si  Si7  1  0.060852  0.060852  0.947702  1
  Si  Si8  1  0.084732  0.084732  0.722862  1
  Si  Si9  1  0.915268  0.915268  0.277138  1
  Si  Si10  1  0.983672  0.983672  0.610048  1
  Si  Si11  1  0.016328  0.016328  0.389952  1
  Br  Br12  1  0.224099  0.224099  0.391287  1
  Br  Br13  1  0.775901  0.775901  0.608713  1
  Br  Br14  1  0.297209  0.297209  0.870292  1
  Br  Br15  1  0.702791  0.702791  0.129708  1
