# generated using pymatgen
data_Dy8TaSi16Tc11
_symmetry_space_group_name_H-M   'P 1'
_cell_length_a   6.83174618
_cell_length_b   6.80519221
_cell_length_c   12.74079385
_cell_angle_alpha   90.41371043
_cell_angle_beta   89.82891767
_cell_angle_gamma   89.78607234
_symmetry_Int_Tables_number   1
_chemical_formula_structural   Dy8TaSi16Tc11
_chemical_formula_sum   'Dy8 Ta1 Si16 Tc11'
_cell_volume   592.31439589
_cell_formula_units_Z   1
loop_
 _symmetry_equiv_pos_site_id
 _symmetry_equiv_pos_as_xyz
  1  'x, y, z'
loop_
 _atom_site_type_symbol
 _atom_site_label
 _atom_site_symmetry_multiplicity
 _atom_site_fract_x
 _atom_site_fract_y
 _atom_site_fract_z
 _atom_site_occupancy
  Dy  Dy0  1  0.008923  0.662570  0.033537  1
  Dy  Dy1  1  0.998980  0.334264  0.528244  1
  Dy  Dy2  1  0.666924  0.001830  0.970131  1
  Dy  Dy3  1  0.161722  0.498849  0.780029  1
  Dy  Dy4  1  0.841275  0.503342  0.281610  1
  Dy  Dy5  1  0.498338  0.161759  0.221371  1
  Dy  Dy6  1  0.506051  0.834776  0.716844  1
  Dy  Dy7  1  0.339807  0.992242  0.467856  1
  Ta  Ta8  1  0.671234  0.494879  0.872073  1
  Si  Si9  1  0.017360  0.729701  0.437884  1
  Si  Si10  1  0.980465  0.280782  0.939883  1
  Si  Si11  1  0.724826  0.022987  0.561827  1
  Si  Si12  1  0.237518  0.483245  0.189414  1
  Si  Si13  1  0.779752  0.530654  0.677328  1
  Si  Si14  1  0.456464  0.205710  0.813617  1
  Si  Si15  1  0.515704  0.762837  0.309460  1
  Si  Si16  1  0.282193  0.979115  0.064052  1
  Si  Si17  1  0.808857  0.885349  0.187837  1
  Si  Si18  1  0.303437  0.616131  0.564014  1
  Si  Si19  1  0.699907  0.384870  0.067035  1
  Si  Si20  1  0.613214  0.308397  0.438275  1
  Si  Si21  1  0.378045  0.703895  0.935598  1
  Si  Si22  1  0.113768  0.190196  0.313455  1
  Si  Si23  1  0.189169  0.114121  0.688311  1
  Si  Si24  1  0.883982  0.810704  0.811662  1
  Tc  Tc25  1  0.310947  0.475024  0.383389  1
  Tc  Tc26  1  0.813886  0.020672  0.370279  1
  Tc  Tc27  1  0.990000  0.177048  0.128205  1
  Tc  Tc28  1  0.018449  0.818135  0.627272  1
  Tc  Tc29  1  0.476894  0.324456  0.626510  1
  Tc  Tc30  1  0.175791  0.992485  0.875859  1
  Tc  Tc31  1  0.667027  0.666006  0.498572  1
  Tc  Tc32  1  0.834083  0.173326  0.751792  1
  Tc  Tc33  1  0.167396  0.831778  0.250757  1
  Tc  Tc34  1  0.340042  0.338009  0.999179  1
  Tc  Tc35  1  0.527570  0.689860  0.116837  1
