# generated using pymatgen
data_Y8Ga(Pd11Pt)2
_symmetry_space_group_name_H-M   'P 1'
_cell_length_a   8.37604100
_cell_length_b   8.36763309
_cell_length_c   8.36763309
_cell_angle_alpha   90.01710458
_cell_angle_beta   90.00000000
_cell_angle_gamma   90.00000000
_symmetry_Int_Tables_number   1
_chemical_formula_structural   Y8Ga(Pd11Pt)2
_chemical_formula_sum   'Y8 Ga1 Pd22 Pt2'
_cell_volume   586.46761186
_cell_formula_units_Z   1
loop_
 _symmetry_equiv_pos_site_id
 _symmetry_equiv_pos_as_xyz
  1  'x, y, z'
loop_
 _atom_site_type_symbol
 _atom_site_label
 _atom_site_symmetry_multiplicity
 _atom_site_fract_x
 _atom_site_fract_y
 _atom_site_fract_z
 _atom_site_occupancy
  Y  Y0  1  0.252237  0.251885  0.748115  1
  Y  Y1  1  0.251433  0.748580  0.251420  1
  Y  Y2  1  0.748090  0.251487  0.251909  1
  Y  Y3  1  0.748090  0.748091  0.748513  1
  Y  Y4  1  0.748567  0.748580  0.251420  1
  Y  Y5  1  0.747763  0.251885  0.748115  1
  Y  Y6  1  0.251910  0.748091  0.748513  1
  Y  Y7  1  0.251910  0.251487  0.251909  1
  Ga  Ga8  1  0.000000  0.000157  0.999843  1
  Pd  Pd9  1  0.253081  0.499977  0.500023  1
  Pd  Pd10  1  0.500000  0.499894  0.253152  1
  Pd  Pd11  1  0.500000  0.746848  0.500106  1
  Pd  Pd12  1  0.746919  0.499977  0.500023  1
  Pd  Pd13  1  0.000000  0.999779  0.707921  1
  Pd  Pd14  1  0.000000  0.292079  0.000221  1
  Pd  Pd15  1  0.291911  0.999789  0.000211  1
  Pd  Pd16  1  0.000000  0.999758  0.292058  1
  Pd  Pd17  1  0.000000  0.707942  0.000242  1
  Pd  Pd18  1  0.708089  0.999789  0.000211  1
  Pd  Pd19  1  0.000000  0.500164  0.739471  1
  Pd  Pd20  1  0.500000  0.260516  0.999869  1
  Pd  Pd21  1  0.260482  0.000103  0.499833  1
  Pd  Pd22  1  0.000000  0.260529  0.499836  1
  Pd  Pd23  1  0.500000  0.000131  0.739484  1
  Pd  Pd24  1  0.260482  0.500167  0.999897  1
  Pd  Pd25  1  0.000000  0.500120  0.260423  1
  Pd  Pd26  1  0.500000  0.739487  0.999802  1
  Pd  Pd27  1  0.000000  0.739577  0.499880  1
  Pd  Pd28  1  0.500000  0.000198  0.260513  1
  Pd  Pd29  1  0.739518  0.000103  0.499833  1
  Pd  Pd30  1  0.739518  0.500167  0.999897  1
  Pt  Pt31  1  0.500000  0.499887  0.747221  1
  Pt  Pt32  1  0.500000  0.252779  0.500113  1
