# generated using pymatgen
data_Nd7Dy12ThSn16
_symmetry_space_group_name_H-M   'P 1'
_cell_length_a   8.15635086
_cell_length_b   8.30690075
_cell_length_c   15.67373500
_cell_angle_alpha   90.01978166
_cell_angle_beta   90.02633554
_cell_angle_gamma   89.98583061
_symmetry_Int_Tables_number   1
_chemical_formula_structural   Nd7Dy12ThSn16
_chemical_formula_sum   'Nd7 Dy12 Th1 Sn16'
_cell_volume   1061.95798751
_cell_formula_units_Z   1
loop_
 _symmetry_equiv_pos_site_id
 _symmetry_equiv_pos_as_xyz
  1  'x, y, z'
loop_
 _atom_site_type_symbol
 _atom_site_label
 _atom_site_symmetry_multiplicity
 _atom_site_fract_x
 _atom_site_fract_y
 _atom_site_fract_z
 _atom_site_occupancy
  Nd  Nd0  1  0.516323  0.320278  0.902799  1
  Nd  Nd1  1  0.015513  0.179291  0.597826  1
  Nd  Nd2  1  0.485410  0.679238  0.402827  1
  Nd  Nd3  1  0.985070  0.821161  0.097379  1
  Nd  Nd4  1  0.485767  0.678629  0.097103  1
  Nd  Nd5  1  0.985655  0.820555  0.402913  1
  Nd  Nd6  1  0.514653  0.321965  0.597074  1
  Dy  Dy7  1  0.362063  0.834903  0.877628  1
  Dy  Dy8  1  0.861815  0.664975  0.623102  1
  Dy  Dy9  1  0.638150  0.164192  0.377200  1
  Dy  Dy10  1  0.137904  0.336045  0.122891  1
  Dy  Dy11  1  0.637970  0.163319  0.122593  1
  Dy  Dy12  1  0.139010  0.336251  0.377347  1
  Dy  Dy13  1  0.361037  0.836213  0.623217  1
  Dy  Dy14  1  0.861211  0.663956  0.877533  1
  Dy  Dy15  1  0.193792  0.501524  0.749802  1
  Dy  Dy16  1  0.693883  0.997234  0.749487  1
  Dy  Dy17  1  0.805277  0.497311  0.250438  1
  Dy  Dy18  1  0.305238  0.002126  0.249364  1
  Th  Th19  1  0.014328  0.180029  0.902411  1
  Sn  Sn20  1  0.298327  0.040880  0.040602  1
  Sn  Sn21  1  0.801378  0.460246  0.458308  1
  Sn  Sn22  1  0.698963  0.960912  0.542209  1
  Sn  Sn23  1  0.199076  0.536511  0.956950  1
  Sn  Sn24  1  0.701087  0.961921  0.957551  1
  Sn  Sn25  1  0.198429  0.540684  0.542013  1
  Sn  Sn26  1  0.301628  0.039953  0.458238  1
  Sn  Sn27  1  0.801872  0.458009  0.041086  1
  Sn  Sn28  1  0.560139  0.622323  0.750084  1
  Sn  Sn29  1  0.060022  0.878573  0.751953  1
  Sn  Sn30  1  0.439432  0.377139  0.249738  1
  Sn  Sn31  1  0.939157  0.122379  0.250219  1
  Sn  Sn32  1  0.323440  0.143865  0.750378  1
  Sn  Sn33  1  0.823402  0.357566  0.749899  1
  Sn  Sn34  1  0.676686  0.856676  0.249907  1
  Sn  Sn35  1  0.176895  0.643168  0.249934  1
