# generated using pymatgen
data_LuSc2UAs6Ru7
_symmetry_space_group_name_H-M   'P 1'
_cell_length_a   7.12474630
_cell_length_b   7.12474609
_cell_length_c   7.14821152
_cell_angle_alpha   109.51603829
_cell_angle_beta   109.51603969
_cell_angle_gamma   109.48044255
_symmetry_Int_Tables_number   1
_chemical_formula_structural   LuSc2UAs6Ru7
_chemical_formula_sum   'Lu1 Sc2 U1 As6 Ru7'
_cell_volume   278.98654933
_cell_formula_units_Z   1
loop_
 _symmetry_equiv_pos_site_id
 _symmetry_equiv_pos_as_xyz
  1  'x, y, z'
loop_
 _atom_site_type_symbol
 _atom_site_label
 _atom_site_symmetry_multiplicity
 _atom_site_fract_x
 _atom_site_fract_y
 _atom_site_fract_z
 _atom_site_occupancy
  Lu  Lu0  1  0.500000  0.500000  0.500000  1
  Sc  Sc1  1  0.500000  0.000000  0.000000  1
  Sc  Sc2  1  0.000000  0.500000  0.000000  1
  U  U3  1  0.000000  0.000000  0.500000  1
  As  As4  1  0.314716  0.996732  0.307600  1
  As  As5  1  0.996732  0.314716  0.307600  1
  As  As6  1  0.003268  0.685284  0.692400  1
  As  As7  1  0.314758  0.314758  0.004049  1
  As  As8  1  0.685242  0.685242  0.995951  1
  As  As9  1  0.685284  0.003268  0.692400  1
  Ru  Ru10  1  0.752197  0.501369  0.248452  1
  Ru  Ru11  1  0.501369  0.752197  0.248452  1
  Ru  Ru12  1  0.498631  0.247803  0.751548  1
  Ru  Ru13  1  0.752469  0.247531  0.500000  1
  Ru  Ru14  1  0.247531  0.752469  0.500000  1
  Ru  Ru15  1  0.247803  0.498631  0.751548  1
  Ru  Ru16  1  0.000000  0.000000  0.000000  1
