# generated using pymatgen
data_Tb6Er5Tm5TlCd3Pt4
_symmetry_space_group_name_H-M   'P 1'
_cell_length_a   9.63716103
_cell_length_b   9.63376918
_cell_length_c   9.63376900
_cell_angle_alpha   60.00757857
_cell_angle_beta   59.98834602
_cell_angle_gamma   59.98834940
_symmetry_Int_Tables_number   1
_chemical_formula_structural   Tb6Er5Tm5TlCd3Pt4
_chemical_formula_sum   'Tb6 Er5 Tm5 Tl1 Cd3 Pt4'
_cell_volume   632.37534639
_cell_formula_units_Z   1
loop_
 _symmetry_equiv_pos_site_id
 _symmetry_equiv_pos_as_xyz
  1  'x, y, z'
loop_
 _atom_site_type_symbol
 _atom_site_label
 _atom_site_symmetry_multiplicity
 _atom_site_fract_x
 _atom_site_fract_y
 _atom_site_fract_z
 _atom_site_occupancy
  Tb  Tb0  1  0.936896  0.564066  0.564066  1
  Tb  Tb1  1  0.563122  0.937189  0.937189  1
  Tb  Tb2  1  0.563445  0.937577  0.563509  1
  Tb  Tb3  1  0.936242  0.564090  0.936444  1
  Tb  Tb4  1  0.563445  0.563509  0.937577  1
  Tb  Tb5  1  0.936242  0.936444  0.564090  1
  Er  Er6  1  0.350858  0.351949  0.351949  1
  Er  Er7  1  0.351775  0.353091  0.943103  1
  Er  Er8  1  0.351775  0.943103  0.353091  1
  Er  Er9  1  0.945800  0.351717  0.351717  1
  Er  Er10  1  0.811195  0.188582  0.188582  1
  Tm  Tm11  1  0.187911  0.811842  0.811842  1
  Tm  Tm12  1  0.188628  0.811557  0.188047  1
  Tm  Tm13  1  0.811364  0.188008  0.811522  1
  Tm  Tm14  1  0.188628  0.188047  0.811557  1
  Tm  Tm15  1  0.811364  0.811522  0.188008  1
  Tl  Tl16  1  0.582627  0.582104  0.582104  1
  Cd  Cd17  1  0.581443  0.580919  0.254525  1
  Cd  Cd18  1  0.581443  0.254525  0.580919  1
  Cd  Cd19  1  0.255177  0.580872  0.580872  1
  Pt  Pt20  1  0.144126  0.142526  0.142526  1
  Pt  Pt21  1  0.142851  0.142212  0.572027  1
  Pt  Pt22  1  0.142851  0.572027  0.142212  1
  Pt  Pt23  1  0.570799  0.142529  0.142529  1
