# generated using pymatgen
data_SrHf2H7
_symmetry_space_group_name_H-M   'P 1'
_cell_length_a   6.67777097
_cell_length_b   6.67777178
_cell_length_c   6.67777100
_cell_angle_alpha   59.99999893
_cell_angle_beta   59.99999488
_cell_angle_gamma   60.00000350
_symmetry_Int_Tables_number   1
_chemical_formula_structural   SrHf2H7
_chemical_formula_sum   'Sr2 Hf4 H14'
_cell_volume   210.56181112
_cell_formula_units_Z   2
loop_
 _symmetry_equiv_pos_site_id
 _symmetry_equiv_pos_as_xyz
  1  'x, y, z'
loop_
 _atom_site_type_symbol
 _atom_site_label
 _atom_site_symmetry_multiplicity
 _atom_site_fract_x
 _atom_site_fract_y
 _atom_site_fract_z
 _atom_site_occupancy
  Sr  Sr0  1  0.250000  0.250000  0.250000  1
  Sr  Sr1  1  0.000000  0.000000  0.000000  1
  Hf  Hf2  1  0.625000  0.625000  0.125000  1
  Hf  Hf3  1  0.625000  0.125000  0.625000  1
  Hf  Hf4  1  0.125000  0.625000  0.625000  1
  Hf  Hf5  1  0.625000  0.625000  0.625000  1
  H  H6  1  0.741470  0.258530  0.741470  1
  H  H7  1  0.991470  0.508530  0.991470  1
  H  H8  1  0.741470  0.741470  0.258530  1
  H  H9  1  0.258530  0.741470  0.741470  1
  H  H10  1  0.741470  0.258530  0.258530  1
  H  H11  1  0.258530  0.258530  0.741470  1
  H  H12  1  0.500000  0.500000  0.500000  1
  H  H13  1  0.750000  0.750000  0.750000  1
  H  H14  1  0.258530  0.741470  0.258530  1
  H  H15  1  0.508530  0.991470  0.991470  1
  H  H16  1  0.991470  0.508530  0.508530  1
  H  H17  1  0.508530  0.991470  0.508530  1
  H  H18  1  0.991470  0.991470  0.508530  1
  H  H19  1  0.508530  0.508530  0.991470  1
