# generated using pymatgen
data_LiAc7SmAg7Sn8
_symmetry_space_group_name_H-M   'P 1'
_cell_length_a   9.82664000
_cell_length_b   9.82664048
_cell_length_c   8.20897200
_cell_angle_alpha   90.00000000
_cell_angle_beta   90.00000000
_cell_angle_gamma   119.99999167
_symmetry_Int_Tables_number   1
_chemical_formula_structural   LiAc7SmAg7Sn8
_chemical_formula_sum   'Li1 Ac7 Sm1 Ag7 Sn8'
_cell_volume   686.48263401
_cell_formula_units_Z   1
loop_
 _symmetry_equiv_pos_site_id
 _symmetry_equiv_pos_as_xyz
  1  'x, y, z'
loop_
 _atom_site_type_symbol
 _atom_site_label
 _atom_site_symmetry_multiplicity
 _atom_site_fract_x
 _atom_site_fract_y
 _atom_site_fract_z
 _atom_site_occupancy
  Li  Li0  1  0.333333  0.666667  0.830646  1
  Ac  Ac1  1  0.487607  0.512393  0.502702  1
  Ac  Ac2  1  0.487607  0.975214  0.502702  1
  Ac  Ac3  1  0.024786  0.512393  0.502702  1
  Ac  Ac4  1  0.516238  0.483762  0.005014  1
  Ac  Ac5  1  0.516238  0.032475  0.005014  1
  Ac  Ac6  1  0.967525  0.483762  0.005014  1
  Ac  Ac7  1  0.000000  0.000000  0.502959  1
  Sm  Sm8  1  0.000000  0.000000  0.994784  1
  Ag  Ag9  1  0.835337  0.164663  0.722516  1
  Ag  Ag10  1  0.835337  0.670676  0.722516  1
  Ag  Ag11  1  0.329324  0.164663  0.722516  1
  Ag  Ag12  1  0.164345  0.835655  0.193996  1
  Ag  Ag13  1  0.164345  0.328688  0.193996  1
  Ag  Ag14  1  0.671312  0.835655  0.193996  1
  Ag  Ag15  1  0.666667  0.333333  0.304444  1
  Sn  Sn16  1  0.836707  0.163293  0.278730  1
  Sn  Sn17  1  0.836707  0.673413  0.278730  1
  Sn  Sn18  1  0.326587  0.163293  0.278730  1
  Sn  Sn19  1  0.166308  0.833692  0.791449  1
  Sn  Sn20  1  0.166308  0.332619  0.791449  1
  Sn  Sn21  1  0.667381  0.833692  0.791449  1
  Sn  Sn22  1  0.666667  0.333333  0.711481  1
  Sn  Sn23  1  0.333333  0.666667  0.230480  1
