# generated using pymatgen
data_Lu3Fe2Si2Ge
_symmetry_space_group_name_H-M   'P 1'
_cell_length_a   5.52215174
_cell_length_b   5.52215055
_cell_length_c   13.45123300
_cell_angle_alpha   90.00000000
_cell_angle_beta   90.00000000
_cell_angle_gamma   137.02693690
_symmetry_Int_Tables_number   1
_chemical_formula_structural   Lu3Fe2Si2Ge
_chemical_formula_sum   'Lu6 Fe4 Si4 Ge2'
_cell_volume   279.60372138
_cell_formula_units_Z   2
loop_
 _symmetry_equiv_pos_site_id
 _symmetry_equiv_pos_as_xyz
  1  'x, y, z'
loop_
 _atom_site_type_symbol
 _atom_site_label
 _atom_site_symmetry_multiplicity
 _atom_site_fract_x
 _atom_site_fract_y
 _atom_site_fract_z
 _atom_site_occupancy
  Lu  Lu0  1  0.638643  0.361357  0.250000  1
  Lu  Lu1  1  0.361357  0.638643  0.750000  1
  Lu  Lu2  1  0.920915  0.079085  0.110142  1
  Lu  Lu3  1  0.079085  0.920915  0.889858  1
  Lu  Lu4  1  0.079085  0.920915  0.610142  1
  Lu  Lu5  1  0.920915  0.079085  0.389858  1
  Fe  Fe6  1  0.786789  0.213211  0.579463  1
  Fe  Fe7  1  0.213211  0.786789  0.420537  1
  Fe  Fe8  1  0.213211  0.786789  0.079463  1
  Fe  Fe9  1  0.786789  0.213211  0.920537  1
  Si  Si10  1  0.622005  0.377995  0.039977  1
  Si  Si11  1  0.377995  0.622005  0.960023  1
  Si  Si12  1  0.377995  0.622005  0.539977  1
  Si  Si13  1  0.622005  0.377995  0.460023  1
  Ge  Ge14  1  0.332528  0.667472  0.250000  1
  Ge  Ge15  1  0.667472  0.332528  0.750000  1
