# generated using pymatgen
data_Lu2Si4Tc7Os
_symmetry_space_group_name_H-M   'P 1'
_cell_length_a   7.26415600
_cell_length_b   7.51166960
_cell_length_c   4.10570100
_cell_angle_alpha   90.00000000
_cell_angle_beta   90.00000000
_cell_angle_gamma   89.54046454
_symmetry_Int_Tables_number   1
_chemical_formula_structural   Lu2Si4Tc7Os
_chemical_formula_sum   'Lu2 Si4 Tc7 Os1'
_cell_volume   224.02422799
_cell_formula_units_Z   1
loop_
 _symmetry_equiv_pos_site_id
 _symmetry_equiv_pos_as_xyz
  1  'x, y, z'
loop_
 _atom_site_type_symbol
 _atom_site_label
 _atom_site_symmetry_multiplicity
 _atom_site_fract_x
 _atom_site_fract_y
 _atom_site_fract_z
 _atom_site_occupancy
  Lu  Lu0  1  0.499576  0.499630  0.000000  1
  Lu  Lu1  1  0.998032  0.999428  0.500000  1
  Si  Si2  1  0.718178  0.697808  0.500000  1
  Si  Si3  1  0.281323  0.300036  0.500000  1
  Si  Si4  1  0.218169  0.801968  0.000000  1
  Si  Si5  1  0.778904  0.197817  0.000000  1
  Tc  Tc6  1  0.417156  0.842436  0.500000  1
  Tc  Tc7  1  0.080853  0.337768  0.000000  1
  Tc  Tc8  1  0.918218  0.660086  0.000000  1
  Tc  Tc9  1  0.153881  0.602492  0.500000  1
  Tc  Tc10  1  0.850678  0.399646  0.500000  1
  Tc  Tc11  1  0.345747  0.100697  0.000000  1
  Tc  Tc12  1  0.654662  0.898284  0.000000  1
  Os  Os13  1  0.584623  0.161901  0.500000  1
