# generated using pymatgen
data_Se2SO7
_symmetry_space_group_name_H-M   'P 1'
_cell_length_a   8.63660000
_cell_length_b   7.50786700
_cell_length_c   4.92093100
_cell_angle_alpha   90.00000000
_cell_angle_beta   90.00000000
_cell_angle_gamma   90.00000000
_symmetry_Int_Tables_number   1
_chemical_formula_structural   Se2SO7
_chemical_formula_sum   'Se4 S2 O14'
_cell_volume   319.08519345
_cell_formula_units_Z   2
loop_
 _symmetry_equiv_pos_site_id
 _symmetry_equiv_pos_as_xyz
  1  'x, y, z'
loop_
 _atom_site_type_symbol
 _atom_site_label
 _atom_site_symmetry_multiplicity
 _atom_site_fract_x
 _atom_site_fract_y
 _atom_site_fract_z
 _atom_site_occupancy
  Se  Se0  1  0.307057  0.184763  0.164863  1
  Se  Se1  1  0.692944  0.184763  0.164863  1
  Se  Se2  1  0.192943  0.815238  0.664863  1
  Se  Se3  1  0.807057  0.815238  0.664863  1
  S  S4  1  0.000000  0.537204  0.339686  1
  S  S5  1  0.500000  0.462797  0.839687  1
  O  O6  1  0.356759  0.427224  0.026697  1
  O  O7  1  0.643242  0.427224  0.026697  1
  O  O8  1  0.000000  0.658647  0.111946  1
  O  O9  1  0.500000  0.093319  0.096644  1
  O  O10  1  0.000000  0.347635  0.285897  1
  O  O11  1  0.282186  0.897015  0.400853  1
  O  O12  1  0.717814  0.897015  0.400853  1
  O  O13  1  0.143242  0.572776  0.526697  1
  O  O14  1  0.856759  0.572776  0.526697  1
  O  O15  1  0.500000  0.341353  0.611946  1
  O  O16  1  0.000000  0.906682  0.596645  1
  O  O17  1  0.500000  0.652365  0.785898  1
  O  O18  1  0.217814  0.102984  0.900854  1
  O  O19  1  0.782187  0.102984  0.900854  1
