# generated using pymatgen
data_Tb5Nd3(InPt)2
_symmetry_space_group_name_H-M   'P 1'
_cell_length_a   9.86628349
_cell_length_b   9.86628392
_cell_length_c   9.86628300
_cell_angle_alpha   59.99999972
_cell_angle_beta   59.99999830
_cell_angle_gamma   59.99999835
_symmetry_Int_Tables_number   1
_chemical_formula_structural   Tb5Nd3(InPt)2
_chemical_formula_sum   'Tb10 Nd6 In4 Pt4'
_cell_volume   679.11880674
_cell_formula_units_Z   2
loop_
 _symmetry_equiv_pos_site_id
 _symmetry_equiv_pos_as_xyz
  1  'x, y, z'
loop_
 _atom_site_type_symbol
 _atom_site_label
 _atom_site_symmetry_multiplicity
 _atom_site_fract_x
 _atom_site_fract_y
 _atom_site_fract_z
 _atom_site_occupancy
  Tb  Tb0  1  0.349656  0.349656  0.349656  1
  Tb  Tb1  1  0.349656  0.349656  0.951032  1
  Tb  Tb2  1  0.349656  0.951032  0.349656  1
  Tb  Tb3  1  0.951032  0.349656  0.349656  1
  Tb  Tb4  1  0.810912  0.189088  0.189088  1
  Tb  Tb5  1  0.189088  0.810912  0.810912  1
  Tb  Tb6  1  0.189088  0.810912  0.189088  1
  Tb  Tb7  1  0.810912  0.189088  0.810912  1
  Tb  Tb8  1  0.189088  0.189088  0.810912  1
  Tb  Tb9  1  0.810912  0.810912  0.189088  1
  Nd  Nd10  1  0.938061  0.561939  0.561939  1
  Nd  Nd11  1  0.561939  0.938061  0.938061  1
  Nd  Nd12  1  0.561939  0.938061  0.561939  1
  Nd  Nd13  1  0.938061  0.561939  0.938061  1
  Nd  Nd14  1  0.561939  0.561939  0.938061  1
  Nd  Nd15  1  0.938061  0.938061  0.561939  1
  In  In16  1  0.580367  0.580367  0.580367  1
  In  In17  1  0.580367  0.580367  0.258899  1
  In  In18  1  0.580367  0.258899  0.580367  1
  In  In19  1  0.258899  0.580367  0.580367  1
  Pt  Pt20  1  0.142622  0.142622  0.142622  1
  Pt  Pt21  1  0.142622  0.142622  0.572134  1
  Pt  Pt22  1  0.142622  0.572134  0.142622  1
  Pt  Pt23  1  0.572134  0.142622  0.142622  1
