# generated using pymatgen
data_CdPd2PbO7
_symmetry_space_group_name_H-M   'P 1'
_cell_length_a   7.24873830
_cell_length_b   7.24873915
_cell_length_c   7.24873757
_cell_angle_alpha   119.17475252
_cell_angle_beta   121.11353412
_cell_angle_gamma   89.75874385
_symmetry_Int_Tables_number   1
_chemical_formula_structural   CdPd2PbO7
_chemical_formula_sum   'Cd2 Pd4 Pb2 O14'
_cell_volume   268.63626934
_cell_formula_units_Z   2
loop_
 _symmetry_equiv_pos_site_id
 _symmetry_equiv_pos_as_xyz
  1  'x, y, z'
loop_
 _atom_site_type_symbol
 _atom_site_label
 _atom_site_symmetry_multiplicity
 _atom_site_fract_x
 _atom_site_fract_y
 _atom_site_fract_z
 _atom_site_occupancy
  Cd  Cd0  1  0.000000  0.500000  0.500000  1
  Cd  Cd1  1  0.500000  0.500000  0.000000  1
  Pd  Pd2  1  0.500000  0.000000  0.000000  1
  Pd  Pd3  1  0.500000  0.500000  0.500000  1
  Pd  Pd4  1  0.500000  0.000000  0.500000  1
  Pd  Pd5  1  0.000000  0.000000  0.000000  1
  Pb  Pb6  1  0.000000  0.500000  0.000000  1
  Pb  Pb7  1  0.000000  0.000000  0.500000  1
  O  O8  1  0.885156  0.635156  0.250000  1
  O  O9  1  0.114844  0.364844  0.750000  1
  O  O10  1  0.835308  0.085308  0.750000  1
  O  O11  1  0.414059  0.664059  0.750000  1
  O  O12  1  0.838396  0.664851  0.755251  1
  O  O13  1  0.409600  0.083147  0.744749  1
  O  O14  1  0.838396  0.083147  0.173547  1
  O  O15  1  0.409600  0.664851  0.326453  1
  O  O16  1  0.164692  0.914692  0.250000  1
  O  O17  1  0.585941  0.335941  0.250000  1
  O  O18  1  0.161604  0.335149  0.244749  1
  O  O19  1  0.590400  0.916853  0.255251  1
  O  O20  1  0.161604  0.916853  0.826453  1
  O  O21  1  0.590400  0.335149  0.673547  1
