# generated using pymatgen
data_LaPrNd4OsBr10
_symmetry_space_group_name_H-M   'P 1'
_cell_length_a   7.71373698
_cell_length_b   9.44133544
_cell_length_c   9.77639785
_cell_angle_alpha   108.49104520
_cell_angle_beta   96.99615654
_cell_angle_gamma   105.27558226
_symmetry_Int_Tables_number   1
_chemical_formula_structural   LaPrNd4OsBr10
_chemical_formula_sum   'La1 Pr1 Nd4 Os1 Br10'
_cell_volume   634.75820727
_cell_formula_units_Z   1
loop_
 _symmetry_equiv_pos_site_id
 _symmetry_equiv_pos_as_xyz
  1  'x, y, z'
loop_
 _atom_site_type_symbol
 _atom_site_label
 _atom_site_symmetry_multiplicity
 _atom_site_fract_x
 _atom_site_fract_y
 _atom_site_fract_z
 _atom_site_occupancy
  La  La0  1  0.533404  0.214657  0.413377  1
  Pr  Pr1  1  0.370102  0.448332  0.751741  1
  Nd  Nd2  1  0.465829  0.783999  0.585502  1
  Nd  Nd3  1  0.130215  0.357298  0.313238  1
  Nd  Nd4  1  0.870526  0.644488  0.686872  1
  Nd  Nd5  1  0.630949  0.551368  0.250153  1
  Os  Os6  1  0.501880  0.492072  0.497917  1
  Br  Br7  1  0.144521  0.043780  0.226153  1
  Br  Br8  1  0.843148  0.954419  0.769358  1
  Br  Br9  1  0.252355  0.417488  0.051238  1
  Br  Br10  1  0.751190  0.585444  0.951952  1
  Br  Br11  1  0.709461  0.249553  0.152036  1
  Br  Br12  1  0.295467  0.756806  0.842313  1
  Br  Br13  1  0.049415  0.675532  0.421142  1
  Br  Br14  1  0.955632  0.328061  0.581465  1
  Br  Br15  1  0.411791  0.129819  0.674565  1
  Br  Br16  1  0.584116  0.866883  0.330977  1
