# generated using pymatgen
data_Nd8Dy11LuPb16
_symmetry_space_group_name_H-M   'P 1'
_cell_length_a   8.30814461
_cell_length_b   8.36594963
_cell_length_c   15.86494000
_cell_angle_alpha   90.00000000
_cell_angle_beta   90.00000000
_cell_angle_gamma   90.04409281
_symmetry_Int_Tables_number   1
_chemical_formula_structural   Nd8Dy11LuPb16
_chemical_formula_sum   'Nd8 Dy11 Lu1 Pb16'
_cell_volume   1102.70056651
_cell_formula_units_Z   1
loop_
 _symmetry_equiv_pos_site_id
 _symmetry_equiv_pos_as_xyz
  1  'x, y, z'
loop_
 _atom_site_type_symbol
 _atom_site_label
 _atom_site_symmetry_multiplicity
 _atom_site_fract_x
 _atom_site_fract_y
 _atom_site_fract_z
 _atom_site_occupancy
  Nd  Nd0  1  0.473320  0.677509  0.597783  1
  Nd  Nd1  1  0.973414  0.822528  0.902349  1
  Nd  Nd2  1  0.526797  0.322138  0.097814  1
  Nd  Nd3  1  0.026284  0.177321  0.402129  1
  Nd  Nd4  1  0.526797  0.322138  0.402186  1
  Nd  Nd5  1  0.026284  0.177321  0.097871  1
  Nd  Nd6  1  0.473320  0.677509  0.902217  1
  Nd  Nd7  1  0.973414  0.822528  0.597651  1
  Dy  Dy8  1  0.632496  0.158272  0.622300  1
  Dy  Dy9  1  0.132541  0.341852  0.877557  1
  Dy  Dy10  1  0.367980  0.842139  0.122566  1
  Dy  Dy11  1  0.867133  0.658398  0.377498  1
  Dy  Dy12  1  0.367980  0.842139  0.377434  1
  Dy  Dy13  1  0.867133  0.658398  0.122502  1
  Dy  Dy14  1  0.632496  0.158272  0.877700  1
  Dy  Dy15  1  0.132541  0.341852  0.622443  1
  Dy  Dy16  1  0.798916  0.494801  0.750000  1
  Dy  Dy17  1  0.299018  0.005161  0.750000  1
  Dy  Dy18  1  0.200989  0.504996  0.250000  1
  Lu  Lu19  1  0.701269  0.994224  0.250000  1
  Pb  Pb20  1  0.707083  0.960293  0.455995  1
  Pb  Pb21  1  0.206929  0.539870  0.043395  1
  Pb  Pb22  1  0.293129  0.039935  0.956744  1
  Pb  Pb23  1  0.793013  0.460193  0.543235  1
  Pb  Pb24  1  0.293129  0.039935  0.543256  1
  Pb  Pb25  1  0.793013  0.460193  0.956765  1
  Pb  Pb26  1  0.707083  0.960293  0.044005  1
  Pb  Pb27  1  0.206929  0.539870  0.456605  1
  Pb  Pb28  1  0.437142  0.371975  0.750000  1
  Pb  Pb29  1  0.937195  0.127849  0.750000  1
  Pb  Pb30  1  0.563184  0.628816  0.250000  1
  Pb  Pb31  1  0.061486  0.872581  0.250000  1
  Pb  Pb32  1  0.662951  0.848823  0.750000  1
  Pb  Pb33  1  0.162905  0.651490  0.750000  1
  Pb  Pb34  1  0.337392  0.151298  0.250000  1
  Pb  Pb35  1  0.837316  0.347089  0.250000  1
