# generated using pymatgen
data_Be12Nb6Co8Si3
_symmetry_space_group_name_H-M   'P 1'
_cell_length_a   7.68207381
_cell_length_b   7.68207306
_cell_length_c   7.67620020
_cell_angle_alpha   59.79007518
_cell_angle_beta   59.79008660
_cell_angle_gamma   60.00412031
_symmetry_Int_Tables_number   1
_chemical_formula_structural   Be12Nb6Co8Si3
_chemical_formula_sum   'Be12 Nb6 Co8 Si3'
_cell_volume   319.31281096
_cell_formula_units_Z   1
loop_
 _symmetry_equiv_pos_site_id
 _symmetry_equiv_pos_as_xyz
  1  'x, y, z'
loop_
 _atom_site_type_symbol
 _atom_site_label
 _atom_site_symmetry_multiplicity
 _atom_site_fract_x
 _atom_site_fract_y
 _atom_site_fract_z
 _atom_site_occupancy
  Be  Be0  1  0.330929  0.330929  0.314624  1
  Be  Be1  1  0.669071  0.669071  0.685376  1
  Be  Be2  1  0.326281  0.326281  0.020331  1
  Be  Be3  1  0.321326  0.021938  0.320823  1
  Be  Be4  1  0.673719  0.673719  0.979669  1
  Be  Be5  1  0.678674  0.978062  0.679177  1
  Be  Be6  1  0.021938  0.321326  0.320823  1
  Be  Be7  1  0.978062  0.678674  0.679177  1
  Be  Be8  1  0.500000  0.000000  0.000000  1
  Be  Be9  1  0.000000  0.500000  0.000000  1
  Be  Be10  1  0.000000  0.000000  0.500000  1
  Be  Be11  1  0.500000  0.500000  0.000000  1
  Nb  Nb12  1  0.709103  0.294136  0.290758  1
  Nb  Nb13  1  0.290897  0.705864  0.709242  1
  Nb  Nb14  1  0.294136  0.709103  0.290758  1
  Nb  Nb15  1  0.705864  0.290897  0.709242  1
  Nb  Nb16  1  0.294952  0.294952  0.708082  1
  Nb  Nb17  1  0.705048  0.705048  0.291918  1
  Co  Co18  1  0.123288  0.123288  0.122100  1
  Co  Co19  1  0.876712  0.876713  0.877900  1
  Co  Co20  1  0.122861  0.122861  0.628081  1
  Co  Co21  1  0.124259  0.629660  0.120912  1
  Co  Co22  1  0.877139  0.877140  0.371919  1
  Co  Co23  1  0.875741  0.370340  0.879087  1
  Co  Co24  1  0.629660  0.124259  0.120913  1
  Co  Co25  1  0.370340  0.875741  0.879087  1
  Si  Si26  1  0.000000  0.500000  0.500000  1
  Si  Si27  1  0.500000  0.000000  0.500000  1
  Si  Si28  1  0.000000  0.000000  0.000000  1
