# generated using pymatgen
data_Pr3Sn3Ir2Pt
_symmetry_space_group_name_H-M   'P 1'
_cell_length_a   7.61143900
_cell_length_b   7.61144002
_cell_length_c   4.15911100
_cell_angle_alpha   90.00000000
_cell_angle_beta   90.00000000
_cell_angle_gamma   119.99999122
_symmetry_Int_Tables_number   1
_chemical_formula_structural   Pr3Sn3Ir2Pt
_chemical_formula_sum   'Pr3 Sn3 Ir2 Pt1'
_cell_volume   208.67228988
_cell_formula_units_Z   1
loop_
 _symmetry_equiv_pos_site_id
 _symmetry_equiv_pos_as_xyz
  1  'x, y, z'
loop_
 _atom_site_type_symbol
 _atom_site_label
 _atom_site_symmetry_multiplicity
 _atom_site_fract_x
 _atom_site_fract_y
 _atom_site_fract_z
 _atom_site_occupancy
  Pr  Pr0  1  0.592858  0.005721  0.000000  1
  Pr  Pr1  1  0.994279  0.587137  0.000000  1
  Pr  Pr2  1  0.412863  0.407142  0.000000  1
  Sn  Sn3  1  0.251938  0.003295  0.500000  1
  Sn  Sn4  1  0.996705  0.248643  0.500000  1
  Sn  Sn5  1  0.751357  0.748062  0.500000  1
  Ir  Ir6  1  0.666667  0.333333  0.500000  1
  Ir  Ir7  1  0.000000  0.000000  0.000000  1
  Pt  Pt8  1  0.333333  0.666667  0.500000  1
