# generated using pymatgen
data_LuScMnC2
_symmetry_space_group_name_H-M   'P 1'
_cell_length_a   4.81094300
_cell_length_b   6.25419800
_cell_length_c   9.19250400
_cell_angle_alpha   90.00000000
_cell_angle_beta   90.00000000
_cell_angle_gamma   90.00000000
_symmetry_Int_Tables_number   1
_chemical_formula_structural   LuScMnC2
_chemical_formula_sum   'Lu4 Sc4 Mn4 C8'
_cell_volume   276.58948474
_cell_formula_units_Z   4
loop_
 _symmetry_equiv_pos_site_id
 _symmetry_equiv_pos_as_xyz
  1  'x, y, z'
loop_
 _atom_site_type_symbol
 _atom_site_label
 _atom_site_symmetry_multiplicity
 _atom_site_fract_x
 _atom_site_fract_y
 _atom_site_fract_z
 _atom_site_occupancy
  Lu  Lu0  1  0.250000  0.471020  0.210094  1
  Lu  Lu1  1  0.250000  0.971020  0.289906  1
  Lu  Lu2  1  0.750000  0.528980  0.789906  1
  Lu  Lu3  1  0.750000  0.028980  0.710094  1
  Sc  Sc4  1  0.250000  0.833347  0.939979  1
  Sc  Sc5  1  0.250000  0.333347  0.560021  1
  Sc  Sc6  1  0.750000  0.166653  0.060021  1
  Sc  Sc7  1  0.750000  0.666653  0.439979  1
  Mn  Mn8  1  0.250000  0.272354  0.861433  1
  Mn  Mn9  1  0.250000  0.772354  0.638567  1
  Mn  Mn10  1  0.750000  0.727646  0.138567  1
  Mn  Mn11  1  0.750000  0.227646  0.361433  1
  C  C12  1  0.250000  0.043659  0.734686  1
  C  C13  1  0.250000  0.543659  0.765314  1
  C  C14  1  0.750000  0.956341  0.265314  1
  C  C15  1  0.750000  0.456341  0.234686  1
  C  C16  1  0.250000  0.675110  0.455771  1
  C  C17  1  0.250000  0.175110  0.044229  1
  C  C18  1  0.750000  0.324890  0.544229  1
  C  C19  1  0.750000  0.824890  0.955771  1
