# generated using pymatgen
data_Li4DyEr3O8
_symmetry_space_group_name_H-M   'P 1'
_cell_length_a   3.36086400
_cell_length_b   5.28726980
_cell_length_c   11.13148571
_cell_angle_alpha   90.06328273
_cell_angle_beta   90.00000000
_cell_angle_gamma   90.00000000
_symmetry_Int_Tables_number   1
_chemical_formula_structural   Li4DyEr3O8
_chemical_formula_sum   'Li4 Dy1 Er3 O8'
_cell_volume   197.80409546
_cell_formula_units_Z   1
loop_
 _symmetry_equiv_pos_site_id
 _symmetry_equiv_pos_as_xyz
  1  'x, y, z'
loop_
 _atom_site_type_symbol
 _atom_site_label
 _atom_site_symmetry_multiplicity
 _atom_site_fract_x
 _atom_site_fract_y
 _atom_site_fract_z
 _atom_site_occupancy
  Li  Li0  1  0.250000  0.097200  0.067756  1
  Li  Li1  1  0.250000  0.402757  0.566982  1
  Li  Li2  1  0.750000  0.597387  0.431489  1
  Li  Li3  1  0.750000  0.902163  0.933247  1
  Dy  Dy4  1  0.750000  0.952634  0.640734  1
  Er  Er5  1  0.250000  0.046581  0.358946  1
  Er  Er6  1  0.250000  0.453363  0.860900  1
  Er  Er7  1  0.750000  0.546199  0.140477  1
  O  O8  1  0.250000  0.193216  0.707371  1
  O  O9  1  0.750000  0.241060  0.472313  1
  O  O10  1  0.750000  0.258909  0.973963  1
  O  O11  1  0.250000  0.310935  0.206827  1
  O  O12  1  0.750000  0.687999  0.794756  1
  O  O13  1  0.250000  0.740330  0.026961  1
  O  O14  1  0.250000  0.758162  0.524857  1
  O  O15  1  0.750000  0.811106  0.292419  1
