# generated using pymatgen
data_Y2RuWC3
_symmetry_space_group_name_H-M   'P 1'
_cell_length_a   6.07267110
_cell_length_b   6.07267131
_cell_length_c   5.71768150
_cell_angle_alpha   67.52466817
_cell_angle_beta   67.52467002
_cell_angle_gamma   32.21863047
_symmetry_Int_Tables_number   1
_chemical_formula_structural   Y2RuWC3
_chemical_formula_sum   'Y2 Ru1 W1 C3'
_cell_volume   103.13364721
_cell_formula_units_Z   1
loop_
 _symmetry_equiv_pos_site_id
 _symmetry_equiv_pos_as_xyz
  1  'x, y, z'
loop_
 _atom_site_type_symbol
 _atom_site_label
 _atom_site_symmetry_multiplicity
 _atom_site_fract_x
 _atom_site_fract_y
 _atom_site_fract_z
 _atom_site_occupancy
  Y  Y0  1  0.608651  0.608651  0.182367  1
  Y  Y1  1  0.391790  0.391790  0.831444  1
  Ru  Ru2  1  0.841802  0.841802  0.317206  1
  W  W3  1  0.159123  0.159123  0.675427  1
  C  C4  1  0.752421  0.752421  0.728326  1
  C  C5  1  0.246659  0.246659  0.271248  1
  C  C6  1  0.999555  0.999555  0.993980  1
