# generated using pymatgen
data_Tb4Ho5TmSn8
_symmetry_space_group_name_H-M   'P 1'
_cell_length_a   8.01462700
_cell_length_b   8.15994500
_cell_length_c   15.43482300
_cell_angle_alpha   90.00000000
_cell_angle_beta   90.00000000
_cell_angle_gamma   90.00000000
_symmetry_Int_Tables_number   1
_chemical_formula_structural   Tb4Ho5TmSn8
_chemical_formula_sum   'Tb8 Ho10 Tm2 Sn16'
_cell_volume   1009.42068537
_cell_formula_units_Z   2
loop_
 _symmetry_equiv_pos_site_id
 _symmetry_equiv_pos_as_xyz
  1  'x, y, z'
loop_
 _atom_site_type_symbol
 _atom_site_label
 _atom_site_symmetry_multiplicity
 _atom_site_fract_x
 _atom_site_fract_y
 _atom_site_fract_z
 _atom_site_occupancy
  Tb  Tb0  1  0.520194  0.320545  0.902860  1
  Tb  Tb1  1  0.020194  0.179455  0.597140  1
  Tb  Tb2  1  0.479747  0.679423  0.402709  1
  Tb  Tb3  1  0.979747  0.820577  0.097291  1
  Tb  Tb4  1  0.479747  0.679423  0.097291  1
  Tb  Tb5  1  0.979747  0.820577  0.402709  1
  Tb  Tb6  1  0.520194  0.320545  0.597140  1
  Tb  Tb7  1  0.020194  0.179455  0.902860  1
  Ho  Ho8  1  0.366745  0.836511  0.877645  1
  Ho  Ho9  1  0.866745  0.663489  0.622355  1
  Ho  Ho10  1  0.633217  0.163389  0.377504  1
  Ho  Ho11  1  0.133217  0.336611  0.122496  1
  Ho  Ho12  1  0.633217  0.163389  0.122496  1
  Ho  Ho13  1  0.133217  0.336611  0.377504  1
  Ho  Ho14  1  0.366745  0.836511  0.622355  1
  Ho  Ho15  1  0.866745  0.663489  0.877645  1
  Ho  Ho16  1  0.197912  0.503325  0.750000  1
  Ho  Ho17  1  0.697912  0.996675  0.750000  1
  Tm  Tm18  1  0.802040  0.496596  0.250000  1
  Tm  Tm19  1  0.302040  0.003404  0.250000  1
  Sn  Sn20  1  0.294345  0.036765  0.042107  1
  Sn  Sn21  1  0.794345  0.463235  0.457893  1
  Sn  Sn22  1  0.705574  0.962988  0.541593  1
  Sn  Sn23  1  0.205574  0.537012  0.958407  1
  Sn  Sn24  1  0.705574  0.962988  0.958407  1
  Sn  Sn25  1  0.205574  0.537012  0.541593  1
  Sn  Sn26  1  0.294345  0.036765  0.457893  1
  Sn  Sn27  1  0.794345  0.463235  0.042107  1
  Sn  Sn28  1  0.564576  0.619494  0.750000  1
  Sn  Sn29  1  0.064576  0.880506  0.750000  1
  Sn  Sn30  1  0.436178  0.380498  0.250000  1
  Sn  Sn31  1  0.936178  0.119502  0.250000  1
  Sn  Sn32  1  0.328896  0.147261  0.750000  1
  Sn  Sn33  1  0.828896  0.352739  0.750000  1
  Sn  Sn34  1  0.670756  0.852032  0.250000  1
  Sn  Sn35  1  0.170756  0.647968  0.250000  1
