# generated using pymatgen
data_Hf3Re2Si2TcAs
_symmetry_space_group_name_H-M   'P 1'
_cell_length_a   6.97780310
_cell_length_b   6.96867738
_cell_length_c   3.44331000
_cell_angle_alpha   90.00000000
_cell_angle_beta   90.00000000
_cell_angle_gamma   120.04665913
_symmetry_Int_Tables_number   1
_chemical_formula_structural   Hf3Re2Si2TcAs
_chemical_formula_sum   'Hf3 Re2 Si2 Tc1 As1'
_cell_volume   144.93438817
_cell_formula_units_Z   1
loop_
 _symmetry_equiv_pos_site_id
 _symmetry_equiv_pos_as_xyz
  1  'x, y, z'
loop_
 _atom_site_type_symbol
 _atom_site_label
 _atom_site_symmetry_multiplicity
 _atom_site_fract_x
 _atom_site_fract_y
 _atom_site_fract_z
 _atom_site_occupancy
  Hf  Hf0  1  0.396333  0.404278  0.500000  1
  Hf  Hf1  1  0.595239  0.993622  0.500000  1
  Hf  Hf2  1  0.008825  0.602931  0.500000  1
  Re  Re3  1  0.250237  0.995837  0.000000  1
  Re  Re4  1  0.004764  0.254405  0.000000  1
  Si  Si5  1  0.334064  0.667194  0.000000  1
  Si  Si6  1  0.997484  0.997347  0.500000  1
  Tc  Tc7  1  0.745909  0.749785  0.000000  1
  As  As8  1  0.667145  0.334601  0.000000  1
