# generated using pymatgen
data_Ce6Rh2Se15
_symmetry_space_group_name_H-M   'P 1'
_cell_length_a   12.12948688
_cell_length_b   12.12948716
_cell_length_c   12.12948700
_cell_angle_alpha   109.47121870
_cell_angle_beta   109.47121917
_cell_angle_gamma   109.47122162
_symmetry_Int_Tables_number   1
_chemical_formula_structural   Ce6Rh2Se15
_chemical_formula_sum   'Ce12 Rh4 Se30'
_cell_volume   1373.74278211
_cell_formula_units_Z   2
loop_
 _symmetry_equiv_pos_site_id
 _symmetry_equiv_pos_as_xyz
  1  'x, y, z'
loop_
 _atom_site_type_symbol
 _atom_site_label
 _atom_site_symmetry_multiplicity
 _atom_site_fract_x
 _atom_site_fract_y
 _atom_site_fract_z
 _atom_site_occupancy
  Ce  Ce0  1  0.295352  0.295352  0.590705  1
  Ce  Ce1  1  0.704648  0.000000  0.295352  1
  Ce  Ce2  1  0.000000  0.704648  0.295352  1
  Ce  Ce3  1  0.704648  0.295352  0.000000  1
  Ce  Ce4  1  0.295352  0.590705  0.295352  1
  Ce  Ce5  1  0.000000  0.295352  0.704648  1
  Ce  Ce6  1  0.295352  0.704648  0.000000  1
  Ce  Ce7  1  0.295352  0.000000  0.704648  1
  Ce  Ce8  1  0.590705  0.295352  0.295352  1
  Ce  Ce9  1  0.704648  0.704648  0.409295  1
  Ce  Ce10  1  0.704648  0.409295  0.704648  1
  Ce  Ce11  1  0.409295  0.704648  0.704648  1
  Rh  Rh12  1  0.000000  0.000000  0.500000  1
  Rh  Rh13  1  0.000000  0.500000  0.000000  1
  Rh  Rh14  1  0.500000  0.000000  0.000000  1
  Rh  Rh15  1  0.500000  0.500000  0.500000  1
  Se  Se16  1  0.000000  0.180730  0.440193  1
  Se  Se17  1  0.819270  0.819270  0.259463  1
  Se  Se18  1  0.180730  0.000000  0.440193  1
  Se  Se19  1  0.000000  0.440193  0.180730  1
  Se  Se20  1  0.180730  0.440193  0.000000  1
  Se  Se21  1  0.819270  0.259463  0.819270  1
  Se  Se22  1  0.259463  0.819270  0.819270  1
  Se  Se23  1  0.440193  0.180730  0.000000  1
  Se  Se24  1  0.440193  0.000000  0.180730  1
  Se  Se25  1  0.740537  0.559807  0.559807  1
  Se  Se26  1  0.559807  0.559807  0.740537  1
  Se  Se27  1  0.559807  0.740537  0.559807  1
  Se  Se28  1  0.000000  0.819270  0.559807  1
  Se  Se29  1  0.180730  0.180730  0.740537  1
  Se  Se30  1  0.819270  0.000000  0.559807  1
  Se  Se31  1  0.000000  0.559807  0.819270  1
  Se  Se32  1  0.819270  0.559807  0.000000  1
  Se  Se33  1  0.180730  0.740537  0.180730  1
  Se  Se34  1  0.740537  0.180730  0.180730  1
  Se  Se35  1  0.559807  0.819270  0.000000  1
  Se  Se36  1  0.559807  0.000000  0.819270  1
  Se  Se37  1  0.259463  0.440193  0.440193  1
  Se  Se38  1  0.440193  0.440193  0.259463  1
  Se  Se39  1  0.440193  0.259463  0.440193  1
  Se  Se40  1  0.750000  0.250000  0.500000  1
  Se  Se41  1  0.750000  0.500000  0.250000  1
  Se  Se42  1  0.500000  0.250000  0.750000  1
  Se  Se43  1  0.250000  0.500000  0.750000  1
  Se  Se44  1  0.250000  0.750000  0.500000  1
  Se  Se45  1  0.500000  0.750000  0.250000  1
