# generated using pymatgen
data_Lu7IrRu2Se
_symmetry_space_group_name_H-M   'P 1'
_cell_length_a   8.78025852
_cell_length_b   8.78025957
_cell_length_c   8.78025957
_cell_angle_alpha   154.57300165
_cell_angle_beta   117.97096031
_cell_angle_gamma   68.15128181
_symmetry_Int_Tables_number   1
_chemical_formula_structural   Lu7IrRu2Se
_chemical_formula_sum   'Lu7 Ir1 Ru2 Se1'
_cell_volume   254.31041801
_cell_formula_units_Z   1
loop_
 _symmetry_equiv_pos_site_id
 _symmetry_equiv_pos_as_xyz
  1  'x, y, z'
loop_
 _atom_site_type_symbol
 _atom_site_label
 _atom_site_symmetry_multiplicity
 _atom_site_fract_x
 _atom_site_fract_y
 _atom_site_fract_z
 _atom_site_occupancy
  Lu  Lu0  1  0.615027  0.356189  0.258839  1
  Lu  Lu1  1  0.902650  0.643811  0.258839  1
  Lu  Lu2  1  0.021683  0.000000  0.021683  1
  Lu  Lu3  1  0.526390  0.116759  0.409631  1
  Lu  Lu4  1  0.292872  0.883241  0.409631  1
  Lu  Lu5  1  0.945028  0.316706  0.628324  1
  Lu  Lu6  1  0.311617  0.683294  0.628324  1
  Ir  Ir7  1  0.241119  0.500000  0.741119  1
  Ru  Ru8  1  0.170008  0.240274  0.929735  1
  Ru  Ru9  1  0.689460  0.759726  0.929735  1
  Se  Se10  1  0.675006  0.000000  0.675006  1
