# generated using pymatgen
data_YTm15MgAg(HgRh2)2
_symmetry_space_group_name_H-M   'P 1'
_cell_length_a   9.51721794
_cell_length_b   9.47864352
_cell_length_c   9.51296900
_cell_angle_alpha   59.88013774
_cell_angle_beta   60.01477076
_cell_angle_gamma   59.84843248
_symmetry_Int_Tables_number   1
_chemical_formula_structural   YTm15MgAg(HgRh2)2
_chemical_formula_sum   'Y1 Tm15 Mg1 Ag1 Hg2 Rh4'
_cell_volume   605.63580860
_cell_formula_units_Z   1
loop_
 _symmetry_equiv_pos_site_id
 _symmetry_equiv_pos_as_xyz
  1  'x, y, z'
loop_
 _atom_site_type_symbol
 _atom_site_label
 _atom_site_symmetry_multiplicity
 _atom_site_fract_x
 _atom_site_fract_y
 _atom_site_fract_z
 _atom_site_occupancy
  Y  Y0  1  0.185801  0.185204  0.814442  1
  Tm  Tm1  1  0.601437  0.598959  0.596663  1
  Tm  Tm2  1  0.601071  0.598568  0.203656  1
  Tm  Tm3  1  0.602103  0.203650  0.596748  1
  Tm  Tm4  1  0.188295  0.604320  0.603471  1
  Tm  Tm5  1  0.059326  0.440031  0.439602  1
  Tm  Tm6  1  0.436376  0.062859  0.064240  1
  Tm  Tm7  1  0.436507  0.062670  0.436987  1
  Tm  Tm8  1  0.059327  0.439961  0.061317  1
  Tm  Tm9  1  0.436049  0.437676  0.063240  1
  Tm  Tm10  1  0.059621  0.060635  0.440064  1
  Tm  Tm11  1  0.184908  0.811760  0.813751  1
  Tm  Tm12  1  0.812140  0.186597  0.185832  1
  Tm  Tm13  1  0.812068  0.185404  0.815167  1
  Tm  Tm14  1  0.185818  0.811804  0.188479  1
  Tm  Tm15  1  0.814252  0.815434  0.183992  1
  Mg  Mg16  1  0.536417  0.820327  0.822062  1
  Ag  Ag17  1  0.832354  0.836268  0.837018  1
  Hg  Hg18  1  0.832515  0.837016  0.494421  1
  Hg  Hg19  1  0.831051  0.494981  0.837853  1
  Rh  Rh20  1  0.389934  0.396027  0.393331  1
  Rh  Rh21  1  0.389883  0.396104  0.820865  1
  Rh  Rh22  1  0.389160  0.820791  0.394964  1
  Rh  Rh23  1  0.823587  0.392953  0.391837  1
