# generated using pymatgen
data_TbHoAlSi2
_symmetry_space_group_name_H-M   'P 1'
_cell_length_a   5.59763708
_cell_length_b   5.59763603
_cell_length_c   5.59763581
_cell_angle_alpha   136.94827672
_cell_angle_beta   118.77934264
_cell_angle_gamma   77.75013797
_symmetry_Int_Tables_number   1
_chemical_formula_structural   TbHoAlSi2
_chemical_formula_sum   'Tb1 Ho1 Al1 Si2'
_cell_volume   102.04693528
_cell_formula_units_Z   1
loop_
 _symmetry_equiv_pos_site_id
 _symmetry_equiv_pos_as_xyz
  1  'x, y, z'
loop_
 _atom_site_type_symbol
 _atom_site_label
 _atom_site_symmetry_multiplicity
 _atom_site_fract_x
 _atom_site_fract_y
 _atom_site_fract_z
 _atom_site_occupancy
  Tb  Tb0  1  0.710705  0.210705  0.500000  1
  Ho  Ho1  1  0.289406  0.789406  0.500000  1
  Al  Al2  1  0.000128  0.000128  0.000000  1
  Si  Si3  1  0.289802  0.499880  0.789921  1
  Si  Si4  1  0.709959  0.499880  0.210079  1
