# generated using pymatgen
data_Y2NiRh3
_symmetry_space_group_name_H-M   'P 1'
_cell_length_a   5.18255431
_cell_length_b   5.18255440
_cell_length_c   5.18255465
_cell_angle_alpha   62.77986921
_cell_angle_beta   62.77986195
_cell_angle_gamma   62.77988466
_symmetry_Int_Tables_number   1
_chemical_formula_structural   Y2NiRh3
_chemical_formula_sum   'Y2 Ni1 Rh3'
_cell_volume   104.51224639
_cell_formula_units_Z   1
loop_
 _symmetry_equiv_pos_site_id
 _symmetry_equiv_pos_as_xyz
  1  'x, y, z'
loop_
 _atom_site_type_symbol
 _atom_site_label
 _atom_site_symmetry_multiplicity
 _atom_site_fract_x
 _atom_site_fract_y
 _atom_site_fract_z
 _atom_site_occupancy
  Y  Y0  1  0.127306  0.127306  0.127306  1
  Y  Y1  1  0.872694  0.872694  0.872694  1
  Ni  Ni2  1  0.500000  0.500000  0.500000  1
  Rh  Rh3  1  0.500000  0.000000  0.500000  1
  Rh  Rh4  1  0.000000  0.500000  0.500000  1
  Rh  Rh5  1  0.500000  0.500000  0.000000  1
