# generated using pymatgen
data_Yb6Re2PtN6
_symmetry_space_group_name_H-M   'P 1'
_cell_length_a   6.05029366
_cell_length_b   6.05029416
_cell_length_c   6.05029500
_cell_angle_alpha   95.38834796
_cell_angle_beta   95.38833889
_cell_angle_gamma   95.38834932
_symmetry_Int_Tables_number   1
_chemical_formula_structural   Yb6Re2PtN6
_chemical_formula_sum   'Yb6 Re2 Pt1 N6'
_cell_volume   218.34226458
_cell_formula_units_Z   1
loop_
 _symmetry_equiv_pos_site_id
 _symmetry_equiv_pos_as_xyz
  1  'x, y, z'
loop_
 _atom_site_type_symbol
 _atom_site_label
 _atom_site_symmetry_multiplicity
 _atom_site_fract_x
 _atom_site_fract_y
 _atom_site_fract_z
 _atom_site_occupancy
  Yb  Yb0  1  0.618145  0.124136  0.786685  1
  Yb  Yb1  1  0.124136  0.786685  0.618145  1
  Yb  Yb2  1  0.786685  0.618145  0.124136  1
  Yb  Yb3  1  0.381855  0.875864  0.213315  1
  Yb  Yb4  1  0.875864  0.213315  0.381855  1
  Yb  Yb5  1  0.213315  0.381855  0.875864  1
  Re  Re6  1  0.627308  0.627308  0.627308  1
  Re  Re7  1  0.372692  0.372692  0.372692  1
  Pt  Pt8  1  0.000000  0.000000  0.000000  1
  N  N9  1  0.728779  0.861910  0.466375  1
  N  N10  1  0.861910  0.466375  0.728779  1
  N  N11  1  0.466375  0.728779  0.861910  1
  N  N12  1  0.271221  0.138090  0.533625  1
  N  N13  1  0.138090  0.533625  0.271221  1
  N  N14  1  0.533625  0.271221  0.138090  1
