# generated using pymatgen
data_Cs2Ti7CCl18
_symmetry_space_group_name_H-M   'P 1'
_cell_length_a   10.18035877
_cell_length_b   10.11197934
_cell_length_c   10.12012103
_cell_angle_alpha   55.67192358
_cell_angle_beta   55.47596837
_cell_angle_gamma   55.44229559
_symmetry_Int_Tables_number   1
_chemical_formula_structural   Cs2Ti7CCl18
_chemical_formula_sum   'Cs2 Ti7 C1 Cl18'
_cell_volume   660.21368237
_cell_formula_units_Z   1
loop_
 _symmetry_equiv_pos_site_id
 _symmetry_equiv_pos_as_xyz
  1  'x, y, z'
loop_
 _atom_site_type_symbol
 _atom_site_label
 _atom_site_symmetry_multiplicity
 _atom_site_fract_x
 _atom_site_fract_y
 _atom_site_fract_z
 _atom_site_occupancy
  Cs  Cs0  1  0.774759  0.774603  0.775301  1
  Cs  Cs1  1  0.225241  0.225397  0.224699  1
  Ti  Ti2  1  0.156070  0.900917  0.801026  1
  Ti  Ti3  1  0.843930  0.099083  0.198974  1
  Ti  Ti4  1  0.098719  0.199019  0.844529  1
  Ti  Ti5  1  0.198643  0.844230  0.099160  1
  Ti  Ti6  1  0.901281  0.800981  0.155471  1
  Ti  Ti7  1  0.801357  0.155770  0.900840  1
  Ti  Ti8  1  0.500000  0.500000  0.500000  1
  C  C9  1  0.000000  0.000000  0.000000  1
  Cl  Cl10  1  0.224354  0.457260  0.649543  1
  Cl  Cl11  1  0.775646  0.542740  0.350457  1
  Cl  Cl12  1  0.336840  0.050056  0.935684  1
  Cl  Cl13  1  0.663160  0.949944  0.064316  1
  Cl  Cl14  1  0.934657  0.337883  0.050923  1
  Cl  Cl15  1  0.714995  0.884535  0.402068  1
  Cl  Cl16  1  0.350903  0.774522  0.541477  1
  Cl  Cl17  1  0.598417  0.285136  0.116049  1
  Cl  Cl18  1  0.285005  0.115465  0.597932  1
  Cl  Cl19  1  0.115584  0.598219  0.284938  1
  Cl  Cl20  1  0.950962  0.064064  0.661815  1
  Cl  Cl21  1  0.401583  0.714864  0.883951  1
  Cl  Cl22  1  0.884416  0.401781  0.715062  1
  Cl  Cl23  1  0.065343  0.662117  0.949077  1
  Cl  Cl24  1  0.458207  0.650466  0.223293  1
  Cl  Cl25  1  0.649097  0.225478  0.458523  1
  Cl  Cl26  1  0.541793  0.349534  0.776707  1
  Cl  Cl27  1  0.049038  0.935936  0.338185  1
