# generated using pymatgen
data_La8Pr8CdHg3Ir4
_symmetry_space_group_name_H-M   'P 1'
_cell_length_a   10.04001485
_cell_length_b   10.06132139
_cell_length_c   10.13695700
_cell_angle_alpha   59.75101450
_cell_angle_beta   59.68008200
_cell_angle_gamma   60.45719822
_symmetry_Int_Tables_number   1
_chemical_formula_structural   La8Pr8CdHg3Ir4
_chemical_formula_sum   'La8 Pr8 Cd1 Hg3 Ir4'
_cell_volume   723.37911305
_cell_formula_units_Z   1
loop_
 _symmetry_equiv_pos_site_id
 _symmetry_equiv_pos_as_xyz
  1  'x, y, z'
loop_
 _atom_site_type_symbol
 _atom_site_label
 _atom_site_symmetry_multiplicity
 _atom_site_fract_x
 _atom_site_fract_y
 _atom_site_fract_z
 _atom_site_occupancy
  La  La0  1  0.347253  0.346954  0.349276  1
  La  La1  1  0.347253  0.346954  0.956517  1
  La  La2  1  0.350809  0.955797  0.346696  1
  La  La3  1  0.953245  0.351572  0.347591  1
  La  La4  1  0.808849  0.190101  0.191533  1
  La  La5  1  0.188479  0.809921  0.810709  1
  La  La6  1  0.188479  0.809921  0.190891  1
  La  La7  1  0.808849  0.190101  0.809517  1
  Pr  Pr8  1  0.191706  0.192387  0.807954  1
  Pr  Pr9  1  0.804033  0.804484  0.195742  1
  Pr  Pr10  1  0.937213  0.562857  0.564490  1
  Pr  Pr11  1  0.561993  0.937643  0.936075  1
  Pr  Pr12  1  0.561993  0.937643  0.564290  1
  Pr  Pr13  1  0.937213  0.562857  0.935440  1
  Pr  Pr14  1  0.560372  0.561075  0.939277  1
  Pr  Pr15  1  0.939142  0.939409  0.560724  1
  Cd  Cd16  1  0.261436  0.578433  0.580065  1
  Hg  Hg17  1  0.583398  0.585757  0.583789  1
  Hg  Hg18  1  0.583398  0.585757  0.247055  1
  Hg  Hg19  1  0.582034  0.246380  0.585793  1
  Ir  Ir20  1  0.138859  0.139342  0.145716  1
  Ir  Ir21  1  0.138859  0.139342  0.576083  1
  Ir  Ir22  1  0.148117  0.577138  0.137373  1
  Ir  Ir23  1  0.577016  0.148174  0.137405  1
