# generated using pymatgen
data_Ho8Ti9Nb2Si16Au
_symmetry_space_group_name_H-M   'P 1'
_cell_length_a   7.06111404
_cell_length_b   7.05918506
_cell_length_c   12.88288848
_cell_angle_alpha   90.19626495
_cell_angle_beta   89.81484001
_cell_angle_gamma   89.60219411
_symmetry_Int_Tables_number   1
_chemical_formula_structural   Ho8Ti9Nb2Si16Au
_chemical_formula_sum   'Ho8 Ti9 Nb2 Si16 Au1'
_cell_volume   642.13408444
_cell_formula_units_Z   1
loop_
 _symmetry_equiv_pos_site_id
 _symmetry_equiv_pos_as_xyz
  1  'x, y, z'
loop_
 _atom_site_type_symbol
 _atom_site_label
 _atom_site_symmetry_multiplicity
 _atom_site_fract_x
 _atom_site_fract_y
 _atom_site_fract_z
 _atom_site_occupancy
  Ho  Ho0  1  0.341839  0.000771  0.467295  1
  Ho  Ho1  1  0.497084  0.841257  0.716984  1
  Ho  Ho2  1  0.501743  0.156993  0.214769  1
  Ho  Ho3  1  0.841493  0.498265  0.283052  1
  Ho  Ho4  1  0.157184  0.501843  0.785686  1
  Ho  Ho5  1  0.656444  0.001318  0.968617  1
  Ho  Ho6  1  0.000988  0.341399  0.532597  1
  Ho  Ho7  1  0.001153  0.656443  0.031318  1
  Ti  Ti8  1  0.825289  0.175184  0.750747  1
  Ti  Ti9  1  0.147721  0.007123  0.876866  1
  Ti  Ti10  1  0.494363  0.651973  0.123710  1
  Ti  Ti11  1  0.507898  0.351356  0.625211  1
  Ti  Ti12  1  0.651488  0.494762  0.876812  1
  Ti  Ti13  1  0.351125  0.508123  0.374478  1
  Ti  Ti14  1  0.849319  0.990432  0.374105  1
  Ti  Ti15  1  0.007444  0.146932  0.123547  1
  Ti  Ti16  1  0.991043  0.848656  0.625463  1
  Nb  Nb17  1  0.174298  0.825614  0.249171  1
  Nb  Nb18  1  0.672631  0.672480  0.500052  1
  Si  Si19  1  0.201874  0.132610  0.684341  1
  Si  Si20  1  0.373831  0.719377  0.928621  1
  Si  Si21  1  0.631223  0.294006  0.433118  1
  Si  Si22  1  0.719370  0.373466  0.070875  1
  Si  Si23  1  0.293512  0.630663  0.567302  1
  Si  Si24  1  0.797373  0.866729  0.182316  1
  Si  Si25  1  0.132533  0.202796  0.316164  1
  Si  Si26  1  0.866550  0.798890  0.817296  1
  Si  Si27  1  0.287863  0.939903  0.063744  1
  Si  Si28  1  0.547789  0.791948  0.313227  1
  Si  Si29  1  0.453715  0.208067  0.810244  1
  Si  Si30  1  0.792185  0.546524  0.686774  1
  Si  Si31  1  0.208072  0.452102  0.189383  1
  Si  Si32  1  0.709261  0.048757  0.564492  1
  Si  Si33  1  0.937800  0.285932  0.934237  1
  Si  Si34  1  0.047773  0.708209  0.436936  1
  Au  Au35  1  0.328727  0.329097  0.000448  1
