# generated using pymatgen
data_Cs4Rb16Si4(AsP3)3
_symmetry_space_group_name_H-M   'P 1'
_cell_length_a   5.60852600
_cell_length_b   14.42096120
_cell_length_c   15.66894743
_cell_angle_alpha   89.84248087
_cell_angle_beta   90.00000000
_cell_angle_gamma   90.00000000
_symmetry_Int_Tables_number   1
_chemical_formula_structural   Cs4Rb16Si4(AsP3)3
_chemical_formula_sum   'Cs4 Rb16 Si4 As3 P9'
_cell_volume   1267.30494156
_cell_formula_units_Z   1
loop_
 _symmetry_equiv_pos_site_id
 _symmetry_equiv_pos_as_xyz
  1  'x, y, z'
loop_
 _atom_site_type_symbol
 _atom_site_label
 _atom_site_symmetry_multiplicity
 _atom_site_fract_x
 _atom_site_fract_y
 _atom_site_fract_z
 _atom_site_occupancy
  Cs  Cs0  1  0.750000  0.452058  0.152963  1
  Cs  Cs1  1  0.250000  0.545558  0.845449  1
  Cs  Cs2  1  0.750000  0.951656  0.344660  1
  Cs  Cs3  1  0.250000  0.047994  0.655112  1
  Rb  Rb4  1  0.250000  0.270685  0.785574  1
  Rb  Rb5  1  0.750000  0.725404  0.214145  1
  Rb  Rb6  1  0.250000  0.773298  0.716434  1
  Rb  Rb7  1  0.750000  0.226250  0.284632  1
  Rb  Rb8  1  0.250000  0.849037  0.465033  1
  Rb  Rb9  1  0.750000  0.150319  0.534337  1
  Rb  Rb10  1  0.250000  0.346949  0.034274  1
  Rb  Rb11  1  0.750000  0.653680  0.962285  1
  Rb  Rb12  1  0.250000  0.618523  0.319932  1
  Rb  Rb13  1  0.750000  0.381016  0.680537  1
  Rb  Rb14  1  0.250000  0.117544  0.179636  1
  Rb  Rb15  1  0.750000  0.889516  0.820473  1
  Rb  Rb16  1  0.250000  0.562901  0.554534  1
  Rb  Rb17  1  0.750000  0.437031  0.446317  1
  Rb  Rb18  1  0.250000  0.064325  0.945195  1
  Rb  Rb19  1  0.750000  0.937178  0.055162  1
  Si  Si20  1  0.750000  0.233452  0.927057  1
  Si  Si21  1  0.250000  0.764459  0.070639  1
  Si  Si22  1  0.750000  0.736788  0.571165  1
  Si  Si23  1  0.250000  0.263073  0.429746  1
  As  As24  1  0.250000  0.869850  0.184354  1
  As  As25  1  0.750000  0.629629  0.683723  1
  As  As26  1  0.250000  0.370312  0.317048  1
  P  P27  1  0.250000  0.311167  0.563082  1
  P  P28  1  0.750000  0.688456  0.437982  1
  P  P29  1  0.250000  0.814400  0.937461  1
  P  P30  1  0.750000  0.186372  0.061447  1
  P  P31  1  0.250000  0.113559  0.401849  1
  P  P32  1  0.750000  0.886512  0.598932  1
  P  P33  1  0.250000  0.614381  0.096835  1
  P  P34  1  0.750000  0.383991  0.901250  1
  P  P35  1  0.750000  0.132675  0.820747  1
