# generated using pymatgen
data_Pr8Er12SiSn15
_symmetry_space_group_name_H-M   'P 1'
_cell_length_a   8.03802450
_cell_length_b   8.28793734
_cell_length_c   15.54594500
_cell_angle_alpha   90.00000000
_cell_angle_beta   90.00000000
_cell_angle_gamma   89.58930090
_symmetry_Int_Tables_number   1
_chemical_formula_structural   Pr8Er12SiSn15
_chemical_formula_sum   'Pr8 Er12 Si1 Sn15'
_cell_volume   1035.62315940
_cell_formula_units_Z   1
loop_
 _symmetry_equiv_pos_site_id
 _symmetry_equiv_pos_as_xyz
  1  'x, y, z'
loop_
 _atom_site_type_symbol
 _atom_site_label
 _atom_site_symmetry_multiplicity
 _atom_site_fract_x
 _atom_site_fract_y
 _atom_site_fract_z
 _atom_site_occupancy
  Pr  Pr0  1  0.508165  0.330080  0.900751  1
  Pr  Pr1  1  0.008932  0.178484  0.597509  1
  Pr  Pr2  1  0.489962  0.676344  0.403811  1
  Pr  Pr3  1  0.992277  0.822912  0.095262  1
  Pr  Pr4  1  0.489962  0.676344  0.096189  1
  Pr  Pr5  1  0.992277  0.822912  0.404738  1
  Pr  Pr6  1  0.508165  0.330080  0.599249  1
  Pr  Pr7  1  0.008932  0.178484  0.902491  1
  Er  Er8  1  0.360538  0.824656  0.869728  1
  Er  Er9  1  0.836804  0.663232  0.627640  1
  Er  Er10  1  0.650144  0.166172  0.375176  1
  Er  Er11  1  0.151768  0.333909  0.122976  1
  Er  Er12  1  0.650144  0.166172  0.124824  1
  Er  Er13  1  0.151768  0.333909  0.377024  1
  Er  Er14  1  0.360538  0.824656  0.630272  1
  Er  Er15  1  0.836804  0.663232  0.872360  1
  Er  Er16  1  0.192054  0.503548  0.750000  1
  Er  Er17  1  0.681413  0.994734  0.750000  1
  Er  Er18  1  0.818344  0.499083  0.250000  1
  Er  Er19  1  0.318205  0.001105  0.250000  1
  Si  Si20  1  0.548682  0.628488  0.750000  1
  Sn  Sn21  1  0.316968  0.039139  0.038378  1
  Sn  Sn22  1  0.812644  0.458428  0.459328  1
  Sn  Sn23  1  0.684531  0.961550  0.541638  1
  Sn  Sn24  1  0.182953  0.544224  0.957623  1
  Sn  Sn25  1  0.684531  0.961550  0.958362  1
  Sn  Sn26  1  0.182953  0.544224  0.542377  1
  Sn  Sn27  1  0.316968  0.039139  0.461622  1
  Sn  Sn28  1  0.812644  0.458428  0.040672  1
  Sn  Sn29  1  0.046678  0.873154  0.750000  1
  Sn  Sn30  1  0.452316  0.376091  0.250000  1
  Sn  Sn31  1  0.954848  0.125360  0.250000  1
  Sn  Sn32  1  0.316401  0.141741  0.750000  1
  Sn  Sn33  1  0.811649  0.359216  0.750000  1
  Sn  Sn34  1  0.684676  0.856516  0.250000  1
  Sn  Sn35  1  0.183363  0.642705  0.250000  1
