# generated using pymatgen
data_Sr21Tl7Ga8
_symmetry_space_group_name_H-M   'P 1'
_cell_length_a   12.26286199
_cell_length_b   12.26286309
_cell_length_c   12.26286300
_cell_angle_alpha   60.00000295
_cell_angle_beta   59.99999996
_cell_angle_gamma   59.99999985
_symmetry_Int_Tables_number   1
_chemical_formula_structural   Sr21Tl7Ga8
_chemical_formula_sum   'Sr21 Tl7 Ga8'
_cell_volume   1303.94900643
_cell_formula_units_Z   1
loop_
 _symmetry_equiv_pos_site_id
 _symmetry_equiv_pos_as_xyz
  1  'x, y, z'
loop_
 _atom_site_type_symbol
 _atom_site_label
 _atom_site_symmetry_multiplicity
 _atom_site_fract_x
 _atom_site_fract_y
 _atom_site_fract_z
 _atom_site_occupancy
  Sr  Sr0  1  0.866484  0.866484  0.400547  1
  Sr  Sr1  1  0.599453  0.133516  0.133516  1
  Sr  Sr2  1  0.866484  0.400547  0.866484  1
  Sr  Sr3  1  0.133516  0.133516  0.133516  1
  Sr  Sr4  1  0.400547  0.866484  0.866484  1
  Sr  Sr5  1  0.866484  0.866484  0.866484  1
  Sr  Sr6  1  0.172895  0.827105  0.500000  1
  Sr  Sr7  1  0.827105  0.500000  0.500000  1
  Sr  Sr8  1  0.133516  0.133516  0.599453  1
  Sr  Sr9  1  0.827105  0.172895  0.500000  1
  Sr  Sr10  1  0.172895  0.500000  0.500000  1
  Sr  Sr11  1  0.133516  0.599453  0.133516  1
  Sr  Sr12  1  0.500000  0.500000  0.172895  1
  Sr  Sr13  1  0.500000  0.172895  0.827105  1
  Sr  Sr14  1  0.500000  0.827105  0.172895  1
  Sr  Sr15  1  0.500000  0.500000  0.827105  1
  Sr  Sr16  1  0.500000  0.172895  0.500000  1
  Sr  Sr17  1  0.172895  0.500000  0.827105  1
  Sr  Sr18  1  0.000000  0.000000  0.000000  1
  Sr  Sr19  1  0.500000  0.827105  0.500000  1
  Sr  Sr20  1  0.827105  0.500000  0.172895  1
  Tl  Tl21  1  0.786946  0.213054  0.786946  1
  Tl  Tl22  1  0.786946  0.213054  0.213054  1
  Tl  Tl23  1  0.213054  0.786946  0.213054  1
  Tl  Tl24  1  0.213054  0.786946  0.786946  1
  Tl  Tl25  1  0.786946  0.786946  0.213054  1
  Tl  Tl26  1  0.213054  0.213054  0.786946  1
  Tl  Tl27  1  0.500000  0.500000  0.500000  1
  Ga  Ga28  1  0.693426  0.919724  0.693426  1
  Ga  Ga29  1  0.693426  0.693426  0.919724  1
  Ga  Ga30  1  0.693426  0.693426  0.693426  1
  Ga  Ga31  1  0.306574  0.080276  0.306574  1
  Ga  Ga32  1  0.919724  0.693426  0.693426  1
  Ga  Ga33  1  0.306574  0.306574  0.080276  1
  Ga  Ga34  1  0.080276  0.306574  0.306574  1
  Ga  Ga35  1  0.306574  0.306574  0.306574  1
