# generated using pymatgen
data_Zr3NiAs2IrRu2
_symmetry_space_group_name_H-M   'P 1'
_cell_length_a   6.59573769
_cell_length_b   6.58541329
_cell_length_c   3.94490800
_cell_angle_alpha   90.00000000
_cell_angle_beta   90.00000000
_cell_angle_gamma   119.94823029
_symmetry_Int_Tables_number   1
_chemical_formula_structural   Zr3NiAs2IrRu2
_chemical_formula_sum   'Zr3 Ni1 As2 Ir1 Ru2'
_cell_volume   148.47052460
_cell_formula_units_Z   1
loop_
 _symmetry_equiv_pos_site_id
 _symmetry_equiv_pos_as_xyz
  1  'x, y, z'
loop_
 _atom_site_type_symbol
 _atom_site_label
 _atom_site_symmetry_multiplicity
 _atom_site_fract_x
 _atom_site_fract_y
 _atom_site_fract_z
 _atom_site_occupancy
  Zr  Zr0  1  0.392659  0.391169  0.500000  1
  Zr  Zr1  1  0.607341  0.998510  0.500000  1
  Zr  Zr2  1  0.000000  0.607100  0.500000  1
  Ni  Ni3  1  0.000000  0.999133  0.500000  1
  As  As4  1  0.664840  0.334098  0.000000  1
  As  As5  1  0.335160  0.669259  0.000000  1
  Ir  Ir6  1  0.000000  0.237979  0.000000  1
  Ru  Ru7  1  0.236114  0.999433  0.000000  1
  Ru  Ru8  1  0.763886  0.763319  0.000000  1
