# generated using pymatgen
data_Ta3Al2RuN
_symmetry_space_group_name_H-M   'P 1'
_cell_length_a   8.26291003
_cell_length_b   8.26291111
_cell_length_c   8.26291000
_cell_angle_alpha   60.00000444
_cell_angle_beta   60.00000011
_cell_angle_gamma   60.00000209
_symmetry_Int_Tables_number   1
_chemical_formula_structural   Ta3Al2RuN
_chemical_formula_sum   'Ta12 Al8 Ru4 N4'
_cell_volume   398.91847571
_cell_formula_units_Z   4
loop_
 _symmetry_equiv_pos_site_id
 _symmetry_equiv_pos_as_xyz
  1  'x, y, z'
loop_
 _atom_site_type_symbol
 _atom_site_label
 _atom_site_symmetry_multiplicity
 _atom_site_fract_x
 _atom_site_fract_y
 _atom_site_fract_z
 _atom_site_occupancy
  Ta  Ta0  1  0.560310  0.939690  0.560310  1
  Ta  Ta1  1  0.310310  0.689690  0.689690  1
  Ta  Ta2  1  0.689690  0.310310  0.310310  1
  Ta  Ta3  1  0.310310  0.689690  0.310310  1
  Ta  Ta4  1  0.689690  0.689690  0.310310  1
  Ta  Ta5  1  0.310310  0.310310  0.689690  1
  Ta  Ta6  1  0.560310  0.560310  0.939690  1
  Ta  Ta7  1  0.939690  0.560310  0.560310  1
  Ta  Ta8  1  0.560310  0.939690  0.939690  1
  Ta  Ta9  1  0.939690  0.939690  0.560310  1
  Ta  Ta10  1  0.689690  0.310310  0.689690  1
  Ta  Ta11  1  0.939690  0.560310  0.939690  1
  Al  Al12  1  0.916662  0.916662  0.916662  1
  Al  Al13  1  0.999984  0.333338  0.333338  1
  Al  Al14  1  0.333338  0.999984  0.333338  1
  Al  Al15  1  0.333338  0.333338  0.999984  1
  Al  Al16  1  0.916662  0.250016  0.916662  1
  Al  Al17  1  0.916662  0.916662  0.250016  1
  Al  Al18  1  0.250016  0.916662  0.916662  1
  Al  Al19  1  0.333338  0.333338  0.333338  1
  Ru  Ru20  1  0.125000  0.125000  0.125000  1
  Ru  Ru21  1  0.625000  0.125000  0.125000  1
  Ru  Ru22  1  0.125000  0.625000  0.125000  1
  Ru  Ru23  1  0.125000  0.125000  0.625000  1
  N  N24  1  0.625000  0.625000  0.625000  1
  N  N25  1  0.125000  0.625000  0.625000  1
  N  N26  1  0.625000  0.125000  0.625000  1
  N  N27  1  0.625000  0.625000  0.125000  1
