# generated using pymatgen
data_TbDy3(Lu4Bi3)4
_symmetry_space_group_name_H-M   'P 1'
_cell_length_a   8.17453304
_cell_length_b   9.38823100
_cell_length_c   11.86332505
_cell_angle_alpha   90.00000000
_cell_angle_beta   90.01094607
_cell_angle_gamma   90.00000000
_symmetry_Int_Tables_number   1
_chemical_formula_structural   TbDy3(Lu4Bi3)4
_chemical_formula_sum   'Tb1 Dy3 Lu16 Bi12'
_cell_volume   910.44379971
_cell_formula_units_Z   1
loop_
 _symmetry_equiv_pos_site_id
 _symmetry_equiv_pos_as_xyz
  1  'x, y, z'
loop_
 _atom_site_type_symbol
 _atom_site_label
 _atom_site_symmetry_multiplicity
 _atom_site_fract_x
 _atom_site_fract_y
 _atom_site_fract_z
 _atom_site_occupancy
  Tb  Tb0  1  0.186978  0.750000  0.718057  1
  Dy  Dy1  1  0.312962  0.250000  0.217990  1
  Dy  Dy2  1  0.812954  0.250000  0.282043  1
  Dy  Dy3  1  0.686972  0.750000  0.781979  1
  Lu  Lu4  1  0.352532  0.750000  0.218365  1
  Lu  Lu5  1  0.852471  0.750000  0.281601  1
  Lu  Lu6  1  0.647480  0.250000  0.781620  1
  Lu  Lu7  1  0.147521  0.250000  0.718385  1
  Lu  Lu8  1  0.693056  0.567291  0.060153  1
  Lu  Lu9  1  0.192990  0.932752  0.439848  1
  Lu  Lu10  1  0.306977  0.067282  0.939874  1
  Lu  Lu11  1  0.807022  0.432756  0.560134  1
  Lu  Lu12  1  0.306977  0.432718  0.939874  1
  Lu  Lu13  1  0.807022  0.067244  0.560134  1
  Lu  Lu14  1  0.693056  0.932709  0.060153  1
  Lu  Lu15  1  0.192990  0.567248  0.439848  1
  Lu  Lu16  1  0.476414  0.250000  0.489111  1
  Lu  Lu17  1  0.976394  0.250000  0.010869  1
  Lu  Lu18  1  0.523620  0.750000  0.510833  1
  Lu  Lu19  1  0.023581  0.750000  0.989158  1
  Bi  Bi20  1  0.403956  0.750000  0.959763  1
  Bi  Bi21  1  0.903595  0.750000  0.540139  1
  Bi  Bi22  1  0.596163  0.250000  0.040324  1
  Bi  Bi23  1  0.096193  0.250000  0.459691  1
  Bi  Bi24  1  0.565746  0.994123  0.325984  1
  Bi  Bi25  1  0.065782  0.505907  0.173979  1
  Bi  Bi26  1  0.434435  0.493956  0.673988  1
  Bi  Bi27  1  0.934099  0.006009  0.826076  1
  Bi  Bi28  1  0.434435  0.006044  0.673988  1
  Bi  Bi29  1  0.934099  0.493991  0.826076  1
  Bi  Bi30  1  0.565746  0.505877  0.325984  1
  Bi  Bi31  1  0.065782  0.994093  0.173979  1
