# generated using pymatgen
data_Ho2Pa(ZnNi)3
_symmetry_space_group_name_H-M   'P 1'
_cell_length_a   7.13572600
_cell_length_b   7.06668753
_cell_length_c   3.65036600
_cell_angle_alpha   90.00000000
_cell_angle_beta   90.00000000
_cell_angle_gamma   120.32370431
_symmetry_Int_Tables_number   1
_chemical_formula_structural   Ho2Pa(ZnNi)3
_chemical_formula_sum   'Ho2 Pa1 Zn3 Ni3'
_cell_volume   158.88951042
_cell_formula_units_Z   1
loop_
 _symmetry_equiv_pos_site_id
 _symmetry_equiv_pos_as_xyz
  1  'x, y, z'
loop_
 _atom_site_type_symbol
 _atom_site_label
 _atom_site_symmetry_multiplicity
 _atom_site_fract_x
 _atom_site_fract_y
 _atom_site_fract_z
 _atom_site_occupancy
  Ho  Ho0  1  0.995789  0.406633  0.500000  1
  Ho  Ho1  1  0.589155  0.593367  0.500000  1
  Pa  Pa2  1  0.415211  0.000000  0.500000  1
  Zn  Zn3  1  0.991829  0.744315  0.000000  1
  Zn  Zn4  1  0.247514  0.255685  0.000000  1
  Zn  Zn5  1  0.767142  0.000000  0.000000  1
  Ni  Ni6  1  0.335689  0.694204  0.000000  1
  Ni  Ni7  1  0.641486  0.305796  0.000000  1
  Ni  Ni8  1  0.016186  0.000000  0.500000  1
