# generated using pymatgen
data_YbLuGa9Ru5
_symmetry_space_group_name_H-M   'P 1'
_cell_length_a   8.00030768
_cell_length_b   8.00030751
_cell_length_c   8.00030591
_cell_angle_alpha   134.60807748
_cell_angle_beta   134.72097248
_cell_angle_gamma   66.05194810
_symmetry_Int_Tables_number   1
_chemical_formula_structural   YbLuGa9Ru5
_chemical_formula_sum   'Yb1 Lu1 Ga9 Ru5'
_cell_volume   255.05612146
_cell_formula_units_Z   1
loop_
 _symmetry_equiv_pos_site_id
 _symmetry_equiv_pos_as_xyz
  1  'x, y, z'
loop_
 _atom_site_type_symbol
 _atom_site_label
 _atom_site_symmetry_multiplicity
 _atom_site_fract_x
 _atom_site_fract_y
 _atom_site_fract_z
 _atom_site_occupancy
  Yb  Yb0  1  0.500000  0.000000  0.500000  1
  Lu  Lu1  1  0.000000  0.500000  0.500000  1
  Ga  Ga2  1  0.435869  0.858217  0.001036  1
  Ga  Ga3  1  0.142820  0.141783  0.577653  1
  Ga  Ga4  1  0.857180  0.434833  0.998964  1
  Ga  Ga5  1  0.857180  0.858217  0.422347  1
  Ga  Ga6  1  0.564131  0.141783  0.998964  1
  Ga  Ga7  1  0.142820  0.565167  0.001036  1
  Ga  Ga8  1  0.564131  0.565167  0.422347  1
  Ga  Ga9  1  0.000000  0.000000  0.000000  1
  Ga  Ga10  1  0.435869  0.434833  0.577653  1
  Ru  Ru11  1  0.182042  0.182042  0.000000  1
  Ru  Ru12  1  0.817958  0.817958  0.000000  1
  Ru  Ru13  1  0.249615  0.749615  0.500000  1
  Ru  Ru14  1  0.750385  0.250385  0.500000  1
  Ru  Ru15  1  0.500000  0.500000  0.000000  1
