# generated using pymatgen
data_TmTh7(Sc3Ga4)4
_symmetry_space_group_name_H-M   'P 1'
_cell_length_a   7.40274916
_cell_length_b   7.66775904
_cell_length_c   14.54222980
_cell_angle_alpha   89.89389015
_cell_angle_beta   90.17733289
_cell_angle_gamma   90.17302639
_symmetry_Int_Tables_number   1
_chemical_formula_structural   TmTh7(Sc3Ga4)4
_chemical_formula_sum   'Tm1 Th7 Sc12 Ga16'
_cell_volume   825.44415427
_cell_formula_units_Z   1
loop_
 _symmetry_equiv_pos_site_id
 _symmetry_equiv_pos_as_xyz
  1  'x, y, z'
loop_
 _atom_site_type_symbol
 _atom_site_label
 _atom_site_symmetry_multiplicity
 _atom_site_fract_x
 _atom_site_fract_y
 _atom_site_fract_z
 _atom_site_occupancy
  Tm  Tm0  1  0.490674  0.680169  0.596132  1
  Th  Th1  1  0.010283  0.177151  0.095320  1
  Th  Th2  1  0.988883  0.821792  0.903406  1
  Th  Th3  1  0.488727  0.677941  0.905080  1
  Th  Th4  1  0.989268  0.821531  0.596003  1
  Th  Th5  1  0.509404  0.323040  0.095142  1
  Th  Th6  1  0.012452  0.177456  0.406050  1
  Th  Th7  1  0.510363  0.322838  0.406452  1
  Sc  Sc8  1  0.165920  0.501034  0.748051  1
  Sc  Sc9  1  0.834510  0.501353  0.250490  1
  Sc  Sc10  1  0.336036  0.998465  0.250746  1
  Sc  Sc11  1  0.663621  0.998462  0.748287  1
  Sc  Sc12  1  0.329111  0.171475  0.624914  1
  Sc  Sc13  1  0.670530  0.827527  0.376366  1
  Sc  Sc14  1  0.171126  0.671231  0.375780  1
  Sc  Sc15  1  0.670976  0.827710  0.124484  1
  Sc  Sc16  1  0.827214  0.330401  0.624302  1
  Sc  Sc17  1  0.330166  0.172096  0.873926  1
  Sc  Sc18  1  0.828558  0.328737  0.873972  1
  Sc  Sc19  1  0.171235  0.671665  0.124564  1
  Ga  Ga20  1  0.030966  0.119304  0.749617  1
  Ga  Ga21  1  0.968427  0.879649  0.250087  1
  Ga  Ga22  1  0.468743  0.621394  0.250468  1
  Ga  Ga23  1  0.530217  0.382126  0.748496  1
  Ga  Ga24  1  0.288809  0.873272  0.748793  1
  Ga  Ga25  1  0.712276  0.125046  0.250315  1
  Ga  Ga26  1  0.212472  0.374807  0.250385  1
  Ga  Ga27  1  0.783635  0.626136  0.748883  1
  Ga  Ga28  1  0.165242  0.465612  0.541978  1
  Ga  Ga29  1  0.839883  0.537567  0.459520  1
  Ga  Ga30  1  0.342003  0.958191  0.460867  1
  Ga  Ga31  1  0.840114  0.538568  0.040381  1
  Ga  Ga32  1  0.658230  0.033970  0.542149  1
  Ga  Ga33  1  0.159524  0.461181  0.958993  1
  Ga  Ga34  1  0.660208  0.039517  0.958932  1
  Ga  Ga35  1  0.340193  0.961586  0.040668  1
