# generated using pymatgen
data_BaH12(IrPb)2
_symmetry_space_group_name_H-M   'P 1'
_cell_length_a   5.25803200
_cell_length_b   5.25803125
_cell_length_c   8.65735100
_cell_angle_alpha   90.00000000
_cell_angle_beta   90.00000000
_cell_angle_gamma   119.99999212
_symmetry_Int_Tables_number   1
_chemical_formula_structural   BaH12(IrPb)2
_chemical_formula_sum   'Ba1 H12 Ir2 Pb2'
_cell_volume   207.28223364
_cell_formula_units_Z   1
loop_
 _symmetry_equiv_pos_site_id
 _symmetry_equiv_pos_as_xyz
  1  'x, y, z'
loop_
 _atom_site_type_symbol
 _atom_site_label
 _atom_site_symmetry_multiplicity
 _atom_site_fract_x
 _atom_site_fract_y
 _atom_site_fract_z
 _atom_site_occupancy
  Ba  Ba0  1  0.000000  0.000000  0.000000  1
  H  H1  1  0.173902  0.826098  0.350335  1
  H  H2  1  0.652195  0.826098  0.350335  1
  H  H3  1  0.173902  0.347805  0.350335  1
  H  H4  1  0.826098  0.173902  0.649665  1
  H  H5  1  0.347805  0.173902  0.649665  1
  H  H6  1  0.826098  0.652195  0.649665  1
  H  H7  1  0.523805  0.047610  0.871584  1
  H  H8  1  0.523805  0.476195  0.871584  1
  H  H9  1  0.952390  0.476195  0.871584  1
  H  H10  1  0.476195  0.952390  0.128416  1
  H  H11  1  0.476195  0.523805  0.128416  1
  H  H12  1  0.047610  0.523805  0.128416  1
  Ir  Ir13  1  0.666667  0.333333  0.749747  1
  Ir  Ir14  1  0.333333  0.666667  0.250253  1
  Pb  Pb15  1  0.666667  0.333333  0.366949  1
  Pb  Pb16  1  0.333333  0.666667  0.633051  1
