# generated using pymatgen
data_Li12Dy12ReTe7O48
_symmetry_space_group_name_H-M   'P 1'
_cell_length_a   10.73862661
_cell_length_b   10.73862808
_cell_length_c   10.71641500
_cell_angle_alpha   109.42932189
_cell_angle_beta   109.42932465
_cell_angle_gamma   109.51307333
_symmetry_Int_Tables_number   1
_chemical_formula_structural   Li12Dy12ReTe7O48
_chemical_formula_sum   'Li12 Dy12 Re1 Te7 O48'
_cell_volume   951.80841567
_cell_formula_units_Z   1
loop_
 _symmetry_equiv_pos_site_id
 _symmetry_equiv_pos_as_xyz
  1  'x, y, z'
loop_
 _atom_site_type_symbol
 _atom_site_label
 _atom_site_symmetry_multiplicity
 _atom_site_fract_x
 _atom_site_fract_y
 _atom_site_fract_z
 _atom_site_occupancy
  Li  Li0  1  0.249813  0.375097  0.125152  1
  Li  Li1  1  0.374716  0.749812  0.124660  1
  Li  Li2  1  0.124903  0.874715  0.250056  1
  Li  Li3  1  0.624536  0.374579  0.248832  1
  Li  Li4  1  0.125422  0.249957  0.374253  1
  Li  Li5  1  0.749959  0.124537  0.375703  1
  Li  Li6  1  0.250043  0.875465  0.624296  1
  Li  Li7  1  0.874579  0.750042  0.625748  1
  Li  Li8  1  0.875096  0.125284  0.749943  1
  Li  Li9  1  0.375463  0.625422  0.751167  1
  Li  Li10  1  0.750188  0.624903  0.874845  1
  Li  Li11  1  0.625286  0.250188  0.875341  1
  Dy  Dy12  1  0.750073  0.874804  0.125012  1
  Dy  Dy13  1  0.875500  0.251096  0.127320  1
  Dy  Dy14  1  0.875595  0.624500  0.251818  1
  Dy  Dy15  1  0.374803  0.124729  0.249792  1
  Dy  Dy16  1  0.624731  0.749928  0.374938  1
  Dy  Dy17  1  0.248906  0.624405  0.376223  1
  Dy  Dy18  1  0.751097  0.375597  0.623776  1
  Dy  Dy19  1  0.375270  0.250074  0.625064  1
  Dy  Dy20  1  0.124403  0.375499  0.748180  1
  Dy  Dy21  1  0.625197  0.875270  0.750209  1
  Dy  Dy22  1  0.249926  0.125196  0.874987  1
  Dy  Dy23  1  0.124502  0.748905  0.872682  1
  Re  Re24  1  0.000000  0.500000  0.500000  1
  Te  Te25  1  0.000000  0.000000  0.000000  1
  Te  Te26  1  0.499999  0.000000  0.000000  1
  Te  Te27  1  0.500000  0.500000  0.000000  1
  Te  Te28  1  0.000000  0.500001  0.000000  1
  Te  Te29  1  0.000000  0.000000  0.499998  1
  Te  Te30  1  0.500000  0.000000  0.499999  1
  Te  Te31  1  0.500002  0.500002  0.500001  1
  O  O32  1  0.699987  0.620251  0.027881  1
  O  O33  1  0.828107  0.407385  0.028290  1
  O  O34  1  0.199710  0.172238  0.079519  1
  O  O35  1  0.379480  0.907238  0.079391  1
  O  O36  1  0.472337  0.172072  0.092554  1
  O  O37  1  0.120251  0.920264  0.092370  1
  O  O38  1  0.527472  0.699710  0.120191  1
  O  O39  1  0.092615  0.420722  0.120905  1
  O  O40  1  0.699890  0.079945  0.172711  1
  O  O41  1  0.972202  0.092488  0.172509  1
  O  O42  1  0.620288  0.527799  0.200307  1
  O  O43  1  0.079279  0.671893  0.200183  1
  O  O44  1  0.828026  0.419877  0.300708  1
  O  O45  1  0.972243  0.879481  0.300089  1
  O  O46  1  0.420265  0.800013  0.327894  1
  O  O47  1  0.407238  0.527758  0.327846  1
  O  O48  1  0.800265  0.972338  0.379783  1
  O  O49  1  0.080124  0.408150  0.380831  1
  O  O50  1  0.579945  0.380057  0.407235  1
  O  O51  1  0.327762  0.027473  0.407283  1
  O  O52  1  0.327926  0.300265  0.420481  1
  O  O53  1  0.592489  0.120288  0.419980  1
  O  O54  1  0.880055  0.800109  0.472820  1
  O  O55  1  0.091851  0.671974  0.472682  1
  O  O56  1  0.119944  0.199889  0.527178  1
  O  O57  1  0.908150  0.328027  0.527318  1
  O  O58  1  0.407511  0.879713  0.580019  1
  O  O59  1  0.672073  0.699736  0.579520  1
  O  O60  1  0.672238  0.972527  0.592718  1
  O  O61  1  0.420056  0.619946  0.592767  1
  O  O62  1  0.919877  0.591851  0.619169  1
  O  O63  1  0.199734  0.027662  0.620216  1
  O  O64  1  0.592762  0.472243  0.672154  1
  O  O65  1  0.579737  0.199988  0.672106  1
  O  O66  1  0.027758  0.120521  0.699911  1
  O  O67  1  0.171975  0.580124  0.699294  1
  O  O68  1  0.920721  0.328108  0.799816  1
  O  O69  1  0.379713  0.472202  0.799692  1
  O  O70  1  0.027799  0.907511  0.827490  1
  O  O71  1  0.300111  0.920055  0.827288  1
  O  O72  1  0.907385  0.579278  0.879094  1
  O  O73  1  0.472528  0.300289  0.879810  1
  O  O74  1  0.879749  0.079737  0.907631  1
  O  O75  1  0.527662  0.827927  0.907446  1
  O  O76  1  0.800288  0.827760  0.920479  1
  O  O77  1  0.620520  0.092763  0.920608  1
  O  O78  1  0.300013  0.379749  0.972118  1
  O  O79  1  0.171893  0.592615  0.971710  1
