# generated using pymatgen
data_MnSb3Pb4O13
_symmetry_space_group_name_H-M   'P 1'
_cell_length_a   7.61788854
_cell_length_b   7.44614082
_cell_length_c   7.44114712
_cell_angle_alpha   60.68147439
_cell_angle_beta   60.36205286
_cell_angle_gamma   60.36809558
_symmetry_Int_Tables_number   1
_chemical_formula_structural   MnSb3Pb4O13
_chemical_formula_sum   'Mn1 Sb3 Pb4 O13'
_cell_volume   301.63163257
_cell_formula_units_Z   1
loop_
 _symmetry_equiv_pos_site_id
 _symmetry_equiv_pos_as_xyz
  1  'x, y, z'
loop_
 _atom_site_type_symbol
 _atom_site_label
 _atom_site_symmetry_multiplicity
 _atom_site_fract_x
 _atom_site_fract_y
 _atom_site_fract_z
 _atom_site_occupancy
  Mn  Mn0  1  0.498395  0.499894  0.499906  1
  Sb  Sb1  1  0.001239  0.499864  0.499847  1
  Sb  Sb2  1  0.499960  0.499576  0.000867  1
  Sb  Sb3  1  0.499966  0.000932  0.499569  1
  Pb  Pb4  1  0.999009  0.997084  0.997056  1
  Pb  Pb5  1  0.501901  0.998518  0.998811  1
  Pb  Pb6  1  0.998236  0.000398  0.504092  1
  Pb  Pb7  1  0.998083  0.504059  0.000487  1
  O  O8  1  0.845729  0.420107  0.420145  1
  O  O9  1  0.428240  0.823265  0.823398  1
  O  O10  1  0.427266  0.429222  0.823328  1
  O  O11  1  0.817699  0.825675  0.423091  1
  O  O12  1  0.817682  0.423274  0.825789  1
  O  O13  1  0.427040  0.823797  0.429073  1
  O  O14  1  0.158424  0.577450  0.577346  1
  O  O15  1  0.570936  0.178381  0.178220  1
  O  O16  1  0.569608  0.568857  0.180613  1
  O  O17  1  0.184792  0.176884  0.575947  1
  O  O18  1  0.184810  0.575787  0.176724  1
  O  O19  1  0.569856  0.180198  0.569001  1
  O  O20  1  0.126127  0.121777  0.121687  1
