# generated using pymatgen
data_SrTh2ZrSb5
_symmetry_space_group_name_H-M   'P 1'
_cell_length_a   9.54396824
_cell_length_b   9.60305673
_cell_length_c   6.43181800
_cell_angle_alpha   90.00000000
_cell_angle_beta   90.00000000
_cell_angle_gamma   120.20502019
_symmetry_Int_Tables_number   1
_chemical_formula_structural   SrTh2ZrSb5
_chemical_formula_sum   'Sr2 Th4 Zr2 Sb10'
_cell_volume   509.45042480
_cell_formula_units_Z   2
loop_
 _symmetry_equiv_pos_site_id
 _symmetry_equiv_pos_as_xyz
  1  'x, y, z'
loop_
 _atom_site_type_symbol
 _atom_site_label
 _atom_site_symmetry_multiplicity
 _atom_site_fract_x
 _atom_site_fract_y
 _atom_site_fract_z
 _atom_site_occupancy
  Sr  Sr0  1  0.617563  0.622217  0.750000  1
  Sr  Sr1  1  0.617563  0.995346  0.250000  1
  Th  Th2  1  0.391699  0.003148  0.750000  1
  Th  Th3  1  0.391699  0.388551  0.250000  1
  Th  Th4  1  0.995820  0.615434  0.250000  1
  Th  Th5  1  0.995820  0.380385  0.750000  1
  Zr  Zr6  1  0.997237  0.998618  0.000000  1
  Zr  Zr7  1  0.997237  0.998618  0.500000  1
  Sb  Sb8  1  0.666349  0.333174  0.500000  1
  Sb  Sb9  1  0.318596  0.659298  0.000000  1
  Sb  Sb10  1  0.739763  0.004629  0.750000  1
  Sb  Sb11  1  0.739763  0.735134  0.250000  1
  Sb  Sb12  1  0.318596  0.659298  0.500000  1
  Sb  Sb13  1  0.666349  0.333174  0.000000  1
  Sb  Sb14  1  0.264509  0.002677  0.250000  1
  Sb  Sb15  1  0.264509  0.261832  0.750000  1
  Sb  Sb16  1  0.008464  0.738837  0.750000  1
  Sb  Sb17  1  0.008464  0.269627  0.250000  1
