# generated using pymatgen
data_Sm3HfCo7NiP6
_symmetry_space_group_name_H-M   'P 1'
_cell_length_a   3.77067800
_cell_length_b   10.77109100
_cell_length_c   12.53155400
_cell_angle_alpha   90.00000000
_cell_angle_beta   90.00000000
_cell_angle_gamma   90.00000000
_symmetry_Int_Tables_number   1
_chemical_formula_structural   Sm3HfCo7NiP6
_chemical_formula_sum   'Sm6 Hf2 Co14 Ni2 P12'
_cell_volume   508.96049249
_cell_formula_units_Z   2
loop_
 _symmetry_equiv_pos_site_id
 _symmetry_equiv_pos_as_xyz
  1  'x, y, z'
loop_
 _atom_site_type_symbol
 _atom_site_label
 _atom_site_symmetry_multiplicity
 _atom_site_fract_x
 _atom_site_fract_y
 _atom_site_fract_z
 _atom_site_occupancy
  Sm  Sm0  1  0.000000  0.500000  0.526458  1
  Sm  Sm1  1  0.500000  0.000000  0.473542  1
  Sm  Sm2  1  0.500000  0.819862  0.204102  1
  Sm  Sm3  1  0.500000  0.180138  0.204102  1
  Sm  Sm4  1  0.000000  0.680138  0.795898  1
  Sm  Sm5  1  0.000000  0.319862  0.795898  1
  Hf  Hf6  1  0.500000  0.500000  0.155642  1
  Hf  Hf7  1  0.000000  0.000000  0.844358  1
  Co  Co8  1  0.000000  0.500000  0.987758  1
  Co  Co9  1  0.500000  0.000000  0.012242  1
  Co  Co10  1  0.500000  0.332328  0.994076  1
  Co  Co11  1  0.500000  0.667672  0.994076  1
  Co  Co12  1  0.000000  0.167672  0.005924  1
  Co  Co13  1  0.000000  0.832328  0.005924  1
  Co  Co14  1  0.500000  0.296276  0.433204  1
  Co  Co15  1  0.500000  0.703724  0.433204  1
  Co  Co16  1  0.000000  0.203724  0.566796  1
  Co  Co17  1  0.000000  0.796276  0.566796  1
  Co  Co18  1  0.500000  0.879159  0.704101  1
  Co  Co19  1  0.500000  0.120841  0.704101  1
  Co  Co20  1  0.000000  0.620841  0.295899  1
  Co  Co21  1  0.000000  0.379159  0.295899  1
  Ni  Ni22  1  0.500000  0.500000  0.703452  1
  Ni  Ni23  1  0.000000  0.000000  0.296548  1
  P  P24  1  0.500000  0.500000  0.886605  1
  P  P25  1  0.000000  0.000000  0.113395  1
  P  P26  1  0.500000  0.500000  0.358514  1
  P  P27  1  0.000000  0.000000  0.641486  1
  P  P28  1  0.500000  0.306207  0.614341  1
  P  P29  1  0.500000  0.693793  0.614341  1
  P  P30  1  0.000000  0.193793  0.385659  1
  P  P31  1  0.000000  0.806207  0.385659  1
  P  P32  1  0.500000  0.839886  0.895988  1
  P  P33  1  0.500000  0.160114  0.895988  1
  P  P34  1  0.000000  0.660114  0.104012  1
  P  P35  1  0.000000  0.339886  0.104012  1
