# generated using pymatgen
data_Cd2Pd3Pt(PbO7)2
_symmetry_space_group_name_H-M   'P 1'
_cell_length_a   7.26804633
_cell_length_b   7.15766428
_cell_length_c   7.25364538
_cell_angle_alpha   60.43675337
_cell_angle_beta   60.81321489
_cell_angle_gamma   60.50112271
_symmetry_Int_Tables_number   1
_chemical_formula_structural   Cd2Pd3Pt(PbO7)2
_chemical_formula_sum   'Cd2 Pd3 Pt1 Pb2 O14'
_cell_volume   270.33868906
_cell_formula_units_Z   1
loop_
 _symmetry_equiv_pos_site_id
 _symmetry_equiv_pos_as_xyz
  1  'x, y, z'
loop_
 _atom_site_type_symbol
 _atom_site_label
 _atom_site_symmetry_multiplicity
 _atom_site_fract_x
 _atom_site_fract_y
 _atom_site_fract_z
 _atom_site_occupancy
  Cd  Cd0  1  0.125000  0.125000  0.125000  1
  Cd  Cd1  1  0.125000  0.625000  0.125000  1
  Pd  Pd2  1  0.625000  0.625000  0.625000  1
  Pd  Pd3  1  0.625000  0.125000  0.625000  1
  Pd  Pd4  1  0.125000  0.625000  0.625000  1
  Pt  Pt5  1  0.625000  0.625000  0.125000  1
  Pb  Pb6  1  0.625000  0.125000  0.125000  1
  Pb  Pb7  1  0.125000  0.125000  0.625000  1
  O  O8  1  0.707890  0.288267  0.288939  1
  O  O9  1  0.709669  0.289972  0.710388  1
  O  O10  1  0.991450  0.009070  0.990411  1
  O  O11  1  0.289836  0.711658  0.286848  1
  O  O12  1  0.707890  0.714903  0.288939  1
  O  O13  1  0.959591  0.534729  0.542544  1
  O  O14  1  0.290409  0.715271  0.707456  1
  O  O15  1  0.258550  0.240930  0.259589  1
  O  O16  1  0.960164  0.538342  0.963152  1
  O  O17  1  0.540331  0.960028  0.539612  1
  O  O18  1  0.542110  0.535097  0.961061  1
  O  O19  1  0.959591  0.963138  0.542544  1
  O  O20  1  0.542110  0.961733  0.961061  1
  O  O21  1  0.290409  0.286862  0.707456  1
