# generated using pymatgen
data_Y16Al4Pd3Rh
_symmetry_space_group_name_H-M   'P 1'
_cell_length_a   9.64905527
_cell_length_b   9.64905446
_cell_length_c   9.64905439
_cell_angle_alpha   59.73290996
_cell_angle_beta   59.73291428
_cell_angle_gamma   59.73290867
_symmetry_Int_Tables_number   1
_chemical_formula_structural   Y16Al4Pd3Rh
_chemical_formula_sum   'Y16 Al4 Pd3 Rh1'
_cell_volume   631.38898409
_cell_formula_units_Z   1
loop_
 _symmetry_equiv_pos_site_id
 _symmetry_equiv_pos_as_xyz
  1  'x, y, z'
loop_
 _atom_site_type_symbol
 _atom_site_label
 _atom_site_symmetry_multiplicity
 _atom_site_fract_x
 _atom_site_fract_y
 _atom_site_fract_z
 _atom_site_occupancy
  Y  Y0  1  0.355939  0.355939  0.355939  1
  Y  Y1  1  0.353702  0.353702  0.934366  1
  Y  Y2  1  0.353702  0.934366  0.353702  1
  Y  Y3  1  0.934366  0.353702  0.353702  1
  Y  Y4  1  0.812361  0.191533  0.191533  1
  Y  Y5  1  0.193165  0.806972  0.806972  1
  Y  Y6  1  0.191533  0.812361  0.191533  1
  Y  Y7  1  0.806972  0.193165  0.806972  1
  Y  Y8  1  0.191533  0.191533  0.812361  1
  Y  Y9  1  0.806972  0.806972  0.193165  1
  Y  Y10  1  0.934342  0.564473  0.564473  1
  Y  Y11  1  0.562232  0.935951  0.935951  1
  Y  Y12  1  0.564473  0.934342  0.564473  1
  Y  Y13  1  0.935951  0.562232  0.935951  1
  Y  Y14  1  0.564473  0.564473  0.934342  1
  Y  Y15  1  0.935951  0.935951  0.562232  1
  Al  Al16  1  0.579172  0.579172  0.579172  1
  Al  Al17  1  0.578206  0.578206  0.266072  1
  Al  Al18  1  0.578206  0.266072  0.578206  1
  Al  Al19  1  0.266072  0.578206  0.578206  1
  Pd  Pd20  1  0.145152  0.145152  0.566153  1
  Pd  Pd21  1  0.145152  0.566153  0.145152  1
  Pd  Pd22  1  0.566153  0.145152  0.145152  1
  Rh  Rh23  1  0.144221  0.144221  0.144221  1
