# generated using pymatgen
data_YU7(B6W)4
_symmetry_space_group_name_H-M   'P 1'
_cell_length_a   3.68483800
_cell_length_b   9.29398928
_cell_length_c   11.38912234
_cell_angle_alpha   89.97210605
_cell_angle_beta   90.00000000
_cell_angle_gamma   90.00000000
_symmetry_Int_Tables_number   1
_chemical_formula_structural   YU7(B6W)4
_chemical_formula_sum   'Y1 U7 B24 W4'
_cell_volume   390.04145948
_cell_formula_units_Z   1
loop_
 _symmetry_equiv_pos_site_id
 _symmetry_equiv_pos_as_xyz
  1  'x, y, z'
loop_
 _atom_site_type_symbol
 _atom_site_label
 _atom_site_symmetry_multiplicity
 _atom_site_fract_x
 _atom_site_fract_y
 _atom_site_fract_z
 _atom_site_occupancy
  Y  Y0  1  0.000000  0.335038  0.408003  1
  U  U1  1  0.000000  0.664543  0.592129  1
  U  U2  1  0.000000  0.834367  0.092572  1
  U  U3  1  0.000000  0.165372  0.907441  1
  U  U4  1  0.000000  0.956644  0.394776  1
  U  U5  1  0.000000  0.044534  0.604882  1
  U  U6  1  0.000000  0.456141  0.105070  1
  U  U7  1  0.000000  0.543572  0.895129  1
  B  B8  1  0.500000  0.552871  0.433635  1
  B  B9  1  0.500000  0.451375  0.569043  1
  B  B10  1  0.500000  0.049588  0.066319  1
  B  B11  1  0.500000  0.950073  0.932887  1
  B  B12  1  0.500000  0.743391  0.424786  1
  B  B13  1  0.500000  0.255375  0.576909  1
  B  B14  1  0.500000  0.243715  0.075536  1
  B  B15  1  0.500000  0.756360  0.924238  1
  B  B16  1  0.500000  0.803894  0.272886  1
  B  B17  1  0.500000  0.196182  0.727662  1
  B  B18  1  0.500000  0.302803  0.224968  1
  B  B19  1  0.500000  0.696234  0.772498  1
  B  B20  1  0.500000  0.644414  0.187472  1
  B  B21  1  0.500000  0.355209  0.812925  1
  B  B22  1  0.500000  0.142774  0.311814  1
  B  B23  1  0.500000  0.855330  0.687417  1
  B  B24  1  0.500000  0.985653  0.218125  1
  B  B25  1  0.500000  0.014367  0.781397  1
  B  B26  1  0.500000  0.487627  0.280046  1
  B  B27  1  0.500000  0.515143  0.718380  1
  B  B28  1  0.500000  0.642297  0.039329  1
  B  B29  1  0.500000  0.358069  0.960769  1
  B  B30  1  0.500000  0.137853  0.461638  1
  B  B31  1  0.500000  0.857744  0.539743  1
  W  W32  1  0.000000  0.648360  0.319221  1
  W  W33  1  0.000000  0.355070  0.682754  1
  W  W34  1  0.000000  0.143013  0.177282  1
  W  W35  1  0.000000  0.855003  0.820318  1
