# generated using pymatgen
data_Nd5In2Ga
_symmetry_space_group_name_H-M   'P 1'
_cell_length_a   9.38909985
_cell_length_b   9.38910864
_cell_length_c   9.38909899
_cell_angle_alpha   96.10700057
_cell_angle_beta   96.10676078
_cell_angle_gamma   141.92758368
_symmetry_Int_Tables_number   1
_chemical_formula_structural   Nd5In2Ga
_chemical_formula_sum   'Nd10 In4 Ga2'
_cell_volume   482.49364099
_cell_formula_units_Z   2
loop_
 _symmetry_equiv_pos_site_id
 _symmetry_equiv_pos_as_xyz
  1  'x, y, z'
loop_
 _atom_site_type_symbol
 _atom_site_label
 _atom_site_symmetry_multiplicity
 _atom_site_fract_x
 _atom_site_fract_y
 _atom_site_fract_z
 _atom_site_occupancy
  Nd  Nd0  1  0.750000  0.250000  0.500000  1
  Nd  Nd1  1  0.250000  0.750000  0.500000  1
  Nd  Nd2  1  0.211247  0.918825  0.130072  1
  Nd  Nd3  1  0.081175  0.211246  0.292421  1
  Nd  Nd4  1  0.918825  0.788754  0.707579  1
  Nd  Nd5  1  0.788753  0.081175  0.869928  1
  Nd  Nd6  1  0.418825  0.711246  0.130072  1
  Nd  Nd7  1  0.581175  0.288754  0.869928  1
  Nd  Nd8  1  0.711247  0.581175  0.292422  1
  Nd  Nd9  1  0.288753  0.418825  0.707578  1
  In  In10  1  0.661952  0.838049  0.500000  1
  In  In11  1  0.161951  0.661951  0.823903  1
  In  In12  1  0.838049  0.338049  0.176097  1
  In  In13  1  0.338048  0.161951  0.500000  1
  Ga  Ga14  1  0.250000  0.250000  0.000000  1
  Ga  Ga15  1  0.750000  0.750000  0.000000  1
