# generated using pymatgen
data_Li6EuTmUN6
_symmetry_space_group_name_H-M   'P 1'
_cell_length_a   6.04938800
_cell_length_b   6.04938724
_cell_length_c   5.45356000
_cell_angle_alpha   90.00000000
_cell_angle_beta   90.00000000
_cell_angle_gamma   120.00000993
_symmetry_Int_Tables_number   1
_chemical_formula_structural   Li6EuTmUN6
_chemical_formula_sum   'Li6 Eu1 Tm1 U1 N6'
_cell_volume   172.83572273
_cell_formula_units_Z   1
loop_
 _symmetry_equiv_pos_site_id
 _symmetry_equiv_pos_as_xyz
  1  'x, y, z'
loop_
 _atom_site_type_symbol
 _atom_site_label
 _atom_site_symmetry_multiplicity
 _atom_site_fract_x
 _atom_site_fract_y
 _atom_site_fract_z
 _atom_site_occupancy
  Li  Li0  1  0.992200  0.665767  0.607849  1
  Li  Li1  1  0.334233  0.326434  0.607849  1
  Li  Li2  1  0.673566  0.007800  0.607849  1
  Li  Li3  1  0.005620  0.332033  0.391761  1
  Li  Li4  1  0.667967  0.673586  0.391761  1
  Li  Li5  1  0.326414  0.994380  0.391761  1
  Eu  Eu6  1  0.333333  0.666667  0.996018  1
  Tm  Tm7  1  0.666667  0.333333  0.004486  1
  U  U8  1  0.000000  0.000000  0.999789  1
  N  N9  1  0.991178  0.687014  0.224779  1
  N  N10  1  0.312986  0.304164  0.224779  1
  N  N11  1  0.695836  0.008822  0.224779  1
  N  N12  1  0.991764  0.304449  0.775513  1
  N  N13  1  0.695551  0.687315  0.775513  1
  N  N14  1  0.312685  0.008236  0.775513  1
