# generated using pymatgen
data_Eu2BBrO3
_symmetry_space_group_name_H-M   'P 1'
_cell_length_a   9.14936800
_cell_length_b   4.25663101
_cell_length_c   13.12742896
_cell_angle_alpha   80.43579376
_cell_angle_beta   90.00000000
_cell_angle_gamma   90.00000000
_symmetry_Int_Tables_number   1
_chemical_formula_structural   Eu2BBrO3
_chemical_formula_sum   'Eu8 B4 Br4 O12'
_cell_volume   504.14765148
_cell_formula_units_Z   4
loop_
 _symmetry_equiv_pos_site_id
 _symmetry_equiv_pos_as_xyz
  1  'x, y, z'
loop_
 _atom_site_type_symbol
 _atom_site_label
 _atom_site_symmetry_multiplicity
 _atom_site_fract_x
 _atom_site_fract_y
 _atom_site_fract_z
 _atom_site_occupancy
  Eu  Eu0  1  0.616450  0.680479  0.884607  1
  Eu  Eu1  1  0.383550  0.319521  0.115393  1
  Eu  Eu2  1  0.122813  0.711026  0.859785  1
  Eu  Eu3  1  0.883550  0.680479  0.384607  1
  Eu  Eu4  1  0.622813  0.288974  0.640215  1
  Eu  Eu5  1  0.377187  0.711026  0.359785  1
  Eu  Eu6  1  0.877187  0.288974  0.140215  1
  Eu  Eu7  1  0.116450  0.319521  0.615393  1
  B  B8  1  0.632302  0.710590  0.156987  1
  B  B9  1  0.867698  0.710590  0.656987  1
  B  B10  1  0.367698  0.289410  0.843013  1
  B  B11  1  0.132302  0.289410  0.343013  1
  Br  Br12  1  0.870935  0.193121  0.908888  1
  Br  Br13  1  0.129065  0.806879  0.091112  1
  Br  Br14  1  0.370935  0.806879  0.591112  1
  Br  Br15  1  0.629065  0.193121  0.408888  1
  O  O16  1  0.494212  0.797915  0.187751  1
  O  O17  1  0.994212  0.202085  0.312249  1
  O  O18  1  0.763337  0.772850  0.203945  1
  O  O19  1  0.637837  0.529832  0.076518  1
  O  O20  1  0.005788  0.797915  0.687751  1
  O  O21  1  0.736663  0.772850  0.703945  1
  O  O22  1  0.505788  0.202085  0.812249  1
  O  O23  1  0.263337  0.227150  0.296055  1
  O  O24  1  0.362163  0.470168  0.923482  1
  O  O25  1  0.137837  0.470168  0.423482  1
  O  O26  1  0.862163  0.529832  0.576518  1
  O  O27  1  0.236663  0.227150  0.796055  1
