# generated using pymatgen
data_CsHfCrS4
_symmetry_space_group_name_H-M   'P 1'
_cell_length_a   8.75052977
_cell_length_b   8.75053030
_cell_length_c   6.04635575
_cell_angle_alpha   77.11545627
_cell_angle_beta   77.11545680
_cell_angle_gamma   24.58859426
_symmetry_Int_Tables_number   1
_chemical_formula_structural   CsHfCrS4
_chemical_formula_sum   'Cs1 Hf1 Cr1 S4'
_cell_volume   187.56190923
_cell_formula_units_Z   1
loop_
 _symmetry_equiv_pos_site_id
 _symmetry_equiv_pos_as_xyz
  1  'x, y, z'
loop_
 _atom_site_type_symbol
 _atom_site_label
 _atom_site_symmetry_multiplicity
 _atom_site_fract_x
 _atom_site_fract_y
 _atom_site_fract_z
 _atom_site_occupancy
  Cs  Cs0  1  0.498032  0.498032  0.497595  1
  Hf  Hf1  1  0.754217  0.754217  0.231471  1
  Cr  Cr2  1  0.246945  0.246945  0.759848  1
  S  S3  1  0.340830  0.340830  0.018988  1
  S  S4  1  0.664311  0.664311  0.960289  1
  S  S5  1  0.825611  0.825611  0.558929  1
  S  S6  1  0.170054  0.170054  0.472880  1
