# generated using pymatgen
data_La2Pr3Co2
_symmetry_space_group_name_H-M   'P 1'
_cell_length_a   9.21265160
_cell_length_b   9.21265050
_cell_length_c   7.09908194
_cell_angle_alpha   85.39698935
_cell_angle_beta   85.39698899
_cell_angle_gamma   42.25773897
_symmetry_Int_Tables_number   1
_chemical_formula_structural   La2Pr3Co2
_chemical_formula_sum   'La4 Pr6 Co4'
_cell_volume   403.67230274
_cell_formula_units_Z   2
loop_
 _symmetry_equiv_pos_site_id
 _symmetry_equiv_pos_as_xyz
  1  'x, y, z'
loop_
 _atom_site_type_symbol
 _atom_site_label
 _atom_site_symmetry_multiplicity
 _atom_site_fract_x
 _atom_site_fract_y
 _atom_site_fract_z
 _atom_site_occupancy
  La  La0  1  0.012497  0.796117  0.398513  1
  La  La1  1  0.203883  0.987503  0.101487  1
  La  La2  1  0.987503  0.203883  0.601487  1
  La  La3  1  0.796117  0.012497  0.898513  1
  Pr  Pr4  1  0.358610  0.216511  0.326835  1
  Pr  Pr5  1  0.783489  0.641390  0.173165  1
  Pr  Pr6  1  0.641390  0.783489  0.673165  1
  Pr  Pr7  1  0.216511  0.358610  0.826835  1
  Pr  Pr8  1  0.568479  0.431521  0.250000  1
  Pr  Pr9  1  0.431521  0.568479  0.750000  1
  Co  Co10  1  0.173247  0.608526  0.084576  1
  Co  Co11  1  0.391474  0.826753  0.415424  1
  Co  Co12  1  0.826753  0.391474  0.915424  1
  Co  Co13  1  0.608526  0.173247  0.584576  1
