# generated using pymatgen
data_Tb10Sn3Bi3Cl2
_symmetry_space_group_name_H-M   'P 1'
_cell_length_a   9.20006603
_cell_length_b   9.25082342
_cell_length_c   6.56276300
_cell_angle_alpha   90.00000000
_cell_angle_beta   90.00000000
_cell_angle_gamma   120.34138059
_symmetry_Int_Tables_number   1
_chemical_formula_structural   Tb10Sn3Bi3Cl2
_chemical_formula_sum   'Tb10 Sn3 Bi3 Cl2'
_cell_volume   482.04149279
_cell_formula_units_Z   1
loop_
 _symmetry_equiv_pos_site_id
 _symmetry_equiv_pos_as_xyz
  1  'x, y, z'
loop_
 _atom_site_type_symbol
 _atom_site_label
 _atom_site_symmetry_multiplicity
 _atom_site_fract_x
 _atom_site_fract_y
 _atom_site_fract_z
 _atom_site_occupancy
  Tb  Tb0  1  0.738686  0.739025  0.250000  1
  Tb  Tb1  1  0.327941  0.666401  0.498542  1
  Tb  Tb2  1  0.259385  0.264967  0.750000  1
  Tb  Tb3  1  0.994912  0.265590  0.250000  1
  Tb  Tb4  1  0.673539  0.333461  0.498574  1
  Tb  Tb5  1  0.263365  0.994878  0.250000  1
  Tb  Tb6  1  0.739547  0.004973  0.750000  1
  Tb  Tb7  1  0.327941  0.666401  0.001458  1
  Tb  Tb8  1  0.673539  0.333461  0.001426  1
  Tb  Tb9  1  0.999920  0.730917  0.750000  1
  Sn  Sn10  1  0.998415  0.611083  0.250000  1
  Sn  Sn11  1  0.610470  0.997701  0.250000  1
  Sn  Sn12  1  0.000967  0.389734  0.750000  1
  Bi  Bi13  1  0.386474  0.385571  0.250000  1
  Bi  Bi14  1  0.612413  0.613583  0.750000  1
  Bi  Bi15  1  0.388671  0.002259  0.750000  1
  Cl  Cl16  1  0.001907  0.999996  0.999246  1
  Cl  Cl17  1  0.001907  0.999996  0.500754  1
