# generated using pymatgen
data_Ca2Yb2Ni13C4
_symmetry_space_group_name_H-M   'P 1'
_cell_length_a   8.32382080
_cell_length_b   8.32382049
_cell_length_c   3.88439200
_cell_angle_alpha   90.00000000
_cell_angle_beta   90.00000000
_cell_angle_gamma   90.28446390
_symmetry_Int_Tables_number   1
_chemical_formula_structural   Ca2Yb2Ni13C4
_chemical_formula_sum   'Ca2 Yb2 Ni13 C4'
_cell_volume   269.13062858
_cell_formula_units_Z   1
loop_
 _symmetry_equiv_pos_site_id
 _symmetry_equiv_pos_as_xyz
  1  'x, y, z'
loop_
 _atom_site_type_symbol
 _atom_site_label
 _atom_site_symmetry_multiplicity
 _atom_site_fract_x
 _atom_site_fract_y
 _atom_site_fract_z
 _atom_site_occupancy
  Ca  Ca0  1  0.350234  0.350234  0.500000  1
  Ca  Ca1  1  0.649766  0.649766  0.500000  1
  Yb  Yb2  1  0.808298  0.191702  0.500000  1
  Yb  Yb3  1  0.191702  0.808298  0.500000  1
  Ni  Ni4  1  0.000000  0.000000  0.000000  1
  Ni  Ni5  1  0.214207  0.574826  0.000000  1
  Ni  Ni6  1  0.785793  0.425174  0.000000  1
  Ni  Ni7  1  0.425174  0.785793  0.000000  1
  Ni  Ni8  1  0.574826  0.214207  0.000000  1
  Ni  Ni9  1  0.000000  0.500000  0.500000  1
  Ni  Ni10  1  0.500000  0.000000  0.500000  1
  Ni  Ni11  1  0.069604  0.287657  0.000000  1
  Ni  Ni12  1  0.930396  0.712343  0.000000  1
  Ni  Ni13  1  0.712343  0.930396  0.000000  1
  Ni  Ni14  1  0.287657  0.069604  0.000000  1
  Ni  Ni15  1  0.117921  0.117921  0.500000  1
  Ni  Ni16  1  0.882079  0.882079  0.500000  1
  C  C17  1  0.000000  0.500000  0.000000  1
  C  C18  1  0.500000  0.000000  0.000000  1
  C  C19  1  0.442981  0.557019  0.000000  1
  C  C20  1  0.557019  0.442981  0.000000  1
