# generated using pymatgen
data_PrEu2Th(CoB10)2
_symmetry_space_group_name_H-M   'P 1'
_cell_length_a   4.19916800
_cell_length_b   5.65259944
_cell_length_c   11.21178898
_cell_angle_alpha   90.21697256
_cell_angle_beta   90.00000000
_cell_angle_gamma   90.00000000
_symmetry_Int_Tables_number   1
_chemical_formula_structural   PrEu2Th(CoB10)2
_chemical_formula_sum   'Pr1 Eu2 Th1 Co2 B20'
_cell_volume   266.12352203
_cell_formula_units_Z   1
loop_
 _symmetry_equiv_pos_site_id
 _symmetry_equiv_pos_as_xyz
  1  'x, y, z'
loop_
 _atom_site_type_symbol
 _atom_site_label
 _atom_site_symmetry_multiplicity
 _atom_site_fract_x
 _atom_site_fract_y
 _atom_site_fract_z
 _atom_site_occupancy
  Pr  Pr0  1  0.500000  0.801207  0.636928  1
  Eu  Eu1  1  0.500000  0.301736  0.865817  1
  Eu  Eu2  1  0.500000  0.698429  0.133275  1
  Th  Th3  1  0.500000  0.201317  0.364607  1
  Co  Co4  1  0.000000  0.497465  0.498802  1
  Co  Co5  1  0.000000  0.000198  0.000258  1
  B  B6  1  0.000000  0.128262  0.539547  1
  B  B7  1  0.000000  0.871555  0.459596  1
  B  B8  1  0.000000  0.627255  0.959590  1
  B  B9  1  0.000000  0.372423  0.040732  1
  B  B10  1  0.000000  0.157341  0.697974  1
  B  B11  1  0.000000  0.844385  0.302361  1
  B  B12  1  0.298691  0.199937  0.113045  1
  B  B13  1  0.298297  0.799803  0.888039  1
  B  B14  1  0.700873  0.701053  0.386311  1
  B  B15  1  0.701255  0.297646  0.612492  1
  B  B16  1  0.701703  0.799803  0.888039  1
  B  B17  1  0.701309  0.199937  0.113045  1
  B  B18  1  0.298745  0.297646  0.612492  1
  B  B19  1  0.299127  0.701053  0.386311  1
  B  B20  1  0.000000  0.034512  0.187515  1
  B  B21  1  0.000000  0.966550  0.813609  1
  B  B22  1  0.000000  0.535050  0.312459  1
  B  B23  1  0.000000  0.465411  0.686843  1
  B  B24  1  0.000000  0.343364  0.197406  1
  B  B25  1  0.000000  0.656667  0.802902  1
