# generated using pymatgen
data_Tb4CoB14
_symmetry_space_group_name_H-M   'P 1'
_cell_length_a   7.22893000
_cell_length_b   7.22893000
_cell_length_c   7.53350900
_cell_angle_alpha   90.00000000
_cell_angle_beta   90.00000000
_cell_angle_gamma   90.00000000
_symmetry_Int_Tables_number   1
_chemical_formula_structural   Tb4CoB14
_chemical_formula_sum   'Tb8 Co2 B28'
_cell_volume   393.68181127
_cell_formula_units_Z   2
loop_
 _symmetry_equiv_pos_site_id
 _symmetry_equiv_pos_as_xyz
  1  'x, y, z'
loop_
 _atom_site_type_symbol
 _atom_site_label
 _atom_site_symmetry_multiplicity
 _atom_site_fract_x
 _atom_site_fract_y
 _atom_site_fract_z
 _atom_site_occupancy
  Tb  Tb0  1  0.193138  0.330005  0.000000  1
  Tb  Tb1  1  0.669995  0.193138  0.000000  1
  Tb  Tb2  1  0.330005  0.806862  0.000000  1
  Tb  Tb3  1  0.693138  0.169995  0.500000  1
  Tb  Tb4  1  0.306862  0.830005  0.500000  1
  Tb  Tb5  1  0.806862  0.669995  0.000000  1
  Tb  Tb6  1  0.830005  0.693138  0.500000  1
  Tb  Tb7  1  0.169995  0.306862  0.500000  1
  Co  Co8  1  0.000000  0.000000  0.000000  1
  Co  Co9  1  0.500000  0.500000  0.500000  1
  B  B10  1  0.173673  0.038758  0.230861  1
  B  B11  1  0.961242  0.173673  0.230861  1
  B  B12  1  0.038758  0.826327  0.230861  1
  B  B13  1  0.673673  0.461242  0.269139  1
  B  B14  1  0.326327  0.538758  0.269139  1
  B  B15  1  0.826327  0.961242  0.230861  1
  B  B16  1  0.538758  0.673673  0.269139  1
  B  B17  1  0.461242  0.326327  0.269139  1
  B  B18  1  0.826327  0.961242  0.769139  1
  B  B19  1  0.038758  0.826327  0.769139  1
  B  B20  1  0.961242  0.173673  0.769139  1
  B  B21  1  0.326327  0.538758  0.730861  1
  B  B22  1  0.673673  0.461242  0.730861  1
  B  B23  1  0.173673  0.038758  0.769139  1
  B  B24  1  0.461242  0.326327  0.730861  1
  B  B25  1  0.538758  0.673673  0.730861  1
  B  B26  1  0.088398  0.588398  0.250000  1
  B  B27  1  0.411602  0.088398  0.250000  1
  B  B28  1  0.588398  0.911602  0.250000  1
  B  B29  1  0.911602  0.411602  0.250000  1
  B  B30  1  0.911602  0.411602  0.750000  1
  B  B31  1  0.588398  0.911602  0.750000  1
  B  B32  1  0.411602  0.088398  0.750000  1
  B  B33  1  0.088398  0.588398  0.750000  1
  B  B34  1  0.000000  0.000000  0.388022  1
  B  B35  1  0.500000  0.500000  0.111978  1
  B  B36  1  0.000000  0.000000  0.611978  1
  B  B37  1  0.500000  0.500000  0.888022  1
