# generated using pymatgen
data_Ti4ZnPtN2
_symmetry_space_group_name_H-M   'P 1'
_cell_length_a   8.30576685
_cell_length_b   8.30576720
_cell_length_c   4.26301700
_cell_angle_alpha   90.00000000
_cell_angle_beta   90.00000000
_cell_angle_gamma   159.63264851
_symmetry_Int_Tables_number   1
_chemical_formula_structural   Ti4ZnPtN2
_chemical_formula_sum   'Ti4 Zn1 Pt1 N2'
_cell_volume   102.35359482
_cell_formula_units_Z   1
loop_
 _symmetry_equiv_pos_site_id
 _symmetry_equiv_pos_as_xyz
  1  'x, y, z'
loop_
 _atom_site_type_symbol
 _atom_site_label
 _atom_site_symmetry_multiplicity
 _atom_site_fract_x
 _atom_site_fract_y
 _atom_site_fract_z
 _atom_site_occupancy
  Ti  Ti0  1  0.787272  0.212728  0.250000  1
  Ti  Ti1  1  0.212479  0.787521  0.750000  1
  Ti  Ti2  1  0.610457  0.389543  0.250000  1
  Ti  Ti3  1  0.388551  0.611449  0.750000  1
  Zn  Zn4  1  0.045360  0.954640  0.750000  1
  Pt  Pt5  1  0.957306  0.042694  0.250000  1
  N  N6  1  0.199162  0.800838  0.250000  1
  N  N7  1  0.799413  0.200587  0.750000  1
