# generated using pymatgen
data_HoTh2(ZnPd)3
_symmetry_space_group_name_H-M   'P 1'
_cell_length_a   7.43676041
_cell_length_b   7.49153644
_cell_length_c   3.89897000
_cell_angle_alpha   90.00000000
_cell_angle_beta   90.00000000
_cell_angle_gamma   120.24395092
_symmetry_Int_Tables_number   1
_chemical_formula_structural   HoTh2(ZnPd)3
_chemical_formula_sum   'Ho1 Th2 Zn3 Pd3'
_cell_volume   187.65596198
_cell_formula_units_Z   1
loop_
 _symmetry_equiv_pos_site_id
 _symmetry_equiv_pos_as_xyz
  1  'x, y, z'
loop_
 _atom_site_type_symbol
 _atom_site_label
 _atom_site_symmetry_multiplicity
 _atom_site_fract_x
 _atom_site_fract_y
 _atom_site_fract_z
 _atom_site_occupancy
  Ho  Ho0  1  0.000000  0.598600  0.000000  1
  Th  Th1  1  0.408519  0.407659  0.000000  1
  Th  Th2  1  0.591481  0.999140  0.000000  1
  Zn  Zn3  1  0.758973  0.750543  0.500000  1
  Zn  Zn4  1  0.241027  0.991570  0.500000  1
  Zn  Zn5  1  0.000000  0.256231  0.500000  1
  Pd  Pd6  1  0.000000  0.000104  0.000000  1
  Pd  Pd7  1  0.664993  0.330572  0.500000  1
  Pd  Pd8  1  0.335007  0.665580  0.500000  1
