# generated using pymatgen
data_Tb3HoLu4(B6Os)4
_symmetry_space_group_name_H-M   'P 1'
_cell_length_a   3.62430300
_cell_length_b   9.08440600
_cell_length_c   11.47866000
_cell_angle_alpha   90.00215667
_cell_angle_beta   90.00000000
_cell_angle_gamma   90.00000000
_symmetry_Int_Tables_number   1
_chemical_formula_structural   Tb3HoLu4(B6Os)4
_chemical_formula_sum   'Tb3 Ho1 Lu4 B24 Os4'
_cell_volume   377.93074712
_cell_formula_units_Z   1
loop_
 _symmetry_equiv_pos_site_id
 _symmetry_equiv_pos_as_xyz
  1  'x, y, z'
loop_
 _atom_site_type_symbol
 _atom_site_label
 _atom_site_symmetry_multiplicity
 _atom_site_fract_x
 _atom_site_fract_y
 _atom_site_fract_z
 _atom_site_occupancy
  Tb  Tb0  1  0.000000  0.321438  0.414050  1
  Tb  Tb1  1  0.000000  0.678547  0.586002  1
  Tb  Tb2  1  0.000000  0.821518  0.085897  1
  Ho  Ho3  1  0.000000  0.178707  0.914135  1
  Lu  Lu4  1  0.000000  0.944320  0.373076  1
  Lu  Lu5  1  0.000000  0.055776  0.626957  1
  Lu  Lu6  1  0.000000  0.444123  0.126690  1
  Lu  Lu7  1  0.000000  0.555624  0.873186  1
  B  B8  1  0.500000  0.554547  0.432591  1
  B  B9  1  0.500000  0.445340  0.567528  1
  B  B10  1  0.500000  0.054724  0.066938  1
  B  B11  1  0.500000  0.945929  0.932682  1
  B  B12  1  0.500000  0.749937  0.419236  1
  B  B13  1  0.500000  0.250051  0.580919  1
  B  B14  1  0.500000  0.249766  0.080214  1
  B  B15  1  0.500000  0.750239  0.919207  1
  B  B16  1  0.500000  0.791984  0.266166  1
  B  B17  1  0.500000  0.207789  0.734245  1
  B  B18  1  0.500000  0.291905  0.233588  1
  B  B19  1  0.500000  0.708141  0.766280  1
  B  B20  1  0.500000  0.630602  0.184438  1
  B  B21  1  0.500000  0.368923  0.815833  1
  B  B22  1  0.500000  0.130687  0.315411  1
  B  B23  1  0.500000  0.869484  0.684605  1
  B  B24  1  0.500000  0.982927  0.213709  1
  B  B25  1  0.500000  0.017695  0.786423  1
  B  B26  1  0.500000  0.482786  0.286081  1
  B  B27  1  0.500000  0.516991  0.713989  1
  B  B28  1  0.500000  0.603562  0.028473  1
  B  B29  1  0.500000  0.395638  0.971294  1
  B  B30  1  0.500000  0.103508  0.471543  1
  B  B31  1  0.500000  0.896538  0.528499  1
  Os  Os32  1  0.000000  0.638407  0.320133  1
  Os  Os33  1  0.000000  0.361316  0.680154  1
  Os  Os34  1  0.000000  0.138391  0.179464  1
  Os  Os35  1  0.000000  0.862140  0.820365  1
