# generated using pymatgen
data_YEr9(Al2Ru3)2
_symmetry_space_group_name_H-M   'P 1'
_cell_length_a   8.30460274
_cell_length_b   8.30460408
_cell_length_c   8.29999834
_cell_angle_alpha   109.23515070
_cell_angle_beta   109.53208973
_cell_angle_gamma   109.66909932
_symmetry_Int_Tables_number   1
_chemical_formula_structural   YEr9(Al2Ru3)2
_chemical_formula_sum   'Y1 Er9 Al4 Ru6'
_cell_volume   440.52181760
_cell_formula_units_Z   1
loop_
 _symmetry_equiv_pos_site_id
 _symmetry_equiv_pos_as_xyz
  1  'x, y, z'
loop_
 _atom_site_type_symbol
 _atom_site_label
 _atom_site_symmetry_multiplicity
 _atom_site_fract_x
 _atom_site_fract_y
 _atom_site_fract_z
 _atom_site_occupancy
  Y  Y0  1  0.181661  0.931661  0.250000  1
  Er  Er1  1  0.785555  0.787241  0.785731  1
  Er  Er2  1  0.317996  0.567996  0.750000  1
  Er  Er3  1  0.751960  0.321924  0.571442  1
  Er  Er4  1  0.569357  0.748970  0.318900  1
  Er  Er5  1  0.712680  0.498849  0.998188  1
  Er  Er6  1  0.000661  0.714492  0.501812  1
  Er  Er7  1  0.501511  0.999825  0.714269  1
  Er  Er8  1  0.250482  0.180518  0.928558  1
  Er  Er9  1  0.930069  0.250457  0.181100  1
  Al  Al10  1  0.411314  0.410958  0.409838  1
  Al  Al11  1  0.091236  0.499561  0.003108  1
  Al  Al12  1  0.996453  0.088129  0.496892  1
  Al  Al13  1  0.501119  0.001476  0.090162  1
  Ru  Ru14  1  0.876945  0.126945  0.750000  1
  Ru  Ru15  1  0.745810  0.873977  0.122444  1
  Ru  Ru16  1  0.126584  0.749192  0.876713  1
  Ru  Ru17  1  0.251534  0.623368  0.377556  1
  Ru  Ru18  1  0.372480  0.249871  0.623287  1
  Ru  Ru19  1  0.624591  0.374591  0.250000  1
