# generated using pymatgen
data_Tb5Nd2YPt4
_symmetry_space_group_name_H-M   'P 1'
_cell_length_a   4.79879700
_cell_length_b   7.25593060
_cell_length_c   8.96035725
_cell_angle_alpha   89.87694542
_cell_angle_beta   90.00000000
_cell_angle_gamma   90.00000000
_symmetry_Int_Tables_number   1
_chemical_formula_structural   Tb5Nd2YPt4
_chemical_formula_sum   'Tb5 Nd2 Y1 Pt4'
_cell_volume   311.99657204
_cell_formula_units_Z   1
loop_
 _symmetry_equiv_pos_site_id
 _symmetry_equiv_pos_as_xyz
  1  'x, y, z'
loop_
 _atom_site_type_symbol
 _atom_site_label
 _atom_site_symmetry_multiplicity
 _atom_site_fract_x
 _atom_site_fract_y
 _atom_site_fract_z
 _atom_site_occupancy
  Tb  Tb0  1  0.250000  0.855350  0.920762  1
  Tb  Tb1  1  0.250000  0.356494  0.581872  1
  Tb  Tb2  1  0.750000  0.142913  0.081581  1
  Tb  Tb3  1  0.750000  0.644989  0.420768  1
  Tb  Tb4  1  0.250000  0.991239  0.331968  1
  Nd  Nd5  1  0.250000  0.491454  0.170499  1
  Nd  Nd6  1  0.750000  0.008218  0.671034  1
  Y  Y7  1  0.750000  0.509221  0.831592  1
  Pt  Pt8  1  0.250000  0.257085  0.904703  1
  Pt  Pt9  1  0.250000  0.754424  0.590283  1
  Pt  Pt10  1  0.750000  0.746155  0.090374  1
  Pt  Pt11  1  0.750000  0.242459  0.404563  1
