# generated using pymatgen
data_Yb7Pr(Si3Ni)4
_symmetry_space_group_name_H-M   'P 1'
_cell_length_a   8.02454900
_cell_length_b   8.02455739
_cell_length_c   8.20260400
_cell_angle_alpha   90.00000000
_cell_angle_beta   90.00000000
_cell_angle_gamma   119.99993655
_symmetry_Int_Tables_number   1
_chemical_formula_structural   Yb7Pr(Si3Ni)4
_chemical_formula_sum   'Yb7 Pr1 Si12 Ni4'
_cell_volume   457.42971754
_cell_formula_units_Z   1
loop_
 _symmetry_equiv_pos_site_id
 _symmetry_equiv_pos_as_xyz
  1  'x, y, z'
loop_
 _atom_site_type_symbol
 _atom_site_label
 _atom_site_symmetry_multiplicity
 _atom_site_fract_x
 _atom_site_fract_y
 _atom_site_fract_z
 _atom_site_occupancy
  Yb  Yb0  1  0.500370  0.000742  0.250000  1
  Yb  Yb1  1  0.499613  0.999225  0.750000  1
  Yb  Yb2  1  0.999258  0.499630  0.250000  1
  Yb  Yb3  1  0.000775  0.500387  0.750000  1
  Yb  Yb4  1  0.500370  0.499630  0.250000  1
  Yb  Yb5  1  0.499612  0.500387  0.750000  1
  Yb  Yb6  1  0.000000  0.000000  0.250000  1
  Pr  Pr7  1  0.000000  0.000001  0.750000  1
  Si  Si8  1  0.170391  0.340782  0.001831  1
  Si  Si9  1  0.829613  0.659226  0.001224  1
  Si  Si10  1  0.659217  0.829609  0.001831  1
  Si  Si11  1  0.829613  0.659226  0.498776  1
  Si  Si12  1  0.340775  0.170387  0.001224  1
  Si  Si13  1  0.170391  0.340782  0.498169  1
  Si  Si14  1  0.170391  0.829609  0.001831  1
  Si  Si15  1  0.340775  0.170387  0.498776  1
  Si  Si16  1  0.829613  0.170387  0.001225  1
  Si  Si17  1  0.659217  0.829609  0.498169  1
  Si  Si18  1  0.829613  0.170387  0.498775  1
  Si  Si19  1  0.170391  0.829609  0.498169  1
  Ni  Ni20  1  0.333333  0.666667  0.002276  1
  Ni  Ni21  1  0.666667  0.333334  0.000853  1
  Ni  Ni22  1  0.666667  0.333334  0.499147  1
  Ni  Ni23  1  0.333333  0.666667  0.497724  1
