# generated using pymatgen
data_LuCu3NiSn
_symmetry_space_group_name_H-M   'P 1'
_cell_length_a   5.07917919
_cell_length_b   5.01815732
_cell_length_c   5.01815800
_cell_angle_alpha   119.99999131
_cell_angle_beta   90.00000000
_cell_angle_gamma   119.60335817
_symmetry_Int_Tables_number   1
_chemical_formula_structural   LuCu3NiSn
_chemical_formula_sum   'Lu1 Cu3 Ni1 Sn1'
_cell_volume   90.97981393
_cell_formula_units_Z   1
loop_
 _symmetry_equiv_pos_site_id
 _symmetry_equiv_pos_as_xyz
  1  'x, y, z'
loop_
 _atom_site_type_symbol
 _atom_site_label
 _atom_site_symmetry_multiplicity
 _atom_site_fract_x
 _atom_site_fract_y
 _atom_site_fract_z
 _atom_site_occupancy
  Lu  Lu0  1  0.998644  0.999096  0.999548  1
  Cu  Cu1  1  0.375188  0.749824  0.124462  1
  Cu  Cu2  1  0.375188  0.250725  0.625362  1
  Cu  Cu3  1  0.375188  0.749824  0.625362  1
  Ni  Ni4  1  0.875713  0.250474  0.625239  1
  Sn  Sn5  1  0.750081  0.500054  0.250027  1
