# generated using pymatgen
data_Tb2Ho2ReB12Ru
_symmetry_space_group_name_H-M   'P 1'
_cell_length_a   3.67303500
_cell_length_b   9.15823807
_cell_length_c   11.55463338
_cell_angle_alpha   89.80671659
_cell_angle_beta   90.00000000
_cell_angle_gamma   90.00000000
_symmetry_Int_Tables_number   1
_chemical_formula_structural   Tb2Ho2ReB12Ru
_chemical_formula_sum   'Tb4 Ho4 Re2 B24 Ru2'
_cell_volume   388.67865819
_cell_formula_units_Z   2
loop_
 _symmetry_equiv_pos_site_id
 _symmetry_equiv_pos_as_xyz
  1  'x, y, z'
loop_
 _atom_site_type_symbol
 _atom_site_label
 _atom_site_symmetry_multiplicity
 _atom_site_fract_x
 _atom_site_fract_y
 _atom_site_fract_z
 _atom_site_occupancy
  Tb  Tb0  1  0.000000  0.324733  0.415296  1
  Tb  Tb1  1  0.000000  0.675267  0.584704  1
  Tb  Tb2  1  0.000000  0.821610  0.087542  1
  Tb  Tb3  1  0.000000  0.178390  0.912458  1
  Ho  Ho4  1  0.000000  0.943063  0.370819  1
  Ho  Ho5  1  0.000000  0.056937  0.629181  1
  Ho  Ho6  1  0.000000  0.442849  0.129365  1
  Ho  Ho7  1  0.000000  0.557151  0.870635  1
  Re  Re8  1  0.000000  0.638826  0.320085  1
  Re  Re9  1  0.000000  0.361174  0.679915  1
  B  B10  1  0.500000  0.553382  0.432698  1
  B  B11  1  0.500000  0.446618  0.567302  1
  B  B12  1  0.500000  0.054098  0.067409  1
  B  B13  1  0.500000  0.945902  0.932591  1
  B  B14  1  0.500000  0.749093  0.418712  1
  B  B15  1  0.500000  0.250907  0.581288  1
  B  B16  1  0.500000  0.248591  0.081390  1
  B  B17  1  0.500000  0.751409  0.918610  1
  B  B18  1  0.500000  0.791792  0.265559  1
  B  B19  1  0.500000  0.208208  0.734441  1
  B  B20  1  0.500000  0.290680  0.233815  1
  B  B21  1  0.500000  0.709320  0.766185  1
  B  B22  1  0.500000  0.631246  0.185096  1
  B  B23  1  0.500000  0.368754  0.814904  1
  B  B24  1  0.500000  0.130989  0.313914  1
  B  B25  1  0.500000  0.869011  0.686086  1
  B  B26  1  0.500000  0.983770  0.212178  1
  B  B27  1  0.500000  0.016230  0.787822  1
  B  B28  1  0.500000  0.483076  0.287130  1
  B  B29  1  0.500000  0.516924  0.712870  1
  B  B30  1  0.500000  0.603244  0.028404  1
  B  B31  1  0.500000  0.396756  0.971596  1
  B  B32  1  0.500000  0.102757  0.471448  1
  B  B33  1  0.500000  0.897243  0.528552  1
  Ru  Ru34  1  0.000000  0.138195  0.178815  1
  Ru  Ru35  1  0.000000  0.861805  0.821185  1
