# generated using pymatgen
data_Ho16Ga6FeNi
_symmetry_space_group_name_H-M   'P 1'
_cell_length_a   9.98445000
_cell_length_b   9.98447805
_cell_length_c   6.90589500
_cell_angle_alpha   89.99995899
_cell_angle_beta   89.99998901
_cell_angle_gamma   119.99979496
_symmetry_Int_Tables_number   1
_chemical_formula_structural   Ho16Ga6FeNi
_chemical_formula_sum   'Ho16 Ga6 Fe1 Ni1'
_cell_volume   596.21241198
_cell_formula_units_Z   1
loop_
 _symmetry_equiv_pos_site_id
 _symmetry_equiv_pos_as_xyz
  1  'x, y, z'
loop_
 _atom_site_type_symbol
 _atom_site_label
 _atom_site_symmetry_multiplicity
 _atom_site_fract_x
 _atom_site_fract_y
 _atom_site_fract_z
 _atom_site_occupancy
  Ho  Ho0  1  0.172863  0.827139  0.509906  1
  Ho  Ho1  1  0.654279  0.827139  0.509902  1
  Ho  Ho2  1  0.172860  0.345719  0.509902  1
  Ho  Ho3  1  0.827626  0.172376  0.011974  1
  Ho  Ho4  1  0.344747  0.172377  0.011969  1
  Ho  Ho5  1  0.827624  0.655259  0.011971  1
  Ho  Ho6  1  0.333335  0.666662  0.829402  1
  Ho  Ho7  1  0.666670  0.333330  0.329383  1
  Ho  Ho8  1  0.462207  0.537795  0.208143  1
  Ho  Ho9  1  0.075586  0.537800  0.208142  1
  Ho  Ho10  1  0.462201  0.924410  0.208144  1
  Ho  Ho11  1  0.534853  0.465144  0.705471  1
  Ho  Ho12  1  0.930291  0.465144  0.705479  1
  Ho  Ho13  1  0.534858  0.069710  0.705480  1
  Ho  Ho14  1  0.999999  0.000001  0.231261  1
  Ho  Ho15  1  0.000003  0.999998  0.733403  1
  Ga  Ga16  1  0.162993  0.837009  0.958760  1
  Ga  Ga17  1  0.674020  0.837016  0.958768  1
  Ga  Ga18  1  0.162987  0.325981  0.958771  1
  Ga  Ga19  1  0.836007  0.163990  0.458946  1
  Ga  Ga20  1  0.327989  0.163991  0.458948  1
  Ga  Ga21  1  0.836008  0.672012  0.458950  1
  Fe  Fe22  1  0.333326  0.666659  0.446799  1
  Ni  Ni23  1  0.666669  0.333340  0.944170  1
