# generated using pymatgen
data_Pr5B2(Rh4Pb)3
_symmetry_space_group_name_H-M   'P 1'
_cell_length_a   5.95909600
_cell_length_b   5.95909642
_cell_length_c   13.99153700
_cell_angle_alpha   90.00000000
_cell_angle_beta   90.00000000
_cell_angle_gamma   119.99999769
_symmetry_Int_Tables_number   1
_chemical_formula_structural   Pr5B2(Rh4Pb)3
_chemical_formula_sum   'Pr5 B2 Rh12 Pb3'
_cell_volume   430.28564857
_cell_formula_units_Z   1
loop_
 _symmetry_equiv_pos_site_id
 _symmetry_equiv_pos_as_xyz
  1  'x, y, z'
loop_
 _atom_site_type_symbol
 _atom_site_label
 _atom_site_symmetry_multiplicity
 _atom_site_fract_x
 _atom_site_fract_y
 _atom_site_fract_z
 _atom_site_occupancy
  Pr  Pr0  1  0.000000  0.000000  0.750000  1
  Pr  Pr1  1  0.333333  0.666667  0.405217  1
  Pr  Pr2  1  0.666667  0.333333  0.909963  1
  Pr  Pr3  1  0.666667  0.333333  0.590037  1
  Pr  Pr4  1  0.333333  0.666667  0.094783  1
  B  B5  1  0.000000  0.000000  0.498736  1
  B  B6  1  0.000000  0.000000  0.001264  1
  Rh  Rh7  1  0.338083  0.169042  0.410526  1
  Rh  Rh8  1  0.830958  0.169042  0.410526  1
  Rh  Rh9  1  0.830958  0.661917  0.410526  1
  Rh  Rh10  1  0.171463  0.342925  0.917887  1
  Rh  Rh11  1  0.657075  0.828537  0.582113  1
  Rh  Rh12  1  0.657075  0.828537  0.917887  1
  Rh  Rh13  1  0.338083  0.169042  0.089474  1
  Rh  Rh14  1  0.171463  0.342925  0.582113  1
  Rh  Rh15  1  0.171463  0.828537  0.582113  1
  Rh  Rh16  1  0.830958  0.169042  0.089474  1
  Rh  Rh17  1  0.830958  0.661917  0.089474  1
  Rh  Rh18  1  0.171463  0.828537  0.917887  1
  Pb  Pb19  1  0.000000  0.000000  0.250000  1
  Pb  Pb20  1  0.333333  0.666667  0.750000  1
  Pb  Pb21  1  0.666667  0.333333  0.250000  1
