# generated using pymatgen
data_YbDy4Zr3(P3Ir4)4
_symmetry_space_group_name_H-M   'P 1'
_cell_length_a   12.88673400
_cell_length_b   12.88673535
_cell_length_c   3.98012900
_cell_angle_alpha   90.00000000
_cell_angle_beta   90.00000000
_cell_angle_gamma   120.00000166
_symmetry_Int_Tables_number   1
_chemical_formula_structural   YbDy4Zr3(P3Ir4)4
_chemical_formula_sum   'Yb1 Dy4 Zr3 P12 Ir16'
_cell_volume   572.41834880
_cell_formula_units_Z   1
loop_
 _symmetry_equiv_pos_site_id
 _symmetry_equiv_pos_as_xyz
  1  'x, y, z'
loop_
 _atom_site_type_symbol
 _atom_site_label
 _atom_site_symmetry_multiplicity
 _atom_site_fract_x
 _atom_site_fract_y
 _atom_site_fract_z
 _atom_site_occupancy
  Yb  Yb0  1  0.333333  0.666667  0.500000  1
  Dy  Dy1  1  0.666667  0.333333  0.500000  1
  Dy  Dy2  1  0.999931  0.814463  0.000000  1
  Dy  Dy3  1  0.185537  0.185468  0.000000  1
  Dy  Dy4  1  0.814532  0.000069  0.000000  1
  Zr  Zr5  1  0.999420  0.448089  0.500000  1
  Zr  Zr6  1  0.551911  0.551331  0.500000  1
  Zr  Zr7  1  0.448669  0.000580  0.500000  1
  P  P8  1  0.001669  0.649374  0.500000  1
  P  P9  1  0.350626  0.352296  0.500000  1
  P  P10  1  0.647704  0.998331  0.500000  1
  P  P11  1  0.515105  0.686165  0.000000  1
  P  P12  1  0.313835  0.828940  0.000000  1
  P  P13  1  0.171060  0.484895  0.000000  1
  P  P14  1  0.482536  0.169618  0.000000  1
  P  P15  1  0.687082  0.517464  0.000000  1
  P  P16  1  0.830382  0.312918  0.000000  1
  P  P17  1  0.999532  0.176220  0.500000  1
  P  P18  1  0.823780  0.823312  0.500000  1
  P  P19  1  0.176688  0.000468  0.500000  1
  Ir  Ir20  1  0.511378  0.867833  0.000000  1
  Ir  Ir21  1  0.132167  0.643546  0.000000  1
  Ir  Ir22  1  0.356454  0.488622  0.000000  1
  Ir  Ir23  1  0.493192  0.356946  0.000000  1
  Ir  Ir24  1  0.863755  0.506808  0.000000  1
  Ir  Ir25  1  0.643054  0.136245  0.000000  1
  Ir  Ir26  1  0.999535  0.278065  0.000000  1
  Ir  Ir27  1  0.721935  0.721470  0.000000  1
  Ir  Ir28  1  0.278530  0.000465  0.000000  1
  Ir  Ir29  1  0.629751  0.806795  0.500000  1
  Ir  Ir30  1  0.193205  0.822957  0.500000  1
  Ir  Ir31  1  0.177043  0.370249  0.500000  1
  Ir  Ir32  1  0.370524  0.179081  0.500000  1
  Ir  Ir33  1  0.808557  0.629476  0.500000  1
  Ir  Ir34  1  0.820919  0.191443  0.500000  1
  Ir  Ir35  1  0.000000  0.000000  0.500000  1
