# generated using pymatgen
data_TbY5Th2(ReB6)4
_symmetry_space_group_name_H-M   'P 1'
_cell_length_a   3.73301500
_cell_length_b   9.24070670
_cell_length_c   11.64657701
_cell_angle_alpha   89.87311652
_cell_angle_beta   90.00000000
_cell_angle_gamma   90.00000000
_symmetry_Int_Tables_number   1
_chemical_formula_structural   TbY5Th2(ReB6)4
_chemical_formula_sum   'Tb1 Y5 Th2 Re4 B24'
_cell_volume   401.75580334
_cell_formula_units_Z   1
loop_
 _symmetry_equiv_pos_site_id
 _symmetry_equiv_pos_as_xyz
  1  'x, y, z'
loop_
 _atom_site_type_symbol
 _atom_site_label
 _atom_site_symmetry_multiplicity
 _atom_site_fract_x
 _atom_site_fract_y
 _atom_site_fract_z
 _atom_site_occupancy
  Tb  Tb0  1  0.000000  0.324443  0.414750  1
  Y  Y1  1  0.000000  0.675643  0.585210  1
  Y  Y2  1  0.000000  0.443151  0.130473  1
  Y  Y3  1  0.000000  0.556872  0.869506  1
  Y  Y4  1  0.000000  0.942759  0.372399  1
  Y  Y5  1  0.000000  0.057197  0.627625  1
  Th  Th6  1  0.000000  0.821525  0.086567  1
  Th  Th7  1  0.000000  0.178477  0.913408  1
  Re  Re8  1  0.000000  0.138247  0.179834  1
  Re  Re9  1  0.000000  0.861727  0.820138  1
  Re  Re10  1  0.000000  0.638615  0.321344  1
  Re  Re11  1  0.000000  0.361420  0.678682  1
  B  B12  1  0.500000  0.055429  0.070542  1
  B  B13  1  0.500000  0.944559  0.929451  1
  B  B14  1  0.500000  0.553355  0.433285  1
  B  B15  1  0.500000  0.446598  0.566727  1
  B  B16  1  0.500000  0.249306  0.084963  1
  B  B17  1  0.500000  0.750678  0.915021  1
  B  B18  1  0.500000  0.747796  0.419475  1
  B  B19  1  0.500000  0.252240  0.580624  1
  B  B20  1  0.500000  0.291380  0.235854  1
  B  B21  1  0.500000  0.708543  0.764104  1
  B  B22  1  0.500000  0.789650  0.268162  1
  B  B23  1  0.500000  0.210360  0.731873  1
  B  B24  1  0.500000  0.131303  0.315540  1
  B  B25  1  0.500000  0.868679  0.684428  1
  B  B26  1  0.500000  0.629633  0.188289  1
  B  B27  1  0.500000  0.370404  0.811707  1
  B  B28  1  0.500000  0.482828  0.289340  1
  B  B29  1  0.500000  0.517290  0.710655  1
  B  B30  1  0.500000  0.984991  0.214767  1
  B  B31  1  0.500000  0.015001  0.785230  1
  B  B32  1  0.500000  0.102558  0.471498  1
  B  B33  1  0.500000  0.897339  0.528543  1
  B  B34  1  0.500000  0.600580  0.028075  1
  B  B35  1  0.500000  0.399423  0.971915  1
