# generated using pymatgen
data_Fe3Sb12Pt
_symmetry_space_group_name_H-M   'P 1'
_cell_length_a   8.00611122
_cell_length_b   8.00611198
_cell_length_c   8.00611130
_cell_angle_alpha   109.48696772
_cell_angle_beta   109.48696956
_cell_angle_gamma   109.48697793
_symmetry_Int_Tables_number   1
_chemical_formula_structural   Fe3Sb12Pt
_chemical_formula_sum   'Fe3 Sb12 Pt1'
_cell_volume   394.81121989
_cell_formula_units_Z   1
loop_
 _symmetry_equiv_pos_site_id
 _symmetry_equiv_pos_as_xyz
  1  'x, y, z'
loop_
 _atom_site_type_symbol
 _atom_site_label
 _atom_site_symmetry_multiplicity
 _atom_site_fract_x
 _atom_site_fract_y
 _atom_site_fract_z
 _atom_site_occupancy
  Fe  Fe0  1  0.500000  0.000000  0.000000  1
  Fe  Fe1  1  0.000000  0.000000  0.500000  1
  Fe  Fe2  1  0.000000  0.500000  0.000000  1
  Sb  Sb3  1  0.671415  0.854899  0.506326  1
  Sb  Sb4  1  0.854899  0.506326  0.671415  1
  Sb  Sb5  1  0.506326  0.671415  0.854899  1
  Sb  Sb6  1  0.669577  0.160734  0.829244  1
  Sb  Sb7  1  0.839266  0.170756  0.330423  1
  Sb  Sb8  1  0.160734  0.829244  0.669577  1
  Sb  Sb9  1  0.170756  0.330423  0.839266  1
  Sb  Sb10  1  0.145101  0.493674  0.328585  1
  Sb  Sb11  1  0.328585  0.145101  0.493674  1
  Sb  Sb12  1  0.493674  0.328585  0.145101  1
  Sb  Sb13  1  0.330423  0.839266  0.170756  1
  Sb  Sb14  1  0.829244  0.669577  0.160734  1
  Pt  Pt15  1  0.500000  0.500000  0.500000  1
