# generated using pymatgen
data_Tb2YSc3FeBi2
_symmetry_space_group_name_H-M   'P 1'
_cell_length_a   7.97479436
_cell_length_b   7.97891877
_cell_length_c   4.19675200
_cell_angle_alpha   90.00000000
_cell_angle_beta   90.00000000
_cell_angle_gamma   120.01711163
_symmetry_Int_Tables_number   1
_chemical_formula_structural   Tb2YSc3FeBi2
_chemical_formula_sum   'Tb2 Y1 Sc3 Fe1 Bi2'
_cell_volume   231.22381591
_cell_formula_units_Z   1
loop_
 _symmetry_equiv_pos_site_id
 _symmetry_equiv_pos_as_xyz
  1  'x, y, z'
loop_
 _atom_site_type_symbol
 _atom_site_label
 _atom_site_symmetry_multiplicity
 _atom_site_fract_x
 _atom_site_fract_y
 _atom_site_fract_z
 _atom_site_occupancy
  Tb  Tb0  1  0.388341  0.388387  0.500000  1
  Tb  Tb1  1  0.611659  0.000046  0.500000  1
  Y  Y2  1  0.000000  0.611515  0.500000  1
  Sc  Sc3  1  0.220605  0.000005  0.000000  1
  Sc  Sc4  1  0.779395  0.779400  0.000000  1
  Sc  Sc5  1  0.000000  0.220582  0.000000  1
  Fe  Fe6  1  0.000000  0.999996  0.500000  1
  Bi  Bi7  1  0.333227  0.666649  0.000000  1
  Bi  Bi8  1  0.666773  0.333421  0.000000  1
