# generated using pymatgen
data_TbTm7Re2(OsC4)2
_symmetry_space_group_name_H-M   'P 1'
_cell_length_a   5.04375700
_cell_length_b   6.49075382
_cell_length_c   9.71478643
_cell_angle_alpha   90.16699345
_cell_angle_beta   90.00000000
_cell_angle_gamma   90.00000000
_symmetry_Int_Tables_number   1
_chemical_formula_structural   TbTm7Re2(OsC4)2
_chemical_formula_sum   'Tb1 Tm7 Re2 Os2 C8'
_cell_volume   318.03923858
_cell_formula_units_Z   1
loop_
 _symmetry_equiv_pos_site_id
 _symmetry_equiv_pos_as_xyz
  1  'x, y, z'
loop_
 _atom_site_type_symbol
 _atom_site_label
 _atom_site_symmetry_multiplicity
 _atom_site_fract_x
 _atom_site_fract_y
 _atom_site_fract_z
 _atom_site_occupancy
  Tb  Tb0  1  0.250000  0.531299  0.213546  1
  Tm  Tm1  1  0.750000  0.825710  0.055648  1
  Tm  Tm2  1  0.250000  0.674336  0.556094  1
  Tm  Tm3  1  0.750000  0.320890  0.443800  1
  Tm  Tm4  1  0.250000  0.178999  0.942832  1
  Tm  Tm5  1  0.750000  0.466784  0.783917  1
  Tm  Tm6  1  0.250000  0.032994  0.284369  1
  Tm  Tm7  1  0.750000  0.968305  0.715296  1
  Re  Re8  1  0.750000  0.779211  0.367505  1
  Re  Re9  1  0.250000  0.721643  0.866843  1
  Os  Os10  1  0.750000  0.278077  0.132506  1
  Os  Os11  1  0.250000  0.220393  0.633120  1
  C  C12  1  0.750000  0.173416  0.945804  1
  C  C13  1  0.250000  0.830393  0.053416  1
  C  C14  1  0.750000  0.673937  0.555099  1
  C  C15  1  0.250000  0.324672  0.446969  1
  C  C16  1  0.750000  0.045934  0.260395  1
  C  C17  1  0.250000  0.453596  0.760491  1
  C  C18  1  0.750000  0.545231  0.241675  1
  C  C19  1  0.250000  0.954180  0.740672  1
