# generated using pymatgen
data_Lu5GaBi2
_symmetry_space_group_name_H-M   'P 1'
_cell_length_a   7.95779800
_cell_length_b   9.19883600
_cell_length_c   11.68824300
_cell_angle_alpha   90.00000000
_cell_angle_beta   90.00000000
_cell_angle_gamma   90.00000000
_symmetry_Int_Tables_number   1
_chemical_formula_structural   Lu5GaBi2
_chemical_formula_sum   'Lu20 Ga4 Bi8'
_cell_volume   855.60835952
_cell_formula_units_Z   4
loop_
 _symmetry_equiv_pos_site_id
 _symmetry_equiv_pos_as_xyz
  1  'x, y, z'
loop_
 _atom_site_type_symbol
 _atom_site_label
 _atom_site_symmetry_multiplicity
 _atom_site_fract_x
 _atom_site_fract_y
 _atom_site_fract_z
 _atom_site_occupancy
  Lu  Lu0  1  0.037087  0.250000  0.508440  1
  Lu  Lu1  1  0.962913  0.750000  0.491560  1
  Lu  Lu2  1  0.462913  0.750000  0.008440  1
  Lu  Lu3  1  0.537087  0.250000  0.991560  1
  Lu  Lu4  1  0.347516  0.250000  0.295445  1
  Lu  Lu5  1  0.652484  0.750000  0.704555  1
  Lu  Lu6  1  0.152484  0.750000  0.795445  1
  Lu  Lu7  1  0.847516  0.250000  0.204555  1
  Lu  Lu8  1  0.179621  0.250000  0.788291  1
  Lu  Lu9  1  0.820379  0.750000  0.211709  1
  Lu  Lu10  1  0.320379  0.750000  0.288291  1
  Lu  Lu11  1  0.679621  0.250000  0.711709  1
  Lu  Lu12  1  0.184115  0.057935  0.055862  1
  Lu  Lu13  1  0.815885  0.942065  0.944138  1
  Lu  Lu14  1  0.315885  0.942065  0.555862  1
  Lu  Lu15  1  0.815885  0.557935  0.944138  1
  Lu  Lu16  1  0.684115  0.057935  0.444138  1
  Lu  Lu17  1  0.184115  0.442065  0.055862  1
  Lu  Lu18  1  0.684115  0.442065  0.444138  1
  Lu  Lu19  1  0.315885  0.557935  0.555862  1
  Ga  Ga20  1  0.408866  0.250000  0.540679  1
  Ga  Ga21  1  0.591134  0.750000  0.459321  1
  Ga  Ga22  1  0.091134  0.750000  0.040679  1
  Ga  Ga23  1  0.908866  0.250000  0.959321  1
  Bi  Bi24  1  0.056412  0.000245  0.321218  1
  Bi  Bi25  1  0.943588  0.999755  0.678782  1
  Bi  Bi26  1  0.443588  0.999755  0.821218  1
  Bi  Bi27  1  0.943588  0.500245  0.678782  1
  Bi  Bi28  1  0.556412  0.000245  0.178782  1
  Bi  Bi29  1  0.056412  0.499755  0.321218  1
  Bi  Bi30  1  0.556412  0.499755  0.178782  1
  Bi  Bi31  1  0.443588  0.500245  0.821218  1
