# generated using pymatgen
data_YbBi3Os2O11
_symmetry_space_group_name_H-M   'P 1'
_cell_length_a   6.46199725
_cell_length_b   7.40351893
_cell_length_c   9.67378300
_cell_angle_alpha   101.16276756
_cell_angle_beta   91.92009687
_cell_angle_gamma   90.09071439
_symmetry_Int_Tables_number   1
_chemical_formula_structural   YbBi3Os2O11
_chemical_formula_sum   'Yb2 Bi6 Os4 O22'
_cell_volume   453.78236863
_cell_formula_units_Z   2
loop_
 _symmetry_equiv_pos_site_id
 _symmetry_equiv_pos_as_xyz
  1  'x, y, z'
loop_
 _atom_site_type_symbol
 _atom_site_label
 _atom_site_symmetry_multiplicity
 _atom_site_fract_x
 _atom_site_fract_y
 _atom_site_fract_z
 _atom_site_occupancy
  Yb  Yb0  1  0.738353  0.372721  0.477494  1
  Yb  Yb1  1  0.261647  0.627279  0.522506  1
  Bi  Bi2  1  0.750741  0.869245  0.487151  1
  Bi  Bi3  1  0.249259  0.130755  0.512849  1
  Bi  Bi4  1  0.465657  0.953638  0.825876  1
  Bi  Bi5  1  0.534343  0.046362  0.174124  1
  Bi  Bi6  1  0.396461  0.457233  0.828236  1
  Bi  Bi7  1  0.603539  0.542767  0.171764  1
  Os  Os8  1  0.933004  0.701618  0.806133  1
  Os  Os9  1  0.066996  0.298382  0.193867  1
  Os  Os10  1  0.927783  0.204219  0.811569  1
  Os  Os11  1  0.072217  0.795781  0.188431  1
  O  O12  1  0.230590  0.722624  0.766515  1
  O  O13  1  0.769410  0.277376  0.233485  1
  O  O14  1  0.635322  0.675500  0.831739  1
  O  O15  1  0.364678  0.324500  0.168261  1
  O  O16  1  0.636002  0.246957  0.859229  1
  O  O17  1  0.363998  0.753043  0.140771  1
  O  O18  1  0.878548  0.187477  0.615346  1
  O  O19  1  0.121452  0.812523  0.384654  1
  O  O20  1  0.221122  0.155934  0.762792  1
  O  O21  1  0.778878  0.844066  0.237208  1
  O  O22  1  0.901728  0.628989  0.607187  1
  O  O23  1  0.098272  0.371011  0.392813  1
  O  O24  1  0.009351  0.541456  0.168668  1
  O  O25  1  0.990649  0.458544  0.831332  1
  O  O26  1  0.995552  0.782175  0.997663  1
  O  O27  1  0.004448  0.217825  0.002337  1
  O  O28  1  0.572458  0.610620  0.394363  1
  O  O29  1  0.427542  0.389380  0.605637  1
  O  O30  1  0.153462  0.053096  0.216039  1
  O  O31  1  0.846538  0.946904  0.783961  1
  O  O32  1  0.544976  0.092784  0.398125  1
  O  O33  1  0.455024  0.907216  0.601875  1
