# generated using pymatgen
data_Nd4Ho2Si3Ag
_symmetry_space_group_name_H-M   'P 1'
_cell_length_a   7.69639008
_cell_length_b   7.69639008
_cell_length_c   4.42189800
_cell_angle_alpha   90.00000000
_cell_angle_beta   90.00000000
_cell_angle_gamma   88.04758529
_symmetry_Int_Tables_number   1
_chemical_formula_structural   Nd4Ho2Si3Ag
_chemical_formula_sum   'Nd4 Ho2 Si3 Ag1'
_cell_volume   261.77650654
_cell_formula_units_Z   1
loop_
 _symmetry_equiv_pos_site_id
 _symmetry_equiv_pos_as_xyz
  1  'x, y, z'
loop_
 _atom_site_type_symbol
 _atom_site_label
 _atom_site_symmetry_multiplicity
 _atom_site_fract_x
 _atom_site_fract_y
 _atom_site_fract_z
 _atom_site_occupancy
  Nd  Nd0  1  0.674856  0.174856  0.500000  1
  Nd  Nd1  1  0.337734  0.837734  0.500000  1
  Nd  Nd2  1  0.174995  0.312749  0.500000  1
  Nd  Nd3  1  0.812749  0.674995  0.500000  1
  Ho  Ho4  1  0.006644  0.002561  0.000000  1
  Ho  Ho5  1  0.502561  0.506644  0.000000  1
  Si  Si6  1  0.870503  0.370503  0.000000  1
  Si  Si7  1  0.618279  0.886327  0.000000  1
  Si  Si8  1  0.386327  0.118279  0.000000  1
  Ag  Ag9  1  0.115351  0.615351  0.000000  1
