# generated using pymatgen
data_Tb17Mg(InIr6)2
_symmetry_space_group_name_H-M   'P 1'
_cell_length_a   10.81825100
_cell_length_b   10.81825100
_cell_length_c   6.32596200
_cell_angle_alpha   90.00000000
_cell_angle_beta   90.00000000
_cell_angle_gamma   90.00000000
_symmetry_Int_Tables_number   1
_chemical_formula_structural   Tb17Mg(InIr6)2
_chemical_formula_sum   'Tb17 Mg1 In2 Ir12'
_cell_volume   740.35614571
_cell_formula_units_Z   1
loop_
 _symmetry_equiv_pos_site_id
 _symmetry_equiv_pos_as_xyz
  1  'x, y, z'
loop_
 _atom_site_type_symbol
 _atom_site_label
 _atom_site_symmetry_multiplicity
 _atom_site_fract_x
 _atom_site_fract_y
 _atom_site_fract_z
 _atom_site_occupancy
  Tb  Tb0  1  0.284921  0.086912  0.382345  1
  Tb  Tb1  1  0.285186  0.914904  0.879484  1
  Tb  Tb2  1  0.714814  0.085096  0.879484  1
  Tb  Tb3  1  0.715079  0.913088  0.382345  1
  Tb  Tb4  1  0.586020  0.785868  0.879300  1
  Tb  Tb5  1  0.590644  0.206487  0.379196  1
  Tb  Tb6  1  0.409356  0.793513  0.379196  1
  Tb  Tb7  1  0.413980  0.214132  0.879300  1
  Tb  Tb8  1  0.206487  0.409356  0.620804  1
  Tb  Tb9  1  0.214132  0.586020  0.120700  1
  Tb  Tb10  1  0.785868  0.413980  0.120700  1
  Tb  Tb11  1  0.793513  0.590644  0.620804  1
  Tb  Tb12  1  0.914904  0.714814  0.120516  1
  Tb  Tb13  1  0.913088  0.284921  0.617655  1
  Tb  Tb14  1  0.086912  0.715079  0.617655  1
  Tb  Tb15  1  0.085096  0.285186  0.120516  1
  Tb  Tb16  1  0.500000  0.500000  0.500000  1
  Mg  Mg17  1  0.000000  0.000000  0.000000  1
  In  In18  1  0.000000  0.000000  0.500000  1
  In  In19  1  0.500000  0.500000  0.000000  1
  Ir  Ir20  1  0.847734  0.153784  0.244785  1
  Ir  Ir21  1  0.846216  0.847734  0.755215  1
  Ir  Ir22  1  0.153784  0.152266  0.755215  1
  Ir  Ir23  1  0.152266  0.846216  0.244785  1
  Ir  Ir24  1  0.657388  0.345190  0.745157  1
  Ir  Ir25  1  0.654810  0.657388  0.254843  1
  Ir  Ir26  1  0.345190  0.342612  0.254843  1
  Ir  Ir27  1  0.342612  0.654810  0.745157  1
  Ir  Ir28  1  0.500000  0.000000  0.119110  1
  Ir  Ir29  1  0.500000  0.000000  0.624303  1
  Ir  Ir30  1  0.000000  0.500000  0.880890  1
  Ir  Ir31  1  0.000000  0.500000  0.375697  1
