# generated using pymatgen
data_Er4Tm6Ru3Rh
_symmetry_space_group_name_H-M   'P 1'
_cell_length_a   6.26026277
_cell_length_b   7.25802190
_cell_length_c   8.35839637
_cell_angle_alpha   96.85298285
_cell_angle_beta   111.91536090
_cell_angle_gamma   90.06077010
_symmetry_Int_Tables_number   1
_chemical_formula_structural   Er4Tm6Ru3Rh
_chemical_formula_sum   'Er4 Tm6 Ru3 Rh1'
_cell_volume   349.39095263
_cell_formula_units_Z   1
loop_
 _symmetry_equiv_pos_site_id
 _symmetry_equiv_pos_as_xyz
  1  'x, y, z'
loop_
 _atom_site_type_symbol
 _atom_site_label
 _atom_site_symmetry_multiplicity
 _atom_site_fract_x
 _atom_site_fract_y
 _atom_site_fract_z
 _atom_site_occupancy
  Er  Er0  1  0.792235  0.081843  0.814437  1
  Er  Er1  1  0.979135  0.415382  0.188645  1
  Er  Er2  1  0.209025  0.915824  0.186278  1
  Er  Er3  1  0.024603  0.585582  0.814275  1
  Tm  Tm4  1  0.203264  0.182920  0.563777  1
  Tm  Tm5  1  0.642132  0.315295  0.432850  1
  Tm  Tm6  1  0.793624  0.815461  0.434850  1
  Tm  Tm7  1  0.357363  0.686095  0.563819  1
  Tm  Tm8  1  0.418666  0.249134  0.000949  1
  Tm  Tm9  1  0.580759  0.751972  0.001123  1
  Ru  Ru10  1  0.823093  0.077004  0.219664  1
  Ru  Ru11  1  0.396791  0.575795  0.220626  1
  Ru  Ru12  1  0.177982  0.923966  0.779597  1
  Rh  Rh13  1  0.601326  0.423726  0.779110  1
