# generated using pymatgen
data_Er3Co7(NiAs3)2
_symmetry_space_group_name_H-M   'P 1'
_cell_length_a   3.81464300
_cell_length_b   10.78819100
_cell_length_c   12.68472700
_cell_angle_alpha   90.00000000
_cell_angle_beta   90.00000000
_cell_angle_gamma   90.00000000
_symmetry_Int_Tables_number   1
_chemical_formula_structural   Er3Co7(NiAs3)2
_chemical_formula_sum   'Er6 Co14 Ni4 As12'
_cell_volume   522.01580421
_cell_formula_units_Z   2
loop_
 _symmetry_equiv_pos_site_id
 _symmetry_equiv_pos_as_xyz
  1  'x, y, z'
loop_
 _atom_site_type_symbol
 _atom_site_label
 _atom_site_symmetry_multiplicity
 _atom_site_fract_x
 _atom_site_fract_y
 _atom_site_fract_z
 _atom_site_occupancy
  Er  Er0  1  0.000000  0.500000  0.522120  1
  Er  Er1  1  0.500000  0.000000  0.477880  1
  Er  Er2  1  0.500000  0.814652  0.206364  1
  Er  Er3  1  0.500000  0.185348  0.206364  1
  Er  Er4  1  0.000000  0.685348  0.793636  1
  Er  Er5  1  0.000000  0.314652  0.793636  1
  Co  Co6  1  0.000000  0.500000  0.981414  1
  Co  Co7  1  0.500000  0.000000  0.018586  1
  Co  Co8  1  0.500000  0.334091  0.996345  1
  Co  Co9  1  0.500000  0.665909  0.996345  1
  Co  Co10  1  0.000000  0.165909  0.003655  1
  Co  Co11  1  0.000000  0.834091  0.003655  1
  Co  Co12  1  0.500000  0.300081  0.429647  1
  Co  Co13  1  0.500000  0.699919  0.429647  1
  Co  Co14  1  0.000000  0.199919  0.570353  1
  Co  Co15  1  0.000000  0.800081  0.570353  1
  Co  Co16  1  0.500000  0.880593  0.709251  1
  Co  Co17  1  0.500000  0.119407  0.709251  1
  Co  Co18  1  0.000000  0.619407  0.290749  1
  Co  Co19  1  0.000000  0.380593  0.290749  1
  Ni  Ni20  1  0.500000  0.500000  0.160490  1
  Ni  Ni21  1  0.000000  0.000000  0.839510  1
  Ni  Ni22  1  0.500000  0.500000  0.701057  1
  Ni  Ni23  1  0.000000  0.000000  0.298943  1
  As  As24  1  0.500000  0.500000  0.878875  1
  As  As25  1  0.000000  0.000000  0.121125  1
  As  As26  1  0.500000  0.500000  0.349205  1
  As  As27  1  0.000000  0.000000  0.650795  1
  As  As28  1  0.500000  0.312360  0.614987  1
  As  As29  1  0.500000  0.687640  0.614987  1
  As  As30  1  0.000000  0.187640  0.385013  1
  As  As31  1  0.000000  0.812360  0.385013  1
  As  As32  1  0.500000  0.846792  0.892574  1
  As  As33  1  0.500000  0.153208  0.892574  1
  As  As34  1  0.000000  0.653208  0.107426  1
  As  As35  1  0.000000  0.346792  0.107426  1
