# generated using pymatgen
data_Dy9HoGa3CoBi2
_symmetry_space_group_name_H-M   'P 1'
_cell_length_a   8.61021737
_cell_length_b   8.61021807
_cell_length_c   8.78515149
_cell_angle_alpha   124.83383351
_cell_angle_beta   124.85619994
_cell_angle_gamma   80.44852217
_symmetry_Int_Tables_number   1
_chemical_formula_structural   Dy9HoGa3CoBi2
_chemical_formula_sum   'Dy9 Ho1 Ga3 Co1 Bi2'
_cell_volume   426.03984725
_cell_formula_units_Z   1
loop_
 _symmetry_equiv_pos_site_id
 _symmetry_equiv_pos_as_xyz
  1  'x, y, z'
loop_
 _atom_site_type_symbol
 _atom_site_label
 _atom_site_symmetry_multiplicity
 _atom_site_fract_x
 _atom_site_fract_y
 _atom_site_fract_z
 _atom_site_occupancy
  Dy  Dy0  1  0.703395  0.516929  0.499848  1
  Dy  Dy1  1  0.480905  0.000355  0.203297  1
  Dy  Dy2  1  0.777387  0.297298  0.796698  1
  Dy  Dy3  1  0.499400  0.019311  0.796698  1
  Dy  Dy4  1  0.997133  0.998138  0.995271  1
  Dy  Dy5  1  0.048092  0.191247  0.500234  1
  Dy  Dy6  1  0.308987  0.452142  0.500234  1
  Dy  Dy7  1  0.202941  0.722392  0.203297  1
  Dy  Dy8  1  0.982919  0.796453  0.499848  1
  Ho  Ho9  1  0.501701  0.502688  0.004390  1
  Ga  Ga10  1  0.141715  0.641907  0.783621  1
  Ga  Ga11  1  0.857667  0.358728  0.216396  1
  Ga  Ga12  1  0.632409  0.867173  0.499582  1
  Co  Co13  1  0.378946  0.121621  0.500567  1
  Bi  Bi14  1  0.243439  0.257047  0.000010  1
  Bi  Bi15  1  0.742964  0.756571  0.000010  1
