# generated using pymatgen
data_K4AlIn3I16
_symmetry_space_group_name_H-M   'P 1'
_cell_length_a   8.32921351
_cell_length_b   8.58975875
_cell_length_c   16.88633723
_cell_angle_alpha   85.10592072
_cell_angle_beta   89.79186204
_cell_angle_gamma   89.98928406
_symmetry_Int_Tables_number   1
_chemical_formula_structural   K4AlIn3I16
_chemical_formula_sum   'K4 Al1 In3 I16'
_cell_volume   1203.73605927
_cell_formula_units_Z   1
loop_
 _symmetry_equiv_pos_site_id
 _symmetry_equiv_pos_as_xyz
  1  'x, y, z'
loop_
 _atom_site_type_symbol
 _atom_site_label
 _atom_site_symmetry_multiplicity
 _atom_site_fract_x
 _atom_site_fract_y
 _atom_site_fract_z
 _atom_site_occupancy
  K  K0  1  0.501216  0.256363  0.639491  1
  K  K1  1  0.002349  0.743132  0.861007  1
  K  K2  1  0.498276  0.743665  0.361320  1
  K  K3  1  0.998635  0.255840  0.138126  1
  Al  Al4  1  0.140982  0.244603  0.860957  1
  In  In5  1  0.358455  0.243242  0.361234  1
  In  In6  1  0.858556  0.756567  0.138772  1
  In  In7  1  0.641708  0.756944  0.638803  1
  I  I8  1  0.865855  0.136718  0.907882  1
  I  I9  1  0.345878  0.872127  0.589101  1
  I  I10  1  0.154254  0.870946  0.088154  1
  I  I11  1  0.653672  0.127699  0.411421  1
  I  I12  1  0.387574  0.425264  0.218260  1
  I  I13  1  0.887447  0.574541  0.281440  1
  I  I14  1  0.611516  0.575321  0.781500  1
  I  I15  1  0.112899  0.412744  0.727852  1
  I  I16  1  0.648064  0.997233  0.161779  1
  I  I17  1  0.148094  0.003153  0.337951  1
  I  I18  1  0.338508  0.021310  0.839947  1
  I  I19  1  0.851686  0.997015  0.662123  1
  I  I20  1  0.244333  0.432598  0.473517  1
  I  I21  1  0.744377  0.567572  0.026793  1
  I  I22  1  0.755818  0.566914  0.526946  1
  I  I23  1  0.249849  0.418493  0.965627  1
