# generated using pymatgen
data_Y5Ho2Er9(In3Co)2
_symmetry_space_group_name_H-M   'P 1'
_cell_length_a   10.29961805
_cell_length_b   10.31131109
_cell_length_c   7.00713002
_cell_angle_alpha   89.87671134
_cell_angle_beta   90.02557121
_cell_angle_gamma   119.99905764
_symmetry_Int_Tables_number   1
_chemical_formula_structural   Y5Ho2Er9(In3Co)2
_chemical_formula_sum   'Y5 Ho2 Er9 In6 Co2'
_cell_volume   644.47907425
_cell_formula_units_Z   1
loop_
 _symmetry_equiv_pos_site_id
 _symmetry_equiv_pos_as_xyz
  1  'x, y, z'
loop_
 _atom_site_type_symbol
 _atom_site_label
 _atom_site_symmetry_multiplicity
 _atom_site_fract_x
 _atom_site_fract_y
 _atom_site_fract_z
 _atom_site_occupancy
  Y  Y0  1  0.535646  0.465293  0.513200  1
  Y  Y1  1  0.465931  0.931813  0.012891  1
  Y  Y2  1  0.069237  0.535805  0.014114  1
  Y  Y3  1  0.466391  0.536035  0.014004  1
  Y  Y4  1  0.176596  0.354089  0.720694  1
  Ho  Ho5  1  0.535333  0.070631  0.512587  1
  Ho  Ho6  1  0.928226  0.464544  0.512901  1
  Er  Er7  1  0.643272  0.821871  0.718635  1
  Er  Er8  1  0.178294  0.821251  0.718187  1
  Er  Er9  1  0.822039  0.643398  0.219454  1
  Er  Er10  1  0.356532  0.178378  0.220278  1
  Er  Er11  1  0.822359  0.178517  0.220878  1
  Er  Er12  1  0.667039  0.333495  0.905633  1
  Er  Er13  1  0.333375  0.667691  0.405615  1
  Er  Er14  1  0.999243  0.998426  0.500463  1
  Er  Er15  1  0.999109  0.998324  0.001569  1
  In  In16  1  0.837238  0.674448  0.762851  1
  In  In17  1  0.326676  0.161319  0.763223  1
  In  In18  1  0.834508  0.161483  0.763234  1
  In  In19  1  0.163137  0.325812  0.261597  1
  In  In20  1  0.674864  0.837417  0.262151  1
  In  In21  1  0.162745  0.837662  0.262062  1
  Co  Co22  1  0.667545  0.333063  0.286447  1
  Co  Co23  1  0.334665  0.669238  0.785337  1
