# generated using pymatgen
data_Nd8Zn4Si11Au
_symmetry_space_group_name_H-M   'P 1'
_cell_length_a   8.30740001
_cell_length_b   8.30740005
_cell_length_c   8.48856300
_cell_angle_alpha   90.00310363
_cell_angle_beta   89.99689637
_cell_angle_gamma   119.92347225
_symmetry_Int_Tables_number   1
_chemical_formula_structural   Nd8Zn4Si11Au
_chemical_formula_sum   'Nd8 Zn4 Si11 Au1'
_cell_volume   507.72604532
_cell_formula_units_Z   1
loop_
 _symmetry_equiv_pos_site_id
 _symmetry_equiv_pos_as_xyz
  1  'x, y, z'
loop_
 _atom_site_type_symbol
 _atom_site_label
 _atom_site_symmetry_multiplicity
 _atom_site_fract_x
 _atom_site_fract_y
 _atom_site_fract_z
 _atom_site_occupancy
  Nd  Nd0  1  0.002115  0.997881  0.746013  1
  Nd  Nd1  1  0.002054  0.997943  0.253920  1
  Nd  Nd2  1  0.498769  0.501242  0.750034  1
  Nd  Nd3  1  0.496156  0.998930  0.749083  1
  Nd  Nd4  1  0.001067  0.503843  0.749080  1
  Nd  Nd5  1  0.499594  0.500411  0.250015  1
  Nd  Nd6  1  0.999540  0.503060  0.250917  1
  Nd  Nd7  1  0.496938  0.000461  0.250922  1
  Zn  Zn8  1  0.663855  0.336142  0.997480  1
  Zn  Zn9  1  0.666787  0.333197  0.502348  1
  Zn  Zn10  1  0.334221  0.665787  0.497931  1
  Zn  Zn11  1  0.335088  0.664919  0.002121  1
  Si  Si12  1  0.830970  0.666788  0.000077  1
  Si  Si13  1  0.333212  0.169032  0.000078  1
  Si  Si14  1  0.833932  0.166069  0.499977  1
  Si  Si15  1  0.832907  0.666994  0.499985  1
  Si  Si16  1  0.332991  0.167088  0.499986  1
  Si  Si17  1  0.166546  0.833449  0.499904  1
  Si  Si18  1  0.667217  0.833736  0.499995  1
  Si  Si19  1  0.166266  0.332790  0.499995  1
  Si  Si20  1  0.165801  0.834198  0.000016  1
  Si  Si21  1  0.666790  0.829934  0.000105  1
  Si  Si22  1  0.170071  0.333215  0.000104  1
  Au  Au23  1  0.837115  0.162890  0.999914  1
