# generated using pymatgen
data_Pr3NdIrPb2Au3
_symmetry_space_group_name_H-M   'P 1'
_cell_length_a   3.76798400
_cell_length_b   8.36576450
_cell_length_c   8.36576444
_cell_angle_alpha   89.82784064
_cell_angle_beta   90.00000000
_cell_angle_gamma   90.00000000
_symmetry_Int_Tables_number   1
_chemical_formula_structural   Pr3NdIrPb2Au3
_chemical_formula_sum   'Pr3 Nd1 Ir1 Pb2 Au3'
_cell_volume   263.70499492
_cell_formula_units_Z   1
loop_
 _symmetry_equiv_pos_site_id
 _symmetry_equiv_pos_as_xyz
  1  'x, y, z'
loop_
 _atom_site_type_symbol
 _atom_site_label
 _atom_site_symmetry_multiplicity
 _atom_site_fract_x
 _atom_site_fract_y
 _atom_site_fract_z
 _atom_site_occupancy
  Pr  Pr0  1  0.500000  0.168144  0.668144  1
  Pr  Pr1  1  0.500000  0.350605  0.177416  1
  Pr  Pr2  1  0.500000  0.677416  0.850605  1
  Nd  Nd3  1  0.500000  0.812581  0.312581  1
  Ir  Ir4  1  0.000000  0.623025  0.123025  1
  Pb  Pb5  1  0.000000  0.999986  0.004434  1
  Pb  Pb6  1  0.000000  0.504434  0.499986  1
  Au  Au7  1  0.000000  0.374423  0.874423  1
  Au  Au8  1  0.000000  0.870678  0.618708  1
  Au  Au9  1  0.000000  0.118708  0.370678  1
