# generated using pymatgen
data_GaMo6Ir3N2
_symmetry_space_group_name_H-M   'P 1'
_cell_length_a   6.87128800
_cell_length_b   6.87288931
_cell_length_c   6.84370632
_cell_angle_alpha   88.95676485
_cell_angle_beta   90.00000000
_cell_angle_gamma   90.00000000
_symmetry_Int_Tables_number   1
_chemical_formula_structural   GaMo6Ir3N2
_chemical_formula_sum   'Ga2 Mo12 Ir6 N4'
_cell_volume   323.14457672
_cell_formula_units_Z   2
loop_
 _symmetry_equiv_pos_site_id
 _symmetry_equiv_pos_as_xyz
  1  'x, y, z'
loop_
 _atom_site_type_symbol
 _atom_site_label
 _atom_site_symmetry_multiplicity
 _atom_site_fract_x
 _atom_site_fract_y
 _atom_site_fract_z
 _atom_site_occupancy
  Ga  Ga0  1  0.687252  0.180835  0.935725  1
  Ga  Ga1  1  0.187252  0.819165  0.064275  1
  Mo  Mo2  1  0.621784  0.044355  0.548468  1
  Mo  Mo3  1  0.121784  0.955645  0.451532  1
  Mo  Mo4  1  0.869205  0.544346  0.946705  1
  Mo  Mo5  1  0.369205  0.455654  0.053295  1
  Mo  Mo6  1  0.199509  0.624893  0.697090  1
  Mo  Mo7  1  0.299328  0.121678  0.788986  1
  Mo  Mo8  1  0.799328  0.878322  0.211014  1
  Mo  Mo9  1  0.699509  0.375107  0.302910  1
  Mo  Mo10  1  0.052405  0.212597  0.131647  1
  Mo  Mo11  1  0.960491  0.306507  0.622647  1
  Mo  Mo12  1  0.552405  0.787403  0.868353  1
  Mo  Mo13  1  0.460491  0.693493  0.377353  1
  Ir  Ir14  1  0.811706  0.690218  0.565179  1
  Ir  Ir15  1  0.311706  0.309782  0.434821  1
  Ir  Ir16  1  0.058796  0.566711  0.304770  1
  Ir  Ir17  1  0.437182  0.061673  0.179072  1
  Ir  Ir18  1  0.558796  0.433289  0.695230  1
  Ir  Ir19  1  0.937182  0.938327  0.820928  1
  N  N20  1  0.375070  0.872434  0.621129  1
  N  N21  1  0.875070  0.127566  0.378871  1
  N  N22  1  0.127273  0.376280  0.872824  1
  N  N23  1  0.627273  0.623720  0.127176  1
