# generated using pymatgen
data_ZrSc2BC3
_symmetry_space_group_name_H-M   'P 1'
_cell_length_a   3.34901794
_cell_length_b   3.34901758
_cell_length_c   15.35748900
_cell_angle_alpha   90.00000000
_cell_angle_beta   90.00000000
_cell_angle_gamma   90.03864760
_symmetry_Int_Tables_number   1
_chemical_formula_structural   ZrSc2BC3
_chemical_formula_sum   'Zr2 Sc4 B2 C6'
_cell_volume   172.24832822
_cell_formula_units_Z   2
loop_
 _symmetry_equiv_pos_site_id
 _symmetry_equiv_pos_as_xyz
  1  'x, y, z'
loop_
 _atom_site_type_symbol
 _atom_site_label
 _atom_site_symmetry_multiplicity
 _atom_site_fract_x
 _atom_site_fract_y
 _atom_site_fract_z
 _atom_site_occupancy
  Zr  Zr0  1  0.023585  0.976416  0.250000  1
  Zr  Zr1  1  0.976416  0.023585  0.750000  1
  Sc  Sc2  1  0.521999  0.478002  0.105257  1
  Sc  Sc3  1  0.521999  0.478002  0.394743  1
  Sc  Sc4  1  0.478002  0.521999  0.605257  1
  Sc  Sc5  1  0.478002  0.521999  0.894743  1
  B  B6  1  0.000000  0.000000  0.000000  1
  B  B7  1  0.000000  0.000000  0.500000  1
  C  C8  1  0.020540  0.979461  0.095856  1
  C  C9  1  0.523833  0.476168  0.250000  1
  C  C10  1  0.020540  0.979461  0.404144  1
  C  C11  1  0.979461  0.020540  0.595855  1
  C  C12  1  0.476168  0.523833  0.750000  1
  C  C13  1  0.979461  0.020540  0.904145  1
