# generated using pymatgen
data_YbAl5Ir
_symmetry_space_group_name_H-M   'P 1'
_cell_length_a   7.64002108
_cell_length_b   7.64002223
_cell_length_c   9.52824100
_cell_angle_alpha   90.00000000
_cell_angle_beta   90.00000000
_cell_angle_gamma   118.88205610
_symmetry_Int_Tables_number   1
_chemical_formula_structural   YbAl5Ir
_chemical_formula_sum   'Yb4 Al20 Ir4'
_cell_volume   486.98492884
_cell_formula_units_Z   4
loop_
 _symmetry_equiv_pos_site_id
 _symmetry_equiv_pos_as_xyz
  1  'x, y, z'
loop_
 _atom_site_type_symbol
 _atom_site_label
 _atom_site_symmetry_multiplicity
 _atom_site_fract_x
 _atom_site_fract_y
 _atom_site_fract_z
 _atom_site_occupancy
  Yb  Yb0  1  0.999542  0.687536  0.250000  1
  Yb  Yb1  1  0.000458  0.312464  0.750000  1
  Yb  Yb2  1  0.687536  0.999542  0.250000  1
  Yb  Yb3  1  0.312464  0.000458  0.750000  1
  Al  Al4  1  0.153888  0.153888  0.250000  1
  Al  Al5  1  0.846112  0.846112  0.750000  1
  Al  Al6  1  0.002797  0.352199  0.079796  1
  Al  Al7  1  0.997203  0.647801  0.920204  1
  Al  Al8  1  0.997203  0.647801  0.579796  1
  Al  Al9  1  0.352199  0.002797  0.420204  1
  Al  Al10  1  0.002797  0.352199  0.420204  1
  Al  Al11  1  0.647801  0.997203  0.579796  1
  Al  Al12  1  0.647801  0.997203  0.920204  1
  Al  Al13  1  0.352199  0.002797  0.079796  1
  Al  Al14  1  0.345303  0.345303  0.560718  1
  Al  Al15  1  0.654697  0.654697  0.439282  1
  Al  Al16  1  0.654697  0.654697  0.060718  1
  Al  Al17  1  0.345303  0.345303  0.939282  1
  Al  Al18  1  0.341623  0.560439  0.250000  1
  Al  Al19  1  0.658377  0.439561  0.750000  1
  Al  Al20  1  0.560439  0.341623  0.250000  1
  Al  Al21  1  0.439561  0.658377  0.750000  1
  Al  Al22  1  0.000000  0.000000  0.000000  1
  Al  Al23  1  0.000000  0.000000  0.500000  1
  Ir  Ir24  1  0.671945  0.328055  0.000000  1
  Ir  Ir25  1  0.328055  0.671945  0.000000  1
  Ir  Ir26  1  0.328055  0.671945  0.500000  1
  Ir  Ir27  1  0.671945  0.328055  0.500000  1
