# generated using pymatgen
data_DyTm3Al14(Ga2Ir3)2
_symmetry_space_group_name_H-M   'P 1'
_cell_length_a   7.51451404
_cell_length_b   7.51556850
_cell_length_c   9.50892500
_cell_angle_alpha   90.00000000
_cell_angle_beta   90.00000000
_cell_angle_gamma   119.54411598
_symmetry_Int_Tables_number   1
_chemical_formula_structural   DyTm3Al14(Ga2Ir3)2
_chemical_formula_sum   'Dy1 Tm3 Al14 Ga4 Ir6'
_cell_volume   467.19864569
_cell_formula_units_Z   1
loop_
 _symmetry_equiv_pos_site_id
 _symmetry_equiv_pos_as_xyz
  1  'x, y, z'
loop_
 _atom_site_type_symbol
 _atom_site_label
 _atom_site_symmetry_multiplicity
 _atom_site_fract_x
 _atom_site_fract_y
 _atom_site_fract_z
 _atom_site_occupancy
  Dy  Dy0  1  0.997296  0.673037  0.250000  1
  Tm  Tm1  1  0.002771  0.326905  0.750000  1
  Tm  Tm2  1  0.670188  0.993697  0.250000  1
  Tm  Tm3  1  0.329788  0.006406  0.750000  1
  Al  Al4  1  0.001003  0.334497  0.073112  1
  Al  Al5  1  0.998971  0.665102  0.926251  1
  Al  Al6  1  0.998971  0.665102  0.573749  1
  Al  Al7  1  0.335693  0.001916  0.426843  1
  Al  Al8  1  0.001003  0.334497  0.426888  1
  Al  Al9  1  0.664731  0.998471  0.573447  1
  Al  Al10  1  0.664731  0.998471  0.926553  1
  Al  Al11  1  0.335693  0.001916  0.073157  1
  Al  Al12  1  0.333556  0.333832  0.555707  1
  Al  Al13  1  0.666072  0.666166  0.444620  1
  Al  Al14  1  0.666072  0.666166  0.055380  1
  Al  Al15  1  0.333556  0.333832  0.944293  1
  Al  Al16  1  0.548823  0.338295  0.250000  1
  Al  Al17  1  0.450636  0.661295  0.750000  1
  Ga  Ga18  1  0.129866  0.130772  0.250000  1
  Ga  Ga19  1  0.870323  0.869745  0.750000  1
  Ga  Ga20  1  0.338704  0.546530  0.250000  1
  Ga  Ga21  1  0.661513  0.453247  0.750000  1
  Ir  Ir22  1  0.671404  0.327543  0.002300  1
  Ir  Ir23  1  0.328522  0.672202  0.997273  1
  Ir  Ir24  1  0.328522  0.672202  0.502727  1
  Ir  Ir25  1  0.671404  0.327543  0.497700  1
  Ir  Ir26  1  0.000094  0.000307  0.999771  1
  Ir  Ir27  1  0.000094  0.000307  0.500229  1
