# generated using pymatgen
data_CeHo2Ga8Ag3
_symmetry_space_group_name_H-M   'P 1'
_cell_length_a   4.44144652
_cell_length_b   8.42285653
_cell_length_c   8.47294634
_cell_angle_alpha   69.38562752
_cell_angle_beta   74.80553485
_cell_angle_gamma   74.71297776
_symmetry_Int_Tables_number   1
_chemical_formula_structural   CeHo2Ga8Ag3
_chemical_formula_sum   'Ce1 Ho2 Ga8 Ag3'
_cell_volume   281.10317538
_cell_formula_units_Z   1
loop_
 _symmetry_equiv_pos_site_id
 _symmetry_equiv_pos_as_xyz
  1  'x, y, z'
loop_
 _atom_site_type_symbol
 _atom_site_label
 _atom_site_symmetry_multiplicity
 _atom_site_fract_x
 _atom_site_fract_y
 _atom_site_fract_z
 _atom_site_occupancy
  Ce  Ce0  1  0.500000  0.500000  0.500000  1
  Ho  Ho1  1  0.201352  0.798652  0.798643  1
  Ho  Ho2  1  0.798648  0.201348  0.201357  1
  Ga  Ga3  1  0.355310  0.363069  0.926310  1
  Ga  Ga4  1  0.644690  0.636931  0.073690  1
  Ga  Ga5  1  0.355423  0.925693  0.363461  1
  Ga  Ga6  1  0.644577  0.074307  0.636539  1
  Ga  Ga7  1  0.159830  0.472013  0.208325  1
  Ga  Ga8  1  0.840170  0.527987  0.791675  1
  Ga  Ga9  1  0.159806  0.208624  0.471763  1
  Ga  Ga10  1  0.840194  0.791376  0.528237  1
  Ag  Ag11  1  0.500000  0.000000  0.000000  1
  Ag  Ag12  1  0.999864  0.809080  0.191192  1
  Ag  Ag13  1  0.000136  0.190920  0.808808  1
