# generated using pymatgen
data_HfTi3(InCu2)2
_symmetry_space_group_name_H-M   'P 1'
_cell_length_a   7.03832731
_cell_length_b   7.03832731
_cell_length_c   6.54520100
_cell_angle_alpha   90.00000000
_cell_angle_beta   90.00000000
_cell_angle_gamma   90.34722709
_symmetry_Int_Tables_number   1
_chemical_formula_structural   HfTi3(InCu2)2
_chemical_formula_sum   'Hf2 Ti6 In4 Cu8'
_cell_volume   324.23054917
_cell_formula_units_Z   2
loop_
 _symmetry_equiv_pos_site_id
 _symmetry_equiv_pos_as_xyz
  1  'x, y, z'
loop_
 _atom_site_type_symbol
 _atom_site_label
 _atom_site_symmetry_multiplicity
 _atom_site_fract_x
 _atom_site_fract_y
 _atom_site_fract_z
 _atom_site_occupancy
  Hf  Hf0  1  0.648713  0.351287  0.500000  1
  Hf  Hf1  1  0.351287  0.648713  0.500000  1
  Ti  Ti2  1  0.144062  0.144062  0.000000  1
  Ti  Ti3  1  0.855938  0.855938  0.000000  1
  Ti  Ti4  1  0.693851  0.306149  0.000000  1
  Ti  Ti5  1  0.306149  0.693851  0.000000  1
  Ti  Ti6  1  0.807757  0.807757  0.500000  1
  Ti  Ti7  1  0.192243  0.192243  0.500000  1
  In  In8  1  0.500000  0.000000  0.245381  1
  In  In9  1  0.500000  0.000000  0.754619  1
  In  In10  1  0.000000  0.500000  0.245381  1
  In  In11  1  0.000000  0.500000  0.754619  1
  Cu  Cu12  1  0.373755  0.373755  0.196999  1
  Cu  Cu13  1  0.626245  0.626245  0.803001  1
  Cu  Cu14  1  0.626245  0.626245  0.196999  1
  Cu  Cu15  1  0.877843  0.122157  0.704829  1
  Cu  Cu16  1  0.877843  0.122157  0.295171  1
  Cu  Cu17  1  0.373755  0.373755  0.803001  1
  Cu  Cu18  1  0.122157  0.877843  0.295171  1
  Cu  Cu19  1  0.122157  0.877843  0.704829  1
