# generated using pymatgen
data_Tm5B(WC3)2
_symmetry_space_group_name_H-M   'P 1'
_cell_length_a   8.31646494
_cell_length_b   8.31646417
_cell_length_c   3.38012000
_cell_angle_alpha   90.00000000
_cell_angle_beta   90.00000000
_cell_angle_gamma   121.95121362
_symmetry_Int_Tables_number   1
_chemical_formula_structural   Tm5B(WC3)2
_chemical_formula_sum   'Tm5 B1 W2 C6'
_cell_volume   198.36312353
_cell_formula_units_Z   1
loop_
 _symmetry_equiv_pos_site_id
 _symmetry_equiv_pos_as_xyz
  1  'x, y, z'
loop_
 _atom_site_type_symbol
 _atom_site_label
 _atom_site_symmetry_multiplicity
 _atom_site_fract_x
 _atom_site_fract_y
 _atom_site_fract_z
 _atom_site_occupancy
  Tm  Tm0  1  0.500000  0.500000  0.000000  1
  Tm  Tm1  1  0.078660  0.327972  0.500000  1
  Tm  Tm2  1  0.921340  0.672028  0.500000  1
  Tm  Tm3  1  0.672028  0.921340  0.500000  1
  Tm  Tm4  1  0.327972  0.078660  0.500000  1
  B  B5  1  0.000000  0.000000  0.000000  1
  W  W6  1  0.713147  0.286853  0.000000  1
  W  W7  1  0.286853  0.713147  0.000000  1
  C  C8  1  0.625878  0.374122  0.500000  1
  C  C9  1  0.374122  0.625878  0.500000  1
  C  C10  1  0.183327  0.183327  0.000000  1
  C  C11  1  0.816673  0.816673  0.000000  1
  C  C12  1  0.000000  0.500000  0.000000  1
  C  C13  1  0.500000  0.000000  0.000000  1
