# generated using pymatgen
data_Sc8Ta10NbSi16Ag
_symmetry_space_group_name_H-M   'P 1'
_cell_length_a   6.68236518
_cell_length_b   6.90594103
_cell_length_c   13.14253635
_cell_angle_alpha   90.00674298
_cell_angle_beta   89.97437705
_cell_angle_gamma   90.53163690
_symmetry_Int_Tables_number   1
_chemical_formula_structural   Sc8Ta10NbSi16Ag
_chemical_formula_sum   'Sc8 Ta10 Nb1 Si16 Ag1'
_cell_volume   606.47585534
_cell_formula_units_Z   1
loop_
 _symmetry_equiv_pos_site_id
 _symmetry_equiv_pos_as_xyz
  1  'x, y, z'
loop_
 _atom_site_type_symbol
 _atom_site_label
 _atom_site_symmetry_multiplicity
 _atom_site_fract_x
 _atom_site_fract_y
 _atom_site_fract_z
 _atom_site_occupancy
  Sc  Sc0  1  0.498790  0.675328  0.591883  1
  Sc  Sc1  1  0.003154  0.827926  0.907534  1
  Sc  Sc2  1  0.496636  0.327372  0.095830  1
  Sc  Sc3  1  0.000807  0.172092  0.401650  1
  Sc  Sc4  1  0.496661  0.327431  0.404107  1
  Sc  Sc5  1  0.000921  0.171966  0.098253  1
  Sc  Sc6  1  0.498627  0.675224  0.908114  1
  Sc  Sc7  1  0.003092  0.827682  0.592461  1
  Ta  Ta8  1  0.667053  0.172896  0.625799  1
  Ta  Ta9  1  0.157222  0.322144  0.874543  1
  Ta  Ta10  1  0.337651  0.826246  0.124888  1
  Ta  Ta11  1  0.836928  0.675532  0.375677  1
  Ta  Ta12  1  0.337563  0.826201  0.375065  1
  Ta  Ta13  1  0.836981  0.675451  0.124307  1
  Ta  Ta14  1  0.667587  0.173100  0.874231  1
  Ta  Ta15  1  0.337358  0.000073  0.750192  1
  Ta  Ta16  1  0.162148  0.506475  0.249972  1
  Ta  Ta17  1  0.663121  0.995376  0.249989  1
  Nb  Nb18  1  0.157417  0.322642  0.625504  1
  Si  Si19  1  0.670158  0.968593  0.460318  1
  Si  Si20  1  0.168747  0.532979  0.038806  1
  Si  Si21  1  0.333209  0.034375  0.960211  1
  Si  Si22  1  0.829999  0.458815  0.531771  1
  Si  Si23  1  0.333625  0.034197  0.539826  1
  Si  Si24  1  0.830125  0.458822  0.968264  1
  Si  Si25  1  0.670282  0.968529  0.039700  1
  Si  Si26  1  0.168485  0.532874  0.460986  1
  Si  Si27  1  0.458583  0.378796  0.749969  1
  Si  Si28  1  0.962794  0.105830  0.749923  1
  Si  Si29  1  0.539573  0.613707  0.249996  1
  Si  Si30  1  0.040973  0.886349  0.250003  1
  Si  Si31  1  0.701510  0.869912  0.750027  1
  Si  Si32  1  0.213943  0.632240  0.750167  1
  Si  Si33  1  0.296823  0.138255  0.250019  1
  Si  Si34  1  0.793263  0.363664  0.249985  1
  Ag  Ag35  1  0.828190  0.520912  0.750029  1
