# generated using pymatgen
data_Pr4Nd6OsRu3
_symmetry_space_group_name_H-M   'P 1'
_cell_length_a   8.86018746
_cell_length_b   8.86945528
_cell_length_c   7.43903425
_cell_angle_alpha   83.74604756
_cell_angle_beta   83.78608331
_cell_angle_gamma   43.99735635
_symmetry_Int_Tables_number   1
_chemical_formula_structural   Pr4Nd6OsRu3
_chemical_formula_sum   'Pr4 Nd6 Os1 Ru3'
_cell_volume   403.28100038
_cell_formula_units_Z   1
loop_
 _symmetry_equiv_pos_site_id
 _symmetry_equiv_pos_as_xyz
  1  'x, y, z'
loop_
 _atom_site_type_symbol
 _atom_site_label
 _atom_site_symmetry_multiplicity
 _atom_site_fract_x
 _atom_site_fract_y
 _atom_site_fract_z
 _atom_site_occupancy
  Pr  Pr0  1  0.019033  0.795587  0.915480  1
  Pr  Pr1  1  0.204226  0.979277  0.586363  1
  Pr  Pr2  1  0.980515  0.204469  0.085836  1
  Pr  Pr3  1  0.794596  0.019917  0.414603  1
  Nd  Nd4  1  0.359000  0.208894  0.814116  1
  Nd  Nd5  1  0.794600  0.639956  0.684061  1
  Nd  Nd6  1  0.639314  0.792997  0.184996  1
  Nd  Nd7  1  0.207442  0.358907  0.314768  1
  Nd  Nd8  1  0.574511  0.425146  0.749624  1
  Nd  Nd9  1  0.424398  0.575200  0.251060  1
  Os  Os10  1  0.178129  0.600726  0.574920  1
  Ru  Ru11  1  0.398150  0.824463  0.925298  1
  Ru  Ru12  1  0.825238  0.397674  0.424132  1
  Ru  Ru13  1  0.600847  0.176786  0.074744  1
