# generated using pymatgen
data_Zr4Nb2Fe16Si6As
_symmetry_space_group_name_H-M   'P 1'
_cell_length_a   8.04195195
_cell_length_b   8.07575202
_cell_length_c   8.07575077
_cell_angle_alpha   59.72329534
_cell_angle_beta   60.13835701
_cell_angle_gamma   60.13835589
_symmetry_Int_Tables_number   1
_chemical_formula_structural   Zr4Nb2Fe16Si6As
_chemical_formula_sum   'Zr4 Nb2 Fe16 Si6 As1'
_cell_volume   370.84910299
_cell_formula_units_Z   1
loop_
 _symmetry_equiv_pos_site_id
 _symmetry_equiv_pos_as_xyz
  1  'x, y, z'
loop_
 _atom_site_type_symbol
 _atom_site_label
 _atom_site_symmetry_multiplicity
 _atom_site_fract_x
 _atom_site_fract_y
 _atom_site_fract_z
 _atom_site_occupancy
  Zr  Zr0  1  0.796318  0.203682  0.796318  1
  Zr  Zr1  1  0.796318  0.796318  0.203682  1
  Zr  Zr2  1  0.203682  0.796318  0.203682  1
  Zr  Zr3  1  0.203682  0.203682  0.796318  1
  Nb  Nb4  1  0.210157  0.789843  0.789843  1
  Nb  Nb5  1  0.789843  0.210157  0.210157  1
  Fe  Fe6  1  0.866080  0.375717  0.375717  1
  Fe  Fe7  1  0.624283  0.617515  0.133920  1
  Fe  Fe8  1  0.375717  0.382485  0.866080  1
  Fe  Fe9  1  0.823968  0.526822  0.825244  1
  Fe  Fe10  1  0.825244  0.823968  0.823968  1
  Fe  Fe11  1  0.823968  0.825244  0.526822  1
  Fe  Fe12  1  0.382485  0.375717  0.375717  1
  Fe  Fe13  1  0.133920  0.624283  0.624283  1
  Fe  Fe14  1  0.617515  0.624283  0.624283  1
  Fe  Fe15  1  0.174756  0.176032  0.176032  1
  Fe  Fe16  1  0.176032  0.473178  0.174756  1
  Fe  Fe17  1  0.526822  0.823968  0.823968  1
  Fe  Fe18  1  0.624283  0.133920  0.617515  1
  Fe  Fe19  1  0.176032  0.174756  0.473178  1
  Fe  Fe20  1  0.375717  0.866080  0.382485  1
  Fe  Fe21  1  0.473178  0.176032  0.176032  1
  Si  Si22  1  0.500000  0.000000  0.000000  1
  Si  Si23  1  0.000000  0.500000  0.000000  1
  Si  Si24  1  0.500000  0.500000  0.000000  1
  Si  Si25  1  0.000000  0.500000  0.500000  1
  Si  Si26  1  0.000000  0.000000  0.500000  1
  Si  Si27  1  0.500000  0.000000  0.500000  1
  As  As28  1  0.500000  0.500000  0.500000  1
