# generated using pymatgen
data_AcCrCu(Sb6Os)2
_symmetry_space_group_name_H-M   'P 1'
_cell_length_a   8.19855236
_cell_length_b   8.17673960
_cell_length_c   8.16475591
_cell_angle_alpha   109.38666902
_cell_angle_beta   109.46346501
_cell_angle_gamma   109.38786735
_symmetry_Int_Tables_number   1
_chemical_formula_structural   AcCrCu(Sb6Os)2
_chemical_formula_sum   'Ac1 Cr1 Cu1 Sb12 Os2'
_cell_volume   422.25656045
_cell_formula_units_Z   1
loop_
 _symmetry_equiv_pos_site_id
 _symmetry_equiv_pos_as_xyz
  1  'x, y, z'
loop_
 _atom_site_type_symbol
 _atom_site_label
 _atom_site_symmetry_multiplicity
 _atom_site_fract_x
 _atom_site_fract_y
 _atom_site_fract_z
 _atom_site_occupancy
  Ac  Ac0  1  0.000000  0.000000  0.000000  1
  Cr  Cr1  1  0.000000  0.000000  0.500000  1
  Cu  Cu2  1  0.500000  0.000000  0.000000  1
  Sb  Sb3  1  0.334429  0.158111  0.498388  1
  Sb  Sb4  1  0.339885  0.840200  0.186745  1
  Sb  Sb5  1  0.660115  0.159800  0.813255  1
  Sb  Sb6  1  0.823298  0.664777  0.162722  1
  Sb  Sb7  1  0.159767  0.498762  0.341125  1
  Sb  Sb8  1  0.500833  0.655084  0.841837  1
  Sb  Sb9  1  0.850016  0.185084  0.348471  1
  Sb  Sb10  1  0.665571  0.841889  0.501612  1
  Sb  Sb11  1  0.176702  0.335223  0.837278  1
  Sb  Sb12  1  0.149984  0.814916  0.651529  1
  Sb  Sb13  1  0.499167  0.344916  0.158163  1
  Sb  Sb14  1  0.840233  0.501238  0.658875  1
  Os  Os15  1  0.500000  0.500000  0.500000  1
  Os  Os16  1  0.000000  0.500000  0.000000  1
