# generated using pymatgen
data_TbCu3AgPd
_symmetry_space_group_name_H-M   'P 1'
_cell_length_a   5.15303146
_cell_length_b   5.20355661
_cell_length_c   5.15303100
_cell_angle_alpha   60.32067552
_cell_angle_beta   59.99999656
_cell_angle_gamma   60.32066568
_symmetry_Int_Tables_number   1
_chemical_formula_structural   TbCu3AgPd
_chemical_formula_sum   'Tb1 Cu3 Ag1 Pd1'
_cell_volume   98.17454629
_cell_formula_units_Z   1
loop_
 _symmetry_equiv_pos_site_id
 _symmetry_equiv_pos_as_xyz
  1  'x, y, z'
loop_
 _atom_site_type_symbol
 _atom_site_label
 _atom_site_symmetry_multiplicity
 _atom_site_fract_x
 _atom_site_fract_y
 _atom_site_fract_z
 _atom_site_occupancy
  Tb  Tb0  1  0.748507  0.754480  0.748507  1
  Cu  Cu1  1  0.375126  0.371407  0.375126  1
  Cu  Cu2  1  0.878341  0.371407  0.375126  1
  Cu  Cu3  1  0.375126  0.371407  0.878341  1
  Ag  Ag4  1  0.996971  0.009089  0.996971  1
  Pd  Pd5  1  0.375931  0.872209  0.375931  1
