# generated using pymatgen
data_Dy2TlIn(SbO4)4
_symmetry_space_group_name_H-M   'P 1'
_cell_length_a   5.38464519
_cell_length_b   7.57603332
_cell_length_c   7.66738093
_cell_angle_alpha   80.21497265
_cell_angle_beta   92.35356804
_cell_angle_gamma   88.39387036
_symmetry_Int_Tables_number   1
_chemical_formula_structural   Dy2TlIn(SbO4)4
_chemical_formula_sum   'Dy2 Tl1 In1 Sb4 O16'
_cell_volume   307.78003846
_cell_formula_units_Z   1
loop_
 _symmetry_equiv_pos_site_id
 _symmetry_equiv_pos_as_xyz
  1  'x, y, z'
loop_
 _atom_site_type_symbol
 _atom_site_label
 _atom_site_symmetry_multiplicity
 _atom_site_fract_x
 _atom_site_fract_y
 _atom_site_fract_z
 _atom_site_occupancy
  Dy  Dy0  1  0.257685  0.617502  0.130791  1
  Dy  Dy1  1  0.742380  0.383303  0.871407  1
  Tl  Tl2  1  0.777358  0.878945  0.831724  1
  In  In3  1  0.222540  0.128471  0.169509  1
  Sb  Sb4  1  0.747546  0.810003  0.327371  1
  Sb  Sb5  1  0.248921  0.192069  0.671838  1
  Sb  Sb6  1  0.272437  0.689660  0.658567  1
  Sb  Sb7  1  0.727083  0.308667  0.340208  1
  O  O8  1  0.433772  0.887162  0.187555  1
  O  O9  1  0.562161  0.122671  0.813302  1
  O  O10  1  0.008909  0.613316  0.826398  1
  O  O11  1  0.993834  0.383314  0.173913  1
  O  O12  1  0.930571  0.809848  0.108425  1
  O  O13  1  0.074259  0.187537  0.897907  1
  O  O14  1  0.487547  0.666574  0.885613  1
  O  O15  1  0.509550  0.325217  0.115514  1
  O  O16  1  0.601943  0.563530  0.324605  1
  O  O17  1  0.398604  0.436031  0.671132  1
  O  O18  1  0.134223  0.940623  0.674330  1
  O  O19  1  0.876645  0.060124  0.321765  1
  O  O20  1  0.587083  0.803973  0.559303  1
  O  O21  1  0.409303  0.193671  0.437484  1
  O  O22  1  0.077732  0.690106  0.431749  1
  O  O23  1  0.917913  0.307683  0.569590  1
