# generated using pymatgen
data_Tm19Lu(Ir2Os)4
_symmetry_space_group_name_H-M   'P 1'
_cell_length_a   10.71405200
_cell_length_b   10.71405200
_cell_length_c   6.33855700
_cell_angle_alpha   90.00000000
_cell_angle_beta   90.00000000
_cell_angle_gamma   90.00000000
_symmetry_Int_Tables_number   1
_chemical_formula_structural   Tm19Lu(Ir2Os)4
_chemical_formula_sum   'Tm19 Lu1 Ir8 Os4'
_cell_volume   727.60872776
_cell_formula_units_Z   1
loop_
 _symmetry_equiv_pos_site_id
 _symmetry_equiv_pos_as_xyz
  1  'x, y, z'
loop_
 _atom_site_type_symbol
 _atom_site_label
 _atom_site_symmetry_multiplicity
 _atom_site_fract_x
 _atom_site_fract_y
 _atom_site_fract_z
 _atom_site_occupancy
  Tm  Tm0  1  0.293348  0.086164  0.376327  1
  Tm  Tm1  1  0.293484  0.913790  0.876218  1
  Tm  Tm2  1  0.706516  0.086210  0.876218  1
  Tm  Tm3  1  0.706652  0.913836  0.376327  1
  Tm  Tm4  1  0.586214  0.793555  0.876267  1
  Tm  Tm5  1  0.586233  0.206436  0.376283  1
  Tm  Tm6  1  0.413767  0.793564  0.376283  1
  Tm  Tm7  1  0.413786  0.206445  0.876267  1
  Tm  Tm8  1  0.206436  0.413767  0.623717  1
  Tm  Tm9  1  0.206445  0.586214  0.123733  1
  Tm  Tm10  1  0.793555  0.413786  0.123733  1
  Tm  Tm11  1  0.793564  0.586233  0.623717  1
  Tm  Tm12  1  0.913790  0.706516  0.123782  1
  Tm  Tm13  1  0.913836  0.293348  0.623673  1
  Tm  Tm14  1  0.086164  0.706652  0.623673  1
  Tm  Tm15  1  0.086210  0.293484  0.123782  1
  Tm  Tm16  1  0.000000  0.000000  0.000000  1
  Tm  Tm17  1  0.500000  0.500000  0.000000  1
  Tm  Tm18  1  0.500000  0.500000  0.500000  1
  Lu  Lu19  1  0.000000  0.000000  0.500000  1
  Ir  Ir20  1  0.847755  0.152244  0.250530  1
  Ir  Ir21  1  0.847756  0.847755  0.749470  1
  Ir  Ir22  1  0.152244  0.152245  0.749470  1
  Ir  Ir23  1  0.152245  0.847756  0.250530  1
  Ir  Ir24  1  0.652553  0.347455  0.749978  1
  Ir  Ir25  1  0.652545  0.652553  0.250022  1
  Ir  Ir26  1  0.347455  0.347447  0.250022  1
  Ir  Ir27  1  0.347447  0.652545  0.749978  1
  Os  Os28  1  0.500000  0.000000  0.122886  1
  Os  Os29  1  0.500000  0.000000  0.622885  1
  Os  Os30  1  0.000000  0.500000  0.877114  1
  Os  Os31  1  0.000000  0.500000  0.377115  1
