# generated using pymatgen
data_Sc4GaSi7Tc6
_symmetry_space_group_name_H-M   'P 1'
_cell_length_a   6.65405000
_cell_length_b   6.68786700
_cell_length_c   12.40948800
_cell_angle_alpha   90.00000000
_cell_angle_beta   90.00000000
_cell_angle_gamma   90.00000000
_symmetry_Int_Tables_number   1
_chemical_formula_structural   Sc4GaSi7Tc6
_chemical_formula_sum   'Sc8 Ga2 Si14 Tc12'
_cell_volume   552.23960680
_cell_formula_units_Z   2
loop_
 _symmetry_equiv_pos_site_id
 _symmetry_equiv_pos_as_xyz
  1  'x, y, z'
loop_
 _atom_site_type_symbol
 _atom_site_label
 _atom_site_symmetry_multiplicity
 _atom_site_fract_x
 _atom_site_fract_y
 _atom_site_fract_z
 _atom_site_occupancy
  Sc  Sc0  1  0.490165  0.333027  0.092782  1
  Sc  Sc1  1  0.990165  0.166973  0.407218  1
  Sc  Sc2  1  0.510148  0.671190  0.590735  1
  Sc  Sc3  1  0.010148  0.828810  0.909265  1
  Sc  Sc4  1  0.510148  0.671190  0.909265  1
  Sc  Sc5  1  0.010148  0.828810  0.590735  1
  Sc  Sc6  1  0.490165  0.333027  0.407218  1
  Sc  Sc7  1  0.990165  0.166973  0.092782  1
  Ga  Ga8  1  0.521272  0.362728  0.750000  1
  Ga  Ga9  1  0.021272  0.137272  0.750000  1
  Si  Si10  1  0.664741  0.048566  0.548016  1
  Si  Si11  1  0.164741  0.451434  0.951984  1
  Si  Si12  1  0.339359  0.950111  0.050906  1
  Si  Si13  1  0.839359  0.549889  0.449094  1
  Si  Si14  1  0.339359  0.950111  0.449094  1
  Si  Si15  1  0.839359  0.549889  0.050906  1
  Si  Si16  1  0.664741  0.048566  0.951984  1
  Si  Si17  1  0.164741  0.451434  0.548016  1
  Si  Si18  1  0.474260  0.635606  0.250000  1
  Si  Si19  1  0.974260  0.864394  0.250000  1
  Si  Si20  1  0.806009  0.640210  0.750000  1
  Si  Si21  1  0.306009  0.859790  0.750000  1
  Si  Si22  1  0.194929  0.356835  0.250000  1
  Si  Si23  1  0.694929  0.143165  0.250000  1
  Tc  Tc24  1  0.825259  0.357704  0.613524  1
  Tc  Tc25  1  0.325259  0.142296  0.886476  1
  Tc  Tc26  1  0.178088  0.648039  0.125833  1
  Tc  Tc27  1  0.678088  0.851961  0.374167  1
  Tc  Tc28  1  0.178088  0.648039  0.374167  1
  Tc  Tc29  1  0.678088  0.851961  0.125833  1
  Tc  Tc30  1  0.825259  0.357704  0.886476  1
  Tc  Tc31  1  0.325259  0.142296  0.613524  1
  Tc  Tc32  1  0.662529  0.979319  0.750000  1
  Tc  Tc33  1  0.162529  0.520681  0.750000  1
  Tc  Tc34  1  0.325480  0.013188  0.250000  1
  Tc  Tc35  1  0.825480  0.486812  0.250000  1
