# generated using pymatgen
data_Pr6TaTi(Co4P3)4
_symmetry_space_group_name_H-M   'P 1'
_cell_length_a   3.78259300
_cell_length_b   10.80950100
_cell_length_c   12.55050600
_cell_angle_alpha   90.00000000
_cell_angle_beta   90.00000000
_cell_angle_gamma   90.00000000
_symmetry_Int_Tables_number   1
_chemical_formula_structural   Pr6TaTi(Co4P3)4
_chemical_formula_sum   'Pr6 Ta1 Ti1 Co16 P12'
_cell_volume   513.16437164
_cell_formula_units_Z   1
loop_
 _symmetry_equiv_pos_site_id
 _symmetry_equiv_pos_as_xyz
  1  'x, y, z'
loop_
 _atom_site_type_symbol
 _atom_site_label
 _atom_site_symmetry_multiplicity
 _atom_site_fract_x
 _atom_site_fract_y
 _atom_site_fract_z
 _atom_site_occupancy
  Pr  Pr0  1  0.000000  0.500000  0.526134  1
  Pr  Pr1  1  0.500000  0.000000  0.475970  1
  Pr  Pr2  1  0.500000  0.820323  0.205388  1
  Pr  Pr3  1  0.500000  0.179677  0.205388  1
  Pr  Pr4  1  0.000000  0.680684  0.794622  1
  Pr  Pr5  1  0.000000  0.319316  0.794622  1
  Ta  Ta6  1  0.500000  0.500000  0.153220  1
  Ti  Ti7  1  0.000000  0.000000  0.848919  1
  Co  Co8  1  0.500000  0.500000  0.704342  1
  Co  Co9  1  0.000000  0.000000  0.295194  1
  Co  Co10  1  0.000000  0.500000  0.988369  1
  Co  Co11  1  0.500000  0.000000  0.011209  1
  Co  Co12  1  0.500000  0.332576  0.993593  1
  Co  Co13  1  0.500000  0.667424  0.993593  1
  Co  Co14  1  0.000000  0.167283  0.004404  1
  Co  Co15  1  0.000000  0.832717  0.004404  1
  Co  Co16  1  0.500000  0.295777  0.431744  1
  Co  Co17  1  0.500000  0.704223  0.431744  1
  Co  Co18  1  0.000000  0.204052  0.568252  1
  Co  Co19  1  0.000000  0.795948  0.568252  1
  Co  Co20  1  0.500000  0.880933  0.707189  1
  Co  Co21  1  0.500000  0.119067  0.707189  1
  Co  Co22  1  0.000000  0.619287  0.293155  1
  Co  Co23  1  0.000000  0.380713  0.293155  1
  P  P24  1  0.500000  0.500000  0.886910  1
  P  P25  1  0.000000  0.000000  0.111499  1
  P  P26  1  0.500000  0.500000  0.350933  1
  P  P27  1  0.000000  0.000000  0.652775  1
  P  P28  1  0.500000  0.304825  0.613843  1
  P  P29  1  0.500000  0.695175  0.613843  1
  P  P30  1  0.000000  0.194268  0.386482  1
  P  P31  1  0.000000  0.805732  0.386482  1
  P  P32  1  0.500000  0.845478  0.895364  1
  P  P33  1  0.500000  0.154522  0.895364  1
  P  P34  1  0.000000  0.657166  0.103227  1
  P  P35  1  0.000000  0.342834  0.103227  1
