# generated using pymatgen
data_Pr3Eu5(CdCu2)4
_symmetry_space_group_name_H-M   'P 1'
_cell_length_a   5.70961955
_cell_length_b   5.70961948
_cell_length_c   15.33551100
_cell_angle_alpha   77.44809644
_cell_angle_beta   102.55190340
_cell_angle_gamma   98.58503099
_symmetry_Int_Tables_number   1
_chemical_formula_structural   Pr3Eu5(CdCu2)4
_chemical_formula_sum   'Pr3 Eu5 Cd4 Cu8'
_cell_volume   473.58218905
_cell_formula_units_Z   1
loop_
 _symmetry_equiv_pos_site_id
 _symmetry_equiv_pos_as_xyz
  1  'x, y, z'
loop_
 _atom_site_type_symbol
 _atom_site_label
 _atom_site_symmetry_multiplicity
 _atom_site_fract_x
 _atom_site_fract_y
 _atom_site_fract_z
 _atom_site_occupancy
  Pr  Pr0  1  0.787122  0.212676  0.623950  1
  Pr  Pr1  1  0.787325  0.212878  0.123950  1
  Pr  Pr2  1  0.212879  0.787324  0.376051  1
  Eu  Eu3  1  0.660940  0.338803  0.866498  1
  Eu  Eu4  1  0.338802  0.660941  0.633502  1
  Eu  Eu5  1  0.339058  0.661196  0.133502  1
  Eu  Eu6  1  0.661196  0.339058  0.366498  1
  Eu  Eu7  1  0.212676  0.787121  0.876051  1
  Cd  Cd8  1  0.214049  0.214079  0.499983  1
  Cd  Cd9  1  0.214080  0.214049  0.000017  1
  Cd  Cd10  1  0.785950  0.785922  0.500017  1
  Cd  Cd11  1  0.785921  0.785951  0.999983  1
  Cu  Cu12  1  0.314323  0.111766  0.701900  1
  Cu  Cu13  1  0.111766  0.314323  0.798100  1
  Cu  Cu14  1  0.685676  0.888233  0.298100  1
  Cu  Cu15  1  0.888234  0.685675  0.201900  1
  Cu  Cu16  1  0.888029  0.685505  0.701897  1
  Cu  Cu17  1  0.685507  0.888027  0.798104  1
  Cu  Cu18  1  0.111972  0.314494  0.298104  1
  Cu  Cu19  1  0.314494  0.111972  0.201896  1
