# generated using pymatgen
data_Dy3Er3Lu10(Ga3Co)2
_symmetry_space_group_name_H-M   'P 1'
_cell_length_a   9.81040500
_cell_length_b   9.81855540
_cell_length_c   6.90234003
_cell_angle_alpha   90.01558704
_cell_angle_beta   90.00000000
_cell_angle_gamma   119.97254088
_symmetry_Int_Tables_number   1
_chemical_formula_structural   Dy3Er3Lu10(Ga3Co)2
_chemical_formula_sum   'Dy3 Er3 Lu10 Ga6 Co2'
_cell_volume   575.94577019
_cell_formula_units_Z   1
loop_
 _symmetry_equiv_pos_site_id
 _symmetry_equiv_pos_as_xyz
  1  'x, y, z'
loop_
 _atom_site_type_symbol
 _atom_site_label
 _atom_site_symmetry_multiplicity
 _atom_site_fract_x
 _atom_site_fract_y
 _atom_site_fract_z
 _atom_site_occupancy
  Dy  Dy0  1  0.535853  0.071705  0.708770  1
  Dy  Dy1  1  0.000043  0.000087  0.231709  1
  Dy  Dy2  1  0.999946  0.999892  0.731714  1
  Er  Er3  1  0.463468  0.926936  0.208370  1
  Er  Er4  1  0.535722  0.464421  0.708307  1
  Er  Er5  1  0.928699  0.464421  0.708307  1
  Lu  Lu6  1  0.173601  0.824918  0.511594  1
  Lu  Lu7  1  0.651316  0.824918  0.511594  1
  Lu  Lu8  1  0.174466  0.348931  0.510599  1
  Lu  Lu9  1  0.826834  0.175089  0.013957  1
  Lu  Lu10  1  0.348255  0.175089  0.013957  1
  Lu  Lu11  1  0.825515  0.651032  0.014703  1
  Lu  Lu12  1  0.332778  0.665556  0.826993  1
  Lu  Lu13  1  0.667201  0.334401  0.325906  1
  Lu  Lu14  1  0.462759  0.536975  0.207597  1
  Lu  Lu15  1  0.074215  0.536975  0.207597  1
  Ga  Ga16  1  0.163508  0.835840  0.957193  1
  Ga  Ga17  1  0.672332  0.835840  0.957193  1
  Ga  Ga18  1  0.164346  0.328694  0.957878  1
  Ga  Ga19  1  0.836410  0.163402  0.456464  1
  Ga  Ga20  1  0.326993  0.163402  0.456464  1
  Ga  Ga21  1  0.836395  0.672789  0.455706  1
  Co  Co22  1  0.332574  0.665151  0.445374  1
  Co  Co23  1  0.666771  0.333541  0.946891  1
