# generated using pymatgen
data_Er10AsPdPb6
_symmetry_space_group_name_H-M   'P 1'
_cell_length_a   9.13605700
_cell_length_b   9.13605822
_cell_length_c   6.76232900
_cell_angle_alpha   90.00000000
_cell_angle_beta   90.00000000
_cell_angle_gamma   120.00000643
_symmetry_Int_Tables_number   1
_chemical_formula_structural   Er10AsPdPb6
_chemical_formula_sum   'Er10 As1 Pd1 Pb6'
_cell_volume   488.81503883
_cell_formula_units_Z   1
loop_
 _symmetry_equiv_pos_site_id
 _symmetry_equiv_pos_as_xyz
  1  'x, y, z'
loop_
 _atom_site_type_symbol
 _atom_site_label
 _atom_site_symmetry_multiplicity
 _atom_site_fract_x
 _atom_site_fract_y
 _atom_site_fract_z
 _atom_site_occupancy
  Er  Er0  1  0.247349  0.000000  0.255035  1
  Er  Er1  1  0.752651  0.000000  0.744965  1
  Er  Er2  1  0.000000  0.247349  0.255035  1
  Er  Er3  1  0.000000  0.752651  0.744965  1
  Er  Er4  1  0.752651  0.752651  0.255035  1
  Er  Er5  1  0.247349  0.247349  0.744965  1
  Er  Er6  1  0.333333  0.666667  0.000000  1
  Er  Er7  1  0.666667  0.333333  0.000000  1
  Er  Er8  1  0.666667  0.333333  0.500000  1
  Er  Er9  1  0.333333  0.666667  0.500000  1
  As  As10  1  0.000000  0.000000  0.500000  1
  Pd  Pd11  1  0.000000  0.000000  0.000000  1
  Pb  Pb12  1  0.603121  0.000000  0.251028  1
  Pb  Pb13  1  0.396879  0.000000  0.748972  1
  Pb  Pb14  1  0.000000  0.603121  0.251028  1
  Pb  Pb15  1  0.000000  0.396879  0.748972  1
  Pb  Pb16  1  0.396879  0.396879  0.251028  1
  Pb  Pb17  1  0.603121  0.603121  0.748972  1
