# generated using pymatgen
data_MnV17(Si6Mo)2
_symmetry_space_group_name_H-M   'P 1'
_cell_length_a   7.05658924
_cell_length_b   7.05658858
_cell_length_c   13.28800500
_cell_angle_alpha   90.00000000
_cell_angle_beta   90.00000000
_cell_angle_gamma   140.41629877
_symmetry_Int_Tables_number   1
_chemical_formula_structural   MnV17(Si6Mo)2
_chemical_formula_sum   'Mn1 V17 Si12 Mo2'
_cell_volume   421.62702671
_cell_formula_units_Z   1
loop_
 _symmetry_equiv_pos_site_id
 _symmetry_equiv_pos_as_xyz
  1  'x, y, z'
loop_
 _atom_site_type_symbol
 _atom_site_label
 _atom_site_symmetry_multiplicity
 _atom_site_fract_x
 _atom_site_fract_y
 _atom_site_fract_z
 _atom_site_occupancy
  Mn  Mn0  1  0.000296  0.000296  0.000000  1
  V  V1  1  0.075469  0.424689  0.398401  1
  V  V2  1  0.572293  0.921843  0.900307  1
  V  V3  1  0.424689  0.075469  0.601599  1
  V  V4  1  0.921843  0.572293  0.099693  1
  V  V5  1  0.850079  0.648933  0.675313  1
  V  V6  1  0.353336  0.152759  0.174102  1
  V  V7  1  0.648933  0.850079  0.324687  1
  V  V8  1  0.152759  0.353336  0.825898  1
  V  V9  1  0.648933  0.850079  0.675313  1
  V  V10  1  0.152759  0.353336  0.174102  1
  V  V11  1  0.850079  0.648933  0.324687  1
  V  V12  1  0.353336  0.152759  0.825898  1
  V  V13  1  0.424689  0.075469  0.398401  1
  V  V14  1  0.921843  0.572293  0.900307  1
  V  V15  1  0.075469  0.424689  0.601599  1
  V  V16  1  0.572293  0.921843  0.099693  1
  V  V17  1  0.000216  0.000216  0.500000  1
  Si  Si18  1  0.249638  0.750196  0.750764  1
  Si  Si19  1  0.750196  0.249638  0.249236  1
  Si  Si20  1  0.750196  0.249638  0.750764  1
  Si  Si21  1  0.249638  0.750196  0.249236  1
  Si  Si22  1  0.244366  0.244366  0.669099  1
  Si  Si23  1  0.762265  0.762265  0.166687  1
  Si  Si24  1  0.244366  0.244366  0.330901  1
  Si  Si25  1  0.762265  0.762265  0.833313  1
  Si  Si26  1  0.588868  0.927152  0.500000  1
  Si  Si27  1  0.068744  0.402793  0.000000  1
  Si  Si28  1  0.927152  0.588868  0.500000  1
  Si  Si29  1  0.402793  0.068744  0.000000  1
  Mo  Mo30  1  0.499673  0.499673  0.000000  1
  Mo  Mo31  1  0.500524  0.500524  0.500000  1
