# generated using pymatgen
data_Tm9Lu(In2Te)2
_symmetry_space_group_name_H-M   'P 1'
_cell_length_a   8.87336503
_cell_length_b   8.87366387
_cell_length_c   6.45155900
_cell_angle_alpha   89.98982403
_cell_angle_beta   89.99506681
_cell_angle_gamma   120.01957250
_symmetry_Int_Tables_number   1
_chemical_formula_structural   Tm9Lu(In2Te)2
_chemical_formula_sum   'Tm9 Lu1 In4 Te2'
_cell_volume   439.84628022
_cell_formula_units_Z   1
loop_
 _symmetry_equiv_pos_site_id
 _symmetry_equiv_pos_as_xyz
  1  'x, y, z'
loop_
 _atom_site_type_symbol
 _atom_site_label
 _atom_site_symmetry_multiplicity
 _atom_site_fract_x
 _atom_site_fract_y
 _atom_site_fract_z
 _atom_site_occupancy
  Tm  Tm0  1  0.664686  0.332967  0.496354  1
  Tm  Tm1  1  0.664957  0.333171  0.003391  1
  Tm  Tm2  1  0.331789  0.666969  0.496503  1
  Tm  Tm3  1  0.237105  0.999965  0.249988  1
  Tm  Tm4  1  0.760892  0.000066  0.750244  1
  Tm  Tm5  1  0.998143  0.236501  0.249769  1
  Tm  Tm6  1  0.761544  0.763680  0.249959  1
  Tm  Tm7  1  0.240138  0.233137  0.750225  1
  Tm  Tm8  1  0.006825  0.766791  0.750202  1
  Lu  Lu9  1  0.331779  0.667139  0.004215  1
  In  In10  1  0.603853  0.999681  0.249375  1
  In  In11  1  0.400653  0.999155  0.750566  1
  In  In12  1  0.998127  0.605359  0.249310  1
  In  In13  1  0.392459  0.395160  0.249261  1
  Te  Te14  1  0.606931  0.607649  0.750378  1
  Te  Te15  1  0.000120  0.392609  0.750259  1
