# generated using pymatgen
data_LaTb4Te9
_symmetry_space_group_name_H-M   'P 1'
_cell_length_a   13.24115373
_cell_length_b   13.27274477
_cell_length_c   10.96796300
_cell_angle_alpha   79.96876218
_cell_angle_beta   79.97039382
_cell_angle_gamma   26.97220606
_symmetry_Int_Tables_number   1
_chemical_formula_structural   LaTb4Te9
_chemical_formula_sum   'La2 Tb8 Te18'
_cell_volume   860.13230062
_cell_formula_units_Z   2
loop_
 _symmetry_equiv_pos_site_id
 _symmetry_equiv_pos_as_xyz
  1  'x, y, z'
loop_
 _atom_site_type_symbol
 _atom_site_label
 _atom_site_symmetry_multiplicity
 _atom_site_fract_x
 _atom_site_fract_y
 _atom_site_fract_z
 _atom_site_occupancy
  La  La0  1  0.950317  0.055614  0.760661  1
  La  La1  1  0.162323  0.247657  0.362708  1
  Tb  Tb2  1  0.947931  0.042798  0.240515  1
  Tb  Tb3  1  0.147240  0.247902  0.841465  1
  Tb  Tb4  1  0.345491  0.450093  0.435834  1
  Tb  Tb5  1  0.538353  0.653792  0.036500  1
  Tb  Tb6  1  0.755956  0.834352  0.638722  1
  Tb  Tb7  1  0.344625  0.462884  0.964411  1
  Tb  Tb8  1  0.547210  0.656814  0.563529  1
  Tb  Tb9  1  0.751977  0.853309  0.157964  1
  Te  Te10  1  0.472700  0.574050  0.823683  1
  Te  Te11  1  0.071061  0.178734  0.623425  1
  Te  Te12  1  0.867912  0.977430  0.025879  1
  Te  Te13  1  0.681623  0.764361  0.424980  1
  Te  Te14  1  0.274562  0.378695  0.218932  1
  Te  Te15  1  0.020231  0.132474  0.984451  1
  Te  Te16  1  0.623618  0.727022  0.777487  1
  Te  Te17  1  0.429258  0.525485  0.176887  1
  Te  Te18  1  0.239984  0.318742  0.580991  1
  Te  Te19  1  0.821616  0.928021  0.379734  1
  Te  Te20  1  0.698441  0.302533  0.494543  1
  Te  Te21  1  0.304927  0.893291  0.298589  1
  Te  Te22  1  0.104382  0.693067  0.698596  1
  Te  Te23  1  0.891398  0.494765  0.109493  1
  Te  Te24  1  0.508383  0.106525  0.885842  1
  Te  Te25  1  0.001485  0.601612  0.896659  1
  Te  Te26  1  0.198901  0.799975  0.496960  1
  Te  Te27  1  0.398090  0.998005  0.100559  1
