# generated using pymatgen
data_TbAl3CuPd
_symmetry_space_group_name_H-M   'P 1'
_cell_length_a   5.37669300
_cell_length_b   5.37669262
_cell_length_c   4.15603200
_cell_angle_alpha   90.00000000
_cell_angle_beta   90.00000000
_cell_angle_gamma   120.00000848
_symmetry_Int_Tables_number   1
_chemical_formula_structural   TbAl3CuPd
_chemical_formula_sum   'Tb1 Al3 Cu1 Pd1'
_cell_volume   104.04948289
_cell_formula_units_Z   1
loop_
 _symmetry_equiv_pos_site_id
 _symmetry_equiv_pos_as_xyz
  1  'x, y, z'
loop_
 _atom_site_type_symbol
 _atom_site_label
 _atom_site_symmetry_multiplicity
 _atom_site_fract_x
 _atom_site_fract_y
 _atom_site_fract_z
 _atom_site_occupancy
  Tb  Tb0  1  0.000000  0.000000  0.000000  1
  Al  Al1  1  0.501944  0.003889  0.500000  1
  Al  Al2  1  0.996111  0.498056  0.500000  1
  Al  Al3  1  0.501944  0.498056  0.500000  1
  Cu  Cu4  1  0.666667  0.333333  0.000000  1
  Pd  Pd5  1  0.333333  0.666667  0.000000  1
