# generated using pymatgen
data_Th3Sc(Ga3Rh)6
_symmetry_space_group_name_H-M   'P 1'
_cell_length_a   7.67191500
_cell_length_b   7.67690437
_cell_length_c   9.52354800
_cell_angle_alpha   90.00000000
_cell_angle_beta   90.00000000
_cell_angle_gamma   119.75841070
_symmetry_Int_Tables_number   1
_chemical_formula_structural   Th3Sc(Ga3Rh)6
_chemical_formula_sum   'Th3 Sc1 Ga18 Rh6'
_cell_volume   486.93549463
_cell_formula_units_Z   1
loop_
 _symmetry_equiv_pos_site_id
 _symmetry_equiv_pos_as_xyz
  1  'x, y, z'
loop_
 _atom_site_type_symbol
 _atom_site_label
 _atom_site_symmetry_multiplicity
 _atom_site_fract_x
 _atom_site_fract_y
 _atom_site_fract_z
 _atom_site_occupancy
  Th  Th0  1  0.996438  0.668706  0.250000  1
  Th  Th1  1  0.002171  0.331274  0.750000  1
  Th  Th2  1  0.668275  0.996599  0.250000  1
  Sc  Sc3  1  0.329718  0.003669  0.750000  1
  Ga  Ga4  1  0.133782  0.130222  0.250000  1
  Ga  Ga5  1  0.874240  0.872699  0.750000  1
  Ga  Ga6  1  0.005996  0.334820  0.077948  1
  Ga  Ga7  1  0.006476  0.676043  0.916016  1
  Ga  Ga8  1  0.006476  0.676043  0.583984  1
  Ga  Ga9  1  0.334090  0.003598  0.432166  1
  Ga  Ga10  1  0.005996  0.334820  0.422052  1
  Ga  Ga11  1  0.655282  0.996390  0.583842  1
  Ga  Ga12  1  0.655282  0.996390  0.916158  1
  Ga  Ga13  1  0.334090  0.003598  0.067834  1
  Ga  Ga14  1  0.336217  0.327273  0.568461  1
  Ga  Ga15  1  0.662515  0.662964  0.442613  1
  Ga  Ga16  1  0.662515  0.662964  0.057387  1
  Ga  Ga17  1  0.336217  0.327273  0.931539  1
  Ga  Ga18  1  0.339769  0.542762  0.250000  1
  Ga  Ga19  1  0.657560  0.449181  0.750000  1
  Ga  Ga20  1  0.540880  0.336218  0.250000  1
  Ga  Ga21  1  0.455012  0.664034  0.750000  1
  Rh  Rh22  1  0.676136  0.331328  0.000290  1
  Rh  Rh23  1  0.327557  0.669750  0.999458  1
  Rh  Rh24  1  0.327557  0.669750  0.500542  1
  Rh  Rh25  1  0.676136  0.331328  0.499710  1
  Rh  Rh26  1  0.996809  0.000153  0.000051  1
  Rh  Rh27  1  0.996809  0.000153  0.499949  1
