# generated using pymatgen
data_Nd7TmSc12Si15P
_symmetry_space_group_name_H-M   'P 1'
_cell_length_a   7.20543969
_cell_length_b   7.47297233
_cell_length_c   14.14232730
_cell_angle_alpha   89.86299976
_cell_angle_beta   90.04738091
_cell_angle_gamma   90.37465100
_symmetry_Int_Tables_number   1
_chemical_formula_structural   Nd7TmSc12Si15P
_chemical_formula_sum   'Nd7 Tm1 Sc12 Si15 P1'
_cell_volume   761.48977581
_cell_formula_units_Z   1
loop_
 _symmetry_equiv_pos_site_id
 _symmetry_equiv_pos_as_xyz
  1  'x, y, z'
loop_
 _atom_site_type_symbol
 _atom_site_label
 _atom_site_symmetry_multiplicity
 _atom_site_fract_x
 _atom_site_fract_y
 _atom_site_fract_z
 _atom_site_occupancy
  Nd  Nd0  1  0.010211  0.172523  0.097741  1
  Nd  Nd1  1  0.992210  0.829839  0.897759  1
  Nd  Nd2  1  0.491035  0.670514  0.904482  1
  Nd  Nd3  1  0.992044  0.829600  0.600553  1
  Nd  Nd4  1  0.511427  0.327516  0.097134  1
  Nd  Nd5  1  0.011830  0.172407  0.403767  1
  Nd  Nd6  1  0.511111  0.327209  0.404646  1
  Tm  Tm7  1  0.491523  0.674500  0.598235  1
  Sc  Sc8  1  0.160329  0.501360  0.749037  1
  Sc  Sc9  1  0.838429  0.500045  0.250059  1
  Sc  Sc10  1  0.339433  0.999473  0.250513  1
  Sc  Sc11  1  0.661679  0.000218  0.748855  1
  Sc  Sc12  1  0.326532  0.171782  0.628202  1
  Sc  Sc13  1  0.667372  0.822580  0.375955  1
  Sc  Sc14  1  0.169171  0.675828  0.376143  1
  Sc  Sc15  1  0.668623  0.825051  0.125094  1
  Sc  Sc16  1  0.830870  0.326005  0.625753  1
  Sc  Sc17  1  0.326620  0.170580  0.870216  1
  Sc  Sc18  1  0.830833  0.325487  0.872318  1
  Sc  Sc19  1  0.167559  0.676726  0.124638  1
  Si  Si20  1  0.964342  0.875837  0.250705  1
  Si  Si21  1  0.463806  0.622683  0.250344  1
  Si  Si22  1  0.531635  0.379121  0.748149  1
  Si  Si23  1  0.304992  0.863172  0.747882  1
  Si  Si24  1  0.711062  0.118265  0.250612  1
  Si  Si25  1  0.212023  0.381644  0.250390  1
  Si  Si26  1  0.785294  0.622914  0.747593  1
  Si  Si27  1  0.158739  0.465157  0.541989  1
  Si  Si28  1  0.845813  0.538364  0.462108  1
  Si  Si29  1  0.346724  0.959058  0.463429  1
  Si  Si30  1  0.847073  0.538610  0.038161  1
  Si  Si31  1  0.652454  0.033080  0.542231  1
  Si  Si32  1  0.151625  0.461648  0.958827  1
  Si  Si33  1  0.654616  0.038461  0.958843  1
  Si  Si34  1  0.345256  0.964019  0.038399  1
  P  P35  1  0.025701  0.138722  0.749238  1
