# generated using pymatgen
data_HfZr2B2Ir2Ru3
_symmetry_space_group_name_H-M   'P 1'
_cell_length_a   9.61522600
_cell_length_b   9.63915700
_cell_length_c   3.12200600
_cell_angle_alpha   90.00000000
_cell_angle_beta   90.00000000
_cell_angle_gamma   89.99697073
_symmetry_Int_Tables_number   1
_chemical_formula_structural   HfZr2B2Ir2Ru3
_chemical_formula_sum   'Hf2 Zr4 B4 Ir4 Ru6'
_cell_volume   289.35586101
_cell_formula_units_Z   2
loop_
 _symmetry_equiv_pos_site_id
 _symmetry_equiv_pos_as_xyz
  1  'x, y, z'
loop_
 _atom_site_type_symbol
 _atom_site_label
 _atom_site_symmetry_multiplicity
 _atom_site_fract_x
 _atom_site_fract_y
 _atom_site_fract_z
 _atom_site_occupancy
  Hf  Hf0  1  0.999497  0.004264  0.000000  1
  Hf  Hf1  1  0.495854  0.500440  0.000000  1
  Zr  Zr2  1  0.672305  0.175276  0.000000  1
  Zr  Zr3  1  0.330414  0.821398  0.000000  1
  Zr  Zr4  1  0.175633  0.328778  0.000000  1
  Zr  Zr5  1  0.823206  0.672471  0.000000  1
  B  B6  1  0.123251  0.617222  0.000000  1
  B  B7  1  0.881871  0.377011  0.000000  1
  B  B8  1  0.616411  0.874690  0.000000  1
  B  B9  1  0.384321  0.124533  0.000000  1
  Ir  Ir10  1  0.223090  0.070300  0.500000  1
  Ir  Ir11  1  0.778328  0.928968  0.500000  1
  Ir  Ir12  1  0.069941  0.780001  0.500000  1
  Ir  Ir13  1  0.720195  0.428177  0.500000  1
  Ru  Ru14  1  0.928224  0.223049  0.500000  1
  Ru  Ru15  1  0.276802  0.573519  0.500000  1
  Ru  Ru16  1  0.573756  0.720332  0.500000  1
  Ru  Ru17  1  0.428434  0.278135  0.500000  1
  Ru  Ru18  1  0.500794  0.999157  0.500000  1
  Ru  Ru19  1  0.997672  0.502276  0.500000  1
