# generated using pymatgen
data_Li8YbNp7N16
_symmetry_space_group_name_H-M   'P 1'
_cell_length_a   21.77982368
_cell_length_b   4.34213446
_cell_length_c   4.34629606
_cell_angle_alpha   89.99479333
_cell_angle_beta   89.97480183
_cell_angle_gamma   90.02471876
_symmetry_Int_Tables_number   1
_chemical_formula_structural   Li8YbNp7N16
_chemical_formula_sum   'Li8 Yb1 Np7 N16'
_cell_volume   411.03314974
_cell_formula_units_Z   1
loop_
 _symmetry_equiv_pos_site_id
 _symmetry_equiv_pos_as_xyz
  1  'x, y, z'
loop_
 _atom_site_type_symbol
 _atom_site_label
 _atom_site_symmetry_multiplicity
 _atom_site_fract_x
 _atom_site_fract_y
 _atom_site_fract_z
 _atom_site_occupancy
  Li  Li0  1  0.186933  0.000149  0.749802  1
  Li  Li1  1  0.811949  0.000083  0.250364  1
  Li  Li2  1  0.312747  0.999642  0.249378  1
  Li  Li3  1  0.678113  0.999616  0.750744  1
  Li  Li4  1  0.039953  0.500453  0.748891  1
  Li  Li5  1  0.947342  0.500444  0.249389  1
  Li  Li6  1  0.437917  0.500276  0.250435  1
  Li  Li7  1  0.585625  0.499188  0.750822  1
  Yb  Yb8  1  0.812356  0.500052  0.750300  1
  Np  Np9  1  0.439239  0.999394  0.749849  1
  Np  Np10  1  0.564324  0.998848  0.250497  1
  Np  Np11  1  0.060520  0.000091  0.248663  1
  Np  Np12  1  0.936052  0.000416  0.749326  1
  Np  Np13  1  0.312508  0.499217  0.748950  1
  Np  Np14  1  0.688689  0.499535  0.250744  1
  Np  Np15  1  0.185882  0.499470  0.248989  1
  N  N16  1  0.332728  0.000612  0.750251  1
  N  N17  1  0.665715  0.999466  0.250771  1
  N  N18  1  0.163921  0.000924  0.249979  1
  N  N19  1  0.846932  0.000066  0.749940  1
  N  N20  1  0.417105  0.500800  0.750504  1
  N  N21  1  0.588212  0.499446  0.251133  1
  N  N22  1  0.076182  0.500389  0.248898  1
  N  N23  1  0.933478  0.500427  0.749355  1
  N  N24  1  0.036857  0.000755  0.749155  1
  N  N25  1  0.959596  0.000427  0.249274  1
  N  N26  1  0.460986  0.000422  0.251192  1
  N  N27  1  0.548739  0.999199  0.750826  1
  N  N28  1  0.207963  0.500288  0.750319  1
  N  N29  1  0.777679  0.499925  0.250328  1
  N  N30  1  0.292485  0.500455  0.250200  1
  N  N31  1  0.691271  0.499522  0.750730  1
