# generated using pymatgen
data_Hf3Zr3AlGaNi
_symmetry_space_group_name_H-M   'P 1'
_cell_length_a   7.86599300
_cell_length_b   7.86599209
_cell_length_c   3.34985000
_cell_angle_alpha   90.00000000
_cell_angle_beta   90.00000000
_cell_angle_gamma   119.99999963
_symmetry_Int_Tables_number   1
_chemical_formula_structural   Hf3Zr3AlGaNi
_chemical_formula_sum   'Hf3 Zr3 Al1 Ga1 Ni1'
_cell_volume   179.49942212
_cell_formula_units_Z   1
loop_
 _symmetry_equiv_pos_site_id
 _symmetry_equiv_pos_as_xyz
  1  'x, y, z'
loop_
 _atom_site_type_symbol
 _atom_site_label
 _atom_site_symmetry_multiplicity
 _atom_site_fract_x
 _atom_site_fract_y
 _atom_site_fract_z
 _atom_site_occupancy
  Hf  Hf0  1  0.250421  0.999465  0.500000  1
  Hf  Hf1  1  0.000535  0.250956  0.500000  1
  Hf  Hf2  1  0.749044  0.749579  0.500000  1
  Zr  Zr3  1  0.598391  0.002446  0.000000  1
  Zr  Zr4  1  0.997554  0.595944  0.000000  1
  Zr  Zr5  1  0.404056  0.401609  0.000000  1
  Al  Al6  1  0.333333  0.666667  0.500000  1
  Ga  Ga7  1  0.666667  0.333333  0.500000  1
  Ni  Ni8  1  0.000000  0.000000  0.000000  1
