# generated using pymatgen
data_Y3MgCd2Ge2Au
_symmetry_space_group_name_H-M   'P 1'
_cell_length_a   7.30285878
_cell_length_b   7.30285964
_cell_length_c   4.38075500
_cell_angle_alpha   90.00000000
_cell_angle_beta   90.00000000
_cell_angle_gamma   120.68052039
_symmetry_Int_Tables_number   1
_chemical_formula_structural   Y3MgCd2Ge2Au
_chemical_formula_sum   'Y3 Mg1 Cd2 Ge2 Au1'
_cell_volume   200.93070147
_cell_formula_units_Z   1
loop_
 _symmetry_equiv_pos_site_id
 _symmetry_equiv_pos_as_xyz
  1  'x, y, z'
loop_
 _atom_site_type_symbol
 _atom_site_label
 _atom_site_symmetry_multiplicity
 _atom_site_fract_x
 _atom_site_fract_y
 _atom_site_fract_z
 _atom_site_occupancy
  Y  Y0  1  0.582578  0.001703  0.000000  1
  Y  Y1  1  0.001703  0.582578  0.000000  1
  Y  Y2  1  0.414758  0.414758  0.000000  1
  Mg  Mg3  1  0.761394  0.761394  0.500000  1
  Cd  Cd4  1  0.248495  0.998518  0.500000  1
  Cd  Cd5  1  0.998518  0.248495  0.500000  1
  Ge  Ge6  1  0.339500  0.667240  0.500000  1
  Ge  Ge7  1  0.667240  0.339500  0.500000  1
  Au  Au8  1  0.985816  0.985816  0.000000  1
