# generated using pymatgen
data_Ac3Al(PS3)6
_symmetry_space_group_name_H-M   'P 1'
_cell_length_a   10.94017150
_cell_length_b   10.94017092
_cell_length_c   7.46767600
_cell_angle_alpha   75.97344205
_cell_angle_beta   75.97344820
_cell_angle_gamma   60.04554429
_symmetry_Int_Tables_number   1
_chemical_formula_structural   Ac3Al(PS3)6
_chemical_formula_sum   'Ac3 Al1 P6 S18'
_cell_volume   743.43640213
_cell_formula_units_Z   1
loop_
 _symmetry_equiv_pos_site_id
 _symmetry_equiv_pos_as_xyz
  1  'x, y, z'
loop_
 _atom_site_type_symbol
 _atom_site_label
 _atom_site_symmetry_multiplicity
 _atom_site_fract_x
 _atom_site_fract_y
 _atom_site_fract_z
 _atom_site_occupancy
  Ac  Ac0  1  0.162547  0.457371  0.501335  1
  Ac  Ac1  1  0.542629  0.837453  0.498665  1
  Ac  Ac2  1  0.785621  0.214379  0.500000  1
  Al  Al3  1  0.164607  0.835393  0.500000  1
  P  P4  1  0.869566  0.848331  0.341471  1
  P  P5  1  0.151669  0.130434  0.658529  1
  P  P6  1  0.498415  0.540227  0.340415  1
  P  P7  1  0.459773  0.501585  0.659585  1
  P  P8  1  0.177706  0.169991  0.339156  1
  P  P9  1  0.830009  0.822294  0.660844  1
  S  S10  1  0.704037  0.489918  0.246006  1
  S  S11  1  0.510082  0.295963  0.753994  1
  S  S12  1  0.089968  0.761700  0.285386  1
  S  S13  1  0.238300  0.910032  0.714614  1
  S  S14  1  0.385637  0.108214  0.248858  1
  S  S15  1  0.891786  0.614363  0.751142  1
  S  S16  1  0.820419  0.722424  0.249351  1
  S  S17  1  0.277576  0.179581  0.750649  1
  S  S18  1  0.435718  0.423388  0.252992  1
  S  S19  1  0.576612  0.564282  0.747008  1
  S  S20  1  0.090414  0.054812  0.284495  1
  S  S21  1  0.945188  0.909586  0.715505  1
  S  S22  1  0.383914  0.760881  0.284278  1
  S  S23  1  0.239119  0.616086  0.715722  1
  S  S24  1  0.053016  0.375696  0.246201  1
  S  S25  1  0.624304  0.946984  0.753799  1
  S  S26  1  0.752678  0.056207  0.250851  1
  S  S27  1  0.943793  0.247322  0.749149  1
