# generated using pymatgen
data_Y(As2Ru3)2
_symmetry_space_group_name_H-M   'P 1'
_cell_length_a   7.18309800
_cell_length_b   7.18309907
_cell_length_c   3.86572000
_cell_angle_alpha   90.00000000
_cell_angle_beta   90.00000000
_cell_angle_gamma   120.00000430
_symmetry_Int_Tables_number   1
_chemical_formula_structural   Y(As2Ru3)2
_chemical_formula_sum   'Y1 As4 Ru6'
_cell_volume   172.73671445
_cell_formula_units_Z   1
loop_
 _symmetry_equiv_pos_site_id
 _symmetry_equiv_pos_as_xyz
  1  'x, y, z'
loop_
 _atom_site_type_symbol
 _atom_site_label
 _atom_site_symmetry_multiplicity
 _atom_site_fract_x
 _atom_site_fract_y
 _atom_site_fract_z
 _atom_site_occupancy
  Y  Y0  1  0.000000  0.000000  0.000000  1
  As  As1  1  0.333333  0.666667  0.000000  1
  As  As2  1  0.380021  0.190010  0.500001  1
  As  As3  1  0.809990  0.190010  0.500001  1
  As  As4  1  0.809990  0.619979  0.500001  1
  Ru  Ru5  1  0.535657  0.071315  0.000000  1
  Ru  Ru6  1  0.928685  0.464342  0.000000  1
  Ru  Ru7  1  0.535657  0.464342  0.000000  1
  Ru  Ru8  1  0.200691  0.401381  0.500001  1
  Ru  Ru9  1  0.200691  0.799309  0.500001  1
  Ru  Ru10  1  0.598618  0.799309  0.500001  1
