# generated using pymatgen
data_Er3HfSn2Ir3
_symmetry_space_group_name_H-M   'P 1'
_cell_length_a   7.33012251
_cell_length_b   7.33012233
_cell_length_c   4.17797600
_cell_angle_alpha   90.00000000
_cell_angle_beta   90.00000000
_cell_angle_gamma   120.84968516
_symmetry_Int_Tables_number   1
_chemical_formula_structural   Er3HfSn2Ir3
_chemical_formula_sum   'Er3 Hf1 Sn2 Ir3'
_cell_volume   192.72433691
_cell_formula_units_Z   1
loop_
 _symmetry_equiv_pos_site_id
 _symmetry_equiv_pos_as_xyz
  1  'x, y, z'
loop_
 _atom_site_type_symbol
 _atom_site_label
 _atom_site_symmetry_multiplicity
 _atom_site_fract_x
 _atom_site_fract_y
 _atom_site_fract_z
 _atom_site_occupancy
  Er  Er0  1  0.396462  0.396462  0.500000  1
  Er  Er1  1  0.589296  0.002875  0.500000  1
  Er  Er2  1  0.002875  0.589296  0.500000  1
  Hf  Hf3  1  0.750391  0.750391  0.000000  1
  Sn  Sn4  1  0.254772  0.998587  0.000000  1
  Sn  Sn5  1  0.998587  0.254772  0.000000  1
  Ir  Ir6  1  0.672642  0.351722  0.000000  1
  Ir  Ir7  1  0.351722  0.672642  0.000000  1
  Ir  Ir8  1  0.983253  0.983253  0.500000  1
