# generated using pymatgen
data_Nd19Ho(IrPt2)4
_symmetry_space_group_name_H-M   'P 1'
_cell_length_a   11.42301200
_cell_length_b   11.42301200
_cell_length_c   6.50981100
_cell_angle_alpha   90.00000000
_cell_angle_beta   90.00000000
_cell_angle_gamma   90.00000000
_symmetry_Int_Tables_number   1
_chemical_formula_structural   Nd19Ho(IrPt2)4
_chemical_formula_sum   'Nd19 Ho1 Ir4 Pt8'
_cell_volume   849.43401082
_cell_formula_units_Z   1
loop_
 _symmetry_equiv_pos_site_id
 _symmetry_equiv_pos_as_xyz
  1  'x, y, z'
loop_
 _atom_site_type_symbol
 _atom_site_label
 _atom_site_symmetry_multiplicity
 _atom_site_fract_x
 _atom_site_fract_y
 _atom_site_fract_z
 _atom_site_occupancy
  Nd  Nd0  1  0.295562  0.089117  0.373272  1
  Nd  Nd1  1  0.295706  0.910990  0.873366  1
  Nd  Nd2  1  0.704294  0.089010  0.873366  1
  Nd  Nd3  1  0.704438  0.910883  0.373272  1
  Nd  Nd4  1  0.588689  0.794233  0.873600  1
  Nd  Nd5  1  0.588598  0.206387  0.375299  1
  Nd  Nd6  1  0.411402  0.793613  0.375299  1
  Nd  Nd7  1  0.411311  0.205767  0.873600  1
  Nd  Nd8  1  0.206387  0.411402  0.624701  1
  Nd  Nd9  1  0.205767  0.588689  0.126400  1
  Nd  Nd10  1  0.794233  0.411311  0.126400  1
  Nd  Nd11  1  0.793613  0.588598  0.624701  1
  Nd  Nd12  1  0.910990  0.704294  0.126634  1
  Nd  Nd13  1  0.910883  0.295562  0.626728  1
  Nd  Nd14  1  0.089117  0.704438  0.626728  1
  Nd  Nd15  1  0.089010  0.295706  0.126634  1
  Nd  Nd16  1  0.000000  0.000000  0.500000  1
  Nd  Nd17  1  0.000000  0.000000  0.000000  1
  Nd  Nd18  1  0.500000  0.500000  0.000000  1
  Ho  Ho19  1  0.500000  0.500000  0.500000  1
  Ir  Ir20  1  0.500000  0.000000  0.115491  1
  Ir  Ir21  1  0.500000  0.000000  0.615403  1
  Ir  Ir22  1  0.000000  0.500000  0.884509  1
  Ir  Ir23  1  0.000000  0.500000  0.384597  1
  Pt  Pt24  1  0.846186  0.153999  0.249997  1
  Pt  Pt25  1  0.846001  0.846186  0.750003  1
  Pt  Pt26  1  0.153999  0.153814  0.750003  1
  Pt  Pt27  1  0.153814  0.846001  0.249997  1
  Pt  Pt28  1  0.650922  0.349722  0.744984  1
  Pt  Pt29  1  0.650278  0.650922  0.255016  1
  Pt  Pt30  1  0.349722  0.349078  0.255016  1
  Pt  Pt31  1  0.349078  0.650278  0.744984  1
