# generated using pymatgen
data_La4Cd4In3Sn
_symmetry_space_group_name_H-M   'P 1'
_cell_length_a   5.03724700
_cell_length_b   5.03724600
_cell_length_c   15.54137900
_cell_angle_alpha   90.00000000
_cell_angle_beta   90.00000000
_cell_angle_gamma   120.00000001
_symmetry_Int_Tables_number   1
_chemical_formula_structural   La4Cd4In3Sn
_chemical_formula_sum   'La4 Cd4 In3 Sn1'
_cell_volume   341.51248926
_cell_formula_units_Z   1
loop_
 _symmetry_equiv_pos_site_id
 _symmetry_equiv_pos_as_xyz
  1  'x, y, z'
loop_
 _atom_site_type_symbol
 _atom_site_label
 _atom_site_symmetry_multiplicity
 _atom_site_fract_x
 _atom_site_fract_y
 _atom_site_fract_z
 _atom_site_occupancy
  La  La0  1  0.000000  0.000000  0.004417  1
  La  La1  1  0.000000  0.000000  0.251468  1
  La  La2  1  0.000000  0.000000  0.497801  1
  La  La3  1  0.000000  0.000000  0.747563  1
  Cd  Cd4  1  0.666666  0.333334  0.113745  1
  Cd  Cd5  1  0.666666  0.333334  0.394498  1
  Cd  Cd6  1  0.333334  0.666668  0.641452  1
  Cd  Cd7  1  0.333334  0.666668  0.846540  1
  In  In8  1  0.333334  0.666668  0.144257  1
  In  In9  1  0.333334  0.666668  0.357444  1
  In  In10  1  0.666666  0.333334  0.604165  1
  Sn  Sn11  1  0.666666  0.333334  0.896649  1
