# generated using pymatgen
data_Tm3UGe6Ru7
_symmetry_space_group_name_H-M   'P 1'
_cell_length_a   7.17130335
_cell_length_b   7.17130240
_cell_length_c   7.17130257
_cell_angle_alpha   109.22593471
_cell_angle_beta   109.22592585
_cell_angle_gamma   109.22591425
_symmetry_Int_Tables_number   1
_chemical_formula_structural   Tm3UGe6Ru7
_chemical_formula_sum   'Tm3 U1 Ge6 Ru7'
_cell_volume   286.45386570
_cell_formula_units_Z   1
loop_
 _symmetry_equiv_pos_site_id
 _symmetry_equiv_pos_as_xyz
  1  'x, y, z'
loop_
 _atom_site_type_symbol
 _atom_site_label
 _atom_site_symmetry_multiplicity
 _atom_site_fract_x
 _atom_site_fract_y
 _atom_site_fract_z
 _atom_site_occupancy
  Tm  Tm0  1  0.000000  0.000000  0.500000  1
  Tm  Tm1  1  0.000000  0.500000  0.000000  1
  Tm  Tm2  1  0.500000  0.000000  0.000000  1
  U  U3  1  0.500000  0.500000  0.500000  1
  Ge  Ge4  1  0.690475  0.690475  0.005350  1
  Ge  Ge5  1  0.309525  0.994650  0.309525  1
  Ge  Ge6  1  0.994650  0.309525  0.309525  1
  Ge  Ge7  1  0.309525  0.309525  0.994650  1
  Ge  Ge8  1  0.690475  0.005350  0.690475  1
  Ge  Ge9  1  0.005350  0.690475  0.690475  1
  Ru  Ru10  1  0.743292  0.256708  0.500000  1
  Ru  Ru11  1  0.743292  0.500000  0.256708  1
  Ru  Ru12  1  0.500000  0.256708  0.743292  1
  Ru  Ru13  1  0.256708  0.500000  0.743292  1
  Ru  Ru14  1  0.256708  0.743292  0.500000  1
  Ru  Ru15  1  0.500000  0.743292  0.256708  1
  Ru  Ru16  1  0.000000  0.000000  0.000000  1
