# generated using pymatgen
data_Ho10Tm2InCo4Ru
_symmetry_space_group_name_H-M   'P 1'
_cell_length_a   8.23159265
_cell_length_b   8.24246240
_cell_length_c   8.24246162
_cell_angle_alpha   111.28857969
_cell_angle_beta   110.81503758
_cell_angle_gamma   106.40488584
_symmetry_Int_Tables_number   1
_chemical_formula_structural   Ho10Tm2InCo4Ru
_chemical_formula_sum   'Ho10 Tm2 In1 Co4 Ru1'
_cell_volume   429.29446783
_cell_formula_units_Z   1
loop_
 _symmetry_equiv_pos_site_id
 _symmetry_equiv_pos_as_xyz
  1  'x, y, z'
loop_
 _atom_site_type_symbol
 _atom_site_label
 _atom_site_symmetry_multiplicity
 _atom_site_fract_x
 _atom_site_fract_y
 _atom_site_fract_z
 _atom_site_occupancy
  Ho  Ho0  1  0.023946  0.216301  0.807645  1
  Ho  Ho1  1  0.976054  0.783699  0.192355  1
  Ho  Ho2  1  0.185711  0.286191  0.471133  1
  Ho  Ho3  1  0.814289  0.713809  0.528867  1
  Ho  Ho4  1  0.185711  0.714577  0.899520  1
  Ho  Ho5  1  0.814289  0.285423  0.100480  1
  Ho  Ho6  1  0.314362  0.618850  0.306697  1
  Ho  Ho7  1  0.685638  0.381150  0.693303  1
  Ho  Ho8  1  0.314362  0.007665  0.695512  1
  Ho  Ho9  1  0.685638  0.992335  0.304488  1
  Tm  Tm10  1  0.409503  0.216885  0.192617  1
  Tm  Tm11  1  0.590497  0.783115  0.807383  1
  In  In12  1  0.500000  0.500000  0.000000  1
  Co  Co13  1  0.377305  0.000446  0.376859  1
  Co  Co14  1  0.622695  0.999554  0.623141  1
  Co  Co15  1  0.113145  0.611949  0.501196  1
  Co  Co16  1  0.886855  0.388051  0.498804  1
  Ru  Ru17  1  0.000000  0.000000  0.000000  1
