# generated using pymatgen
data_TmZr(Al3Ni)6
_symmetry_space_group_name_H-M   'P 1'
_cell_length_a   9.99197508
_cell_length_b   9.99197600
_cell_length_c   9.99197601
_cell_angle_alpha   42.39808522
_cell_angle_beta   42.39808904
_cell_angle_gamma   42.39808551
_symmetry_Int_Tables_number   1
_chemical_formula_structural   TmZr(Al3Ni)6
_chemical_formula_sum   'Tm1 Zr1 Al18 Ni6'
_cell_volume   410.60259690
_cell_formula_units_Z   1
loop_
 _symmetry_equiv_pos_site_id
 _symmetry_equiv_pos_as_xyz
  1  'x, y, z'
loop_
 _atom_site_type_symbol
 _atom_site_label
 _atom_site_symmetry_multiplicity
 _atom_site_fract_x
 _atom_site_fract_y
 _atom_site_fract_z
 _atom_site_occupancy
  Tm  Tm0  1  0.832998  0.832998  0.832998  1
  Zr  Zr1  1  0.167049  0.167049  0.167049  1
  Al  Al2  1  0.103607  0.431987  0.766289  1
  Al  Al3  1  0.431987  0.766289  0.103607  1
  Al  Al4  1  0.564616  0.897860  0.235441  1
  Al  Al5  1  0.947547  0.947547  0.947547  1
  Al  Al6  1  0.052595  0.052595  0.052595  1
  Al  Al7  1  0.291764  0.715102  0.493188  1
  Al  Al8  1  0.897860  0.235441  0.564616  1
  Al  Al9  1  0.387701  0.387701  0.387701  1
  Al  Al10  1  0.493188  0.291764  0.715102  1
  Al  Al11  1  0.235441  0.564616  0.897860  1
  Al  Al12  1  0.718358  0.718358  0.718358  1
  Al  Al13  1  0.612585  0.612585  0.612585  1
  Al  Al14  1  0.333296  0.000712  0.666039  1
  Al  Al15  1  0.715102  0.493188  0.291764  1
  Al  Al16  1  0.666039  0.333296  0.000712  1
  Al  Al17  1  0.281114  0.281114  0.281114  1
  Al  Al18  1  0.000712  0.666039  0.333296  1
  Al  Al19  1  0.766289  0.103607  0.431987  1
  Ni  Ni20  1  0.419144  0.078264  0.758865  1
  Ni  Ni21  1  0.581479  0.240873  0.921528  1
  Ni  Ni22  1  0.078264  0.758865  0.419144  1
  Ni  Ni23  1  0.758865  0.419144  0.078264  1
  Ni  Ni24  1  0.921528  0.581479  0.240873  1
  Ni  Ni25  1  0.240873  0.921528  0.581479  1
