# generated using pymatgen
data_Yb3SnAu3
_symmetry_space_group_name_H-M   'P 1'
_cell_length_a   16.36404200
_cell_length_b   4.57626900
_cell_length_c   8.70991100
_cell_angle_alpha   90.00000000
_cell_angle_beta   90.00000000
_cell_angle_gamma   90.00000000
_symmetry_Int_Tables_number   1
_chemical_formula_structural   Yb3SnAu3
_chemical_formula_sum   'Yb12 Sn4 Au12'
_cell_volume   652.25264334
_cell_formula_units_Z   4
loop_
 _symmetry_equiv_pos_site_id
 _symmetry_equiv_pos_as_xyz
  1  'x, y, z'
loop_
 _atom_site_type_symbol
 _atom_site_label
 _atom_site_symmetry_multiplicity
 _atom_site_fract_x
 _atom_site_fract_y
 _atom_site_fract_z
 _atom_site_occupancy
  Yb  Yb0  1  0.845838  0.750000  0.024841  1
  Yb  Yb1  1  0.366449  0.250000  0.125319  1
  Yb  Yb2  1  0.055781  0.750000  0.247850  1
  Yb  Yb3  1  0.555781  0.750000  0.252151  1
  Yb  Yb4  1  0.866449  0.250000  0.374681  1
  Yb  Yb5  1  0.345837  0.750000  0.475160  1
  Yb  Yb6  1  0.654163  0.250000  0.524841  1
  Yb  Yb7  1  0.133551  0.750000  0.625318  1
  Yb  Yb8  1  0.444219  0.250000  0.747850  1
  Yb  Yb9  1  0.944219  0.250000  0.752150  1
  Yb  Yb10  1  0.633552  0.750000  0.874682  1
  Yb  Yb11  1  0.154163  0.250000  0.975159  1
  Sn  Sn12  1  0.708298  0.250000  0.137130  1
  Sn  Sn13  1  0.208298  0.250000  0.362870  1
  Sn  Sn14  1  0.791702  0.750000  0.637131  1
  Sn  Sn15  1  0.291702  0.750000  0.862869  1
  Au  Au16  1  0.548872  0.250000  0.034668  1
  Au  Au17  1  0.967977  0.250000  0.092702  1
  Au  Au18  1  0.239638  0.750000  0.174831  1
  Au  Au19  1  0.739638  0.750000  0.325169  1
  Au  Au20  1  0.467976  0.250000  0.407298  1
  Au  Au21  1  0.048872  0.250000  0.465331  1
  Au  Au22  1  0.951128  0.750000  0.534669  1
  Au  Au23  1  0.532023  0.750000  0.592701  1
  Au  Au24  1  0.260361  0.250000  0.674832  1
  Au  Au25  1  0.760362  0.250000  0.825168  1
  Au  Au26  1  0.032024  0.750000  0.907299  1
  Au  Au27  1  0.451128  0.750000  0.965331  1
