# generated using pymatgen
data_Ho4Er2CrCo17P12
_symmetry_space_group_name_H-M   'P 1'
_cell_length_a   3.67951100
_cell_length_b   10.49919900
_cell_length_c   12.16250800
_cell_angle_alpha   90.00000000
_cell_angle_beta   90.00000000
_cell_angle_gamma   90.00000000
_symmetry_Int_Tables_number   1
_chemical_formula_structural   Ho4Er2CrCo17P12
_chemical_formula_sum   'Ho4 Er2 Cr1 Co17 P12'
_cell_volume   469.86101431
_cell_formula_units_Z   1
loop_
 _symmetry_equiv_pos_site_id
 _symmetry_equiv_pos_as_xyz
  1  'x, y, z'
loop_
 _atom_site_type_symbol
 _atom_site_label
 _atom_site_symmetry_multiplicity
 _atom_site_fract_x
 _atom_site_fract_y
 _atom_site_fract_z
 _atom_site_occupancy
  Ho  Ho0  1  0.750000  0.250000  0.477670  1
  Ho  Ho1  1  0.250000  0.750000  0.522460  1
  Ho  Ho2  1  0.250000  0.932194  0.795253  1
  Ho  Ho3  1  0.250000  0.567806  0.795253  1
  Er  Er4  1  0.750000  0.067830  0.206176  1
  Er  Er5  1  0.750000  0.432170  0.206176  1
  Cr  Cr6  1  0.750000  0.750000  0.156096  1
  Co  Co7  1  0.250000  0.250000  0.840398  1
  Co  Co8  1  0.250000  0.250000  0.296360  1
  Co  Co9  1  0.750000  0.750000  0.702656  1
  Co  Co10  1  0.750000  0.250000  0.014666  1
  Co  Co11  1  0.250000  0.750000  0.987580  1
  Co  Co12  1  0.250000  0.416782  0.006267  1
  Co  Co13  1  0.250000  0.083218  0.006267  1
  Co  Co14  1  0.750000  0.582723  0.993857  1
  Co  Co15  1  0.750000  0.917277  0.993857  1
  Co  Co16  1  0.250000  0.452863  0.568891  1
  Co  Co17  1  0.250000  0.047137  0.568891  1
  Co  Co18  1  0.750000  0.546688  0.430257  1
  Co  Co19  1  0.750000  0.953312  0.430257  1
  Co  Co20  1  0.250000  0.870938  0.290603  1
  Co  Co21  1  0.250000  0.629062  0.290603  1
  Co  Co22  1  0.750000  0.128980  0.709177  1
  Co  Co23  1  0.750000  0.371020  0.709177  1
  P  P24  1  0.250000  0.250000  0.117726  1
  P  P25  1  0.750000  0.750000  0.882125  1
  P  P26  1  0.250000  0.250000  0.656086  1
  P  P27  1  0.750000  0.750000  0.346191  1
  P  P28  1  0.250000  0.438382  0.383516  1
  P  P29  1  0.250000  0.061618  0.383516  1
  P  P30  1  0.750000  0.561212  0.616053  1
  P  P31  1  0.750000  0.938788  0.616053  1
  P  P32  1  0.250000  0.904095  0.107516  1
  P  P33  1  0.250000  0.595905  0.107516  1
  P  P34  1  0.750000  0.098460  0.892427  1
  P  P35  1  0.750000  0.401540  0.892427  1
