# generated using pymatgen
data_LaTmMo2O7
_symmetry_space_group_name_H-M   'P 1'
_cell_length_a   7.36158785
_cell_length_b   7.43981539
_cell_length_c   7.43981574
_cell_angle_alpha   60.83420113
_cell_angle_beta   60.34722167
_cell_angle_gamma   60.34721982
_symmetry_Int_Tables_number   1
_chemical_formula_structural   LaTmMo2O7
_chemical_formula_sum   'La2 Tm2 Mo4 O14'
_cell_volume   291.42882337
_cell_formula_units_Z   2
loop_
 _symmetry_equiv_pos_site_id
 _symmetry_equiv_pos_as_xyz
  1  'x, y, z'
loop_
 _atom_site_type_symbol
 _atom_site_label
 _atom_site_symmetry_multiplicity
 _atom_site_fract_x
 _atom_site_fract_y
 _atom_site_fract_z
 _atom_site_occupancy
  La  La0  1  0.125000  0.625000  0.125000  1
  La  La1  1  0.125000  0.125000  0.625000  1
  Tm  Tm2  1  0.125000  0.125000  0.125000  1
  Tm  Tm3  1  0.625000  0.125000  0.125000  1
  Mo  Mo4  1  0.625000  0.625000  0.625000  1
  Mo  Mo5  1  0.125000  0.625000  0.625000  1
  Mo  Mo6  1  0.625000  0.125000  0.625000  1
  Mo  Mo7  1  0.625000  0.625000  0.125000  1
  O  O8  1  0.259319  0.240681  0.240681  1
  O  O9  1  0.990681  0.009319  0.009319  1
  O  O10  1  0.549305  0.961341  0.528160  1
  O  O11  1  0.288806  0.721840  0.288659  1
  O  O12  1  0.549305  0.528160  0.961341  1
  O  O13  1  0.958634  0.541366  0.541366  1
  O  O14  1  0.533419  0.966581  0.966581  1
  O  O15  1  0.961194  0.961341  0.528160  1
  O  O16  1  0.961194  0.528160  0.961341  1
  O  O17  1  0.716581  0.283419  0.283419  1
  O  O18  1  0.291366  0.708634  0.708634  1
  O  O19  1  0.700695  0.721840  0.288659  1
  O  O20  1  0.288806  0.288659  0.721840  1
  O  O21  1  0.700695  0.288659  0.721840  1
