# generated using pymatgen
data_Np4CrB12Ru
_symmetry_space_group_name_H-M   'P 1'
_cell_length_a   3.55157200
_cell_length_b   9.31588908
_cell_length_c   11.33718242
_cell_angle_alpha   89.87417661
_cell_angle_beta   90.00000000
_cell_angle_gamma   90.00000000
_symmetry_Int_Tables_number   1
_chemical_formula_structural   Np4CrB12Ru
_chemical_formula_sum   'Np8 Cr2 B24 Ru2'
_cell_volume   375.10168911
_cell_formula_units_Z   2
loop_
 _symmetry_equiv_pos_site_id
 _symmetry_equiv_pos_as_xyz
  1  'x, y, z'
loop_
 _atom_site_type_symbol
 _atom_site_label
 _atom_site_symmetry_multiplicity
 _atom_site_fract_x
 _atom_site_fract_y
 _atom_site_fract_z
 _atom_site_occupancy
  Np  Np0  1  0.000000  0.836225  0.095352  1
  Np  Np1  1  0.000000  0.163775  0.904648  1
  Np  Np2  1  0.000000  0.341581  0.408900  1
  Np  Np3  1  0.000000  0.658419  0.591100  1
  Np  Np4  1  0.000000  0.461960  0.100979  1
  Np  Np5  1  0.000000  0.538040  0.899021  1
  Np  Np6  1  0.000000  0.956732  0.400933  1
  Np  Np7  1  0.000000  0.043268  0.599067  1
  Cr  Cr8  1  0.000000  0.646613  0.319102  1
  Cr  Cr9  1  0.000000  0.353387  0.680898  1
  B  B10  1  0.500000  0.051772  0.068246  1
  B  B11  1  0.500000  0.948228  0.931754  1
  B  B12  1  0.500000  0.553207  0.430675  1
  B  B13  1  0.500000  0.446793  0.569325  1
  B  B14  1  0.500000  0.243045  0.076263  1
  B  B15  1  0.500000  0.756955  0.923737  1
  B  B16  1  0.500000  0.742222  0.422892  1
  B  B17  1  0.500000  0.257778  0.577108  1
  B  B18  1  0.500000  0.306689  0.225916  1
  B  B19  1  0.500000  0.693311  0.774084  1
  B  B20  1  0.500000  0.804426  0.275304  1
  B  B21  1  0.500000  0.195574  0.724696  1
  B  B22  1  0.500000  0.147903  0.311580  1
  B  B23  1  0.500000  0.852097  0.688420  1
  B  B24  1  0.500000  0.646955  0.189784  1
  B  B25  1  0.500000  0.353045  0.810216  1
  B  B26  1  0.500000  0.490944  0.280168  1
  B  B27  1  0.500000  0.509056  0.719832  1
  B  B28  1  0.500000  0.989063  0.220484  1
  B  B29  1  0.500000  0.010937  0.779516  1
  B  B30  1  0.500000  0.145130  0.459752  1
  B  B31  1  0.500000  0.854870  0.540248  1
  B  B32  1  0.500000  0.644051  0.039817  1
  B  B33  1  0.500000  0.355949  0.960183  1
  Ru  Ru34  1  0.000000  0.147701  0.180962  1
  Ru  Ru35  1  0.000000  0.852299  0.819038  1
