# generated using pymatgen
data_HoCd4In(BiO6)2
_symmetry_space_group_name_H-M   'P 1'
_cell_length_a   6.65987621
_cell_length_b   6.69845442
_cell_length_c   6.69996340
_cell_angle_alpha   90.46393657
_cell_angle_beta   90.37357839
_cell_angle_gamma   90.58563551
_symmetry_Int_Tables_number   1
_chemical_formula_structural   HoCd4In(BiO6)2
_chemical_formula_sum   'Ho1 Cd4 In1 Bi2 O12'
_cell_volume   298.85931769
_cell_formula_units_Z   1
loop_
 _symmetry_equiv_pos_site_id
 _symmetry_equiv_pos_as_xyz
  1  'x, y, z'
loop_
 _atom_site_type_symbol
 _atom_site_label
 _atom_site_symmetry_multiplicity
 _atom_site_fract_x
 _atom_site_fract_y
 _atom_site_fract_z
 _atom_site_occupancy
  Ho  Ho0  1  0.056360  0.747785  0.562940  1
  Cd  Cd1  1  0.561614  0.050256  0.747637  1
  Cd  Cd2  1  0.946721  0.250182  0.438415  1
  Cd  Cd3  1  0.253334  0.434174  0.950271  1
  Cd  Cd4  1  0.439662  0.956563  0.252563  1
  In  In5  1  0.748087  0.565543  0.055040  1
  Bi  Bi6  1  0.504589  0.500930  0.501592  1
  Bi  Bi7  1  0.996610  0.002752  0.002419  1
  O  O8  1  0.026283  0.688557  0.906060  1
  O  O9  1  0.695020  0.894559  0.040047  1
  O  O10  1  0.914591  0.027970  0.694642  1
  O  O11  1  0.943593  0.307500  0.092651  1
  O  O12  1  0.300913  0.092222  0.961304  1
  O  O13  1  0.085690  0.951607  0.302543  1
  O  O14  1  0.807974  0.584636  0.407696  1
  O  O15  1  0.581123  0.431724  0.806621  1
  O  O16  1  0.403606  0.800098  0.566397  1
  O  O17  1  0.197428  0.436560  0.577905  1
  O  O18  1  0.448194  0.574961  0.193661  1
  O  O19  1  0.588610  0.201420  0.439594  1
