# generated using pymatgen
data_K4Mn2VGaF14
_symmetry_space_group_name_H-M   'P 1'
_cell_length_a   7.82318025
_cell_length_b   7.81868701
_cell_length_c   7.81868700
_cell_angle_alpha   120.79041216
_cell_angle_beta   117.20696264
_cell_angle_gamma   91.75436078
_symmetry_Int_Tables_number   1
_chemical_formula_structural   K4Mn2VGaF14
_chemical_formula_sum   'K4 Mn2 V1 Ga1 F14'
_cell_volume   342.75713921
_cell_formula_units_Z   1
loop_
 _symmetry_equiv_pos_site_id
 _symmetry_equiv_pos_as_xyz
  1  'x, y, z'
loop_
 _atom_site_type_symbol
 _atom_site_label
 _atom_site_symmetry_multiplicity
 _atom_site_fract_x
 _atom_site_fract_y
 _atom_site_fract_z
 _atom_site_occupancy
  K  K0  1  0.500000  0.500000  0.000000  1
  K  K1  1  0.000000  0.000000  0.000000  1
  K  K2  1  0.000000  0.500000  0.000000  1
  K  K3  1  0.000000  0.000000  0.500000  1
  Mn  Mn4  1  0.500000  0.500000  0.500000  1
  Mn  Mn5  1  0.500000  0.000000  0.000000  1
  V  V6  1  0.500000  0.000000  0.500000  1
  Ga  Ga7  1  0.000000  0.500000  0.500000  1
  F  F8  1  0.875770  0.582539  0.293232  1
  F  F9  1  0.197044  0.910831  0.286215  1
  F  F10  1  0.183041  0.793555  0.752205  1
  F  F11  1  0.456984  0.702302  0.385927  1
  F  F12  1  0.456984  0.071057  0.754682  1
  F  F13  1  0.183041  0.430836  0.389485  1
  F  F14  1  0.816959  0.569164  0.610515  1
  F  F15  1  0.543016  0.928943  0.245318  1
  F  F16  1  0.543016  0.297698  0.614073  1
  F  F17  1  0.816959  0.206445  0.247795  1
  F  F18  1  0.388873  0.249832  0.139041  1
  F  F19  1  0.124230  0.417461  0.706768  1
  F  F20  1  0.802956  0.089169  0.713785  1
  F  F21  1  0.611127  0.750168  0.860959  1
