# generated using pymatgen
data_Yb2Cu7Ni3
_symmetry_space_group_name_H-M   'P 1'
_cell_length_a   4.01227100
_cell_length_b   4.93330859
_cell_length_c   8.51576365
_cell_angle_alpha   90.00767246
_cell_angle_beta   90.00000000
_cell_angle_gamma   90.00000000
_symmetry_Int_Tables_number   1
_chemical_formula_structural   Yb2Cu7Ni3
_chemical_formula_sum   'Yb2 Cu7 Ni3'
_cell_volume   168.55907417
_cell_formula_units_Z   1
loop_
 _symmetry_equiv_pos_site_id
 _symmetry_equiv_pos_as_xyz
  1  'x, y, z'
loop_
 _atom_site_type_symbol
 _atom_site_label
 _atom_site_symmetry_multiplicity
 _atom_site_fract_x
 _atom_site_fract_y
 _atom_site_fract_z
 _atom_site_occupancy
  Yb  Yb0  1  0.000000  0.250101  0.754105  1
  Yb  Yb1  1  0.000000  0.749899  0.245895  1
  Cu  Cu2  1  0.000000  0.242780  0.086764  1
  Cu  Cu3  1  0.000000  0.750037  0.587329  1
  Cu  Cu4  1  0.000000  0.757220  0.913236  1
  Cu  Cu5  1  0.000000  0.249963  0.412671  1
  Cu  Cu6  1  0.500000  0.500000  0.500000  1
  Cu  Cu7  1  0.500000  0.500000  0.000000  1
  Cu  Cu8  1  0.500000  0.000000  0.500000  1
  Ni  Ni9  1  0.500000  0.752639  0.751160  1
  Ni  Ni10  1  0.500000  0.247361  0.248840  1
  Ni  Ni11  1  0.500000  0.000000  0.000000  1
