# generated using pymatgen
data_Nd2Ho5Er(WO6)4
_symmetry_space_group_name_H-M   'P 1'
_cell_length_a   5.43446806
_cell_length_b   7.75703061
_cell_length_c   11.52705145
_cell_angle_alpha   75.48624474
_cell_angle_beta   90.00032277
_cell_angle_gamma   89.98353525
_symmetry_Int_Tables_number   1
_chemical_formula_structural   Nd2Ho5Er(WO6)4
_chemical_formula_sum   'Nd2 Ho5 Er1 W4 O24'
_cell_volume   470.41956027
_cell_formula_units_Z   1
loop_
 _symmetry_equiv_pos_site_id
 _symmetry_equiv_pos_as_xyz
  1  'x, y, z'
loop_
 _atom_site_type_symbol
 _atom_site_label
 _atom_site_symmetry_multiplicity
 _atom_site_fract_x
 _atom_site_fract_y
 _atom_site_fract_z
 _atom_site_occupancy
  Nd  Nd0  1  0.685384  0.499917  0.249965  1
  Nd  Nd1  1  0.314727  0.499808  0.750188  1
  Ho  Ho2  1  0.185275  0.203338  0.422925  1
  Ho  Ho3  1  0.185139  0.796866  0.076952  1
  Ho  Ho4  1  0.814676  0.796683  0.577018  1
  Ho  Ho5  1  0.742513  0.000125  0.249803  1
  Ho  Ho6  1  0.257530  0.000128  0.750241  1
  Er  Er7  1  0.814943  0.203640  0.922721  1
  W  W8  1  0.254623  0.272013  0.115562  1
  W  W9  1  0.254387  0.727827  0.384180  1
  W  W10  1  0.745600  0.727734  0.884241  1
  W  W11  1  0.745721  0.272107  0.615964  1
  O  O12  1  0.455983  0.204320  0.273314  1
  O  O13  1  0.455876  0.795568  0.226468  1
  O  O14  1  0.543993  0.795394  0.726561  1
  O  O15  1  0.544756  0.204326  0.774027  1
  O  O16  1  0.043146  0.058703  0.103755  1
  O  O17  1  0.043304  0.941485  0.395929  1
  O  O18  1  0.955735  0.942199  0.896020  1
  O  O19  1  0.956765  0.058574  0.604103  1
  O  O20  1  0.985409  0.280439  0.230464  1
  O  O21  1  0.985190  0.719538  0.269483  1
  O  O22  1  0.014898  0.719697  0.769646  1
  O  O23  1  0.014534  0.280342  0.730959  1
  O  O24  1  0.853398  0.359247  0.454138  1
  O  O25  1  0.853464  0.640758  0.045941  1
  O  O26  1  0.146609  0.640654  0.545991  1
  O  O27  1  0.145563  0.358887  0.953902  1
  O  O28  1  0.650999  0.507093  0.613118  1
  O  O29  1  0.651686  0.492431  0.886975  1
  O  O30  1  0.348971  0.492817  0.386905  1
  O  O31  1  0.348807  0.507005  0.112895  1
  O  O32  1  0.464215  0.154730  0.569996  1
  O  O33  1  0.463973  0.845114  0.930277  1
  O  O34  1  0.535696  0.845412  0.430248  1
  O  O35  1  0.536511  0.155081  0.069126  1
