# generated using pymatgen
data_Tm4SnSb5Rh7
_symmetry_space_group_name_H-M   'P 1'
_cell_length_a   7.57618848
_cell_length_b   7.57618944
_cell_length_c   7.57618918
_cell_angle_alpha   109.58435933
_cell_angle_beta   109.41468214
_cell_angle_gamma   109.41468160
_symmetry_Int_Tables_number   1
_chemical_formula_structural   Tm4SnSb5Rh7
_chemical_formula_sum   'Tm4 Sn1 Sb5 Rh7'
_cell_volume   334.75666725
_cell_formula_units_Z   1
loop_
 _symmetry_equiv_pos_site_id
 _symmetry_equiv_pos_as_xyz
  1  'x, y, z'
loop_
 _atom_site_type_symbol
 _atom_site_label
 _atom_site_symmetry_multiplicity
 _atom_site_fract_x
 _atom_site_fract_y
 _atom_site_fract_z
 _atom_site_occupancy
  Tm  Tm0  1  0.498749  0.000753  0.000753  1
  Tm  Tm1  1  0.000000  0.502004  0.000753  1
  Tm  Tm2  1  0.000000  0.000753  0.502004  1
  Tm  Tm3  1  0.501251  0.502004  0.502004  1
  Sn  Sn4  1  0.000000  0.312951  0.312951  1
  Sb  Sb5  1  0.683936  0.001484  0.685420  1
  Sb  Sb6  1  0.683936  0.685420  0.001484  1
  Sb  Sb7  1  0.000000  0.679085  0.679085  1
  Sb  Sb8  1  0.316064  0.001484  0.317547  1
  Sb  Sb9  1  0.316064  0.317547  0.001484  1
  Rh  Rh10  1  0.000000  0.994581  0.994581  1
  Rh  Rh11  1  0.500000  0.751145  0.251145  1
  Rh  Rh12  1  0.749034  0.499910  0.248945  1
  Rh  Rh13  1  0.250966  0.750876  0.499910  1
  Rh  Rh14  1  0.250966  0.499910  0.750876  1
  Rh  Rh15  1  0.500000  0.251145  0.751145  1
  Rh  Rh16  1  0.749034  0.248945  0.499910  1
