# generated using pymatgen
data_TbHo3(Lu3Ru2)2
_symmetry_space_group_name_H-M   'P 1'
_cell_length_a   6.23836399
_cell_length_b   7.23859202
_cell_length_c   8.34038039
_cell_angle_alpha   97.07725922
_cell_angle_beta   111.98261357
_cell_angle_gamma   89.97693843
_symmetry_Int_Tables_number   1
_chemical_formula_structural   TbHo3(Lu3Ru2)2
_chemical_formula_sum   'Tb1 Ho3 Lu6 Ru4'
_cell_volume   346.15575029
_cell_formula_units_Z   1
loop_
 _symmetry_equiv_pos_site_id
 _symmetry_equiv_pos_as_xyz
  1  'x, y, z'
loop_
 _atom_site_type_symbol
 _atom_site_label
 _atom_site_symmetry_multiplicity
 _atom_site_fract_x
 _atom_site_fract_y
 _atom_site_fract_z
 _atom_site_occupancy
  Tb  Tb0  1  0.289407  0.583285  0.811454  1
  Ho  Ho1  1  0.521800  0.082918  0.810847  1
  Ho  Ho2  1  0.477656  0.917090  0.188884  1
  Ho  Ho3  1  0.711215  0.416899  0.188623  1
  Lu  Lu4  1  0.298513  0.314618  0.433444  1
  Lu  Lu5  1  0.701552  0.685558  0.566439  1
  Lu  Lu6  1  0.865101  0.185649  0.566008  1
  Lu  Lu7  1  0.134992  0.813975  0.433765  1
  Lu  Lu8  1  0.079971  0.250293  0.999861  1
  Lu  Lu9  1  0.919817  0.749754  0.999914  1
  Ru  Ru10  1  0.319262  0.576590  0.222102  1
  Ru  Ru11  1  0.680396  0.422977  0.778230  1
  Ru  Ru12  1  0.096972  0.924401  0.777796  1
  Ru  Ru13  1  0.903346  0.075994  0.222632  1
