# generated using pymatgen
data_YTiCoO5
_symmetry_space_group_name_H-M   'P 1'
_cell_length_a   5.73739200
_cell_length_b   7.36025700
_cell_length_c   8.49884600
_cell_angle_alpha   90.00000000
_cell_angle_beta   90.00000000
_cell_angle_gamma   90.00000000
_symmetry_Int_Tables_number   1
_chemical_formula_structural   YTiCoO5
_chemical_formula_sum   'Y4 Ti4 Co4 O20'
_cell_volume   358.89504496
_cell_formula_units_Z   4
loop_
 _symmetry_equiv_pos_site_id
 _symmetry_equiv_pos_as_xyz
  1  'x, y, z'
loop_
 _atom_site_type_symbol
 _atom_site_label
 _atom_site_symmetry_multiplicity
 _atom_site_fract_x
 _atom_site_fract_y
 _atom_site_fract_z
 _atom_site_occupancy
  Y  Y0  1  0.500000  0.361215  0.328152  1
  Y  Y1  1  0.500000  0.638785  0.671848  1
  Y  Y2  1  0.500000  0.138785  0.828152  1
  Y  Y3  1  0.500000  0.861215  0.171848  1
  Ti  Ti4  1  0.000000  0.120861  0.147210  1
  Ti  Ti5  1  0.000000  0.879139  0.852790  1
  Ti  Ti6  1  0.000000  0.379139  0.647210  1
  Ti  Ti7  1  0.000000  0.620861  0.352790  1
  Co  Co8  1  0.253643  0.000000  0.500000  1
  Co  Co9  1  0.746357  0.000000  0.500000  1
  Co  Co10  1  0.746357  0.500000  0.000000  1
  Co  Co11  1  0.253643  0.500000  0.000000  1
  O  O12  1  0.223490  0.000000  0.000000  1
  O  O13  1  0.776510  0.000000  0.000000  1
  O  O14  1  0.776510  0.500000  0.500000  1
  O  O15  1  0.223490  0.500000  0.500000  1
  O  O16  1  0.000000  0.347298  0.071869  1
  O  O17  1  0.000000  0.652702  0.928131  1
  O  O18  1  0.000000  0.152702  0.571869  1
  O  O19  1  0.000000  0.847298  0.428131  1
  O  O20  1  0.253068  0.107477  0.292272  1
  O  O21  1  0.746932  0.892523  0.707728  1
  O  O22  1  0.253068  0.892523  0.707728  1
  O  O23  1  0.746932  0.392523  0.792272  1
  O  O24  1  0.746932  0.107477  0.292272  1
  O  O25  1  0.253068  0.607477  0.207728  1
  O  O26  1  0.746932  0.607477  0.207728  1
  O  O27  1  0.253068  0.392523  0.792272  1
  O  O28  1  0.500000  0.339386  0.056895  1
  O  O29  1  0.500000  0.660614  0.943105  1
  O  O30  1  0.500000  0.160614  0.556895  1
  O  O31  1  0.500000  0.839386  0.443105  1
