# generated using pymatgen
data_Y5ErAl6V4O24
_symmetry_space_group_name_H-M   'P 1'
_cell_length_a   10.66703249
_cell_length_b   10.67569740
_cell_length_c   10.66862799
_cell_angle_alpha   109.55613222
_cell_angle_beta   109.52191573
_cell_angle_gamma   109.34649940
_symmetry_Int_Tables_number   1
_chemical_formula_structural   Y5ErAl6V4O24
_chemical_formula_sum   'Y10 Er2 Al12 V8 O48'
_cell_volume   935.11913326
_cell_formula_units_Z   2
loop_
 _symmetry_equiv_pos_site_id
 _symmetry_equiv_pos_as_xyz
  1  'x, y, z'
loop_
 _atom_site_type_symbol
 _atom_site_label
 _atom_site_symmetry_multiplicity
 _atom_site_fract_x
 _atom_site_fract_y
 _atom_site_fract_z
 _atom_site_occupancy
  Y  Y0  1  0.374414  0.124410  0.248778  1
  Y  Y1  1  0.874346  0.624319  0.248729  1
  Y  Y2  1  0.750136  0.125257  0.375141  1
  Y  Y3  1  0.125057  0.250146  0.375290  1
  Y  Y4  1  0.249581  0.874435  0.624707  1
  Y  Y5  1  0.875092  0.750020  0.624565  1
  Y  Y6  1  0.125983  0.376026  0.751949  1
  Y  Y7  1  0.625426  0.875426  0.750898  1
  Y  Y8  1  0.751816  0.626480  0.876110  1
  Y  Y9  1  0.624420  0.249726  0.876151  1
  Er  Er10  1  0.375477  0.750001  0.123781  1
  Er  Er11  1  0.248245  0.373755  0.123856  1
  Al  Al12  1  0.875564  0.249835  0.124303  1
  Al  Al13  1  0.748737  0.874485  0.124277  1
  Al  Al14  1  0.125097  0.875346  0.250439  1
  Al  Al15  1  0.625436  0.375097  0.250547  1
  Al  Al16  1  0.249751  0.624668  0.373855  1
  Al  Al17  1  0.623986  0.749093  0.373878  1
  Al  Al18  1  0.750357  0.374920  0.625224  1
  Al  Al19  1  0.375000  0.250418  0.625220  1
  Al  Al20  1  0.875661  0.124761  0.749991  1
  Al  Al21  1  0.374247  0.625228  0.749897  1
  Al  Al22  1  0.250719  0.125885  0.876214  1
  Al  Al23  1  0.125478  0.750273  0.876186  1
  V  V24  1  0.000320  0.000607  0.000222  1
  V  V25  1  0.499907  0.999624  0.000219  1
  V  V26  1  0.499555  0.500397  0.000579  1
  V  V27  1  0.000932  0.500126  0.000538  1
  V  V28  1  0.499678  0.999390  0.499314  1
  V  V29  1  0.000088  0.499930  0.499928  1
  V  V30  1  0.999840  0.999999  0.499930  1
  V  V31  1  0.499636  0.499928  0.499321  1
  O  O32  1  0.211928  0.127091  0.026694  1
  O  O33  1  0.314735  0.899574  0.026596  1
  O  O34  1  0.708970  0.685235  0.086051  1
  O  O35  1  0.877057  0.400864  0.086150  1
  O  O36  1  0.975898  0.686285  0.099956  1
  O  O37  1  0.624067  0.413506  0.099955  1
  O  O38  1  0.597225  0.912939  0.121964  1
  O  O39  1  0.024822  0.209232  0.122067  1
  O  O40  1  0.208945  0.584882  0.183408  1
  O  O41  1  0.474144  0.598451  0.183420  1
  O  O42  1  0.585127  0.185071  0.208796  1
  O  O43  1  0.123493  0.023488  0.208516  1
  O  O44  1  0.476631  0.378491  0.291701  1
  O  O45  1  0.315129  0.913228  0.291647  1
  O  O46  1  0.913276  0.289173  0.313252  1
  O  O47  1  0.899986  0.024171  0.313295  1
  O  O48  1  0.288807  0.474178  0.372687  1
  O  O49  1  0.583906  0.898551  0.372679  1
  O  O50  1  0.815568  0.522976  0.401048  1
  O  O51  1  0.085439  0.878068  0.400972  1
  O  O52  1  0.813924  0.789551  0.413368  1
  O  O53  1  0.099380  0.623582  0.413536  1
  O  O54  1  0.376135  0.290013  0.475701  1
  O  O55  1  0.599792  0.185801  0.475899  1
  O  O56  1  0.399927  0.813750  0.523693  1
  O  O57  1  0.623748  0.710029  0.523896  1
  O  O58  1  0.901098  0.376365  0.586388  1
  O  O59  1  0.185522  0.210428  0.586559  1
  O  O60  1  0.914568  0.122113  0.599169  1
  O  O61  1  0.184577  0.476985  0.599094  1
  O  O62  1  0.710705  0.524718  0.624675  1
  O  O63  1  0.413955  0.099918  0.624680  1
  O  O64  1  0.099878  0.976134  0.686846  1
  O  O65  1  0.087012  0.710667  0.686882  1
  O  O66  1  0.684762  0.085107  0.706724  1
  O  O67  1  0.521861  0.621553  0.706677  1
  O  O68  1  0.414783  0.815172  0.791363  1
  O  O69  1  0.876769  0.976437  0.791642  1
  O  O70  1  0.792931  0.414619  0.815968  1
  O  O71  1  0.523338  0.401422  0.815968  1
  O  O72  1  0.976990  0.792380  0.878144  1
  O  O73  1  0.401181  0.085664  0.878249  1
  O  O74  1  0.025547  0.313492  0.901417  1
  O  O75  1  0.375868  0.588092  0.901432  1
  O  O76  1  0.290722  0.315643  0.915912  1
  O  O77  1  0.125203  0.600208  0.915817  1
  O  O78  1  0.686329  0.099548  0.974755  1
  O  O79  1  0.788372  0.875145  0.974660  1
