# generated using pymatgen
data_VSi(BW2)2
_symmetry_space_group_name_H-M   'P 1'
_cell_length_a   6.97114637
_cell_length_b   6.97114596
_cell_length_c   6.97114589
_cell_angle_alpha   129.04695740
_cell_angle_beta   129.04694945
_cell_angle_gamma   74.93503513
_symmetry_Int_Tables_number   1
_chemical_formula_structural   VSi(BW2)2
_chemical_formula_sum   'V2 Si2 B4 W8'
_cell_volume   198.99866145
_cell_formula_units_Z   2
loop_
 _symmetry_equiv_pos_site_id
 _symmetry_equiv_pos_as_xyz
  1  'x, y, z'
loop_
 _atom_site_type_symbol
 _atom_site_label
 _atom_site_symmetry_multiplicity
 _atom_site_fract_x
 _atom_site_fract_y
 _atom_site_fract_z
 _atom_site_occupancy
  V  V0  1  0.000000  0.000000  0.000000  1
  V  V1  1  0.500000  0.500000  0.000000  1
  Si  Si2  1  0.250000  0.250000  0.000000  1
  Si  Si3  1  0.750000  0.750000  0.000000  1
  B  B4  1  0.627381  0.127381  0.754762  1
  B  B5  1  0.127381  0.372619  0.500000  1
  B  B6  1  0.872619  0.627381  0.500000  1
  B  B7  1  0.372619  0.872619  0.245238  1
  W  W8  1  0.526428  0.697941  0.500000  1
  W  W9  1  0.026428  0.526428  0.828486  1
  W  W10  1  0.697941  0.197941  0.171514  1
  W  W11  1  0.973572  0.473572  0.171514  1
  W  W12  1  0.197941  0.026428  0.500000  1
  W  W13  1  0.473572  0.302059  0.500000  1
  W  W14  1  0.802059  0.973572  0.500000  1
  W  W15  1  0.302059  0.802059  0.828486  1
