# generated using pymatgen
data_Er3TmMnV3B16
_symmetry_space_group_name_H-M   'P 1'
_cell_length_a   3.42129500
_cell_length_b   5.94759154
_cell_length_c   11.50728005
_cell_angle_alpha   89.90957192
_cell_angle_beta   90.00000000
_cell_angle_gamma   90.00000000
_symmetry_Int_Tables_number   1
_chemical_formula_structural   Er3TmMnV3B16
_chemical_formula_sum   'Er3 Tm1 Mn1 V3 B16'
_cell_volume   234.15519619
_cell_formula_units_Z   1
loop_
 _symmetry_equiv_pos_site_id
 _symmetry_equiv_pos_as_xyz
  1  'x, y, z'
loop_
 _atom_site_type_symbol
 _atom_site_label
 _atom_site_symmetry_multiplicity
 _atom_site_fract_x
 _atom_site_fract_y
 _atom_site_fract_z
 _atom_site_occupancy
  Er  Er0  1  0.500000  0.375633  0.150337  1
  Er  Er1  1  0.500000  0.625240  0.850940  1
  Er  Er2  1  0.500000  0.124551  0.651992  1
  Tm  Tm3  1  0.500000  0.875970  0.346906  1
  Mn  Mn4  1  0.500000  0.874923  0.081240  1
  V  V5  1  0.500000  0.372444  0.414581  1
  V  V6  1  0.500000  0.627640  0.582855  1
  V  V7  1  0.500000  0.125397  0.920208  1
  B  B8  1  0.000000  0.109931  0.049113  1
  B  B9  1  0.000000  0.883843  0.955391  1
  B  B10  1  0.000000  0.384140  0.547513  1
  B  B11  1  0.000000  0.615857  0.451503  1
  B  B12  1  0.000000  0.134256  0.466796  1
  B  B13  1  0.000000  0.865460  0.532392  1
  B  B14  1  0.000000  0.365111  0.969284  1
  B  B15  1  0.000000  0.638298  0.033365  1
  B  B16  1  0.000000  0.020298  0.190847  1
  B  B17  1  0.000000  0.975934  0.808894  1
  B  B18  1  0.000000  0.475501  0.693515  1
  B  B19  1  0.000000  0.526255  0.305413  1
  B  B20  1  0.000000  0.212440  0.312191  1
  B  B21  1  0.000000  0.786352  0.686919  1
  B  B22  1  0.000000  0.284784  0.815697  1
  B  B23  1  0.000000  0.719738  0.182109  1
