# generated using pymatgen
data_Lu8Ga3Si13W12
_symmetry_space_group_name_H-M   'P 1'
_cell_length_a   6.69536959
_cell_length_b   6.87730297
_cell_length_c   12.99695942
_cell_angle_alpha   89.87024668
_cell_angle_beta   89.97484907
_cell_angle_gamma   90.04103411
_symmetry_Int_Tables_number   1
_chemical_formula_structural   Lu8Ga3Si13W12
_chemical_formula_sum   'Lu8 Ga3 Si13 W12'
_cell_volume   598.45735444
_cell_formula_units_Z   1
loop_
 _symmetry_equiv_pos_site_id
 _symmetry_equiv_pos_as_xyz
  1  'x, y, z'
loop_
 _atom_site_type_symbol
 _atom_site_label
 _atom_site_symmetry_multiplicity
 _atom_site_fract_x
 _atom_site_fract_y
 _atom_site_fract_z
 _atom_site_occupancy
  Lu  Lu0  1  0.493736  0.669130  0.593556  1
  Lu  Lu1  1  0.990395  0.830591  0.905848  1
  Lu  Lu2  1  0.509466  0.330231  0.094073  1
  Lu  Lu3  1  0.008597  0.170487  0.406610  1
  Lu  Lu4  1  0.504680  0.330862  0.407465  1
  Lu  Lu5  1  0.003585  0.168396  0.093467  1
  Lu  Lu6  1  0.495714  0.668585  0.906350  1
  Lu  Lu7  1  0.996732  0.830717  0.593839  1
  Ga  Ga8  1  0.670087  0.959307  0.456724  1
  Ga  Ga9  1  0.170561  0.540733  0.042701  1
  Ga  Ga10  1  0.329514  0.041040  0.956505  1
  Si  Si11  1  0.834869  0.458188  0.543889  1
  Si  Si12  1  0.335816  0.042943  0.543987  1
  Si  Si13  1  0.835742  0.458079  0.955556  1
  Si  Si14  1  0.663720  0.956973  0.043370  1
  Si  Si15  1  0.164840  0.542989  0.456866  1
  Si  Si16  1  0.465410  0.374358  0.751298  1
  Si  Si17  1  0.966918  0.124401  0.748726  1
  Si  Si18  1  0.533024  0.623823  0.252408  1
  Si  Si19  1  0.031936  0.874530  0.249581  1
  Si  Si20  1  0.696644  0.863328  0.749602  1
  Si  Si21  1  0.198540  0.639135  0.750027  1
  Si  Si22  1  0.302331  0.138652  0.250103  1
  Si  Si23  1  0.802201  0.360470  0.250064  1
  W  W24  1  0.667751  0.167533  0.628434  1
  W  W25  1  0.163427  0.338444  0.868645  1
  W  W26  1  0.335660  0.837425  0.130871  1
  W  W27  1  0.833968  0.655917  0.373570  1
  W  W28  1  0.325496  0.838624  0.375588  1
  W  W29  1  0.826167  0.660889  0.125766  1
  W  W30  1  0.675374  0.162030  0.874627  1
  W  W31  1  0.169189  0.339856  0.623083  1
  W  W32  1  0.835618  0.498744  0.749398  1
  W  W33  1  0.336757  0.003214  0.746728  1
  W  W34  1  0.162744  0.503937  0.252794  1
  W  W35  1  0.662793  0.995440  0.247877  1
