# generated using pymatgen
data_Na3Hf4Tl(CrSe4)4
_symmetry_space_group_name_H-M   'P 1'
_cell_length_a   7.49189055
_cell_length_b   15.17849668
_cell_length_c   6.42787232
_cell_angle_alpha   89.64293651
_cell_angle_beta   89.96921086
_cell_angle_gamma   89.58330841
_symmetry_Int_Tables_number   1
_chemical_formula_structural   Na3Hf4Tl(CrSe4)4
_chemical_formula_sum   'Na3 Hf4 Tl1 Cr4 Se16'
_cell_volume   730.91597612
_cell_formula_units_Z   1
loop_
 _symmetry_equiv_pos_site_id
 _symmetry_equiv_pos_as_xyz
  1  'x, y, z'
loop_
 _atom_site_type_symbol
 _atom_site_label
 _atom_site_symmetry_multiplicity
 _atom_site_fract_x
 _atom_site_fract_y
 _atom_site_fract_z
 _atom_site_occupancy
  Na  Na0  1  0.499888  0.497951  0.665343  1
  Na  Na1  1  0.995710  0.499429  0.011723  1
  Na  Na2  1  0.505363  0.999169  0.985693  1
  Hf  Hf3  1  0.514009  0.743789  0.997539  1
  Hf  Hf4  1  0.250833  0.251700  0.500815  1
  Hf  Hf5  1  0.749724  0.251548  0.500770  1
  Hf  Hf6  1  0.235708  0.749329  0.499217  1
  Tl  Tl7  1  0.002393  0.002829  0.342875  1
  Cr  Cr8  1  0.000355  0.251897  0.002275  1
  Cr  Cr9  1  0.999819  0.748862  0.000518  1
  Cr  Cr10  1  0.500015  0.254427  0.999500  1
  Cr  Cr11  1  0.749410  0.748568  0.498095  1
  Se  Se12  1  0.248766  0.350287  0.845304  1
  Se  Se13  1  0.764970  0.648610  0.821660  1
  Se  Se14  1  0.749029  0.155580  0.152569  1
  Se  Se15  1  0.244382  0.848025  0.153777  1
  Se  Se16  1  0.254250  0.155664  0.152841  1
  Se  Se17  1  0.756975  0.845314  0.171585  1
  Se  Se18  1  0.748938  0.350219  0.845227  1
  Se  Se19  1  0.243310  0.646411  0.841076  1
  Se  Se20  1  0.001825  0.151503  0.681904  1
  Se  Se21  1  0.984609  0.845733  0.675042  1
  Se  Se22  1  0.498869  0.353628  0.324729  1
  Se  Se23  1  0.507391  0.647503  0.343036  1
  Se  Se24  1  0.998691  0.352303  0.324739  1
  Se  Se25  1  0.988582  0.651545  0.324778  1
  Se  Se26  1  0.501559  0.150332  0.678005  1
  Se  Se27  1  0.504629  0.847845  0.659369  1
