# generated using pymatgen
data_Tb6Al13Mo3Os7
_symmetry_space_group_name_H-M   'P 1'
_cell_length_a   9.02300673
_cell_length_b   9.02300724
_cell_length_c   9.02300722
_cell_angle_alpha   59.46815030
_cell_angle_beta   59.46814631
_cell_angle_gamma   59.46814564
_symmetry_Int_Tables_number   1
_chemical_formula_structural   Tb6Al13Mo3Os7
_chemical_formula_sum   'Tb6 Al13 Mo3 Os7'
_cell_volume   513.15990919
_cell_formula_units_Z   1
loop_
 _symmetry_equiv_pos_site_id
 _symmetry_equiv_pos_as_xyz
  1  'x, y, z'
loop_
 _atom_site_type_symbol
 _atom_site_label
 _atom_site_symmetry_multiplicity
 _atom_site_fract_x
 _atom_site_fract_y
 _atom_site_fract_z
 _atom_site_occupancy
  Tb  Tb0  1  0.708145  0.708145  0.285357  1
  Tb  Tb1  1  0.293525  0.708169  0.293525  1
  Tb  Tb2  1  0.708169  0.293525  0.293525  1
  Tb  Tb3  1  0.293525  0.293525  0.708169  1
  Tb  Tb4  1  0.708145  0.285357  0.708145  1
  Tb  Tb5  1  0.285357  0.708145  0.708145  1
  Al  Al6  1  0.880163  0.880163  0.880163  1
  Al  Al7  1  0.121576  0.121576  0.639194  1
  Al  Al8  1  0.121576  0.639194  0.121576  1
  Al  Al9  1  0.639194  0.121576  0.121576  1
  Al  Al10  1  0.122089  0.122089  0.122089  1
  Al  Al11  1  0.669563  0.669563  0.993199  1
  Al  Al12  1  0.669563  0.993199  0.669563  1
  Al  Al13  1  0.993199  0.669563  0.669563  1
  Al  Al14  1  0.664558  0.664558  0.664558  1
  Al  Al15  1  0.330888  0.330888  0.010113  1
  Al  Al16  1  0.330888  0.010113  0.330888  1
  Al  Al17  1  0.010113  0.330888  0.330888  1
  Al  Al18  1  0.331491  0.331491  0.331491  1
  Mo  Mo19  1  0.877257  0.877257  0.362632  1
  Mo  Mo20  1  0.877257  0.362632  0.877257  1
  Mo  Mo21  1  0.362632  0.877257  0.877257  1
  Os  Os22  1  0.004922  0.004922  0.004922  1
  Os  Os23  1  0.998085  0.998085  0.497087  1
  Os  Os24  1  0.503713  0.995521  0.503713  1
  Os  Os25  1  0.995521  0.503713  0.503713  1
  Os  Os26  1  0.503713  0.503713  0.995521  1
  Os  Os27  1  0.998085  0.497087  0.998085  1
  Os  Os28  1  0.497087  0.998085  0.998085  1
