# generated using pymatgen
data_CsTc12I25
_symmetry_space_group_name_H-M   'P 1'
_cell_length_a   11.03359978
_cell_length_b   11.95020103
_cell_length_c   12.85305105
_cell_angle_alpha   82.47490953
_cell_angle_beta   72.49731923
_cell_angle_gamma   85.99968697
_symmetry_Int_Tables_number   1
_chemical_formula_structural   CsTc12I25
_chemical_formula_sum   'Cs1 Tc12 I25'
_cell_volume   1601.51499857
_cell_formula_units_Z   1
loop_
 _symmetry_equiv_pos_site_id
 _symmetry_equiv_pos_as_xyz
  1  'x, y, z'
loop_
 _atom_site_type_symbol
 _atom_site_label
 _atom_site_symmetry_multiplicity
 _atom_site_fract_x
 _atom_site_fract_y
 _atom_site_fract_z
 _atom_site_occupancy
  Cs  Cs0  1  0.500000  0.000000  0.000000  1
  Tc  Tc1  1  0.839906  0.262785  0.138005  1
  Tc  Tc2  1  0.160094  0.737215  0.861995  1
  Tc  Tc3  1  0.775952  0.137004  0.284086  1
  Tc  Tc4  1  0.224048  0.862996  0.715914  1
  Tc  Tc5  1  0.057276  0.284712  0.192419  1
  Tc  Tc6  1  0.942724  0.715288  0.807581  1
  Tc  Tc7  1  0.849887  0.421541  0.268396  1
  Tc  Tc8  1  0.150113  0.578459  0.731604  1
  Tc  Tc9  1  0.784934  0.296554  0.415392  1
  Tc  Tc10  1  0.215066  0.703446  0.584608  1
  Tc  Tc11  1  0.992869  0.159401  0.338783  1
  Tc  Tc12  1  0.007131  0.840599  0.661217  1
  I  I13  1  0.951801  0.972050  0.265775  1
  I  I14  1  0.048199  0.027950  0.734225  1
  I  I15  1  0.967983  0.269024  0.510686  1
  I  I16  1  0.032017  0.730976  0.489314  1
  I  I17  1  0.659973  0.427272  0.177164  1
  I  I18  1  0.340027  0.572728  0.822836  1
  I  I19  1  0.079068  0.472241  0.276101  1
  I  I20  1  0.920932  0.527759  0.723899  1
  I  I21  1  0.000000  0.500000  0.000000  1
  I  I22  1  0.624525  0.977697  0.252968  1
  I  I23  1  0.375475  0.022303  0.747032  1
  I  I24  1  0.202702  0.049776  0.382176  1
  I  I25  1  0.797298  0.950224  0.617824  1
  I  I26  1  0.565204  0.219655  0.415868  1
  I  I27  1  0.434796  0.780345  0.584132  1
  I  I28  1  0.062079  0.173476  0.024195  1
  I  I29  1  0.937921  0.826524  0.975805  1
  I  I30  1  0.773554  0.637381  0.316281  1
  I  I31  1  0.226446  0.362619  0.683719  1
  I  I32  1  0.749930  0.222863  0.967208  1
  I  I33  1  0.250070  0.777137  0.032792  1
  I  I34  1  0.319168  0.280075  0.115185  1
  I  I35  1  0.680832  0.719925  0.884815  1
  I  I36  1  0.650731  0.406039  0.590227  1
  I  I37  1  0.349269  0.593961  0.409773  1
