# generated using pymatgen
data_Sr15Ca(CN4)4
_symmetry_space_group_name_H-M   'P 1'
_cell_length_a   3.80797900
_cell_length_b   12.16535762
_cell_length_c   14.89840205
_cell_angle_alpha   89.39030367
_cell_angle_beta   90.00000000
_cell_angle_gamma   90.00000000
_symmetry_Int_Tables_number   1
_chemical_formula_structural   Sr15Ca(CN4)4
_chemical_formula_sum   'Sr15 Ca1 C4 N16'
_cell_volume   690.13575122
_cell_formula_units_Z   1
loop_
 _symmetry_equiv_pos_site_id
 _symmetry_equiv_pos_as_xyz
  1  'x, y, z'
loop_
 _atom_site_type_symbol
 _atom_site_label
 _atom_site_symmetry_multiplicity
 _atom_site_fract_x
 _atom_site_fract_y
 _atom_site_fract_z
 _atom_site_occupancy
  Sr  Sr0  1  0.250000  0.649920  0.252515  1
  Sr  Sr1  1  0.750000  0.355452  0.740322  1
  Sr  Sr2  1  0.250000  0.141347  0.243092  1
  Sr  Sr3  1  0.750000  0.854842  0.762511  1
  Sr  Sr4  1  0.250000  0.886312  0.382437  1
  Sr  Sr5  1  0.750000  0.116541  0.610322  1
  Sr  Sr6  1  0.250000  0.380344  0.109268  1
  Sr  Sr7  1  0.750000  0.614279  0.892512  1
  Sr  Sr8  1  0.250000  0.378135  0.538687  1
  Sr  Sr9  1  0.750000  0.627065  0.456563  1
  Sr  Sr10  1  0.250000  0.873035  0.965898  1
  Sr  Sr11  1  0.750000  0.119379  0.042381  1
  Sr  Sr12  1  0.250000  0.615801  0.670187  1
  Sr  Sr13  1  0.750000  0.390512  0.325651  1
  Sr  Sr14  1  0.250000  0.111292  0.829782  1
  Ca  Ca15  1  0.750000  0.887529  0.171396  1
  C  C16  1  0.250000  0.857804  0.584987  1
  C  C17  1  0.750000  0.147261  0.415208  1
  C  C18  1  0.250000  0.352605  0.914186  1
  C  C19  1  0.750000  0.643254  0.088254  1
  N  N20  1  0.250000  0.943142  0.630338  1
  N  N21  1  0.750000  0.057328  0.376259  1
  N  N22  1  0.250000  0.442070  0.872881  1
  N  N23  1  0.750000  0.550863  0.124976  1
  N  N24  1  0.250000  0.772469  0.539351  1
  N  N25  1  0.750000  0.236303  0.455693  1
  N  N26  1  0.250000  0.264012  0.956959  1
  N  N27  1  0.750000  0.735127  0.050624  1
  N  N28  1  0.250000  0.509502  0.378148  1
  N  N29  1  0.750000  0.497539  0.617203  1
  N  N30  1  0.250000  0.995230  0.124094  1
  N  N31  1  0.750000  0.993808  0.885202  1
  N  N32  1  0.750000  0.268953  0.181203  1
  N  N33  1  0.250000  0.724868  0.821268  1
  N  N34  1  0.750000  0.778694  0.308640  1
  N  N35  1  0.250000  0.227387  0.681003  1
