# generated using pymatgen
data_Tb8Sc12Si9Ge7
_symmetry_space_group_name_H-M   'P 1'
_cell_length_a   7.16975022
_cell_length_b   7.42747892
_cell_length_c   14.09671217
_cell_angle_alpha   90.00077437
_cell_angle_beta   89.87671171
_cell_angle_gamma   90.05941690
_symmetry_Int_Tables_number   1
_chemical_formula_structural   Tb8Sc12Si9Ge7
_chemical_formula_sum   'Tb8 Sc12 Si9 Ge7'
_cell_volume   750.69244911
_cell_formula_units_Z   1
loop_
 _symmetry_equiv_pos_site_id
 _symmetry_equiv_pos_as_xyz
  1  'x, y, z'
loop_
 _atom_site_type_symbol
 _atom_site_label
 _atom_site_symmetry_multiplicity
 _atom_site_fract_x
 _atom_site_fract_y
 _atom_site_fract_z
 _atom_site_occupancy
  Tb  Tb0  1  0.010022  0.175056  0.098304  1
  Tb  Tb1  1  0.993009  0.824480  0.902250  1
  Tb  Tb2  1  0.491602  0.677012  0.901887  1
  Tb  Tb3  1  0.992829  0.823011  0.598668  1
  Tb  Tb4  1  0.507001  0.322666  0.098632  1
  Tb  Tb5  1  0.007404  0.176800  0.401099  1
  Tb  Tb6  1  0.507011  0.323053  0.401074  1
  Tb  Tb7  1  0.493193  0.676716  0.598774  1
  Sc  Sc8  1  0.165407  0.501186  0.750026  1
  Sc  Sc9  1  0.834779  0.498984  0.249924  1
  Sc  Sc10  1  0.334688  0.001055  0.248627  1
  Sc  Sc11  1  0.665198  0.998842  0.749972  1
  Sc  Sc12  1  0.336536  0.172552  0.626692  1
  Sc  Sc13  1  0.663298  0.827302  0.373227  1
  Sc  Sc14  1  0.163321  0.672911  0.373330  1
  Sc  Sc15  1  0.662633  0.826522  0.126688  1
  Sc  Sc16  1  0.836602  0.327594  0.626711  1
  Sc  Sc17  1  0.335017  0.172488  0.873859  1
  Sc  Sc18  1  0.835266  0.326327  0.873915  1
  Sc  Sc19  1  0.165842  0.675719  0.125666  1
  Si  Si20  1  0.037047  0.117620  0.750231  1
  Si  Si21  1  0.962294  0.882028  0.249820  1
  Si  Si22  1  0.462306  0.617202  0.249937  1
  Si  Si23  1  0.537478  0.382167  0.750418  1
  Si  Si24  1  0.289647  0.872277  0.750124  1
  Si  Si25  1  0.710590  0.127546  0.249816  1
  Si  Si26  1  0.209824  0.373013  0.249657  1
  Si  Si27  1  0.790085  0.627654  0.750483  1
  Si  Si28  1  0.335174  0.962551  0.040250  1
  Ge  Ge29  1  0.170933  0.460507  0.540633  1
  Ge  Ge30  1  0.828892  0.539322  0.459215  1
  Ge  Ge31  1  0.329260  0.960630  0.459147  1
  Ge  Ge32  1  0.830334  0.538779  0.040765  1
  Ge  Ge33  1  0.670725  0.039512  0.540524  1
  Ge  Ge34  1  0.169359  0.460970  0.959468  1
  Ge  Ge35  1  0.665392  0.037944  0.960194  1
