# generated using pymatgen
data_PrAs4(Ru2Rh)2
_symmetry_space_group_name_H-M   'P 1'
_cell_length_a   7.19140203
_cell_length_b   7.21927254
_cell_length_c   3.92332700
_cell_angle_alpha   90.00000000
_cell_angle_beta   90.00000000
_cell_angle_gamma   120.12829562
_symmetry_Int_Tables_number   1
_chemical_formula_structural   PrAs4(Ru2Rh)2
_chemical_formula_sum   'Pr1 As4 Ru4 Rh2'
_cell_volume   176.16889869
_cell_formula_units_Z   1
loop_
 _symmetry_equiv_pos_site_id
 _symmetry_equiv_pos_as_xyz
  1  'x, y, z'
loop_
 _atom_site_type_symbol
 _atom_site_label
 _atom_site_symmetry_multiplicity
 _atom_site_fract_x
 _atom_site_fract_y
 _atom_site_fract_z
 _atom_site_occupancy
  Pr  Pr0  1  0.998387  0.999193  0.000000  1
  As  As1  1  0.338288  0.669145  0.000000  1
  As  As2  1  0.391050  0.195525  0.499999  1
  As  As3  1  0.803538  0.192119  0.499999  1
  As  As4  1  0.803539  0.611419  0.499999  1
  Ru  Ru5  1  0.534142  0.068466  0.000000  1
  Ru  Ru6  1  0.534142  0.465677  0.000000  1
  Ru  Ru7  1  0.933841  0.466921  0.000000  1
  Ru  Ru8  1  0.596726  0.798364  0.499999  1
  Rh  Rh9  1  0.199839  0.399099  0.499999  1
  Rh  Rh10  1  0.199838  0.800739  0.499999  1
