# generated using pymatgen
data_Tb16Tm3MgIr12
_symmetry_space_group_name_H-M   'P 1'
_cell_length_a   10.89569900
_cell_length_b   10.89569900
_cell_length_c   6.30848200
_cell_angle_alpha   90.00000000
_cell_angle_beta   90.00000000
_cell_angle_gamma   90.00000000
_symmetry_Int_Tables_number   1
_chemical_formula_structural   Tb16Tm3MgIr12
_chemical_formula_sum   'Tb16 Tm3 Mg1 Ir12'
_cell_volume   748.91936849
_cell_formula_units_Z   1
loop_
 _symmetry_equiv_pos_site_id
 _symmetry_equiv_pos_as_xyz
  1  'x, y, z'
loop_
 _atom_site_type_symbol
 _atom_site_label
 _atom_site_symmetry_multiplicity
 _atom_site_fract_x
 _atom_site_fract_y
 _atom_site_fract_z
 _atom_site_occupancy
  Tb  Tb0  1  0.283448  0.084605  0.378466  1
  Tb  Tb1  1  0.289805  0.912249  0.879044  1
  Tb  Tb2  1  0.710195  0.087751  0.879044  1
  Tb  Tb3  1  0.716552  0.915395  0.378466  1
  Tb  Tb4  1  0.588447  0.790926  0.878690  1
  Tb  Tb5  1  0.587182  0.208953  0.377039  1
  Tb  Tb6  1  0.412818  0.791047  0.377039  1
  Tb  Tb7  1  0.411553  0.209074  0.878690  1
  Tb  Tb8  1  0.208953  0.412818  0.622961  1
  Tb  Tb9  1  0.209074  0.588447  0.121310  1
  Tb  Tb10  1  0.790926  0.411553  0.121310  1
  Tb  Tb11  1  0.791047  0.587182  0.622961  1
  Tb  Tb12  1  0.912249  0.710195  0.120956  1
  Tb  Tb13  1  0.915395  0.283448  0.621534  1
  Tb  Tb14  1  0.084605  0.716552  0.621534  1
  Tb  Tb15  1  0.087751  0.289805  0.120956  1
  Tm  Tm16  1  0.000000  0.000000  0.000000  1
  Tm  Tm17  1  0.500000  0.500000  0.000000  1
  Tm  Tm18  1  0.500000  0.500000  0.500000  1
  Mg  Mg19  1  0.000000  0.000000  0.500000  1
  Ir  Ir20  1  0.847456  0.153496  0.246427  1
  Ir  Ir21  1  0.846504  0.847456  0.753573  1
  Ir  Ir22  1  0.153496  0.152544  0.753573  1
  Ir  Ir23  1  0.152544  0.846504  0.246427  1
  Ir  Ir24  1  0.652703  0.347686  0.748466  1
  Ir  Ir25  1  0.652314  0.652703  0.251534  1
  Ir  Ir26  1  0.347686  0.347297  0.251534  1
  Ir  Ir27  1  0.347297  0.652314  0.748466  1
  Ir  Ir28  1  0.500000  0.000000  0.123719  1
  Ir  Ir29  1  0.500000  0.000000  0.619712  1
  Ir  Ir30  1  0.000000  0.500000  0.876281  1
  Ir  Ir31  1  0.000000  0.500000  0.380288  1
