# generated using pymatgen
data_Dy12Ho8(Bi3Sb)3
_symmetry_space_group_name_H-M   'P 1'
_cell_length_a   8.18766630
_cell_length_b   9.45752800
_cell_length_c   12.00024251
_cell_angle_alpha   90.00000000
_cell_angle_beta   90.04896897
_cell_angle_gamma   90.00000000
_symmetry_Int_Tables_number   1
_chemical_formula_structural   Dy12Ho8(Bi3Sb)3
_chemical_formula_sum   'Dy12 Ho8 Bi9 Sb3'
_cell_volume   929.23943852
_cell_formula_units_Z   1
loop_
 _symmetry_equiv_pos_site_id
 _symmetry_equiv_pos_as_xyz
  1  'x, y, z'
loop_
 _atom_site_type_symbol
 _atom_site_label
 _atom_site_symmetry_multiplicity
 _atom_site_fract_x
 _atom_site_fract_y
 _atom_site_fract_z
 _atom_site_occupancy
  Dy  Dy0  1  0.352588  0.750000  0.213043  1
  Dy  Dy1  1  0.852989  0.750000  0.286461  1
  Dy  Dy2  1  0.647294  0.250000  0.786678  1
  Dy  Dy3  1  0.148163  0.250000  0.716454  1
  Dy  Dy4  1  0.475599  0.250000  0.487961  1
  Dy  Dy5  1  0.972881  0.250000  0.011867  1
  Dy  Dy6  1  0.528495  0.750000  0.512674  1
  Dy  Dy7  1  0.027667  0.750000  0.987944  1
  Dy  Dy8  1  0.318026  0.250000  0.216241  1
  Dy  Dy9  1  0.811475  0.250000  0.278976  1
  Dy  Dy10  1  0.683289  0.750000  0.782157  1
  Dy  Dy11  1  0.183811  0.750000  0.717898  1
  Ho  Ho12  1  0.688918  0.562973  0.057392  1
  Ho  Ho13  1  0.190273  0.933706  0.442550  1
  Ho  Ho14  1  0.311275  0.062530  0.942784  1
  Ho  Ho15  1  0.808537  0.439778  0.558975  1
  Ho  Ho16  1  0.311275  0.437470  0.942784  1
  Ho  Ho17  1  0.808537  0.060222  0.558975  1
  Ho  Ho18  1  0.688918  0.937027  0.057392  1
  Ho  Ho19  1  0.190273  0.566294  0.442550  1
  Bi  Bi20  1  0.092041  0.250000  0.456595  1
  Bi  Bi21  1  0.565507  0.995126  0.325560  1
  Bi  Bi22  1  0.065849  0.504077  0.174399  1
  Bi  Bi23  1  0.433925  0.495527  0.674629  1
  Bi  Bi24  1  0.934016  0.004008  0.825812  1
  Bi  Bi25  1  0.433925  0.004473  0.674629  1
  Bi  Bi26  1  0.934016  0.495992  0.825812  1
  Bi  Bi27  1  0.565507  0.504874  0.325560  1
  Bi  Bi28  1  0.065849  0.995923  0.174399  1
  Sb  Sb29  1  0.407548  0.750000  0.958101  1
  Sb  Sb30  1  0.908321  0.750000  0.541539  1
  Sb  Sb31  1  0.593214  0.250000  0.041205  1
