# generated using pymatgen
data_Tc12AgBr25
_symmetry_space_group_name_H-M   'P 1'
_cell_length_a   9.73661940
_cell_length_b   10.91130423
_cell_length_c   11.54241502
_cell_angle_alpha   84.84105786
_cell_angle_beta   75.65482196
_cell_angle_gamma   88.75248207
_symmetry_Int_Tables_number   1
_chemical_formula_structural   Tc12AgBr25
_chemical_formula_sum   'Tc12 Ag1 Br25'
_cell_volume   1183.21051271
_cell_formula_units_Z   1
loop_
 _symmetry_equiv_pos_site_id
 _symmetry_equiv_pos_as_xyz
  1  'x, y, z'
loop_
 _atom_site_type_symbol
 _atom_site_label
 _atom_site_symmetry_multiplicity
 _atom_site_fract_x
 _atom_site_fract_y
 _atom_site_fract_z
 _atom_site_occupancy
  Tc  Tc0  1  0.823230  0.251422  0.120840  1
  Tc  Tc1  1  0.176770  0.748578  0.879160  1
  Tc  Tc2  1  0.749527  0.117988  0.276495  1
  Tc  Tc3  1  0.250473  0.882012  0.723505  1
  Tc  Tc4  1  0.065503  0.273200  0.192241  1
  Tc  Tc5  1  0.934497  0.726800  0.807759  1
  Tc  Tc6  1  0.846333  0.426765  0.264786  1
  Tc  Tc7  1  0.153667  0.573235  0.735214  1
  Tc  Tc8  1  0.769641  0.294877  0.423364  1
  Tc  Tc9  1  0.230359  0.705123  0.576636  1
  Tc  Tc10  1  0.988834  0.142435  0.351397  1
  Tc  Tc11  1  0.011166  0.857565  0.648603  1
  Ag  Ag12  1  0.500000  0.000000  0.000000  1
  Br  Br13  1  0.936933  0.956897  0.258743  1
  Br  Br14  1  0.063067  0.043103  0.741257  1
  Br  Br15  1  0.971991  0.275872  0.518999  1
  Br  Br16  1  0.028009  0.724128  0.481001  1
  Br  Br17  1  0.645041  0.420755  0.165215  1
  Br  Br18  1  0.354959  0.579245  0.834785  1
  Br  Br19  1  0.093426  0.467734  0.281861  1
  Br  Br20  1  0.906574  0.532266  0.718139  1
  Br  Br21  1  0.000000  0.500000  0.000000  1
  Br  Br22  1  0.590097  0.965274  0.218444  1
  Br  Br23  1  0.409903  0.034726  0.781556  1
  Br  Br24  1  0.198992  0.032513  0.406868  1
  Br  Br25  1  0.801008  0.967487  0.593132  1
  Br  Br26  1  0.539249  0.215473  0.403593  1
  Br  Br27  1  0.460751  0.784527  0.596407  1
  Br  Br28  1  0.053571  0.158575  0.018934  1
  Br  Br29  1  0.946429  0.841425  0.981066  1
  Br  Br30  1  0.775524  0.640282  0.315686  1
  Br  Br31  1  0.224476  0.359718  0.684314  1
  Br  Br32  1  0.717017  0.195636  0.951677  1
  Br  Br33  1  0.282983  0.804364  0.048323  1
  Br  Br34  1  0.329829  0.255264  0.120688  1
  Br  Br35  1  0.670171  0.744736  0.879312  1
  Br  Br36  1  0.637826  0.405210  0.595869  1
  Br  Br37  1  0.362174  0.594790  0.404131  1
