# generated using pymatgen
data_Cs2Re6Te11
_symmetry_space_group_name_H-M   'P 1'
_cell_length_a   13.40832582
_cell_length_b   13.40832546
_cell_length_c   13.40832556
_cell_angle_alpha   46.55937512
_cell_angle_beta   46.55937697
_cell_angle_gamma   46.55937434
_symmetry_Int_Tables_number   1
_chemical_formula_structural   Cs2Re6Te11
_chemical_formula_sum   'Cs4 Re12 Te22'
_cell_volume   1160.59779292
_cell_formula_units_Z   2
loop_
 _symmetry_equiv_pos_site_id
 _symmetry_equiv_pos_as_xyz
  1  'x, y, z'
loop_
 _atom_site_type_symbol
 _atom_site_label
 _atom_site_symmetry_multiplicity
 _atom_site_fract_x
 _atom_site_fract_y
 _atom_site_fract_z
 _atom_site_occupancy
  Cs  Cs0  1  0.306537  0.306537  0.306537  1
  Cs  Cs1  1  0.193463  0.193463  0.193463  1
  Cs  Cs2  1  0.693463  0.693463  0.693463  1
  Cs  Cs3  1  0.806537  0.806537  0.806537  1
  Re  Re4  1  0.613081  0.319089  0.473989  1
  Re  Re5  1  0.473989  0.613081  0.319089  1
  Re  Re6  1  0.819089  0.113081  0.973989  1
  Re  Re7  1  0.973989  0.819089  0.113081  1
  Re  Re8  1  0.113081  0.973989  0.819089  1
  Re  Re9  1  0.680911  0.526011  0.386919  1
  Re  Re10  1  0.386919  0.680911  0.526011  1
  Re  Re11  1  0.526011  0.386919  0.680911  1
  Re  Re12  1  0.319089  0.473989  0.613081  1
  Re  Re13  1  0.886919  0.026011  0.180911  1
  Re  Re14  1  0.026011  0.180911  0.886919  1
  Re  Re15  1  0.180911  0.886919  0.026011  1
  Te  Te16  1  0.092975  0.092975  0.092975  1
  Te  Te17  1  0.407025  0.407025  0.407025  1
  Te  Te18  1  0.907025  0.907025  0.907025  1
  Te  Te19  1  0.592975  0.592975  0.592975  1
  Te  Te20  1  0.250000  0.947366  0.552634  1
  Te  Te21  1  0.552634  0.250000  0.947366  1
  Te  Te22  1  0.947366  0.552634  0.250000  1
  Te  Te23  1  0.750000  0.052634  0.447366  1
  Te  Te24  1  0.447366  0.750000  0.052634  1
  Te  Te25  1  0.052634  0.447366  0.750000  1
  Te  Te26  1  0.045858  0.725456  0.320063  1
  Te  Te27  1  0.320063  0.045858  0.725456  1
  Te  Te28  1  0.725456  0.320063  0.045858  1
  Te  Te29  1  0.454142  0.179937  0.774544  1
  Te  Te30  1  0.774544  0.454142  0.179937  1
  Te  Te31  1  0.179937  0.774544  0.454142  1
  Te  Te32  1  0.820063  0.225456  0.545858  1
  Te  Te33  1  0.225456  0.545858  0.820063  1
  Te  Te34  1  0.545858  0.820063  0.225456  1
  Te  Te35  1  0.274544  0.679937  0.954142  1
  Te  Te36  1  0.679937  0.954142  0.274544  1
  Te  Te37  1  0.954142  0.274544  0.679937  1
