# generated using pymatgen
data_Ta11NbAl4(IrN)4
_symmetry_space_group_name_H-M   'P 1'
_cell_length_a   7.01754496
_cell_length_b   7.01772602
_cell_length_c   7.01487210
_cell_angle_alpha   90.01746534
_cell_angle_beta   90.00749204
_cell_angle_gamma   90.05937198
_symmetry_Int_Tables_number   1
_chemical_formula_structural   Ta11NbAl4(IrN)4
_chemical_formula_sum   'Ta11 Nb1 Al4 Ir4 N4'
_cell_volume   345.46265979
_cell_formula_units_Z   1
loop_
 _symmetry_equiv_pos_site_id
 _symmetry_equiv_pos_as_xyz
  1  'x, y, z'
loop_
 _atom_site_type_symbol
 _atom_site_label
 _atom_site_symmetry_multiplicity
 _atom_site_fract_x
 _atom_site_fract_y
 _atom_site_fract_z
 _atom_site_occupancy
  Ta  Ta0  1  0.794200  0.955708  0.376536  1
  Ta  Ta1  1  0.705862  0.044854  0.875505  1
  Ta  Ta2  1  0.205279  0.455350  0.122762  1
  Ta  Ta3  1  0.294543  0.544134  0.623725  1
  Ta  Ta4  1  0.954861  0.376492  0.792913  1
  Ta  Ta5  1  0.045187  0.875380  0.706021  1
  Ta  Ta6  1  0.455595  0.124361  0.206414  1
  Ta  Ta7  1  0.544675  0.622880  0.294540  1
  Ta  Ta8  1  0.376650  0.793975  0.955614  1
  Ta  Ta9  1  0.876230  0.706416  0.044769  1
  Ta  Ta10  1  0.123947  0.205814  0.455395  1
  Nb  Nb11  1  0.623531  0.292885  0.545335  1
  Al  Al12  1  0.570085  0.429977  0.929272  1
  Al  Al13  1  0.429608  0.929871  0.570406  1
  Al  Al14  1  0.929246  0.570179  0.429694  1
  Al  Al15  1  0.070116  0.070079  0.070504  1
  Ir  Ir16  1  0.177753  0.822299  0.322336  1
  Ir  Ir17  1  0.321256  0.177169  0.823629  1
  Ir  Ir18  1  0.822876  0.322334  0.176102  1
  Ir  Ir19  1  0.678076  0.679769  0.678372  1
  N  N20  1  0.877309  0.123977  0.626535  1
  N  N21  1  0.625353  0.874758  0.125540  1
  N  N22  1  0.125402  0.625378  0.874639  1
  N  N23  1  0.372360  0.375962  0.373440  1
