# generated using pymatgen
data_Ho3ErGa18(Ir2Pt)2
_symmetry_space_group_name_H-M   'P 1'
_cell_length_a   7.61518113
_cell_length_b   7.61520566
_cell_length_c   9.45949500
_cell_angle_alpha   90.00000000
_cell_angle_beta   90.00000000
_cell_angle_gamma   119.93494957
_symmetry_Int_Tables_number   1
_chemical_formula_structural   Ho3ErGa18(Ir2Pt)2
_chemical_formula_sum   'Ho3 Er1 Ga18 Ir4 Pt2'
_cell_volume   475.38421958
_cell_formula_units_Z   1
loop_
 _symmetry_equiv_pos_site_id
 _symmetry_equiv_pos_as_xyz
  1  'x, y, z'
loop_
 _atom_site_type_symbol
 _atom_site_label
 _atom_site_symmetry_multiplicity
 _atom_site_fract_x
 _atom_site_fract_y
 _atom_site_fract_z
 _atom_site_occupancy
  Ho  Ho0  1  0.003315  0.330517  0.750000  1
  Ho  Ho1  1  0.669508  0.996693  0.250000  1
  Ho  Ho2  1  0.330492  0.003315  0.750000  1
  Er  Er3  1  0.996638  0.669412  0.250000  1
  Ga  Ga4  1  0.131350  0.131267  0.250000  1
  Ga  Ga5  1  0.868608  0.868600  0.750000  1
  Ga  Ga6  1  0.998169  0.337709  0.081964  1
  Ga  Ga7  1  0.001839  0.662460  0.918226  1
  Ga  Ga8  1  0.001839  0.662460  0.581774  1
  Ga  Ga9  1  0.337383  0.998014  0.418041  1
  Ga  Ga10  1  0.998169  0.337709  0.418036  1
  Ga  Ga11  1  0.662456  0.001835  0.581876  1
  Ga  Ga12  1  0.662456  0.001835  0.918124  1
  Ga  Ga13  1  0.337383  0.998014  0.081959  1
  Ga  Ga14  1  0.335338  0.335337  0.568686  1
  Ga  Ga15  1  0.664811  0.664662  0.431228  1
  Ga  Ga16  1  0.664811  0.664662  0.068772  1
  Ga  Ga17  1  0.335338  0.335337  0.931314  1
  Ga  Ga18  1  0.337336  0.546544  0.250000  1
  Ga  Ga19  1  0.662611  0.453511  0.750000  1
  Ga  Ga20  1  0.546650  0.337506  0.250000  1
  Ga  Ga21  1  0.453502  0.662600  0.750000  1
  Ir  Ir22  1  0.671344  0.328740  0.000049  1
  Ir  Ir23  1  0.328662  0.671300  0.000049  1
  Ir  Ir24  1  0.328662  0.671300  0.499951  1
  Ir  Ir25  1  0.671344  0.328740  0.499951  1
  Pt  Pt26  1  0.999993  0.999961  0.000039  1
  Pt  Pt27  1  0.999993  0.999961  0.499961  1
