# generated using pymatgen
data_Sr3LiBi2H
_symmetry_space_group_name_H-M   'P 1'
_cell_length_a   4.82810200
_cell_length_b   12.99618100
_cell_length_c   13.29926300
_cell_angle_alpha   90.00000000
_cell_angle_beta   90.00000000
_cell_angle_gamma   90.00000000
_symmetry_Int_Tables_number   1
_chemical_formula_structural   Sr3LiBi2H
_chemical_formula_sum   'Sr12 Li4 Bi8 H4'
_cell_volume   834.48735901
_cell_formula_units_Z   4
loop_
 _symmetry_equiv_pos_site_id
 _symmetry_equiv_pos_as_xyz
  1  'x, y, z'
loop_
 _atom_site_type_symbol
 _atom_site_label
 _atom_site_symmetry_multiplicity
 _atom_site_fract_x
 _atom_site_fract_y
 _atom_site_fract_z
 _atom_site_occupancy
  Sr  Sr0  1  0.250000  0.063885  0.624781  1
  Sr  Sr1  1  0.250000  0.563885  0.875219  1
  Sr  Sr2  1  0.750000  0.936115  0.375219  1
  Sr  Sr3  1  0.750000  0.436115  0.124781  1
  Sr  Sr4  1  0.250000  0.211020  0.293866  1
  Sr  Sr5  1  0.250000  0.711020  0.206134  1
  Sr  Sr6  1  0.750000  0.788980  0.706134  1
  Sr  Sr7  1  0.750000  0.288980  0.793866  1
  Sr  Sr8  1  0.250000  0.366613  0.562952  1
  Sr  Sr9  1  0.250000  0.866613  0.937048  1
  Sr  Sr10  1  0.750000  0.633387  0.437048  1
  Sr  Sr11  1  0.750000  0.133387  0.062952  1
  Li  Li12  1  0.250000  0.139174  0.857003  1
  Li  Li13  1  0.250000  0.639174  0.642997  1
  Li  Li14  1  0.750000  0.860826  0.142997  1
  Li  Li15  1  0.750000  0.360826  0.357003  1
  Bi  Bi16  1  0.250000  0.313803  0.988343  1
  Bi  Bi17  1  0.250000  0.813803  0.511657  1
  Bi  Bi18  1  0.750000  0.686197  0.011657  1
  Bi  Bi19  1  0.750000  0.186197  0.488343  1
  Bi  Bi20  1  0.250000  0.477311  0.322938  1
  Bi  Bi21  1  0.250000  0.977311  0.177062  1
  Bi  Bi22  1  0.750000  0.522689  0.677062  1
  Bi  Bi23  1  0.750000  0.022689  0.822938  1
  H  H24  1  0.250000  0.236179  0.726043  1
  H  H25  1  0.250000  0.736179  0.773957  1
  H  H26  1  0.750000  0.763821  0.273957  1
  H  H27  1  0.750000  0.263821  0.226043  1
