# generated using pymatgen
data_Sc4SiNi11Pt4
_symmetry_space_group_name_H-M   'P 1'
_cell_length_a   3.82287400
_cell_length_b   3.82287400
_cell_length_c   18.09104700
_cell_angle_alpha   90.00000000
_cell_angle_beta   90.00000000
_cell_angle_gamma   90.00000000
_symmetry_Int_Tables_number   1
_chemical_formula_structural   Sc4SiNi11Pt4
_chemical_formula_sum   'Sc4 Si1 Ni11 Pt4'
_cell_volume   264.38917530
_cell_formula_units_Z   1
loop_
 _symmetry_equiv_pos_site_id
 _symmetry_equiv_pos_as_xyz
  1  'x, y, z'
loop_
 _atom_site_type_symbol
 _atom_site_label
 _atom_site_symmetry_multiplicity
 _atom_site_fract_x
 _atom_site_fract_y
 _atom_site_fract_z
 _atom_site_occupancy
  Sc  Sc0  1  0.000000  0.000000  0.189078  1
  Sc  Sc1  1  0.000000  0.000000  0.396235  1
  Sc  Sc2  1  0.000000  0.000000  0.603765  1
  Sc  Sc3  1  0.000000  0.000000  0.810922  1
  Si  Si4  1  0.000000  0.000000  0.000000  1
  Ni  Ni5  1  0.500000  0.500000  0.000000  1
  Ni  Ni6  1  0.500000  0.000000  0.080106  1
  Ni  Ni7  1  0.500000  0.000000  0.291006  1
  Ni  Ni8  1  0.500000  0.000000  0.500000  1
  Ni  Ni9  1  0.500000  0.000000  0.708994  1
  Ni  Ni10  1  0.500000  0.000000  0.919894  1
  Ni  Ni11  1  0.000000  0.500000  0.080106  1
  Ni  Ni12  1  0.000000  0.500000  0.291006  1
  Ni  Ni13  1  0.000000  0.500000  0.500000  1
  Ni  Ni14  1  0.000000  0.500000  0.708994  1
  Ni  Ni15  1  0.000000  0.500000  0.919894  1
  Pt  Pt16  1  0.500000  0.500000  0.185327  1
  Pt  Pt17  1  0.500000  0.500000  0.395073  1
  Pt  Pt18  1  0.500000  0.500000  0.604927  1
  Pt  Pt19  1  0.500000  0.500000  0.814673  1
