# generated using pymatgen
data_Sc12Co(PtBr8)2
_symmetry_space_group_name_H-M   'P 1'
_cell_length_a   9.06587979
_cell_length_b   11.65855521
_cell_length_c   12.33630999
_cell_angle_alpha   117.21249300
_cell_angle_beta   101.33745962
_cell_angle_gamma   100.91385581
_symmetry_Int_Tables_number   1
_chemical_formula_structural   Sc12Co(PtBr8)2
_chemical_formula_sum   'Sc12 Co1 Pt2 Br16'
_cell_volume   1077.06868035
_cell_formula_units_Z   1
loop_
 _symmetry_equiv_pos_site_id
 _symmetry_equiv_pos_as_xyz
  1  'x, y, z'
loop_
 _atom_site_type_symbol
 _atom_site_label
 _atom_site_symmetry_multiplicity
 _atom_site_fract_x
 _atom_site_fract_y
 _atom_site_fract_z
 _atom_site_occupancy
  Sc  Sc0  1  0.094904  0.273036  0.360943  1
  Sc  Sc1  1  0.914984  0.734007  0.643681  1
  Sc  Sc2  1  0.780064  0.536592  0.326751  1
  Sc  Sc3  1  0.224416  0.464058  0.667341  1
  Sc  Sc4  1  0.280435  0.727015  0.639255  1
  Sc  Sc5  1  0.723457  0.265909  0.355900  1
  Sc  Sc6  1  0.150266  0.535438  0.333248  1
  Sc  Sc7  1  0.857929  0.464055  0.672583  1
  Sc  Sc8  1  0.402596  0.360879  0.277704  1
  Sc  Sc9  1  0.588950  0.639026  0.722674  1
  Sc  Sc10  1  0.454965  0.310567  0.520207  1
  Sc  Sc11  1  0.536636  0.689202  0.480028  1
  Co  Co12  1  0.345159  0.499886  0.499649  1
  Pt  Pt13  1  0.998637  0.500026  0.499894  1
  Pt  Pt14  1  0.658540  0.499997  0.500530  1
  Br  Br15  1  0.389441  0.729597  0.866601  1
  Br  Br16  1  0.608097  0.270119  0.133165  1
  Br  Br17  1  0.184170  0.944284  0.771713  1
  Br  Br18  1  0.821985  0.055737  0.227352  1
  Br  Br19  1  0.339119  0.111932  0.262310  1
  Br  Br20  1  0.650197  0.887843  0.737817  1
  Br  Br21  1  0.549907  0.439003  0.785552  1
  Br  Br22  1  0.441243  0.560738  0.214651  1
  Br  Br23  1  0.305040  0.813713  0.465148  1
  Br  Br24  1  0.695155  0.187430  0.534490  1
  Br  Br25  1  0.168755  0.184745  0.532025  1
  Br  Br26  1  0.830033  0.814201  0.468265  1
  Br  Br27  1  0.932326  0.569812  0.173570  1
  Br  Br28  1  0.074291  0.430561  0.826733  1
  Br  Br29  1  0.915144  0.729079  0.866802  1
  Br  Br30  1  0.083158  0.271513  0.133417  1
