# generated using pymatgen
data_HoCuTeO6
_symmetry_space_group_name_H-M   'P 1'
_cell_length_a   5.13823400
_cell_length_b   5.13825585
_cell_length_c   9.82483700
_cell_angle_alpha   90.00072042
_cell_angle_beta   90.00021353
_cell_angle_gamma   120.00062659
_symmetry_Int_Tables_number   1
_chemical_formula_structural   HoCuTeO6
_chemical_formula_sum   'Ho2 Cu2 Te2 O12'
_cell_volume   224.63780521
_cell_formula_units_Z   2
loop_
 _symmetry_equiv_pos_site_id
 _symmetry_equiv_pos_as_xyz
  1  'x, y, z'
loop_
 _atom_site_type_symbol
 _atom_site_label
 _atom_site_symmetry_multiplicity
 _atom_site_fract_x
 _atom_site_fract_y
 _atom_site_fract_z
 _atom_site_occupancy
  Ho  Ho0  1  0.999992  0.999998  0.000013  1
  Ho  Ho1  1  0.000003  0.000000  0.499989  1
  Cu  Cu2  1  0.333331  0.666664  0.250000  1
  Cu  Cu3  1  0.666670  0.333334  0.750000  1
  Te  Te4  1  0.666661  0.333344  0.249999  1
  Te  Te5  1  0.333344  0.666658  0.750001  1
  O  O6  1  0.644678  0.635032  0.138240  1
  O  O7  1  0.364963  0.009642  0.138237  1
  O  O8  1  0.990360  0.355320  0.138236  1
  O  O9  1  0.990355  0.635034  0.361763  1
  O  O10  1  0.364967  0.355324  0.361763  1
  O  O11  1  0.644680  0.009637  0.361767  1
  O  O12  1  0.355326  0.990347  0.638252  1
  O  O13  1  0.635013  0.644670  0.638256  1
  O  O14  1  0.009658  0.364983  0.638255  1
  O  O15  1  0.009654  0.644678  0.861746  1
  O  O16  1  0.635017  0.990347  0.861741  1
  O  O17  1  0.355328  0.364987  0.861746  1
