# generated using pymatgen
data_Y9Er7(AlRh)4
_symmetry_space_group_name_H-M   'P 1'
_cell_length_a   9.49482303
_cell_length_b   9.50104737
_cell_length_c   9.52075200
_cell_angle_alpha   59.89400714
_cell_angle_beta   60.02498054
_cell_angle_gamma   60.12426283
_symmetry_Int_Tables_number   1
_chemical_formula_structural   Y9Er7(AlRh)4
_chemical_formula_sum   'Y9 Er7 Al4 Rh4'
_cell_volume   607.50940516
_cell_formula_units_Z   1
loop_
 _symmetry_equiv_pos_site_id
 _symmetry_equiv_pos_as_xyz
  1  'x, y, z'
loop_
 _atom_site_type_symbol
 _atom_site_label
 _atom_site_symmetry_multiplicity
 _atom_site_fract_x
 _atom_site_fract_y
 _atom_site_fract_z
 _atom_site_occupancy
  Y  Y0  1  0.057525  0.442410  0.057539  1
  Y  Y1  1  0.442322  0.441851  0.056897  1
  Y  Y2  1  0.058233  0.058600  0.441677  1
  Y  Y3  1  0.187292  0.814237  0.812372  1
  Y  Y4  1  0.812465  0.187347  0.188163  1
  Y  Y5  1  0.812467  0.187823  0.812476  1
  Y  Y6  1  0.187487  0.813480  0.187605  1
  Y  Y7  1  0.811315  0.813378  0.188483  1
  Y  Y8  1  0.189006  0.188355  0.811426  1
  Er  Er9  1  0.600378  0.602080  0.601082  1
  Er  Er10  1  0.602493  0.603508  0.193101  1
  Er  Er11  1  0.604596  0.190152  0.603534  1
  Er  Er12  1  0.193186  0.604340  0.602361  1
  Er  Er13  1  0.055925  0.442807  0.443147  1
  Er  Er14  1  0.442292  0.057778  0.057427  1
  Er  Er15  1  0.442175  0.056875  0.442216  1
  Al  Al16  1  0.828731  0.827490  0.827806  1
  Al  Al17  1  0.827734  0.827173  0.517215  1
  Al  Al18  1  0.826976  0.517144  0.827960  1
  Al  Al19  1  0.517476  0.826221  0.827730  1
  Rh  Rh20  1  0.391221  0.391155  0.397070  1
  Rh  Rh21  1  0.394634  0.389341  0.818075  1
  Rh  Rh22  1  0.395861  0.821413  0.389978  1
  Rh  Rh23  1  0.818207  0.395047  0.394658  1
