# generated using pymatgen
data_Sr6TeMoO12
_symmetry_space_group_name_H-M   'P 1'
_cell_length_a   6.13123087
_cell_length_b   5.90319879
_cell_length_c   10.33244642
_cell_angle_alpha   55.01479546
_cell_angle_beta   90.03624488
_cell_angle_gamma   89.95360051
_symmetry_Int_Tables_number   1
_chemical_formula_structural   Sr6TeMoO12
_chemical_formula_sum   'Sr6 Te1 Mo1 O12'
_cell_volume   306.39433610
_cell_formula_units_Z   1
loop_
 _symmetry_equiv_pos_site_id
 _symmetry_equiv_pos_as_xyz
  1  'x, y, z'
loop_
 _atom_site_type_symbol
 _atom_site_label
 _atom_site_symmetry_multiplicity
 _atom_site_fract_x
 _atom_site_fract_y
 _atom_site_fract_z
 _atom_site_occupancy
  Sr  Sr0  1  0.500000  0.500000  0.500000  1
  Sr  Sr1  1  0.950288  0.732886  0.252875  1
  Sr  Sr2  1  0.453105  0.269086  0.243749  1
  Sr  Sr3  1  0.000000  0.500000  0.000000  1
  Sr  Sr4  1  0.546895  0.730914  0.756251  1
  Sr  Sr5  1  0.049712  0.267114  0.747125  1
  Te  Te6  1  0.000000  0.000000  0.500000  1
  Mo  Mo7  1  0.500000  0.000000  0.000000  1
  O  O8  1  0.451886  0.117407  0.782128  1
  O  O9  1  0.237256  0.766420  0.064749  1
  O  O10  1  0.176978  0.312480  0.455975  1
  O  O11  1  0.676011  0.687208  0.043273  1
  O  O12  1  0.737449  0.235434  0.434922  1
  O  O13  1  0.951866  0.883010  0.718349  1
  O  O14  1  0.048134  0.116990  0.281651  1
  O  O15  1  0.262551  0.764566  0.565078  1
  O  O16  1  0.323989  0.312792  0.956727  1
  O  O17  1  0.823022  0.687520  0.544025  1
  O  O18  1  0.762744  0.233580  0.935251  1
  O  O19  1  0.548114  0.882593  0.217872  1
