# generated using pymatgen
data_CaDyRh2O7
_symmetry_space_group_name_H-M   'P 1'
_cell_length_a   7.24406251
_cell_length_b   7.22364621
_cell_length_c   7.24406325
_cell_angle_alpha   60.09319258
_cell_angle_beta   60.14670741
_cell_angle_gamma   60.09320087
_symmetry_Int_Tables_number   1
_chemical_formula_structural   CaDyRh2O7
_chemical_formula_sum   'Ca2 Dy2 Rh4 O14'
_cell_volume   268.71802484
_cell_formula_units_Z   2
loop_
 _symmetry_equiv_pos_site_id
 _symmetry_equiv_pos_as_xyz
  1  'x, y, z'
loop_
 _atom_site_type_symbol
 _atom_site_label
 _atom_site_symmetry_multiplicity
 _atom_site_fract_x
 _atom_site_fract_y
 _atom_site_fract_z
 _atom_site_occupancy
  Ca  Ca0  1  0.125000  0.625000  0.125000  1
  Ca  Ca1  1  0.125000  0.125000  0.125000  1
  Dy  Dy2  1  0.125000  0.125000  0.625000  1
  Dy  Dy3  1  0.625000  0.125000  0.125000  1
  Rh  Rh4  1  0.625000  0.625000  0.625000  1
  Rh  Rh5  1  0.125000  0.625000  0.625000  1
  Rh  Rh6  1  0.625000  0.125000  0.625000  1
  Rh  Rh7  1  0.625000  0.625000  0.125000  1
  O  O8  1  0.296178  0.713179  0.696402  1
  O  O9  1  0.553598  0.955759  0.953822  1
  O  O10  1  0.706644  0.293356  0.706644  1
  O  O11  1  0.296178  0.294241  0.696402  1
  O  O12  1  0.696402  0.713179  0.296178  1
  O  O13  1  0.994144  0.005856  0.994144  1
  O  O14  1  0.297548  0.702452  0.297548  1
  O  O15  1  0.952452  0.547548  0.952452  1
  O  O16  1  0.953822  0.955759  0.553598  1
  O  O17  1  0.553598  0.536821  0.953822  1
  O  O18  1  0.255856  0.244144  0.255856  1
  O  O19  1  0.543356  0.956644  0.543356  1
  O  O20  1  0.696402  0.294241  0.296178  1
  O  O21  1  0.953822  0.536821  0.553598  1
