# generated using pymatgen
data_Dy3Y17(Ir5Au)2
_symmetry_space_group_name_H-M   'P 1'
_cell_length_a   11.08654473
_cell_length_b   11.02547254
_cell_length_c   6.35707333
_cell_angle_alpha   89.96488776
_cell_angle_beta   89.87591618
_cell_angle_gamma   90.00703771
_symmetry_Int_Tables_number   1
_chemical_formula_structural   Dy3Y17(Ir5Au)2
_chemical_formula_sum   'Dy3 Y17 Ir10 Au2'
_cell_volume   777.05103463
_cell_formula_units_Z   1
loop_
 _symmetry_equiv_pos_site_id
 _symmetry_equiv_pos_as_xyz
  1  'x, y, z'
loop_
 _atom_site_type_symbol
 _atom_site_label
 _atom_site_symmetry_multiplicity
 _atom_site_fract_x
 _atom_site_fract_y
 _atom_site_fract_z
 _atom_site_occupancy
  Dy  Dy0  1  0.009614  0.002779  0.999871  1
  Dy  Dy1  1  0.499793  0.498670  0.000465  1
  Dy  Dy2  1  0.499851  0.501328  0.500470  1
  Y  Y3  1  0.291890  0.088649  0.373045  1
  Y  Y4  1  0.291851  0.911462  0.873036  1
  Y  Y5  1  0.698324  0.092273  0.866427  1
  Y  Y6  1  0.698234  0.907676  0.366521  1
  Y  Y7  1  0.578424  0.789741  0.878144  1
  Y  Y8  1  0.578567  0.210302  0.377932  1
  Y  Y9  1  0.408054  0.791124  0.377523  1
  Y  Y10  1  0.408110  0.208927  0.877626  1
  Y  Y11  1  0.209677  0.411026  0.620672  1
  Y  Y12  1  0.209694  0.588826  0.120575  1
  Y  Y13  1  0.789188  0.419400  0.122590  1
  Y  Y14  1  0.789207  0.580725  0.622769  1
  Y  Y15  1  0.917036  0.705338  0.137917  1
  Y  Y16  1  0.916968  0.294780  0.637979  1
  Y  Y17  1  0.096117  0.702559  0.623446  1
  Y  Y18  1  0.095985  0.297358  0.123491  1
  Y  Y19  1  0.009076  0.997246  0.499904  1
  Ir  Ir20  1  0.153672  0.153500  0.751468  1
  Ir  Ir21  1  0.153668  0.846312  0.249208  1
  Ir  Ir22  1  0.655168  0.347026  0.747533  1
  Ir  Ir23  1  0.655177  0.652973  0.247605  1
  Ir  Ir24  1  0.348334  0.346823  0.251713  1
  Ir  Ir25  1  0.348317  0.653175  0.751716  1
  Ir  Ir26  1  0.499553  0.999869  0.122194  1
  Ir  Ir27  1  0.499574  0.000121  0.622168  1
  Ir  Ir28  1  0.999794  0.501018  0.877784  1
  Ir  Ir29  1  0.999780  0.498998  0.377741  1
  Au  Au30  1  0.845713  0.154907  0.249728  1
  Au  Au31  1  0.845590  0.845091  0.750737  1
