# generated using pymatgen
data_HfSc3(CrRe3)2
_symmetry_space_group_name_H-M   'P 1'
_cell_length_a   5.17810450
_cell_length_b   5.25823208
_cell_length_c   8.58859093
_cell_angle_alpha   89.99999824
_cell_angle_beta   89.95411784
_cell_angle_gamma   120.51323648
_symmetry_Int_Tables_number   1
_chemical_formula_structural   HfSc3(CrRe3)2
_chemical_formula_sum   'Hf1 Sc3 Cr2 Re6'
_cell_volume   201.46219684
_cell_formula_units_Z   1
loop_
 _symmetry_equiv_pos_site_id
 _symmetry_equiv_pos_as_xyz
  1  'x, y, z'
loop_
 _atom_site_type_symbol
 _atom_site_label
 _atom_site_symmetry_multiplicity
 _atom_site_fract_x
 _atom_site_fract_y
 _atom_site_fract_z
 _atom_site_occupancy
  Hf  Hf0  1  0.334051  0.667026  0.438525  1
  Sc  Sc1  1  0.666293  0.333146  0.938904  1
  Sc  Sc2  1  0.665720  0.332859  0.562029  1
  Sc  Sc3  1  0.333701  0.666851  0.060926  1
  Cr  Cr4  1  0.661349  0.830674  0.749255  1
  Cr  Cr5  1  0.338517  0.169259  0.250466  1
  Re  Re6  1  0.825674  0.171183  0.250274  1
  Re  Re7  1  0.174280  0.345476  0.749639  1
  Re  Re8  1  0.174280  0.828804  0.749639  1
  Re  Re9  1  0.825674  0.654491  0.250274  1
  Re  Re10  1  0.000421  0.000210  0.500145  1
  Re  Re11  1  0.000040  0.000020  0.999924  1
