# generated using pymatgen
data_Gd3DyMg2Mn2O12
_symmetry_space_group_name_H-M   'P 1'
_cell_length_a   5.34181420
_cell_length_b   5.59780251
_cell_length_c   7.66018010
_cell_angle_alpha   90.04784480
_cell_angle_beta   90.00438125
_cell_angle_gamma   90.00759865
_symmetry_Int_Tables_number   1
_chemical_formula_structural   Gd3DyMg2Mn2O12
_chemical_formula_sum   'Gd3 Dy1 Mg2 Mn2 O12'
_cell_volume   229.05784688
_cell_formula_units_Z   1
loop_
 _symmetry_equiv_pos_site_id
 _symmetry_equiv_pos_as_xyz
  1  'x, y, z'
loop_
 _atom_site_type_symbol
 _atom_site_label
 _atom_site_symmetry_multiplicity
 _atom_site_fract_x
 _atom_site_fract_y
 _atom_site_fract_z
 _atom_site_occupancy
  Gd  Gd0  1  0.983675  0.063272  0.250912  1
  Gd  Gd1  1  0.484420  0.437045  0.750972  1
  Gd  Gd2  1  0.016603  0.936764  0.748877  1
  Dy  Dy3  1  0.515856  0.565462  0.248763  1
  Mg  Mg4  1  0.500043  0.000304  0.000383  1
  Mg  Mg5  1  0.999885  0.499892  0.499412  1
  Mn  Mn6  1  0.499778  0.999970  0.499111  1
  Mn  Mn7  1  0.000191  0.500216  0.000958  1
  O  O8  1  0.400987  0.962880  0.258737  1
  O  O9  1  0.105771  0.467499  0.241201  1
  O  O10  1  0.599748  0.032733  0.740772  1
  O  O11  1  0.901003  0.532772  0.759282  1
  O  O12  1  0.810773  0.788497  0.055726  1
  O  O13  1  0.684543  0.292533  0.443447  1
  O  O14  1  0.206321  0.190313  0.549464  1
  O  O15  1  0.293458  0.690366  0.951650  1
  O  O16  1  0.186632  0.209574  0.946105  1
  O  O17  1  0.313520  0.709964  0.553039  1
  O  O18  1  0.791852  0.807783  0.448876  1
  O  O19  1  0.704941  0.312159  0.052313  1
