# generated using pymatgen
data_Y6Ho14Cd6TcRu
_symmetry_space_group_name_H-M   'P 1'
_cell_length_a   9.55571800
_cell_length_b   9.55571753
_cell_length_c   9.87886200
_cell_angle_alpha   90.00000000
_cell_angle_beta   90.00000000
_cell_angle_gamma   120.00000162
_symmetry_Int_Tables_number   1
_chemical_formula_structural   Y6Ho14Cd6TcRu
_chemical_formula_sum   'Y6 Ho14 Cd6 Tc1 Ru1'
_cell_volume   781.20348422
_cell_formula_units_Z   1
loop_
 _symmetry_equiv_pos_site_id
 _symmetry_equiv_pos_as_xyz
  1  'x, y, z'
loop_
 _atom_site_type_symbol
 _atom_site_label
 _atom_site_symmetry_multiplicity
 _atom_site_fract_x
 _atom_site_fract_y
 _atom_site_fract_z
 _atom_site_occupancy
  Y  Y0  1  0.540115  0.459885  0.250000  1
  Y  Y1  1  0.540115  0.080229  0.250000  1
  Y  Y2  1  0.919771  0.459885  0.250000  1
  Y  Y3  1  0.458758  0.541242  0.750000  1
  Y  Y4  1  0.458758  0.917517  0.750000  1
  Y  Y5  1  0.082483  0.541242  0.750000  1
  Ho  Ho6  1  0.000000  0.000000  0.500226  1
  Ho  Ho7  1  0.000000  0.000000  0.999774  1
  Ho  Ho8  1  0.209992  0.790008  0.440983  1
  Ho  Ho9  1  0.209992  0.419984  0.440983  1
  Ho  Ho10  1  0.580016  0.790008  0.440983  1
  Ho  Ho11  1  0.789805  0.210195  0.559467  1
  Ho  Ho12  1  0.789805  0.579608  0.559467  1
  Ho  Ho13  1  0.420392  0.210195  0.559467  1
  Ho  Ho14  1  0.789805  0.210195  0.940533  1
  Ho  Ho15  1  0.789805  0.579608  0.940533  1
  Ho  Ho16  1  0.420392  0.210195  0.940533  1
  Ho  Ho17  1  0.209992  0.790008  0.059017  1
  Ho  Ho18  1  0.209992  0.419984  0.059017  1
  Ho  Ho19  1  0.580016  0.790008  0.059017  1
  Cd  Cd20  1  0.885407  0.114593  0.250000  1
  Cd  Cd21  1  0.885407  0.770815  0.250000  1
  Cd  Cd22  1  0.229185  0.114593  0.250000  1
  Cd  Cd23  1  0.114410  0.885590  0.750000  1
  Cd  Cd24  1  0.114410  0.228819  0.750000  1
  Cd  Cd25  1  0.771181  0.885590  0.750000  1
  Tc  Tc26  1  0.333333  0.666667  0.250000  1
  Ru  Ru27  1  0.666667  0.333333  0.750000  1
