# generated using pymatgen
data_Sm4DyPb3S
_symmetry_space_group_name_H-M   'P 1'
_cell_length_a   9.25644600
_cell_length_b   9.25644617
_cell_length_c   6.81840500
_cell_angle_alpha   90.00000000
_cell_angle_beta   90.00000000
_cell_angle_gamma   120.00000655
_symmetry_Int_Tables_number   1
_chemical_formula_structural   Sm4DyPb3S
_chemical_formula_sum   'Sm8 Dy2 Pb6 S2'
_cell_volume   505.94341587
_cell_formula_units_Z   2
loop_
 _symmetry_equiv_pos_site_id
 _symmetry_equiv_pos_as_xyz
  1  'x, y, z'
loop_
 _atom_site_type_symbol
 _atom_site_label
 _atom_site_symmetry_multiplicity
 _atom_site_fract_x
 _atom_site_fract_y
 _atom_site_fract_z
 _atom_site_occupancy
  Sm  Sm0  1  0.756086  0.756086  0.750805  1
  Sm  Sm1  1  0.243914  0.000000  0.750805  1
  Sm  Sm2  1  0.000000  0.243914  0.750805  1
  Sm  Sm3  1  0.243914  0.243914  0.249195  1
  Sm  Sm4  1  0.756086  0.000000  0.249195  1
  Sm  Sm5  1  0.000000  0.756086  0.249195  1
  Sm  Sm6  1  0.333333  0.666667  0.500000  1
  Sm  Sm7  1  0.666667  0.333333  0.500000  1
  Dy  Dy8  1  0.666667  0.333333  0.000000  1
  Dy  Dy9  1  0.333333  0.666667  0.000000  1
  Pb  Pb10  1  0.397592  0.397592  0.755668  1
  Pb  Pb11  1  0.602408  0.000000  0.755668  1
  Pb  Pb12  1  0.000000  0.602408  0.755668  1
  Pb  Pb13  1  0.602408  0.602408  0.244332  1
  Pb  Pb14  1  0.397592  0.000000  0.244332  1
  Pb  Pb15  1  0.000000  0.397592  0.244332  1
  S  S16  1  0.000000  0.000000  0.000000  1
  S  S17  1  0.000000  0.000000  0.500000  1
