# generated using pymatgen
data_Cs(IrO3)2
_symmetry_space_group_name_H-M   'P 1'
_cell_length_a   7.24785564
_cell_length_b   7.24785524
_cell_length_c   7.24785500
_cell_angle_alpha   59.99999654
_cell_angle_beta   59.99999834
_cell_angle_gamma   60.00000236
_symmetry_Int_Tables_number   1
_chemical_formula_structural   Cs(IrO3)2
_chemical_formula_sum   'Cs2 Ir4 O12'
_cell_volume   269.22385259
_cell_formula_units_Z   2
loop_
 _symmetry_equiv_pos_site_id
 _symmetry_equiv_pos_as_xyz
  1  'x, y, z'
loop_
 _atom_site_type_symbol
 _atom_site_label
 _atom_site_symmetry_multiplicity
 _atom_site_fract_x
 _atom_site_fract_y
 _atom_site_fract_z
 _atom_site_occupancy
  Cs  Cs0  1  0.250000  0.250000  0.250000  1
  Cs  Cs1  1  0.000000  0.000000  0.000000  1
  Ir  Ir2  1  0.125000  0.625000  0.625000  1
  Ir  Ir3  1  0.625000  0.625000  0.125000  1
  Ir  Ir4  1  0.625000  0.125000  0.625000  1
  Ir  Ir5  1  0.625000  0.625000  0.625000  1
  O  O6  1  0.942746  0.557254  0.557254  1
  O  O7  1  0.307254  0.307254  0.692746  1
  O  O8  1  0.692746  0.692746  0.307254  1
  O  O9  1  0.557254  0.942746  0.942746  1
  O  O10  1  0.307254  0.692746  0.692746  1
  O  O11  1  0.942746  0.942746  0.557254  1
  O  O12  1  0.557254  0.942746  0.557254  1
  O  O13  1  0.692746  0.307254  0.692746  1
  O  O14  1  0.307254  0.692746  0.307254  1
  O  O15  1  0.942746  0.557254  0.942746  1
  O  O16  1  0.692746  0.307254  0.307254  1
  O  O17  1  0.557254  0.557254  0.942746  1
