# generated using pymatgen
data_Tb4Y4Lu4CdCo5
_symmetry_space_group_name_H-M   'P 1'
_cell_length_a   8.26782883
_cell_length_b   8.26782874
_cell_length_c   8.26782856
_cell_angle_alpha   110.16273489
_cell_angle_beta   110.42482836
_cell_angle_gamma   107.83845070
_symmetry_Int_Tables_number   1
_chemical_formula_structural   Tb4Y4Lu4CdCo5
_chemical_formula_sum   'Tb4 Y4 Lu4 Cd1 Co5'
_cell_volume   434.79693562
_cell_formula_units_Z   1
loop_
 _symmetry_equiv_pos_site_id
 _symmetry_equiv_pos_as_xyz
  1  'x, y, z'
loop_
 _atom_site_type_symbol
 _atom_site_label
 _atom_site_symmetry_multiplicity
 _atom_site_fract_x
 _atom_site_fract_y
 _atom_site_fract_z
 _atom_site_occupancy
  Tb  Tb0  1  0.597775  0.789780  0.807996  1
  Tb  Tb1  1  0.402225  0.210220  0.192004  1
  Tb  Tb2  1  0.981784  0.789780  0.192004  1
  Tb  Tb3  1  0.018216  0.210220  0.807996  1
  Y  Y4  1  0.813600  0.708712  0.522312  1
  Y  Y5  1  0.186400  0.291288  0.477688  1
  Y  Y6  1  0.186400  0.708712  0.895113  1
  Y  Y7  1  0.813600  0.291288  0.104887  1
  Lu  Lu8  1  0.683603  0.373989  0.690387  1
  Lu  Lu9  1  0.316397  0.626011  0.309613  1
  Lu  Lu10  1  0.683603  0.993216  0.309613  1
  Lu  Lu11  1  0.316397  0.006784  0.690387  1
  Cd  Cd12  1  0.500000  0.500000  0.000000  1
  Co  Co13  1  0.620752  0.000000  0.620752  1
  Co  Co14  1  0.379248  0.000000  0.379248  1
  Co  Co15  1  0.113732  0.613732  0.500000  1
  Co  Co16  1  0.886268  0.386268  0.500000  1
  Co  Co17  1  0.000000  0.000000  0.000000  1
