# generated using pymatgen
data_Tb16Cd4CuRu3
_symmetry_space_group_name_H-M   'P 1'
_cell_length_a   9.70006414
_cell_length_b   9.62064886
_cell_length_c   9.70006400
_cell_angle_alpha   59.72656047
_cell_angle_beta   60.00000047
_cell_angle_gamma   59.72655633
_symmetry_Int_Tables_number   1
_chemical_formula_structural   Tb16Cd4CuRu3
_chemical_formula_sum   'Tb16 Cd4 Cu1 Ru3'
_cell_volume   637.42807099
_cell_formula_units_Z   1
loop_
 _symmetry_equiv_pos_site_id
 _symmetry_equiv_pos_as_xyz
  1  'x, y, z'
loop_
 _atom_site_type_symbol
 _atom_site_label
 _atom_site_symmetry_multiplicity
 _atom_site_fract_x
 _atom_site_fract_y
 _atom_site_fract_z
 _atom_site_occupancy
  Tb  Tb0  1  0.438396  0.435814  0.062895  1
  Tb  Tb1  1  0.068186  0.057943  0.436935  1
  Tb  Tb2  1  0.436935  0.057943  0.068186  1
  Tb  Tb3  1  0.850111  0.847146  0.850111  1
  Tb  Tb4  1  0.689355  0.316110  0.305180  1
  Tb  Tb5  1  0.062895  0.435814  0.438396  1
  Tb  Tb6  1  0.311588  0.688939  0.687884  1
  Tb  Tb7  1  0.305180  0.316110  0.689355  1
  Tb  Tb8  1  0.850111  0.847146  0.452632  1
  Tb  Tb9  1  0.687884  0.688939  0.311588  1
  Tb  Tb10  1  0.452632  0.847146  0.850111  1
  Tb  Tb11  1  0.062895  0.435814  0.062895  1
  Tb  Tb12  1  0.846973  0.459082  0.846973  1
  Tb  Tb13  1  0.436935  0.057943  0.436935  1
  Tb  Tb14  1  0.311588  0.688939  0.311588  1
  Tb  Tb15  1  0.689355  0.316110  0.689355  1
  Cd  Cd16  1  0.080763  0.757710  0.080763  1
  Cd  Cd17  1  0.080151  0.080247  0.759451  1
  Cd  Cd18  1  0.759451  0.080247  0.080151  1
  Cd  Cd19  1  0.080151  0.080247  0.080151  1
  Cu  Cu20  1  0.642072  0.073782  0.642072  1
  Ru  Ru21  1  0.639968  0.643609  0.639968  1
  Ru  Ru22  1  0.639968  0.643609  0.076453  1
  Ru  Ru23  1  0.076453  0.643609  0.639968  1
