# generated using pymatgen
data_Ce8Mn3Si12Pd
_symmetry_space_group_name_H-M   'P 1'
_cell_length_a   8.22438500
_cell_length_b   8.22438409
_cell_length_c   8.31725300
_cell_angle_alpha   90.00000000
_cell_angle_beta   90.00000000
_cell_angle_gamma   120.00000769
_symmetry_Int_Tables_number   1
_chemical_formula_structural   Ce8Mn3Si12Pd
_chemical_formula_sum   'Ce8 Mn3 Si12 Pd1'
_cell_volume   487.21127143
_cell_formula_units_Z   1
loop_
 _symmetry_equiv_pos_site_id
 _symmetry_equiv_pos_as_xyz
  1  'x, y, z'
loop_
 _atom_site_type_symbol
 _atom_site_label
 _atom_site_symmetry_multiplicity
 _atom_site_fract_x
 _atom_site_fract_y
 _atom_site_fract_z
 _atom_site_occupancy
  Ce  Ce0  1  0.503042  0.006082  0.244383  1
  Ce  Ce1  1  0.501896  0.003793  0.755425  1
  Ce  Ce2  1  0.993918  0.496958  0.244383  1
  Ce  Ce3  1  0.996207  0.498104  0.755425  1
  Ce  Ce4  1  0.503042  0.496958  0.244383  1
  Ce  Ce5  1  0.501896  0.498104  0.755425  1
  Ce  Ce6  1  0.000000  0.000000  0.249929  1
  Ce  Ce7  1  0.000000  0.000000  0.750719  1
  Mn  Mn8  1  0.333333  0.666667  0.998632  1
  Mn  Mn9  1  0.666667  0.333333  0.997535  1
  Mn  Mn10  1  0.666667  0.333333  0.505451  1
  Si  Si11  1  0.167925  0.335851  0.000773  1
  Si  Si12  1  0.831926  0.663853  0.998771  1
  Si  Si13  1  0.664149  0.832075  0.000773  1
  Si  Si14  1  0.831468  0.662936  0.499329  1
  Si  Si15  1  0.336147  0.168074  0.998771  1
  Si  Si16  1  0.164005  0.328010  0.501754  1
  Si  Si17  1  0.167925  0.832075  0.000773  1
  Si  Si18  1  0.337064  0.168532  0.499329  1
  Si  Si19  1  0.831926  0.168074  0.998771  1
  Si  Si20  1  0.671990  0.835995  0.501754  1
  Si  Si21  1  0.831468  0.168532  0.499329  1
  Si  Si22  1  0.164005  0.835995  0.501754  1
  Pd  Pd23  1  0.333333  0.666667  0.496426  1
