# generated using pymatgen
data_KSrAlO3
_symmetry_space_group_name_H-M   'P 1'
_cell_length_a   6.24904617
_cell_length_b   6.24904623
_cell_length_c   12.24493400
_cell_angle_alpha   90.00000000
_cell_angle_beta   90.00000000
_cell_angle_gamma   126.93824401
_symmetry_Int_Tables_number   1
_chemical_formula_structural   KSrAlO3
_chemical_formula_sum   'K4 Sr4 Al4 O12'
_cell_volume   382.19489419
_cell_formula_units_Z   4
loop_
 _symmetry_equiv_pos_site_id
 _symmetry_equiv_pos_as_xyz
  1  'x, y, z'
loop_
 _atom_site_type_symbol
 _atom_site_label
 _atom_site_symmetry_multiplicity
 _atom_site_fract_x
 _atom_site_fract_y
 _atom_site_fract_z
 _atom_site_occupancy
  K  K0  1  0.454924  0.545076  0.640964  1
  K  K1  1  0.545076  0.454924  0.359036  1
  K  K2  1  0.045076  0.954924  0.140964  1
  K  K3  1  0.954924  0.045076  0.859036  1
  Sr  Sr4  1  0.642056  0.357944  0.923104  1
  Sr  Sr5  1  0.857944  0.142056  0.423104  1
  Sr  Sr6  1  0.142056  0.857944  0.576896  1
  Sr  Sr7  1  0.357944  0.642056  0.076896  1
  Al  Al8  1  0.229869  0.770131  0.334770  1
  Al  Al9  1  0.729869  0.270131  0.165230  1
  Al  Al10  1  0.770131  0.229869  0.665230  1
  Al  Al11  1  0.270131  0.729869  0.834770  1
  O  O12  1  0.982240  0.517760  0.750000  1
  O  O13  1  0.517760  0.982240  0.250000  1
  O  O14  1  0.017760  0.482240  0.250000  1
  O  O15  1  0.482240  0.017760  0.750000  1
  O  O16  1  0.422447  0.577553  0.876660  1
  O  O17  1  0.577553  0.422447  0.123340  1
  O  O18  1  0.077553  0.922447  0.376660  1
  O  O19  1  0.675553  0.324447  0.549704  1
  O  O20  1  0.175553  0.824447  0.950296  1
  O  O21  1  0.824447  0.175553  0.049704  1
  O  O22  1  0.324447  0.675553  0.450296  1
  O  O23  1  0.922447  0.077553  0.623340  1
