# generated using pymatgen
data_Rb5InSn8
_symmetry_space_group_name_H-M   'P 1'
_cell_length_a   13.48088385
_cell_length_b   13.48088413
_cell_length_c   13.48088409
_cell_angle_alpha   29.28034552
_cell_angle_beta   29.28034376
_cell_angle_gamma   29.28034508
_symmetry_Int_Tables_number   1
_chemical_formula_structural   Rb5InSn8
_chemical_formula_sum   'Rb5 In1 Sn8'
_cell_volume   518.54857527
_cell_formula_units_Z   1
loop_
 _symmetry_equiv_pos_site_id
 _symmetry_equiv_pos_as_xyz
  1  'x, y, z'
loop_
 _atom_site_type_symbol
 _atom_site_label
 _atom_site_symmetry_multiplicity
 _atom_site_fract_x
 _atom_site_fract_y
 _atom_site_fract_z
 _atom_site_occupancy
  Rb  Rb0  1  0.317180  0.317180  0.317180  1
  Rb  Rb1  1  0.500000  0.500000  0.500000  1
  Rb  Rb2  1  0.782278  0.782278  0.782278  1
  Rb  Rb3  1  0.682820  0.682820  0.682820  1
  Rb  Rb4  1  0.217722  0.217722  0.217722  1
  In  In5  1  0.000000  0.000000  0.000000  1
  Sn  Sn6  1  0.766114  0.766114  0.272719  1
  Sn  Sn7  1  0.878986  0.878986  0.878986  1
  Sn  Sn8  1  0.233886  0.727281  0.233886  1
  Sn  Sn9  1  0.272719  0.766114  0.766114  1
  Sn  Sn10  1  0.121014  0.121014  0.121014  1
  Sn  Sn11  1  0.766114  0.272719  0.766114  1
  Sn  Sn12  1  0.727280  0.233886  0.233886  1
  Sn  Sn13  1  0.233886  0.233886  0.727281  1
