# generated using pymatgen
data_Nd6IrBr10
_symmetry_space_group_name_H-M   'P 1'
_cell_length_a   7.65392901
_cell_length_b   9.51559164
_cell_length_c   9.50892089
_cell_angle_alpha   108.85422681
_cell_angle_beta   97.03040350
_cell_angle_gamma   106.39012332
_symmetry_Int_Tables_number   1
_chemical_formula_structural   Nd6IrBr10
_chemical_formula_sum   'Nd6 Ir1 Br10'
_cell_volume   611.11072214
_cell_formula_units_Z   1
loop_
 _symmetry_equiv_pos_site_id
 _symmetry_equiv_pos_as_xyz
  1  'x, y, z'
loop_
 _atom_site_type_symbol
 _atom_site_label
 _atom_site_symmetry_multiplicity
 _atom_site_fract_x
 _atom_site_fract_y
 _atom_site_fract_z
 _atom_site_occupancy
  Nd  Nd0  1  0.974510  0.304535  0.098010  1
  Nd  Nd1  1  0.025490  0.695465  0.901990  1
  Nd  Nd2  1  0.629233  0.857706  0.814804  1
  Nd  Nd3  1  0.370767  0.142294  0.185196  1
  Nd  Nd4  1  0.126630  0.045681  0.751410  1
  Nd  Nd5  1  0.873370  0.954319  0.248590  1
  Ir  Ir6  1  0.000000  0.000000  0.000000  1
  Br  Br7  1  0.549349  0.176327  0.915931  1
  Br  Br8  1  0.450651  0.823673  0.084069  1
  Br  Br9  1  0.744770  0.915684  0.543257  1
  Br  Br10  1  0.255230  0.084316  0.456743  1
  Br  Br11  1  0.088115  0.368147  0.827705  1
  Br  Br12  1  0.911885  0.631853  0.172295  1
  Br  Br13  1  0.202530  0.737442  0.645959  1
  Br  Br14  1  0.797470  0.262558  0.354041  1
  Br  Br15  1  0.638211  0.538618  0.724422  1
  Br  Br16  1  0.361789  0.461382  0.275578  1
