# generated using pymatgen
data_La10Pr6Cd4IrPd3
_symmetry_space_group_name_H-M   'P 1'
_cell_length_a   10.17588361
_cell_length_b   10.15145176
_cell_length_c   10.15077100
_cell_angle_alpha   60.00390102
_cell_angle_beta   60.08424486
_cell_angle_gamma   60.10223144
_symmetry_Int_Tables_number   1
_chemical_formula_structural   La10Pr6Cd4IrPd3
_chemical_formula_sum   'La10 Pr6 Cd4 Ir1 Pd3'
_cell_volume   742.51930360
_cell_formula_units_Z   1
loop_
 _symmetry_equiv_pos_site_id
 _symmetry_equiv_pos_as_xyz
  1  'x, y, z'
loop_
 _atom_site_type_symbol
 _atom_site_label
 _atom_site_symmetry_multiplicity
 _atom_site_fract_x
 _atom_site_fract_y
 _atom_site_fract_z
 _atom_site_occupancy
  La  La0  1  0.351223  0.346392  0.346402  1
  La  La1  1  0.351203  0.346375  0.956001  1
  La  La2  1  0.351397  0.955485  0.346532  1
  La  La3  1  0.942962  0.352307  0.352363  1
  La  La4  1  0.804861  0.191067  0.190961  1
  La  La5  1  0.197988  0.805243  0.804736  1
  La  La6  1  0.197921  0.805261  0.192078  1
  La  La7  1  0.804848  0.191121  0.813152  1
  La  La8  1  0.197766  0.192005  0.805108  1
  La  La9  1  0.804558  0.813277  0.191126  1
  Pr  Pr10  1  0.936707  0.565408  0.565963  1
  Pr  Pr11  1  0.568994  0.935201  0.934686  1
  Pr  Pr12  1  0.569031  0.935180  0.561121  1
  Pr  Pr13  1  0.936670  0.565419  0.931900  1
  Pr  Pr14  1  0.569297  0.560986  0.934867  1
  Pr  Pr15  1  0.936384  0.932025  0.565766  1
  Cd  Cd16  1  0.577576  0.581031  0.580986  1
  Cd  Cd17  1  0.577573  0.581035  0.260396  1
  Cd  Cd18  1  0.577611  0.260322  0.581030  1
  Cd  Cd19  1  0.261960  0.579350  0.579340  1
  Ir  Ir20  1  0.572449  0.142473  0.142527  1
  Pd  Pd21  1  0.137001  0.144739  0.144756  1
  Pd  Pd22  1  0.137004  0.144739  0.573490  1
  Pd  Pd23  1  0.137008  0.573557  0.144713  1
