# generated using pymatgen
data_DyY3InIr
_symmetry_space_group_name_H-M   'P 1'
_cell_length_a   9.69992485
_cell_length_b   9.69992443
_cell_length_c   9.69992500
_cell_angle_alpha   59.99999464
_cell_angle_beta   59.99999607
_cell_angle_gamma   60.00000186
_symmetry_Int_Tables_number   1
_chemical_formula_structural   DyY3InIr
_chemical_formula_sum   'Dy4 Y12 In4 Ir4'
_cell_volume   645.34221338
_cell_formula_units_Z   4
loop_
 _symmetry_equiv_pos_site_id
 _symmetry_equiv_pos_as_xyz
  1  'x, y, z'
loop_
 _atom_site_type_symbol
 _atom_site_label
 _atom_site_symmetry_multiplicity
 _atom_site_fract_x
 _atom_site_fract_y
 _atom_site_fract_z
 _atom_site_occupancy
  Dy  Dy0  1  0.348819  0.348819  0.348819  1
  Dy  Dy1  1  0.348819  0.348819  0.953543  1
  Dy  Dy2  1  0.348819  0.953543  0.348819  1
  Dy  Dy3  1  0.953543  0.348819  0.348819  1
  Y  Y4  1  0.809318  0.190682  0.190682  1
  Y  Y5  1  0.190682  0.809318  0.809318  1
  Y  Y6  1  0.190682  0.809318  0.190682  1
  Y  Y7  1  0.809318  0.190682  0.809318  1
  Y  Y8  1  0.190682  0.190682  0.809318  1
  Y  Y9  1  0.809318  0.809318  0.190682  1
  Y  Y10  1  0.940002  0.559998  0.559998  1
  Y  Y11  1  0.559998  0.940002  0.940002  1
  Y  Y12  1  0.559998  0.940002  0.559998  1
  Y  Y13  1  0.940002  0.559998  0.940002  1
  Y  Y14  1  0.559998  0.559998  0.940002  1
  Y  Y15  1  0.940002  0.940002  0.559998  1
  In  In16  1  0.583218  0.583218  0.583218  1
  In  In17  1  0.583218  0.583218  0.250348  1
  In  In18  1  0.583218  0.250348  0.583218  1
  In  In19  1  0.250348  0.583218  0.583218  1
  Ir  Ir20  1  0.142037  0.142037  0.142037  1
  Ir  Ir21  1  0.142037  0.142037  0.573890  1
  Ir  Ir22  1  0.142037  0.573890  0.142037  1
  Ir  Ir23  1  0.573890  0.142037  0.142037  1
