# generated using pymatgen
data_Y3Tm(Zn2Cd)4
_symmetry_space_group_name_H-M   'P 1'
_cell_length_a   4.39498900
_cell_length_b   7.17053602
_cell_length_c   10.09355300
_cell_angle_alpha   90.00444269
_cell_angle_beta   90.00000000
_cell_angle_gamma   90.00000000
_symmetry_Int_Tables_number   1
_chemical_formula_structural   Y3Tm(Zn2Cd)4
_chemical_formula_sum   'Y3 Tm1 Zn8 Cd4'
_cell_volume   318.09253762
_cell_formula_units_Z   1
loop_
 _symmetry_equiv_pos_site_id
 _symmetry_equiv_pos_as_xyz
  1  'x, y, z'
loop_
 _atom_site_type_symbol
 _atom_site_label
 _atom_site_symmetry_multiplicity
 _atom_site_fract_x
 _atom_site_fract_y
 _atom_site_fract_z
 _atom_site_occupancy
  Y  Y0  1  0.250000  0.802245  0.825706  1
  Y  Y1  1  0.750000  0.698273  0.325971  1
  Y  Y2  1  0.750000  0.198007  0.173585  1
  Tm  Tm3  1  0.250000  0.302601  0.674245  1
  Zn  Zn4  1  0.250000  0.916353  0.142996  1
  Zn  Zn5  1  0.250000  0.416097  0.357064  1
  Zn  Zn6  1  0.750000  0.084869  0.855968  1
  Zn  Zn7  1  0.750000  0.581574  0.643752  1
  Zn  Zn8  1  0.250000  0.191887  0.961994  1
  Zn  Zn9  1  0.250000  0.688531  0.536733  1
  Zn  Zn10  1  0.750000  0.809344  0.036397  1
  Zn  Zn11  1  0.750000  0.309320  0.464806  1
  Cd  Cd12  1  0.250000  0.534397  0.098933  1
  Cd  Cd13  1  0.250000  0.034944  0.401692  1
  Cd  Cd14  1  0.750000  0.465574  0.900775  1
  Cd  Cd15  1  0.750000  0.965986  0.599385  1
