# generated using pymatgen
data_KCe2(AsO4)3
_symmetry_space_group_name_H-M   'P 1'
_cell_length_a   10.24277585
_cell_length_b   10.24277605
_cell_length_c   10.24277574
_cell_angle_alpha   56.15255001
_cell_angle_beta   56.15255108
_cell_angle_gamma   56.15254820
_symmetry_Int_Tables_number   1
_chemical_formula_structural   KCe2(AsO4)3
_chemical_formula_sum   'K2 Ce4 As6 O24'
_cell_volume   692.18458633
_cell_formula_units_Z   2
loop_
 _symmetry_equiv_pos_site_id
 _symmetry_equiv_pos_as_xyz
  1  'x, y, z'
loop_
 _atom_site_type_symbol
 _atom_site_label
 _atom_site_symmetry_multiplicity
 _atom_site_fract_x
 _atom_site_fract_y
 _atom_site_fract_z
 _atom_site_occupancy
  K  K0  1  0.500000  0.500000  0.500000  1
  K  K1  1  0.000000  0.000000  0.000000  1
  Ce  Ce2  1  0.647997  0.647997  0.647997  1
  Ce  Ce3  1  0.852003  0.852003  0.852003  1
  Ce  Ce4  1  0.352003  0.352003  0.352003  1
  Ce  Ce5  1  0.147997  0.147997  0.147997  1
  As  As6  1  0.460231  0.039769  0.750000  1
  As  As7  1  0.039769  0.750000  0.460231  1
  As  As8  1  0.750000  0.460231  0.039769  1
  As  As9  1  0.539769  0.960231  0.250000  1
  As  As10  1  0.960231  0.250000  0.539769  1
  As  As11  1  0.250000  0.539769  0.960231  1
  O  O12  1  0.490622  0.868503  0.729200  1
  O  O13  1  0.868503  0.729200  0.490622  1
  O  O14  1  0.729200  0.490622  0.868503  1
  O  O15  1  0.631497  0.009378  0.770800  1
  O  O16  1  0.009378  0.770800  0.631497  1
  O  O17  1  0.770800  0.631497  0.009378  1
  O  O18  1  0.509378  0.131497  0.270800  1
  O  O19  1  0.131497  0.270800  0.509378  1
  O  O20  1  0.270800  0.509378  0.131497  1
  O  O21  1  0.368503  0.990622  0.229200  1
  O  O22  1  0.990622  0.229200  0.368503  1
  O  O23  1  0.229200  0.368503  0.990622  1
  O  O24  1  0.566767  0.782833  0.424367  1
  O  O25  1  0.782833  0.424367  0.566767  1
  O  O26  1  0.424367  0.566767  0.782833  1
  O  O27  1  0.717167  0.933233  0.075633  1
  O  O28  1  0.933233  0.075633  0.717167  1
  O  O29  1  0.075633  0.717167  0.933233  1
  O  O30  1  0.433233  0.217167  0.575633  1
  O  O31  1  0.217167  0.575633  0.433233  1
  O  O32  1  0.575633  0.433233  0.217167  1
  O  O33  1  0.282833  0.066767  0.924367  1
  O  O34  1  0.066767  0.924367  0.282833  1
  O  O35  1  0.924367  0.282833  0.066767  1
