# generated using pymatgen
data_Sm2Al9CdAg12
_symmetry_space_group_name_H-M   'P 1'
_cell_length_a   11.21882192
_cell_length_b   8.85501404
_cell_length_c   8.52811600
_cell_angle_alpha   80.36519550
_cell_angle_beta   51.09299576
_cell_angle_gamma   48.54180114
_symmetry_Int_Tables_number   1
_chemical_formula_structural   Sm2Al9CdAg12
_chemical_formula_sum   'Sm2 Al9 Cd1 Ag12'
_cell_volume   447.00078970
_cell_formula_units_Z   1
loop_
 _symmetry_equiv_pos_site_id
 _symmetry_equiv_pos_as_xyz
  1  'x, y, z'
loop_
 _atom_site_type_symbol
 _atom_site_label
 _atom_site_symmetry_multiplicity
 _atom_site_fract_x
 _atom_site_fract_y
 _atom_site_fract_z
 _atom_site_occupancy
  Sm  Sm0  1  0.000000  0.000000  0.000000  1
  Sm  Sm1  1  0.250000  0.250000  0.250000  1
  Al  Al2  1  0.750000  0.750000  0.750000  1
  Al  Al3  1  0.764911  0.068664  0.814910  1
  Al  Al4  1  0.814910  0.351518  0.764911  1
  Al  Al5  1  0.068664  0.764911  0.351518  1
  Al  Al6  1  0.351518  0.814910  0.068664  1
  Al  Al7  1  0.487161  0.178658  0.435325  1
  Al  Al8  1  0.435325  0.898854  0.487161  1
  Al  Al9  1  0.178658  0.487161  0.898854  1
  Al  Al10  1  0.898854  0.435325  0.178658  1
  Cd  Cd11  1  0.500000  0.500000  0.500000  1
  Ag  Ag12  1  0.623845  0.121270  0.632141  1
  Ag  Ag13  1  0.632141  0.622742  0.623845  1
  Ag  Ag14  1  0.121270  0.623845  0.622742  1
  Ag  Ag15  1  0.622742  0.632141  0.121270  1
  Ag  Ag16  1  0.510504  0.398577  0.171440  1
  Ag  Ag17  1  0.171440  0.919478  0.510504  1
  Ag  Ag18  1  0.398577  0.510504  0.919478  1
  Ag  Ag19  1  0.919478  0.171440  0.398577  1
  Ag  Ag20  1  0.740786  0.850193  0.075414  1
  Ag  Ag21  1  0.075414  0.333607  0.740786  1
  Ag  Ag22  1  0.850193  0.740786  0.333607  1
  Ag  Ag23  1  0.333607  0.075414  0.850193  1
