# generated using pymatgen
data_La4GaNi13
_symmetry_space_group_name_H-M   'P 1'
_cell_length_a   5.00833303
_cell_length_b   5.00833311
_cell_length_c   12.73157700
_cell_angle_alpha   78.71882234
_cell_angle_beta   78.71883535
_cell_angle_gamma   60.76380546
_symmetry_Int_Tables_number   1
_chemical_formula_structural   La4GaNi13
_chemical_formula_sum   'La4 Ga1 Ni13'
_cell_volume   271.41079347
_cell_formula_units_Z   1
loop_
 _symmetry_equiv_pos_site_id
 _symmetry_equiv_pos_as_xyz
  1  'x, y, z'
loop_
 _atom_site_type_symbol
 _atom_site_label
 _atom_site_symmetry_multiplicity
 _atom_site_fract_x
 _atom_site_fract_y
 _atom_site_fract_z
 _atom_site_occupancy
  La  La0  1  0.947443  0.947443  0.159935  1
  La  La1  1  0.052557  0.052557  0.840065  1
  La  La2  1  0.852833  0.852833  0.441185  1
  La  La3  1  0.147167  0.147167  0.558815  1
  Ga  Ga4  1  0.500000  0.500000  0.000000  1
  Ni  Ni5  1  0.500000  0.500000  0.500000  1
  Ni  Ni6  1  0.723798  0.723798  0.834502  1
  Ni  Ni7  1  0.276202  0.276202  0.165498  1
  Ni  Ni8  1  0.614920  0.614920  0.164190  1
  Ni  Ni9  1  0.385080  0.385080  0.835810  1
  Ni  Ni10  1  0.000000  0.500000  0.000000  1
  Ni  Ni11  1  0.500000  0.000000  0.000000  1
  Ni  Ni12  1  0.391649  0.391649  0.326270  1
  Ni  Ni13  1  0.889985  0.391783  0.326618  1
  Ni  Ni14  1  0.391783  0.889985  0.326618  1
  Ni  Ni15  1  0.608351  0.608351  0.673730  1
  Ni  Ni16  1  0.110015  0.608217  0.673382  1
  Ni  Ni17  1  0.608217  0.110015  0.673382  1
