# generated using pymatgen
data_Cd2H12Ir2Pb
_symmetry_space_group_name_H-M   'P 1'
_cell_length_a   4.88592500
_cell_length_b   4.88592510
_cell_length_c   8.07166800
_cell_angle_alpha   90.00000000
_cell_angle_beta   90.00000000
_cell_angle_gamma   120.00000608
_symmetry_Int_Tables_number   1
_chemical_formula_structural   Cd2H12Ir2Pb
_chemical_formula_sum   'Cd2 H12 Ir2 Pb1'
_cell_volume   166.87354687
_cell_formula_units_Z   1
loop_
 _symmetry_equiv_pos_site_id
 _symmetry_equiv_pos_as_xyz
  1  'x, y, z'
loop_
 _atom_site_type_symbol
 _atom_site_label
 _atom_site_symmetry_multiplicity
 _atom_site_fract_x
 _atom_site_fract_y
 _atom_site_fract_z
 _atom_site_occupancy
  Cd  Cd0  1  0.666667  0.333333  0.368534  1
  Cd  Cd1  1  0.333333  0.666667  0.631466  1
  H  H2  1  0.164206  0.835794  0.366667  1
  H  H3  1  0.671588  0.835794  0.366667  1
  H  H4  1  0.164206  0.328412  0.366667  1
  H  H5  1  0.835794  0.164206  0.633333  1
  H  H6  1  0.328412  0.164206  0.633333  1
  H  H7  1  0.835794  0.671588  0.633333  1
  H  H8  1  0.511245  0.022490  0.867458  1
  H  H9  1  0.511245  0.488755  0.867458  1
  H  H10  1  0.977510  0.488755  0.867458  1
  H  H11  1  0.488755  0.977510  0.132542  1
  H  H12  1  0.488755  0.511245  0.132542  1
  H  H13  1  0.022490  0.511245  0.132542  1
  Ir  Ir14  1  0.666667  0.333333  0.738334  1
  Ir  Ir15  1  0.333333  0.666667  0.261666  1
  Pb  Pb16  1  0.000000  0.000000  0.000000  1
