# generated using pymatgen
data_YTm7Sc11Si16Tc
_symmetry_space_group_name_H-M   'P 1'
_cell_length_a   6.97017757
_cell_length_b   7.31014453
_cell_length_c   13.81234306
_cell_angle_alpha   90.04268924
_cell_angle_beta   90.01351016
_cell_angle_gamma   90.14995037
_symmetry_Int_Tables_number   1
_chemical_formula_structural   YTm7Sc11Si16Tc
_chemical_formula_sum   'Y1 Tm7 Sc11 Si16 Tc1'
_cell_volume   703.77776594
_cell_formula_units_Z   1
loop_
 _symmetry_equiv_pos_site_id
 _symmetry_equiv_pos_as_xyz
  1  'x, y, z'
loop_
 _atom_site_type_symbol
 _atom_site_label
 _atom_site_symmetry_multiplicity
 _atom_site_fract_x
 _atom_site_fract_y
 _atom_site_fract_z
 _atom_site_occupancy
  Y  Y0  1  0.011779  0.178057  0.092768  1
  Tm  Tm1  1  0.992824  0.817200  0.900764  1
  Tm  Tm2  1  0.487913  0.673311  0.902667  1
  Tm  Tm3  1  0.992851  0.817354  0.599103  1
  Tm  Tm4  1  0.511313  0.322826  0.094971  1
  Tm  Tm5  1  0.011973  0.178627  0.406767  1
  Tm  Tm6  1  0.511386  0.322611  0.405055  1
  Tm  Tm7  1  0.487903  0.673256  0.597280  1
  Sc  Sc8  1  0.841288  0.496297  0.250153  1
  Sc  Sc9  1  0.342379  0.004068  0.250092  1
  Sc  Sc10  1  0.656876  0.994318  0.749960  1
  Sc  Sc11  1  0.326192  0.178506  0.627666  1
  Sc  Sc12  1  0.672032  0.824274  0.374518  1
  Sc  Sc13  1  0.172294  0.674244  0.376652  1
  Sc  Sc14  1  0.671925  0.823990  0.125492  1
  Sc  Sc15  1  0.827450  0.330886  0.628745  1
  Sc  Sc16  1  0.326326  0.178316  0.872310  1
  Sc  Sc17  1  0.827220  0.331137  0.871247  1
  Sc  Sc18  1  0.172254  0.674047  0.123371  1
  Si  Si19  1  0.028545  0.115923  0.749983  1
  Si  Si20  1  0.972816  0.887408  0.250261  1
  Si  Si21  1  0.469190  0.613422  0.250024  1
  Si  Si22  1  0.518229  0.397425  0.749992  1
  Si  Si23  1  0.284651  0.858863  0.750021  1
  Si  Si24  1  0.716838  0.131601  0.250387  1
  Si  Si25  1  0.215469  0.369697  0.250474  1
  Si  Si26  1  0.794006  0.631286  0.749997  1
  Si  Si27  1  0.157066  0.466719  0.547528  1
  Si  Si28  1  0.841363  0.535322  0.463371  1
  Si  Si29  1  0.344353  0.965417  0.463182  1
  Si  Si30  1  0.841081  0.536163  0.036467  1
  Si  Si31  1  0.659281  0.034154  0.539821  1
  Si  Si32  1  0.157194  0.467448  0.952246  1
  Si  Si33  1  0.658871  0.033999  0.960070  1
  Si  Si34  1  0.345527  0.964803  0.036630  1
  Tc  Tc35  1  0.151340  0.497023  0.749963  1
