# generated using pymatgen
data_Tb6Tm4InSb5
_symmetry_space_group_name_H-M   'P 1'
_cell_length_a   8.94439700
_cell_length_b   8.95597625
_cell_length_c   6.37453800
_cell_angle_alpha   90.00000000
_cell_angle_beta   90.00000000
_cell_angle_gamma   119.95723647
_symmetry_Int_Tables_number   1
_chemical_formula_structural   Tb6Tm4InSb5
_chemical_formula_sum   'Tb6 Tm4 In1 Sb5'
_cell_volume   442.41549472
_cell_formula_units_Z   1
loop_
 _symmetry_equiv_pos_site_id
 _symmetry_equiv_pos_as_xyz
  1  'x, y, z'
loop_
 _atom_site_type_symbol
 _atom_site_label
 _atom_site_symmetry_multiplicity
 _atom_site_fract_x
 _atom_site_fract_y
 _atom_site_fract_z
 _atom_site_occupancy
  Tb  Tb0  1  0.003495  0.757775  0.750000  1
  Tb  Tb1  1  0.998208  0.244392  0.250000  1
  Tb  Tb2  1  0.753816  0.755608  0.250000  1
  Tb  Tb3  1  0.756275  0.000000  0.750000  1
  Tb  Tb4  1  0.245720  0.242225  0.750000  1
  Tb  Tb5  1  0.243331  0.000000  0.250000  1
  Tm  Tm6  1  0.333868  0.669036  0.499284  1
  Tm  Tm7  1  0.664833  0.330964  0.000716  1
  Tm  Tm8  1  0.664833  0.330964  0.499284  1
  Tm  Tm9  1  0.333868  0.669036  0.000716  1
  In  In10  1  0.396038  0.000000  0.750000  1
  Sb  Sb11  1  0.390754  0.391968  0.250000  1
  Sb  Sb12  1  0.998786  0.608032  0.250000  1
  Sb  Sb13  1  0.000814  0.392115  0.750000  1
  Sb  Sb14  1  0.608699  0.607885  0.750000  1
  Sb  Sb15  1  0.606660  0.000000  0.250000  1
