# generated using pymatgen
data_Hf4Nb2Al5Zn2
_symmetry_space_group_name_H-M   'P 1'
_cell_length_a   5.27174617
_cell_length_b   5.24593360
_cell_length_c   9.99099582
_cell_angle_alpha   74.70079829
_cell_angle_beta   74.70285840
_cell_angle_gamma   59.83708206
_symmetry_Int_Tables_number   1
_chemical_formula_structural   Hf4Nb2Al5Zn2
_chemical_formula_sum   'Hf4 Nb2 Al5 Zn2'
_cell_volume   227.55438667
_cell_formula_units_Z   1
loop_
 _symmetry_equiv_pos_site_id
 _symmetry_equiv_pos_as_xyz
  1  'x, y, z'
loop_
 _atom_site_type_symbol
 _atom_site_label
 _atom_site_symmetry_multiplicity
 _atom_site_fract_x
 _atom_site_fract_y
 _atom_site_fract_z
 _atom_site_occupancy
  Hf  Hf0  1  0.834458  0.836239  0.494846  1
  Hf  Hf1  1  0.165839  0.164952  0.503370  1
  Hf  Hf2  1  0.647581  0.648205  0.056632  1
  Hf  Hf3  1  0.352739  0.350979  0.943545  1
  Nb  Nb4  1  0.544002  0.544974  0.367021  1
  Nb  Nb5  1  0.456266  0.456228  0.631242  1
  Al  Al6  1  0.906972  0.906600  0.773496  1
  Al  Al7  1  0.412930  0.906600  0.773496  1
  Al  Al8  1  0.906938  0.412987  0.773136  1
  Al  Al9  1  0.092692  0.094778  0.226591  1
  Al  Al10  1  0.585941  0.094778  0.226591  1
  Zn  Zn11  1  0.000818  0.996190  0.002174  1
  Zn  Zn12  1  0.092825  0.586490  0.227862  1
