# generated using pymatgen
data_La2TbHo(Zn5Sn)2
_symmetry_space_group_name_H-M   'P 1'
_cell_length_a   8.52869565
_cell_length_b   8.52869544
_cell_length_c   9.08554000
_cell_angle_alpha   90.00000000
_cell_angle_beta   90.00000000
_cell_angle_gamma   149.62396880
_symmetry_Int_Tables_number   1
_chemical_formula_structural   La2TbHo(Zn5Sn)2
_chemical_formula_sum   'La2 Tb1 Ho1 Zn10 Sn2'
_cell_volume   334.18399587
_cell_formula_units_Z   1
loop_
 _symmetry_equiv_pos_site_id
 _symmetry_equiv_pos_as_xyz
  1  'x, y, z'
loop_
 _atom_site_type_symbol
 _atom_site_label
 _atom_site_symmetry_multiplicity
 _atom_site_fract_x
 _atom_site_fract_y
 _atom_site_fract_z
 _atom_site_occupancy
  La  La0  1  0.999885  0.000115  0.500143  1
  La  La1  1  0.999885  0.000115  0.999857  1
  Tb  Tb2  1  0.206452  0.793548  0.250000  1
  Ho  Ho3  1  0.793504  0.206496  0.750000  1
  Zn  Zn4  1  0.812376  0.187624  0.390184  1
  Zn  Zn5  1  0.187785  0.812215  0.610398  1
  Zn  Zn6  1  0.812376  0.187624  0.109816  1
  Zn  Zn7  1  0.187785  0.812215  0.889602  1
  Zn  Zn8  1  0.659077  0.340923  0.483862  1
  Zn  Zn9  1  0.340970  0.659030  0.516635  1
  Zn  Zn10  1  0.659077  0.340923  0.016138  1
  Zn  Zn11  1  0.340970  0.659030  0.983365  1
  Zn  Zn12  1  0.395407  0.604593  0.250000  1
  Zn  Zn13  1  0.604819  0.395181  0.750000  1
  Sn  Sn14  1  0.559285  0.440715  0.250000  1
  Sn  Sn15  1  0.440348  0.559652  0.750000  1
