# generated using pymatgen
data_Tb4Ga2(ReRu)3
_symmetry_space_group_name_H-M   'P 1'
_cell_length_a   5.33227718
_cell_length_b   5.32480450
_cell_length_c   9.05277900
_cell_angle_alpha   90.00000000
_cell_angle_beta   90.00000000
_cell_angle_gamma   119.95366900
_symmetry_Int_Tables_number   1
_chemical_formula_structural   Tb4Ga2(ReRu)3
_chemical_formula_sum   'Tb4 Ga2 Re3 Ru3'
_cell_volume   222.70578596
_cell_formula_units_Z   1
loop_
 _symmetry_equiv_pos_site_id
 _symmetry_equiv_pos_as_xyz
  1  'x, y, z'
loop_
 _atom_site_type_symbol
 _atom_site_label
 _atom_site_symmetry_multiplicity
 _atom_site_fract_x
 _atom_site_fract_y
 _atom_site_fract_z
 _atom_site_occupancy
  Tb  Tb0  1  0.334731  0.667365  0.439233  1
  Tb  Tb1  1  0.662251  0.331124  0.559975  1
  Tb  Tb2  1  0.662251  0.331124  0.940025  1
  Tb  Tb3  1  0.334731  0.667365  0.060767  1
  Ga  Ga4  1  0.169975  0.833372  0.750000  1
  Ga  Ga5  1  0.169975  0.336603  0.750000  1
  Re  Re6  1  0.833606  0.170530  0.250000  1
  Re  Re7  1  0.833606  0.663076  0.250000  1
  Re  Re8  1  0.344970  0.172485  0.250000  1
  Ru  Ru9  1  0.994276  0.997138  0.502575  1
  Ru  Ru10  1  0.994276  0.997138  0.997425  1
  Ru  Ru11  1  0.665356  0.832677  0.750000  1
