# generated using pymatgen
data_Ca2YbSm(ReB4)4
_symmetry_space_group_name_H-M   'P 1'
_cell_length_a   3.59514500
_cell_length_b   6.01764626
_cell_length_c   11.63913841
_cell_angle_alpha   89.93468362
_cell_angle_beta   90.00000000
_cell_angle_gamma   90.00000000
_symmetry_Int_Tables_number   1
_chemical_formula_structural   Ca2YbSm(ReB4)4
_chemical_formula_sum   'Ca2 Yb1 Sm1 Re4 B16'
_cell_volume   251.80457502
_cell_formula_units_Z   1
loop_
 _symmetry_equiv_pos_site_id
 _symmetry_equiv_pos_as_xyz
  1  'x, y, z'
loop_
 _atom_site_type_symbol
 _atom_site_label
 _atom_site_symmetry_multiplicity
 _atom_site_fract_x
 _atom_site_fract_y
 _atom_site_fract_z
 _atom_site_occupancy
  Ca  Ca0  1  0.500000  0.626953  0.848498  1
  Ca  Ca1  1  0.500000  0.126449  0.649944  1
  Yb  Yb2  1  0.500000  0.873106  0.351340  1
  Sm  Sm3  1  0.500000  0.372989  0.151170  1
  Re  Re4  1  0.500000  0.370901  0.416268  1
  Re  Re5  1  0.500000  0.630610  0.583114  1
  Re  Re6  1  0.500000  0.130507  0.916321  1
  Re  Re7  1  0.500000  0.871553  0.085053  1
  B  B8  1  0.000000  0.111145  0.046569  1
  B  B9  1  0.000000  0.885096  0.952090  1
  B  B10  1  0.000000  0.385532  0.546940  1
  B  B11  1  0.000000  0.614817  0.452539  1
  B  B12  1  0.000000  0.134570  0.467636  1
  B  B13  1  0.000000  0.864421  0.531544  1
  B  B14  1  0.000000  0.363138  0.967304  1
  B  B15  1  0.000000  0.637151  0.031555  1
  B  B16  1  0.000000  0.023448  0.192511  1
  B  B17  1  0.000000  0.975717  0.807779  1
  B  B18  1  0.000000  0.475706  0.691777  1
  B  B19  1  0.000000  0.526657  0.309176  1
  B  B20  1  0.000000  0.215112  0.316483  1
  B  B21  1  0.000000  0.783200  0.684383  1
  B  B22  1  0.000000  0.282446  0.814622  1
  B  B23  1  0.000000  0.718780  0.185385  1
