# generated using pymatgen
data_DyTm4(CoB3)2
_symmetry_space_group_name_H-M   'P 1'
_cell_length_a   5.38672861
_cell_length_b   5.38672873
_cell_length_c   8.21598149
_cell_angle_alpha   70.86348770
_cell_angle_beta   70.86348906
_cell_angle_gamma   59.99999393
_symmetry_Int_Tables_number   1
_chemical_formula_structural   DyTm4(CoB3)2
_chemical_formula_sum   'Dy1 Tm4 Co2 B6'
_cell_volume   191.09868665
_cell_formula_units_Z   1
loop_
 _symmetry_equiv_pos_site_id
 _symmetry_equiv_pos_as_xyz
  1  'x, y, z'
loop_
 _atom_site_type_symbol
 _atom_site_label
 _atom_site_symmetry_multiplicity
 _atom_site_fract_x
 _atom_site_fract_y
 _atom_site_fract_z
 _atom_site_occupancy
  Dy  Dy0  1  0.000000  0.000000  0.000000  1
  Tm  Tm1  1  0.251509  0.251509  0.245472  1
  Tm  Tm2  1  0.748491  0.748491  0.754528  1
  Tm  Tm3  1  0.416123  0.416123  0.751629  1
  Tm  Tm4  1  0.583877  0.583877  0.248371  1
  Co  Co5  1  0.118679  0.118679  0.643962  1
  Co  Co6  1  0.881321  0.881321  0.356038  1
  B  B7  1  0.168933  0.831067  0.500000  1
  B  B8  1  0.831067  0.500000  0.500000  1
  B  B9  1  0.500000  0.168933  0.500000  1
  B  B10  1  0.168933  0.500000  0.500000  1
  B  B11  1  0.500000  0.831067  0.500000  1
  B  B12  1  0.831067  0.168933  0.500000  1
