# generated using pymatgen
data_Y6Er4BiPb5
_symmetry_space_group_name_H-M   'P 1'
_cell_length_a   9.07376500
_cell_length_b   9.07376470
_cell_length_c   6.53860600
_cell_angle_alpha   90.00000000
_cell_angle_beta   90.00000000
_cell_angle_gamma   120.00055236
_symmetry_Int_Tables_number   1
_chemical_formula_structural   Y6Er4BiPb5
_chemical_formula_sum   'Y6 Er4 Bi1 Pb5'
_cell_volume   466.21734131
_cell_formula_units_Z   1
loop_
 _symmetry_equiv_pos_site_id
 _symmetry_equiv_pos_as_xyz
  1  'x, y, z'
loop_
 _atom_site_type_symbol
 _atom_site_label
 _atom_site_symmetry_multiplicity
 _atom_site_fract_x
 _atom_site_fract_y
 _atom_site_fract_z
 _atom_site_occupancy
  Y  Y0  1  0.761669  0.761669  0.750000  1
  Y  Y1  1  0.238237  0.997018  0.750000  1
  Y  Y2  1  0.997018  0.238237  0.750000  1
  Y  Y3  1  0.239341  0.239341  0.250000  1
  Y  Y4  1  0.760755  0.000613  0.250000  1
  Y  Y5  1  0.000613  0.760755  0.250000  1
  Er  Er6  1  0.668215  0.332963  0.999547  1
  Er  Er7  1  0.332963  0.668215  0.999547  1
  Er  Er8  1  0.332963  0.668215  0.500453  1
  Er  Er9  1  0.668215  0.332963  0.500453  1
  Bi  Bi10  1  0.394014  0.394014  0.750000  1
  Pb  Pb11  1  0.604966  0.999975  0.750000  1
  Pb  Pb12  1  0.999975  0.604966  0.750000  1
  Pb  Pb13  1  0.605644  0.605644  0.250000  1
  Pb  Pb14  1  0.394738  0.000675  0.250000  1
  Pb  Pb15  1  0.000675  0.394738  0.250000  1
