# generated using pymatgen
data_Dy3Y12HoCd3AgPt4
_symmetry_space_group_name_H-M   'P 1'
_cell_length_a   9.71465879
_cell_length_b   9.71381941
_cell_length_c   9.71381900
_cell_angle_alpha   60.00000479
_cell_angle_beta   60.00286296
_cell_angle_gamma   60.00286268
_symmetry_Int_Tables_number   1
_chemical_formula_structural   Dy3Y12HoCd3AgPt4
_chemical_formula_sum   'Dy3 Y12 Ho1 Cd3 Ag1 Pt4'
_cell_volume   648.20353099
_cell_formula_units_Z   1
loop_
 _symmetry_equiv_pos_site_id
 _symmetry_equiv_pos_as_xyz
  1  'x, y, z'
loop_
 _atom_site_type_symbol
 _atom_site_label
 _atom_site_symmetry_multiplicity
 _atom_site_fract_x
 _atom_site_fract_y
 _atom_site_fract_z
 _atom_site_occupancy
  Dy  Dy0  1  0.351722  0.351704  0.351704  1
  Dy  Dy1  1  0.352093  0.352319  0.943639  1
  Dy  Dy2  1  0.352093  0.943639  0.352319  1
  Y  Y3  1  0.810076  0.189825  0.189825  1
  Y  Y4  1  0.189983  0.810162  0.810162  1
  Y  Y5  1  0.189919  0.810188  0.189662  1
  Y  Y6  1  0.810129  0.190034  0.809982  1
  Y  Y7  1  0.189919  0.189662  0.810188  1
  Y  Y8  1  0.810129  0.809982  0.190034  1
  Y  Y9  1  0.933969  0.564666  0.564666  1
  Y  Y10  1  0.564905  0.935185  0.935185  1
  Y  Y11  1  0.564734  0.933760  0.564820  1
  Y  Y12  1  0.935319  0.564626  0.935439  1
  Y  Y13  1  0.564734  0.564820  0.933760  1
  Y  Y14  1  0.935319  0.935439  0.564626  1
  Ho  Ho15  1  0.944325  0.352070  0.352070  1
  Cd  Cd16  1  0.582174  0.581906  0.254502  1
  Cd  Cd17  1  0.582174  0.254502  0.581906  1
  Cd  Cd18  1  0.254602  0.582002  0.582002  1
  Ag  Ag19  1  0.582957  0.582547  0.582547  1
  Pt  Pt20  1  0.143163  0.144208  0.144208  1
  Pt  Pt21  1  0.143184  0.144122  0.568984  1
  Pt  Pt22  1  0.143184  0.568984  0.144122  1
  Pt  Pt23  1  0.569193  0.143653  0.143653  1
