# generated using pymatgen
data_DyY3Nb4F28
_symmetry_space_group_name_H-M   'P 1'
_cell_length_a   5.69312240
_cell_length_b   9.04776408
_cell_length_c   12.18752391
_cell_angle_alpha   63.48795920
_cell_angle_beta   89.96752942
_cell_angle_gamma   89.98796439
_symmetry_Int_Tables_number   1
_chemical_formula_structural   DyY3Nb4F28
_chemical_formula_sum   'Dy1 Y3 Nb4 F28'
_cell_volume   561.76265704
_cell_formula_units_Z   1
loop_
 _symmetry_equiv_pos_site_id
 _symmetry_equiv_pos_as_xyz
  1  'x, y, z'
loop_
 _atom_site_type_symbol
 _atom_site_label
 _atom_site_symmetry_multiplicity
 _atom_site_fract_x
 _atom_site_fract_y
 _atom_site_fract_z
 _atom_site_occupancy
  Dy  Dy0  1  0.256021  0.812443  0.269798  1
  Y  Y1  1  0.744075  0.187446  0.730247  1
  Y  Y2  1  0.755716  0.187293  0.230388  1
  Y  Y3  1  0.244178  0.812154  0.769756  1
  Nb  Nb4  1  0.752865  0.726872  0.045743  1
  Nb  Nb5  1  0.247248  0.272937  0.954601  1
  Nb  Nb6  1  0.252654  0.273656  0.454387  1
  Nb  Nb7  1  0.747522  0.726672  0.545200  1
  F  F8  1  0.964817  0.708017  0.419314  1
  F  F9  1  0.036368  0.292582  0.580584  1
  F  F10  1  0.463556  0.292364  0.080467  1
  F  F11  1  0.536889  0.707857  0.919483  1
  F  F12  1  0.474373  0.732464  0.148677  1
  F  F13  1  0.525856  0.267896  0.851764  1
  F  F14  1  0.974059  0.268030  0.351704  1
  F  F15  1  0.025806  0.731870  0.648129  1
  F  F16  1  0.965768  0.751671  0.172119  1
  F  F17  1  0.034984  0.248165  0.828226  1
  F  F18  1  0.464441  0.248734  0.327807  1
  F  F19  1  0.535048  0.751350  0.671764  1
  F  F20  1  0.766117  0.485590  0.140968  1
  F  F21  1  0.233474  0.514143  0.859170  1
  F  F22  1  0.265605  0.515086  0.359372  1
  F  F23  1  0.733827  0.485456  0.640465  1
  F  F24  1  0.955638  0.280816  0.051424  1
  F  F25  1  0.044413  0.719235  0.948822  1
  F  F26  1  0.456651  0.719321  0.447700  1
  F  F27  1  0.543978  0.280813  0.551440  1
  F  F28  1  0.742144  0.966229  0.447899  1
  F  F29  1  0.257577  0.034142  0.551799  1
  F  F30  1  0.242234  0.033339  0.053003  1
  F  F31  1  0.757915  0.966337  0.947877  1
  F  F32  1  0.568115  0.974634  0.233696  1
  F  F33  1  0.430482  0.025273  0.766443  1
  F  F34  1  0.068974  0.024704  0.266294  1
  F  F35  1  0.930619  0.974407  0.733471  1
