# generated using pymatgen
data_Tb3Mg3Si2Pd
_symmetry_space_group_name_H-M   'P 1'
_cell_length_a   7.24739100
_cell_length_b   7.24739149
_cell_length_c   4.28905800
_cell_angle_alpha   90.00000000
_cell_angle_beta   90.00000000
_cell_angle_gamma   120.00000231
_symmetry_Int_Tables_number   1
_chemical_formula_structural   Tb3Mg3Si2Pd
_chemical_formula_sum   'Tb3 Mg3 Si2 Pd1'
_cell_volume   195.09940957
_cell_formula_units_Z   1
loop_
 _symmetry_equiv_pos_site_id
 _symmetry_equiv_pos_as_xyz
  1  'x, y, z'
loop_
 _atom_site_type_symbol
 _atom_site_label
 _atom_site_symmetry_multiplicity
 _atom_site_fract_x
 _atom_site_fract_y
 _atom_site_fract_z
 _atom_site_occupancy
  Tb  Tb0  1  0.583241  0.000000  0.000000  1
  Tb  Tb1  1  0.000000  0.583241  0.000000  1
  Tb  Tb2  1  0.416759  0.416759  0.000000  1
  Mg  Mg3  1  0.244328  0.000000  0.500000  1
  Mg  Mg4  1  0.000000  0.244328  0.500000  1
  Mg  Mg5  1  0.755672  0.755672  0.500000  1
  Si  Si6  1  0.333333  0.666667  0.500000  1
  Si  Si7  1  0.666667  0.333333  0.500000  1
  Pd  Pd8  1  0.000000  0.000000  0.000000  1
