# generated using pymatgen
data_Li3Ce3ThZnPt4
_symmetry_space_group_name_H-M   'P 1'
_cell_length_a   4.04229400
_cell_length_b   7.25738095
_cell_length_c   8.51069892
_cell_angle_alpha   90.08762720
_cell_angle_beta   90.00000000
_cell_angle_gamma   90.00000000
_symmetry_Int_Tables_number   1
_chemical_formula_structural   Li3Ce3ThZnPt4
_chemical_formula_sum   'Li3 Ce3 Th1 Zn1 Pt4'
_cell_volume   249.67355008
_cell_formula_units_Z   1
loop_
 _symmetry_equiv_pos_site_id
 _symmetry_equiv_pos_as_xyz
  1  'x, y, z'
loop_
 _atom_site_type_symbol
 _atom_site_label
 _atom_site_symmetry_multiplicity
 _atom_site_fract_x
 _atom_site_fract_y
 _atom_site_fract_z
 _atom_site_occupancy
  Li  Li0  1  0.250000  0.627484  0.557102  1
  Li  Li1  1  0.250000  0.116922  0.944028  1
  Li  Li2  1  0.750000  0.376452  0.439093  1
  Ce  Ce3  1  0.250000  0.049448  0.307259  1
  Ce  Ce4  1  0.250000  0.552111  0.190296  1
  Ce  Ce5  1  0.750000  0.947668  0.691909  1
  Th  Th6  1  0.750000  0.448977  0.809394  1
  Zn  Zn7  1  0.750000  0.876571  0.061943  1
  Pt  Pt8  1  0.250000  0.240847  0.624676  1
  Pt  Pt9  1  0.250000  0.738808  0.878256  1
  Pt  Pt10  1  0.750000  0.763945  0.375596  1
  Pt  Pt11  1  0.750000  0.260767  0.120447  1
