# generated using pymatgen
data_LaPr3CdCo
_symmetry_space_group_name_H-M   'P 1'
_cell_length_a   9.91102644
_cell_length_b   9.91309860
_cell_length_c   9.91036110
_cell_angle_alpha   60.08929053
_cell_angle_beta   60.07922285
_cell_angle_gamma   60.08085065
_symmetry_Int_Tables_number   1
_chemical_formula_structural   LaPr3CdCo
_chemical_formula_sum   'La4 Pr12 Cd4 Co4'
_cell_volume   689.79460373
_cell_formula_units_Z   4
loop_
 _symmetry_equiv_pos_site_id
 _symmetry_equiv_pos_as_xyz
  1  'x, y, z'
loop_
 _atom_site_type_symbol
 _atom_site_label
 _atom_site_symmetry_multiplicity
 _atom_site_fract_x
 _atom_site_fract_y
 _atom_site_fract_z
 _atom_site_occupancy
  La  La0  1  0.594936  0.594742  0.594797  1
  La  La1  1  0.596645  0.596580  0.210960  1
  La  La2  1  0.596659  0.210895  0.596641  1
  La  La3  1  0.210856  0.596583  0.596602  1
  Pr  Pr4  1  0.061414  0.438931  0.438847  1
  Pr  Pr5  1  0.438593  0.060490  0.060435  1
  Pr  Pr6  1  0.438871  0.061470  0.438850  1
  Pr  Pr7  1  0.060459  0.438632  0.060485  1
  Pr  Pr8  1  0.438855  0.438888  0.061428  1
  Pr  Pr9  1  0.060432  0.060567  0.438575  1
  Pr  Pr10  1  0.189254  0.811741  0.811733  1
  Pr  Pr11  1  0.809979  0.188759  0.188740  1
  Pr  Pr12  1  0.811743  0.189213  0.811804  1
  Pr  Pr13  1  0.188743  0.810044  0.188726  1
  Pr  Pr14  1  0.811775  0.811814  0.189221  1
  Pr  Pr15  1  0.188716  0.188757  0.810029  1
  Cd  Cd16  1  0.829951  0.829963  0.829979  1
  Cd  Cd17  1  0.829927  0.829961  0.510342  1
  Cd  Cd18  1  0.829929  0.510356  0.829948  1
  Cd  Cd19  1  0.510325  0.829940  0.829936  1
  Co  Co20  1  0.392078  0.392045  0.392112  1
  Co  Co21  1  0.392567  0.392376  0.824796  1
  Co  Co22  1  0.392388  0.824710  0.392469  1
  Co  Co23  1  0.824903  0.392540  0.392550  1
