# generated using pymatgen
data_Nd2CuSi4Pt2Au
_symmetry_space_group_name_H-M   'P 1'
_cell_length_a   4.25495500
_cell_length_b   4.25495500
_cell_length_c   10.05561400
_cell_angle_alpha   90.00000000
_cell_angle_beta   90.00000000
_cell_angle_gamma   90.00000000
_symmetry_Int_Tables_number   1
_chemical_formula_structural   Nd2CuSi4Pt2Au
_chemical_formula_sum   'Nd2 Cu1 Si4 Pt2 Au1'
_cell_volume   182.05329208
_cell_formula_units_Z   1
loop_
 _symmetry_equiv_pos_site_id
 _symmetry_equiv_pos_as_xyz
  1  'x, y, z'
loop_
 _atom_site_type_symbol
 _atom_site_label
 _atom_site_symmetry_multiplicity
 _atom_site_fract_x
 _atom_site_fract_y
 _atom_site_fract_z
 _atom_site_occupancy
  Nd  Nd0  1  0.000000  0.500000  0.251442  1
  Nd  Nd1  1  0.500000  0.000000  0.748558  1
  Cu  Cu2  1  0.000000  0.000000  0.000000  1
  Si  Si3  1  0.000000  0.000000  0.500000  1
  Si  Si4  1  0.500000  0.500000  0.500000  1
  Si  Si5  1  0.000000  0.500000  0.860091  1
  Si  Si6  1  0.500000  0.000000  0.139909  1
  Pt  Pt7  1  0.000000  0.500000  0.618696  1
  Pt  Pt8  1  0.500000  0.000000  0.381304  1
  Au  Au9  1  0.500000  0.500000  0.000000  1
