# generated using pymatgen
data_ZnIn11Rh4
_symmetry_space_group_name_H-M   'P 1'
_cell_length_a   7.06481218
_cell_length_b   7.03890460
_cell_length_c   7.24525300
_cell_angle_alpha   90.00000000
_cell_angle_beta   90.00000000
_cell_angle_gamma   89.17695468
_symmetry_Int_Tables_number   1
_chemical_formula_structural   ZnIn11Rh4
_chemical_formula_sum   'Zn1 In11 Rh4'
_cell_volume   360.25867355
_cell_formula_units_Z   1
loop_
 _symmetry_equiv_pos_site_id
 _symmetry_equiv_pos_as_xyz
  1  'x, y, z'
loop_
 _atom_site_type_symbol
 _atom_site_label
 _atom_site_symmetry_multiplicity
 _atom_site_fract_x
 _atom_site_fract_y
 _atom_site_fract_z
 _atom_site_occupancy
  Zn  Zn0  1  0.500000  0.000000  0.000000  1
  In  In1  1  0.000000  0.500000  0.000000  1
  In  In2  1  0.652296  0.340691  0.236735  1
  In  In3  1  0.347705  0.659310  0.236735  1
  In  In4  1  0.156009  0.148847  0.253691  1
  In  In5  1  0.843992  0.851154  0.253691  1
  In  In6  1  0.500000  0.000000  0.500000  1
  In  In7  1  0.000000  0.500000  0.500000  1
  In  In8  1  0.156009  0.148847  0.746308  1
  In  In9  1  0.843992  0.851154  0.746308  1
  In  In10  1  0.652296  0.340691  0.763264  1
  In  In11  1  0.347705  0.659310  0.763264  1
  Rh  Rh12  1  0.349527  0.341317  0.000000  1
  Rh  Rh13  1  0.650474  0.658684  0.000000  1
  Rh  Rh14  1  0.845663  0.156137  0.500000  1
  Rh  Rh15  1  0.154337  0.843863  0.500000  1
