# generated using pymatgen
data_TbNdMn5(NiP)7
_symmetry_space_group_name_H-M   'P 1'
_cell_length_a   9.16970866
_cell_length_b   9.16895826
_cell_length_c   3.69204600
_cell_angle_alpha   90.00000000
_cell_angle_beta   90.00000000
_cell_angle_gamma   120.04637804
_symmetry_Int_Tables_number   1
_chemical_formula_structural   TbNdMn5(NiP)7
_chemical_formula_sum   'Tb1 Nd1 Mn5 Ni7 P7'
_cell_volume   268.70151627
_cell_formula_units_Z   1
loop_
 _symmetry_equiv_pos_site_id
 _symmetry_equiv_pos_as_xyz
  1  'x, y, z'
loop_
 _atom_site_type_symbol
 _atom_site_label
 _atom_site_symmetry_multiplicity
 _atom_site_fract_x
 _atom_site_fract_y
 _atom_site_fract_z
 _atom_site_occupancy
  Tb  Tb0  1  0.667410  0.332702  0.000000  1
  Nd  Nd1  1  0.332792  0.667640  0.500000  1
  Mn  Mn2  1  0.844598  0.722981  0.000000  1
  Mn  Mn3  1  0.879400  0.152101  0.000000  1
  Mn  Mn4  1  0.099516  0.881718  0.500000  1
  Mn  Mn5  1  0.776700  0.899083  0.500000  1
  Mn  Mn6  1  0.121187  0.219610  0.500000  1
  Ni  Ni7  1  0.058846  0.624159  0.000000  1
  Ni  Ni8  1  0.566983  0.941036  0.000000  1
  Ni  Ni9  1  0.377204  0.432849  0.000000  1
  Ni  Ni10  1  0.276392  0.124111  0.000000  1
  Ni  Ni11  1  0.436116  0.054181  0.500000  1
  Ni  Ni12  1  0.615374  0.563231  0.500000  1
  Ni  Ni13  1  0.946793  0.383603  0.500000  1
  P  P14  1  0.294007  0.891475  0.000000  1
  P  P15  1  0.597801  0.707352  0.000000  1
  P  P16  1  0.108684  0.402251  0.000000  1
  P  P17  1  0.403696  0.291025  0.500000  1
  P  P18  1  0.888107  0.599265  0.500000  1
  P  P19  1  0.710885  0.112914  0.500000  1
  P  P20  1  0.997504  0.996716  0.000000  1
