# generated using pymatgen
data_PrZn3P6N13
_symmetry_space_group_name_H-M   'P 1'
_cell_length_a   7.11567926
_cell_length_b   7.27035596
_cell_length_c   7.11567971
_cell_angle_alpha   109.91214989
_cell_angle_beta   109.02670353
_cell_angle_gamma   109.91216667
_symmetry_Int_Tables_number   1
_chemical_formula_structural   PrZn3P6N13
_chemical_formula_sum   'Pr1 Zn3 P6 N13'
_cell_volume   281.82157611
_cell_formula_units_Z   1
loop_
 _symmetry_equiv_pos_site_id
 _symmetry_equiv_pos_as_xyz
  1  'x, y, z'
loop_
 _atom_site_type_symbol
 _atom_site_label
 _atom_site_symmetry_multiplicity
 _atom_site_fract_x
 _atom_site_fract_y
 _atom_site_fract_z
 _atom_site_occupancy
  Pr  Pr0  1  0.000000  0.727546  0.000000  1
  Zn  Zn1  1  0.713508  0.025309  0.000000  1
  Zn  Zn2  1  0.000000  0.025309  0.713508  1
  Zn  Zn3  1  0.286492  0.311801  0.286492  1
  P  P4  1  0.492600  0.236600  0.746132  1
  P  P5  1  0.507400  0.744000  0.253531  1
  P  P6  1  0.746469  0.490469  0.253868  1
  P  P7  1  0.253531  0.744000  0.507400  1
  P  P8  1  0.746132  0.236600  0.492600  1
  P  P9  1  0.253868  0.490469  0.746469  1
  N  N10  1  0.000000  0.723878  0.448018  1
  N  N11  1  0.288019  0.548380  0.552801  1
  N  N12  1  0.716289  0.434903  0.000000  1
  N  N13  1  0.283711  0.718616  0.283711  1
  N  N14  1  0.447199  0.995579  0.735219  1
  N  N15  1  0.711981  0.260360  0.264781  1
  N  N16  1  0.551982  0.275859  0.551982  1
  N  N17  1  0.735219  0.995579  0.447199  1
  N  N18  1  0.264781  0.260360  0.711981  1
  N  N19  1  0.448018  0.723878  0.000000  1
  N  N20  1  0.552801  0.548380  0.288019  1
  N  N21  1  0.000000  0.434903  0.716289  1
  N  N22  1  0.000000  0.047225  0.000000  1
