# generated using pymatgen
data_Ho8InHgPt2
_symmetry_space_group_name_H-M   'P 1'
_cell_length_a   9.64997302
_cell_length_b   9.64997263
_cell_length_c   9.63887700
_cell_angle_alpha   60.03803154
_cell_angle_beta   60.03803286
_cell_angle_gamma   60.03575692
_symmetry_Int_Tables_number   1
_chemical_formula_structural   Ho8InHgPt2
_chemical_formula_sum   'Ho16 In2 Hg2 Pt4'
_cell_volume   635.22911787
_cell_formula_units_Z   2
loop_
 _symmetry_equiv_pos_site_id
 _symmetry_equiv_pos_as_xyz
  1  'x, y, z'
loop_
 _atom_site_type_symbol
 _atom_site_label
 _atom_site_symmetry_multiplicity
 _atom_site_fract_x
 _atom_site_fract_y
 _atom_site_fract_z
 _atom_site_occupancy
  Ho  Ho0  1  0.185774  0.185774  0.814226  1
  Ho  Ho1  1  0.602196  0.602196  0.194612  1
  Ho  Ho2  1  0.439932  0.059519  0.441546  1
  Ho  Ho3  1  0.441085  0.441085  0.058915  1
  Ho  Ho4  1  0.812623  0.183713  0.814979  1
  Ho  Ho5  1  0.183713  0.812623  0.188685  1
  Ho  Ho6  1  0.439932  0.059519  0.059004  1
  Ho  Ho7  1  0.183713  0.812623  0.814979  1
  Ho  Ho8  1  0.059519  0.439932  0.059004  1
  Ho  Ho9  1  0.813699  0.813699  0.186301  1
  Ho  Ho10  1  0.190760  0.603937  0.602652  1
  Ho  Ho11  1  0.059519  0.439932  0.441546  1
  Ho  Ho12  1  0.059888  0.059888  0.440112  1
  Ho  Ho13  1  0.812623  0.183713  0.188685  1
  Ho  Ho14  1  0.603937  0.190760  0.602652  1
  Ho  Ho15  1  0.602196  0.602196  0.600996  1
  In  In16  1  0.503451  0.832625  0.831962  1
  In  In17  1  0.832625  0.503451  0.831962  1
  Hg  Hg18  1  0.836477  0.836477  0.837304  1
  Hg  Hg19  1  0.836477  0.836477  0.489742  1
  Pt  Pt20  1  0.392888  0.821033  0.393040  1
  Pt  Pt21  1  0.392970  0.392970  0.393749  1
  Pt  Pt22  1  0.821033  0.392888  0.393040  1
  Pt  Pt23  1  0.392970  0.392970  0.820311  1
