# generated using pymatgen
data_Dy2Ho6CdNi2Hg
_symmetry_space_group_name_H-M   'P 1'
_cell_length_a   9.48364353
_cell_length_b   9.48364296
_cell_length_c   9.48927900
_cell_angle_alpha   59.98034257
_cell_angle_beta   59.98034455
_cell_angle_gamma   60.14102980
_symmetry_Int_Tables_number   1
_chemical_formula_structural   Dy2Ho6CdNi2Hg
_chemical_formula_sum   'Dy4 Ho12 Cd2 Ni4 Hg2'
_cell_volume   603.94864465
_cell_formula_units_Z   2
loop_
 _symmetry_equiv_pos_site_id
 _symmetry_equiv_pos_as_xyz
  1  'x, y, z'
loop_
 _atom_site_type_symbol
 _atom_site_label
 _atom_site_symmetry_multiplicity
 _atom_site_fract_x
 _atom_site_fract_y
 _atom_site_fract_z
 _atom_site_occupancy
  Dy  Dy0  1  0.348675  0.348675  0.347383  1
  Dy  Dy1  1  0.348675  0.348675  0.955266  1
  Dy  Dy2  1  0.352259  0.947757  0.349992  1
  Dy  Dy3  1  0.947757  0.352259  0.349992  1
  Ho  Ho4  1  0.811853  0.188436  0.189203  1
  Ho  Ho5  1  0.188436  0.811853  0.810508  1
  Ho  Ho6  1  0.188436  0.811853  0.189203  1
  Ho  Ho7  1  0.811853  0.188436  0.810508  1
  Ho  Ho8  1  0.189072  0.189072  0.810928  1
  Ho  Ho9  1  0.811084  0.811084  0.188916  1
  Ho  Ho10  1  0.935890  0.563043  0.564135  1
  Ho  Ho11  1  0.563043  0.935890  0.936931  1
  Ho  Ho12  1  0.563043  0.935890  0.564135  1
  Ho  Ho13  1  0.935890  0.563043  0.936931  1
  Ho  Ho14  1  0.563694  0.563694  0.936306  1
  Ho  Ho15  1  0.937031  0.937031  0.562969  1
  Cd  Cd16  1  0.580187  0.256635  0.581590  1
  Cd  Cd17  1  0.256635  0.580187  0.581590  1
  Ni  Ni18  1  0.142376  0.142376  0.144828  1
  Ni  Ni19  1  0.142376  0.142376  0.570421  1
  Ni  Ni20  1  0.140883  0.572969  0.143075  1
  Ni  Ni21  1  0.572969  0.140883  0.143075  1
  Hg  Hg22  1  0.583942  0.583942  0.586382  1
  Hg  Hg23  1  0.583942  0.583942  0.245735  1
