# generated using pymatgen
data_La(TbSe2)3
_symmetry_space_group_name_H-M   'P 1'
_cell_length_a   4.19646000
_cell_length_b   11.71417873
_cell_length_c   11.99747202
_cell_angle_alpha   70.95028491
_cell_angle_beta   90.00000000
_cell_angle_gamma   90.00000000
_symmetry_Int_Tables_number   1
_chemical_formula_structural   La(TbSe2)3
_chemical_formula_sum   'La2 Tb6 Se12'
_cell_volume   557.47424465
_cell_formula_units_Z   2
loop_
 _symmetry_equiv_pos_site_id
 _symmetry_equiv_pos_as_xyz
  1  'x, y, z'
loop_
 _atom_site_type_symbol
 _atom_site_label
 _atom_site_symmetry_multiplicity
 _atom_site_fract_x
 _atom_site_fract_y
 _atom_site_fract_z
 _atom_site_occupancy
  La  La0  1  0.750000  0.549364  0.805275  1
  La  La1  1  0.250000  0.450636  0.194725  1
  Tb  Tb2  1  0.750000  0.180229  0.999686  1
  Tb  Tb3  1  0.250000  0.819771  0.000314  1
  Tb  Tb4  1  0.750000  0.942794  0.666588  1
  Tb  Tb5  1  0.250000  0.057206  0.333412  1
  Tb  Tb6  1  0.750000  0.659319  0.413615  1
  Tb  Tb7  1  0.250000  0.340681  0.586385  1
  Se  Se8  1  0.750000  0.980543  0.887603  1
  Se  Se9  1  0.250000  0.019457  0.112397  1
  Se  Se10  1  0.750000  0.302804  0.749958  1
  Se  Se11  1  0.250000  0.697196  0.250042  1
  Se  Se12  1  0.750000  0.892070  0.443385  1
  Se  Se13  1  0.250000  0.107930  0.556615  1
  Se  Se14  1  0.750000  0.416830  0.405257  1
  Se  Se15  1  0.250000  0.583170  0.594743  1
  Se  Se16  1  0.750000  0.234491  0.229176  1
  Se  Se17  1  0.250000  0.765509  0.770824  1
  Se  Se18  1  0.750000  0.618381  0.036172  1
  Se  Se19  1  0.250000  0.381619  0.963828  1
