# generated using pymatgen
data_ZrUSi(PRu2)6
_symmetry_space_group_name_H-M   'P 1'
_cell_length_a   9.43028800
_cell_length_b   9.43031227
_cell_length_c   3.89842600
_cell_angle_alpha   90.00000000
_cell_angle_beta   90.00000000
_cell_angle_gamma   119.99992701
_symmetry_Int_Tables_number   1
_chemical_formula_structural   ZrUSi(PRu2)6
_chemical_formula_sum   'Zr1 U1 Si1 P6 Ru12'
_cell_volume   300.24188378
_cell_formula_units_Z   1
loop_
 _symmetry_equiv_pos_site_id
 _symmetry_equiv_pos_as_xyz
  1  'x, y, z'
loop_
 _atom_site_type_symbol
 _atom_site_label
 _atom_site_symmetry_multiplicity
 _atom_site_fract_x
 _atom_site_fract_y
 _atom_site_fract_z
 _atom_site_occupancy
  Zr  Zr0  1  0.666667  0.333334  0.500000  1
  U  U1  1  0.333331  0.666667  0.000000  1
  Si  Si2  1  0.000000  0.000001  0.000000  1
  P  P3  1  0.603709  0.717725  0.500000  1
  P  P4  1  0.282276  0.885983  0.500000  1
  P  P5  1  0.114015  0.396291  0.500000  1
  P  P6  1  0.884621  0.575208  0.000000  1
  P  P7  1  0.424791  0.309412  0.000000  1
  P  P8  1  0.690589  0.115381  0.000000  1
  Ru  Ru9  1  0.550632  0.943937  0.500000  1
  Ru  Ru10  1  0.393304  0.449367  0.500000  1
  Ru  Ru11  1  0.908951  0.121064  0.500000  1
  Ru  Ru12  1  0.212112  0.091049  0.500000  1
  Ru  Ru13  1  0.878939  0.787888  0.500000  1
  Ru  Ru14  1  0.716289  0.883826  0.000000  1
  Ru  Ru15  1  0.116176  0.832463  0.000000  1
  Ru  Ru16  1  0.167534  0.283711  0.000000  1
  Ru  Ru17  1  0.431545  0.074094  0.000000  1
  Ru  Ru18  1  0.925905  0.357451  0.000000  1
  Ru  Ru19  1  0.642550  0.568453  0.000000  1
  Ru  Ru20  1  0.056063  0.606698  0.500000  1
