# generated using pymatgen
data_Er2Tm14MgCd3Ir4
_symmetry_space_group_name_H-M   'P 1'
_cell_length_a   9.57244133
_cell_length_b   9.57244078
_cell_length_c   9.57144601
_cell_angle_alpha   59.51968572
_cell_angle_beta   59.51968789
_cell_angle_gamma   59.51332970
_symmetry_Int_Tables_number   1
_chemical_formula_structural   Er2Tm14MgCd3Ir4
_chemical_formula_sum   'Er2 Tm14 Mg1 Cd3 Ir4'
_cell_volume   613.36238804
_cell_formula_units_Z   1
loop_
 _symmetry_equiv_pos_site_id
 _symmetry_equiv_pos_as_xyz
  1  'x, y, z'
loop_
 _atom_site_type_symbol
 _atom_site_label
 _atom_site_symmetry_multiplicity
 _atom_site_fract_x
 _atom_site_fract_y
 _atom_site_fract_z
 _atom_site_occupancy
  Er  Er0  1  0.812566  0.812566  0.189154  1
  Er  Er1  1  0.187337  0.187337  0.812110  1
  Tm  Tm2  1  0.600034  0.600034  0.600103  1
  Tm  Tm3  1  0.598421  0.598421  0.206436  1
  Tm  Tm4  1  0.598501  0.206420  0.598440  1
  Tm  Tm5  1  0.206420  0.598501  0.598440  1
  Tm  Tm6  1  0.059735  0.439910  0.439896  1
  Tm  Tm7  1  0.436588  0.061248  0.061234  1
  Tm  Tm8  1  0.439910  0.059735  0.439896  1
  Tm  Tm9  1  0.061248  0.436588  0.061234  1
  Tm  Tm10  1  0.439913  0.439913  0.059737  1
  Tm  Tm11  1  0.061247  0.061247  0.436593  1
  Tm  Tm12  1  0.189297  0.812484  0.812476  1
  Tm  Tm13  1  0.811975  0.187469  0.187442  1
  Tm  Tm14  1  0.812484  0.189297  0.812476  1
  Tm  Tm15  1  0.187469  0.811975  0.187442  1
  Mg  Mg16  1  0.825310  0.825310  0.825261  1
  Cd  Cd17  1  0.831371  0.831371  0.504552  1
  Cd  Cd18  1  0.831297  0.504542  0.831387  1
  Cd  Cd19  1  0.504542  0.831297  0.831387  1
  Ir  Ir20  1  0.392022  0.392022  0.391937  1
  Ir  Ir21  1  0.393357  0.393357  0.825660  1
  Ir  Ir22  1  0.393286  0.825674  0.393354  1
  Ir  Ir23  1  0.825674  0.393286  0.393354  1
