# generated using pymatgen
data_Dy2Er2Cd3Ni2
_symmetry_space_group_name_H-M   'P 1'
_cell_length_a   3.63092600
_cell_length_b   7.37842730
_cell_length_c   8.03690935
_cell_angle_alpha   72.15851277
_cell_angle_beta   90.00000000
_cell_angle_gamma   90.00000000
_symmetry_Int_Tables_number   1
_chemical_formula_structural   Dy2Er2Cd3Ni2
_chemical_formula_sum   'Dy2 Er2 Cd3 Ni2'
_cell_volume   204.95813121
_cell_formula_units_Z   1
loop_
 _symmetry_equiv_pos_site_id
 _symmetry_equiv_pos_as_xyz
  1  'x, y, z'
loop_
 _atom_site_type_symbol
 _atom_site_label
 _atom_site_symmetry_multiplicity
 _atom_site_fract_x
 _atom_site_fract_y
 _atom_site_fract_z
 _atom_site_occupancy
  Dy  Dy0  1  0.500000  0.393971  0.316025  1
  Dy  Dy1  1  0.500000  0.606029  0.683975  1
  Er  Er2  1  0.500000  0.914700  0.219421  1
  Er  Er3  1  0.500000  0.085300  0.780579  1
  Cd  Cd4  1  0.000000  0.703519  0.004649  1
  Cd  Cd5  1  0.000000  0.296481  0.995351  1
  Cd  Cd6  1  0.000000  0.000000  0.500000  1
  Ni  Ni7  1  0.000000  0.657416  0.390228  1
  Ni  Ni8  1  0.000000  0.342584  0.609772  1
