# generated using pymatgen
data_Ca3Zr(Si4Tc3)2
_symmetry_space_group_name_H-M   'P 1'
_cell_length_a   6.79375901
_cell_length_b   6.78241381
_cell_length_c   12.49103894
_cell_angle_alpha   90.15378285
_cell_angle_beta   90.35342251
_cell_angle_gamma   90.01558387
_symmetry_Int_Tables_number   1
_chemical_formula_structural   Ca3Zr(Si4Tc3)2
_chemical_formula_sum   'Ca6 Zr2 Si16 Tc12'
_cell_volume   575.55010572
_cell_formula_units_Z   2
loop_
 _symmetry_equiv_pos_site_id
 _symmetry_equiv_pos_as_xyz
  1  'x, y, z'
loop_
 _atom_site_type_symbol
 _atom_site_label
 _atom_site_symmetry_multiplicity
 _atom_site_fract_x
 _atom_site_fract_y
 _atom_site_fract_z
 _atom_site_occupancy
  Ca  Ca0  1  0.996588  0.661562  0.028972  1
  Ca  Ca1  1  0.004119  0.338178  0.529273  1
  Ca  Ca2  1  0.664638  0.991024  0.972613  1
  Ca  Ca3  1  0.159447  0.501906  0.778544  1
  Ca  Ca4  1  0.836394  0.492971  0.279635  1
  Ca  Ca5  1  0.506194  0.164372  0.220454  1
  Zr  Zr6  1  0.503257  0.847832  0.719479  1
  Zr  Zr7  1  0.345527  0.991371  0.467128  1
  Si  Si8  1  0.032763  0.719454  0.433809  1
  Si  Si9  1  0.972652  0.277190  0.934275  1
  Si  Si10  1  0.718447  0.032766  0.568449  1
  Si  Si11  1  0.218895  0.471440  0.186068  1
  Si  Si12  1  0.777630  0.532735  0.681875  1
  Si  Si13  1  0.469235  0.217582  0.819575  1
  Si  Si14  1  0.530226  0.779721  0.316212  1
  Si  Si15  1  0.282115  0.974054  0.065492  1
  Si  Si16  1  0.876284  0.807741  0.807451  1
  Si  Si17  1  0.126110  0.190450  0.314052  1
  Si  Si18  1  0.808831  0.876385  0.191849  1
  Si  Si19  1  0.308430  0.626212  0.564669  1
  Si  Si20  1  0.690293  0.377353  0.056641  1
  Si  Si21  1  0.619635  0.304026  0.441469  1
  Si  Si22  1  0.374387  0.694610  0.935546  1
  Si  Si23  1  0.198165  0.122258  0.685038  1
  Tc  Tc24  1  0.330533  0.485003  0.380129  1
  Tc  Tc25  1  0.828569  0.012767  0.377991  1
  Tc  Tc26  1  0.989240  0.170164  0.128007  1
  Tc  Tc27  1  0.023173  0.834643  0.623047  1
  Tc  Tc28  1  0.665289  0.520873  0.871088  1
  Tc  Tc29  1  0.480335  0.325494  0.623529  1
  Tc  Tc30  1  0.506513  0.671199  0.122615  1
  Tc  Tc31  1  0.175050  0.982802  0.867060  1
  Tc  Tc32  1  0.658908  0.680280  0.504947  1
  Tc  Tc33  1  0.817469  0.160072  0.748977  1
  Tc  Tc34  1  0.171918  0.835004  0.255842  1
  Tc  Tc35  1  0.332741  0.328508  0.998202  1
