# generated using pymatgen
data_Ho2U3Al4Ga11
_symmetry_space_group_name_H-M   'P 1'
_cell_length_a   12.45866425
_cell_length_b   12.46133907
_cell_length_c   12.46133900
_cell_angle_alpha   28.56493664
_cell_angle_beta   28.53779032
_cell_angle_gamma   28.53779474
_symmetry_Int_Tables_number   1
_chemical_formula_structural   Ho2U3Al4Ga11
_chemical_formula_sum   'Ho2 U3 Al4 Ga11'
_cell_volume   390.52206194
_cell_formula_units_Z   1
loop_
 _symmetry_equiv_pos_site_id
 _symmetry_equiv_pos_as_xyz
  1  'x, y, z'
loop_
 _atom_site_type_symbol
 _atom_site_label
 _atom_site_symmetry_multiplicity
 _atom_site_fract_x
 _atom_site_fract_y
 _atom_site_fract_z
 _atom_site_occupancy
  Ho  Ho0  1  0.401720  0.400611  0.400611  1
  Ho  Ho1  1  0.598689  0.599214  0.599214  1
  U  U2  1  0.128886  0.131838  0.131838  1
  U  U3  1  0.869468  0.869563  0.869563  1
  U  U4  1  0.999028  0.000027  0.000027  1
  Al  Al5  1  0.433700  0.881601  0.881601  1
  Al  Al6  1  0.499265  0.501152  0.000018  1
  Al  Al7  1  0.499265  0.000018  0.501152  1
  Al  Al8  1  0.999242  0.500315  0.500315  1
  Ga  Ga9  1  0.885958  0.883307  0.426455  1
  Ga  Ga10  1  0.885958  0.426455  0.883307  1
  Ga  Ga11  1  0.116636  0.570775  0.116657  1
  Ga  Ga12  1  0.116636  0.116657  0.570775  1
  Ga  Ga13  1  0.570498  0.116827  0.116827  1
  Ga  Ga14  1  0.125766  0.637379  0.637379  1
  Ga  Ga15  1  0.634809  0.638921  0.125673  1
  Ga  Ga16  1  0.634809  0.125673  0.638921  1
  Ga  Ga17  1  0.363653  0.872594  0.363405  1
  Ga  Ga18  1  0.363653  0.363405  0.872594  1
  Ga  Ga19  1  0.872363  0.363669  0.363669  1
