# generated using pymatgen
data_CaNd3Fe(RhO4)3
_symmetry_space_group_name_H-M   'P 1'
_cell_length_a   5.45040712
_cell_length_b   5.74977854
_cell_length_c   7.82092895
_cell_angle_alpha   90.19178649
_cell_angle_beta   90.25534049
_cell_angle_gamma   90.08968325
_symmetry_Int_Tables_number   1
_chemical_formula_structural   CaNd3Fe(RhO4)3
_chemical_formula_sum   'Ca1 Nd3 Fe1 Rh3 O12'
_cell_volume   245.09311637
_cell_formula_units_Z   1
loop_
 _symmetry_equiv_pos_site_id
 _symmetry_equiv_pos_as_xyz
  1  'x, y, z'
loop_
 _atom_site_type_symbol
 _atom_site_label
 _atom_site_symmetry_multiplicity
 _atom_site_fract_x
 _atom_site_fract_y
 _atom_site_fract_z
 _atom_site_occupancy
  Ca  Ca0  1  0.021726  0.937968  0.755400  1
  Nd  Nd1  1  0.513958  0.564347  0.246408  1
  Nd  Nd2  1  0.484547  0.435097  0.753752  1
  Nd  Nd3  1  0.976525  0.065852  0.245205  1
  Fe  Fe4  1  0.001008  0.503283  0.994937  1
  Rh  Rh5  1  0.000678  0.502129  0.501782  1
  Rh  Rh6  1  0.499143  0.999222  0.503501  1
  Rh  Rh7  1  0.499583  0.999196  0.997404  1
  O  O8  1  0.693940  0.299297  0.444525  1
  O  O9  1  0.193238  0.199046  0.559785  1
  O  O10  1  0.798920  0.790489  0.053670  1
  O  O11  1  0.306616  0.694538  0.956018  1
  O  O12  1  0.314529  0.693442  0.550163  1
  O  O13  1  0.799674  0.795545  0.438445  1
  O  O14  1  0.196400  0.206142  0.950361  1
  O  O15  1  0.699470  0.300449  0.048071  1
  O  O16  1  0.094371  0.469643  0.247459  1
  O  O17  1  0.612559  0.035656  0.750627  1
  O  O18  1  0.391231  0.969028  0.250186  1
  O  O19  1  0.901884  0.539632  0.752300  1
