# generated using pymatgen
data_TbDy7Sc12Si9Ge7
_symmetry_space_group_name_H-M   'P 1'
_cell_length_a   7.15597275
_cell_length_b   7.41519922
_cell_length_c   14.07085165
_cell_angle_alpha   90.00443403
_cell_angle_beta   89.83994102
_cell_angle_gamma   90.05024077
_symmetry_Int_Tables_number   1
_chemical_formula_structural   TbDy7Sc12Si9Ge7
_chemical_formula_sum   'Tb1 Dy7 Sc12 Si9 Ge7'
_cell_volume   746.63788526
_cell_formula_units_Z   1
loop_
 _symmetry_equiv_pos_site_id
 _symmetry_equiv_pos_as_xyz
  1  'x, y, z'
loop_
 _atom_site_type_symbol
 _atom_site_label
 _atom_site_symmetry_multiplicity
 _atom_site_fract_x
 _atom_site_fract_y
 _atom_site_fract_z
 _atom_site_occupancy
  Tb  Tb0  1  0.009678  0.175023  0.098121  1
  Dy  Dy1  1  0.993275  0.824325  0.902156  1
  Dy  Dy2  1  0.491946  0.677122  0.901825  1
  Dy  Dy3  1  0.993196  0.822908  0.598691  1
  Dy  Dy4  1  0.506687  0.322675  0.098613  1
  Dy  Dy5  1  0.007034  0.176880  0.401083  1
  Dy  Dy6  1  0.506654  0.322993  0.401161  1
  Dy  Dy7  1  0.493522  0.676797  0.598788  1
  Sc  Sc8  1  0.165881  0.501266  0.750008  1
  Sc  Sc9  1  0.834185  0.498905  0.249966  1
  Sc  Sc10  1  0.334225  0.001128  0.248673  1
  Sc  Sc11  1  0.665745  0.998710  0.749986  1
  Sc  Sc12  1  0.336953  0.172543  0.626713  1
  Sc  Sc13  1  0.662854  0.827323  0.373301  1
  Sc  Sc14  1  0.162890  0.672863  0.373419  1
  Sc  Sc15  1  0.662306  0.826427  0.126673  1
  Sc  Sc16  1  0.837006  0.327585  0.626719  1
  Sc  Sc17  1  0.335383  0.172500  0.873807  1
  Sc  Sc18  1  0.835529  0.326432  0.873907  1
  Sc  Sc19  1  0.165594  0.675663  0.125603  1
  Si  Si20  1  0.037414  0.117505  0.750257  1
  Si  Si21  1  0.961834  0.882036  0.249859  1
  Si  Si22  1  0.461872  0.616984  0.249919  1
  Si  Si23  1  0.537840  0.382294  0.750423  1
  Si  Si24  1  0.290085  0.871986  0.750143  1
  Si  Si25  1  0.709985  0.127711  0.249939  1
  Si  Si26  1  0.209643  0.373013  0.249777  1
  Si  Si27  1  0.790535  0.627942  0.750503  1
  Si  Si28  1  0.335236  0.962396  0.040133  1
  Ge  Ge29  1  0.171437  0.460495  0.540653  1
  Ge  Ge30  1  0.828376  0.539328  0.459255  1
  Ge  Ge31  1  0.328698  0.960650  0.459199  1
  Ge  Ge32  1  0.829805  0.538973  0.040677  1
  Ge  Ge33  1  0.671221  0.039531  0.540563  1
  Ge  Ge34  1  0.169895  0.461172  0.959375  1
  Ge  Ge35  1  0.665578  0.037910  0.960119  1
