# generated using pymatgen
data_YThSc2(Al3Ir)6
_symmetry_space_group_name_H-M   'P 1'
_cell_length_a   7.54254379
_cell_length_b   7.54969818
_cell_length_c   9.40842700
_cell_angle_alpha   90.00000000
_cell_angle_beta   90.00000000
_cell_angle_gamma   119.53751324
_symmetry_Int_Tables_number   1
_chemical_formula_structural   YThSc2(Al3Ir)6
_chemical_formula_sum   'Y1 Th1 Sc2 Al18 Ir6'
_cell_volume   466.12267222
_cell_formula_units_Z   1
loop_
 _symmetry_equiv_pos_site_id
 _symmetry_equiv_pos_as_xyz
  1  'x, y, z'
loop_
 _atom_site_type_symbol
 _atom_site_label
 _atom_site_symmetry_multiplicity
 _atom_site_fract_x
 _atom_site_fract_y
 _atom_site_fract_z
 _atom_site_occupancy
  Y  Y0  1  0.672369  0.994540  0.250000  1
  Th  Th1  1  0.994064  0.671421  0.250000  1
  Sc  Sc2  1  0.002859  0.328052  0.750000  1
  Sc  Sc3  1  0.326527  0.003488  0.750000  1
  Al  Al4  1  0.132887  0.135178  0.250000  1
  Al  Al5  1  0.876933  0.878944  0.750000  1
  Al  Al6  1  0.002645  0.331519  0.067382  1
  Al  Al7  1  0.002924  0.664178  0.912866  1
  Al  Al8  1  0.002924  0.664178  0.587134  1
  Al  Al9  1  0.339610  0.005782  0.432656  1
  Al  Al10  1  0.002645  0.331519  0.432618  1
  Al  Al11  1  0.664589  0.003715  0.582724  1
  Al  Al12  1  0.664589  0.003715  0.917276  1
  Al  Al13  1  0.339610  0.005782  0.067344  1
  Al  Al14  1  0.329230  0.329294  0.564851  1
  Al  Al15  1  0.662287  0.665624  0.459378  1
  Al  Al16  1  0.662287  0.665624  0.040622  1
  Al  Al17  1  0.329230  0.329294  0.935149  1
  Al  Al18  1  0.343558  0.547269  0.250000  1
  Al  Al19  1  0.658150  0.444446  0.750000  1
  Al  Al20  1  0.542756  0.335769  0.250000  1
  Al  Al21  1  0.445427  0.660393  0.750000  1
  Ir  Ir22  1  0.673517  0.329532  0.999182  1
  Ir  Ir23  1  0.326516  0.671728  0.999130  1
  Ir  Ir24  1  0.326516  0.671728  0.500870  1
  Ir  Ir25  1  0.673517  0.329532  0.500818  1
  Ir  Ir26  1  0.000915  0.998879  0.999456  1
  Ir  Ir27  1  0.000915  0.998879  0.500544  1
