# generated using pymatgen
data_YHo3TcB12Rh
_symmetry_space_group_name_H-M   'P 1'
_cell_length_a   3.67740000
_cell_length_b   9.14097196
_cell_length_c   11.53425010
_cell_angle_alpha   90.39966863
_cell_angle_beta   90.00000000
_cell_angle_gamma   90.00000000
_symmetry_Int_Tables_number   1
_chemical_formula_structural   YHo3TcB12Rh
_chemical_formula_sum   'Y2 Ho6 Tc2 B24 Rh2'
_cell_volume   387.71450309
_cell_formula_units_Z   2
loop_
 _symmetry_equiv_pos_site_id
 _symmetry_equiv_pos_as_xyz
  1  'x, y, z'
loop_
 _atom_site_type_symbol
 _atom_site_label
 _atom_site_symmetry_multiplicity
 _atom_site_fract_x
 _atom_site_fract_y
 _atom_site_fract_z
 _atom_site_occupancy
  Y  Y0  1  0.500000  0.318843  0.410954  1
  Y  Y1  1  0.500000  0.681157  0.589046  1
  Ho  Ho2  1  0.500000  0.173191  0.917263  1
  Ho  Ho3  1  0.500000  0.826809  0.082737  1
  Ho  Ho4  1  0.500000  0.441841  0.126734  1
  Ho  Ho5  1  0.500000  0.558159  0.873266  1
  Ho  Ho6  1  0.500000  0.054170  0.628655  1
  Ho  Ho7  1  0.500000  0.945830  0.371345  1
  Tc  Tc8  1  0.500000  0.138921  0.179533  1
  Tc  Tc9  1  0.500000  0.861079  0.820467  1
  B  B10  1  0.000000  0.108019  0.470970  1
  B  B11  1  0.000000  0.891981  0.529030  1
  B  B12  1  0.000000  0.392638  0.970213  1
  B  B13  1  0.000000  0.607362  0.029787  1
  B  B14  1  0.000000  0.132148  0.314529  1
  B  B15  1  0.000000  0.867852  0.685471  1
  B  B16  1  0.000000  0.367192  0.816515  1
  B  B17  1  0.000000  0.632808  0.183485  1
  B  B18  1  0.000000  0.053142  0.067421  1
  B  B19  1  0.000000  0.946858  0.932579  1
  B  B20  1  0.000000  0.445493  0.566231  1
  B  B21  1  0.000000  0.554507  0.433769  1
  B  B22  1  0.000000  0.483923  0.287376  1
  B  B23  1  0.000000  0.516077  0.712624  1
  B  B24  1  0.000000  0.016618  0.787119  1
  B  B25  1  0.000000  0.983382  0.212881  1
  B  B26  1  0.000000  0.247966  0.081073  1
  B  B27  1  0.000000  0.752034  0.918927  1
  B  B28  1  0.000000  0.250798  0.579032  1
  B  B29  1  0.000000  0.749202  0.420968  1
  B  B30  1  0.000000  0.292588  0.234259  1
  B  B31  1  0.000000  0.707412  0.765741  1
  B  B32  1  0.000000  0.208502  0.734882  1
  B  B33  1  0.000000  0.791498  0.265118  1
  Rh  Rh34  1  0.500000  0.361776  0.678814  1
  Rh  Rh35  1  0.500000  0.638224  0.321186  1
