# generated using pymatgen
data_Ho5Tm3Re(TcB8)3
_symmetry_space_group_name_H-M   'P 1'
_cell_length_a   3.65945500
_cell_length_b   9.12009615
_cell_length_c   11.49704300
_cell_angle_alpha   90.02914072
_cell_angle_beta   90.00000000
_cell_angle_gamma   90.00000000
_symmetry_Int_Tables_number   1
_chemical_formula_structural   Ho5Tm3Re(TcB8)3
_chemical_formula_sum   'Ho5 Tm3 Re1 Tc3 B24'
_cell_volume   383.70894847
_cell_formula_units_Z   1
loop_
 _symmetry_equiv_pos_site_id
 _symmetry_equiv_pos_as_xyz
  1  'x, y, z'
loop_
 _atom_site_type_symbol
 _atom_site_label
 _atom_site_symmetry_multiplicity
 _atom_site_fract_x
 _atom_site_fract_y
 _atom_site_fract_z
 _atom_site_occupancy
  Ho  Ho0  1  0.000000  0.323925  0.414054  1
  Ho  Ho1  1  0.000000  0.676230  0.586024  1
  Ho  Ho2  1  0.000000  0.823589  0.085959  1
  Ho  Ho3  1  0.000000  0.176727  0.914114  1
  Ho  Ho4  1  0.000000  0.943033  0.369500  1
  Tm  Tm5  1  0.000000  0.057736  0.630203  1
  Tm  Tm6  1  0.000000  0.442925  0.130648  1
  Tm  Tm7  1  0.000000  0.556056  0.869720  1
  Re  Re8  1  0.000000  0.860936  0.820414  1
  Tc  Tc9  1  0.000000  0.638591  0.320119  1
  Tc  Tc10  1  0.000000  0.360864  0.679827  1
  Tc  Tc11  1  0.000000  0.139664  0.179434  1
  B  B12  1  0.500000  0.553362  0.432958  1
  B  B13  1  0.500000  0.446478  0.567154  1
  B  B14  1  0.500000  0.053663  0.067022  1
  B  B15  1  0.500000  0.946628  0.933096  1
  B  B16  1  0.500000  0.749140  0.418691  1
  B  B17  1  0.500000  0.250342  0.581336  1
  B  B18  1  0.500000  0.250005  0.081278  1
  B  B19  1  0.500000  0.749678  0.918843  1
  B  B20  1  0.500000  0.791961  0.265025  1
  B  B21  1  0.500000  0.207452  0.734645  1
  B  B22  1  0.500000  0.292853  0.234738  1
  B  B23  1  0.500000  0.707021  0.765322  1
  B  B24  1  0.500000  0.630325  0.185047  1
  B  B25  1  0.500000  0.369303  0.814814  1
  B  B26  1  0.500000  0.131194  0.314547  1
  B  B27  1  0.500000  0.869572  0.685064  1
  B  B28  1  0.500000  0.982376  0.211547  1
  B  B29  1  0.500000  0.018313  0.787807  1
  B  B30  1  0.500000  0.481864  0.287907  1
  B  B31  1  0.500000  0.517897  0.712136  1
  B  B32  1  0.500000  0.598965  0.027704  1
  B  B33  1  0.500000  0.400550  0.972452  1
  B  B34  1  0.500000  0.100133  0.472564  1
  B  B35  1  0.500000  0.900653  0.528287  1
