# generated using pymatgen
data_LaErFe4(CoB2)4
_symmetry_space_group_name_H-M   'P 1'
_cell_length_a   7.00319443
_cell_length_b   7.03963341
_cell_length_c   3.81483200
_cell_angle_alpha   90.00000000
_cell_angle_beta   90.00000000
_cell_angle_gamma   89.90486016
_symmetry_Int_Tables_number   1
_chemical_formula_structural   LaErFe4(CoB2)4
_chemical_formula_sum   'La1 Er1 Fe4 Co4 B8'
_cell_volume   188.07065880
_cell_formula_units_Z   1
loop_
 _symmetry_equiv_pos_site_id
 _symmetry_equiv_pos_as_xyz
  1  'x, y, z'
loop_
 _atom_site_type_symbol
 _atom_site_label
 _atom_site_symmetry_multiplicity
 _atom_site_fract_x
 _atom_site_fract_y
 _atom_site_fract_z
 _atom_site_occupancy
  La  La0  1  0.500000  0.500000  0.501570  1
  Er  Er1  1  0.000000  0.000000  0.998519  1
  Fe  Fe2  1  0.383204  0.129981  0.893209  1
  Fe  Fe3  1  0.616796  0.870019  0.893209  1
  Fe  Fe4  1  0.364405  0.886774  0.394313  1
  Fe  Fe5  1  0.635595  0.113226  0.394313  1
  Co  Co6  1  0.113764  0.357871  0.608397  1
  Co  Co7  1  0.886236  0.642129  0.608397  1
  Co  Co8  1  0.133874  0.618119  0.109070  1
  Co  Co9  1  0.866126  0.381881  0.109070  1
  B  B10  1  0.804534  0.667569  0.102643  1
  B  B11  1  0.195466  0.332431  0.102643  1
  B  B12  1  0.839364  0.288522  0.605653  1
  B  B13  1  0.160636  0.711478  0.605653  1
  B  B14  1  0.705054  0.838380  0.391062  1
  B  B15  1  0.294946  0.161620  0.391062  1
  B  B16  1  0.668019  0.192184  0.895609  1
  B  B17  1  0.331981  0.807816  0.895609  1
