# generated using pymatgen
data_Y4V3Fe(WO6)4
_symmetry_space_group_name_H-M   'P 1'
_cell_length_a   5.25142584
_cell_length_b   7.44822356
_cell_length_c   11.16773725
_cell_angle_alpha   89.98451970
_cell_angle_beta   90.08621286
_cell_angle_gamma   89.95820576
_symmetry_Int_Tables_number   1
_chemical_formula_structural   Y4V3Fe(WO6)4
_chemical_formula_sum   'Y4 V3 Fe1 W4 O24'
_cell_volume   436.81194409
_cell_formula_units_Z   1
loop_
 _symmetry_equiv_pos_site_id
 _symmetry_equiv_pos_as_xyz
  1  'x, y, z'
loop_
 _atom_site_type_symbol
 _atom_site_label
 _atom_site_symmetry_multiplicity
 _atom_site_fract_x
 _atom_site_fract_y
 _atom_site_fract_z
 _atom_site_occupancy
  Y  Y0  1  0.544933  0.251338  0.044469  1
  Y  Y1  1  0.044860  0.750781  0.454442  1
  Y  Y2  1  0.955979  0.249979  0.545810  1
  Y  Y3  1  0.454298  0.751204  0.955021  1
  V  V4  1  0.050381  0.998682  0.134739  1
  V  V5  1  0.549376  0.498311  0.364802  1
  V  V6  1  0.449389  0.998644  0.635227  1
  Fe  Fe7  1  0.955954  0.495791  0.862065  1
  W  W8  1  0.054285  0.506424  0.142307  1
  W  W9  1  0.556548  0.006084  0.357077  1
  W  W10  1  0.446619  0.506839  0.643329  1
  W  W11  1  0.943174  0.005826  0.857037  1
  O  O12  1  0.756356  0.960078  0.020131  1
  O  O13  1  0.764979  0.545646  0.027848  1
  O  O14  1  0.177091  0.749614  0.116660  1
  O  O15  1  0.933937  0.258302  0.143216  1
  O  O16  1  0.373175  0.433686  0.205674  1
  O  O17  1  0.390986  0.068132  0.214566  1
  O  O18  1  0.890434  0.567720  0.285493  1
  O  O19  1  0.873809  0.933519  0.293747  1
  O  O20  1  0.434446  0.758105  0.357203  1
  O  O21  1  0.677253  0.249538  0.384355  1
  O  O22  1  0.265394  0.045939  0.471450  1
  O  O23  1  0.255780  0.460002  0.480753  1
  O  O24  1  0.744056  0.959659  0.520148  1
  O  O25  1  0.734587  0.546280  0.529373  1
  O  O26  1  0.323075  0.749058  0.616298  1
  O  O27  1  0.564784  0.258518  0.643117  1
  O  O28  1  0.126147  0.434886  0.708025  1
  O  O29  1  0.108424  0.068096  0.714380  1
  O  O30  1  0.609570  0.567228  0.786725  1
  O  O31  1  0.624782  0.932896  0.793761  1
  O  O32  1  0.064984  0.758167  0.856812  1
  O  O33  1  0.822337  0.248744  0.883158  1
  O  O34  1  0.235101  0.045888  0.971255  1
  O  O35  1  0.242718  0.460800  0.979527  1
