# generated using pymatgen
data_Zr16Cd3Co4AgN4
_symmetry_space_group_name_H-M   'P 1'
_cell_length_a   8.85201445
_cell_length_b   8.85201345
_cell_length_c   8.85201471
_cell_angle_alpha   60.31794299
_cell_angle_beta   60.31794357
_cell_angle_gamma   60.31794547
_symmetry_Int_Tables_number   1
_chemical_formula_structural   Zr16Cd3Co4AgN4
_chemical_formula_sum   'Zr16 Cd3 Co4 Ag1 N4'
_cell_volume   493.99714098
_cell_formula_units_Z   1
loop_
 _symmetry_equiv_pos_site_id
 _symmetry_equiv_pos_as_xyz
  1  'x, y, z'
loop_
 _atom_site_type_symbol
 _atom_site_label
 _atom_site_symmetry_multiplicity
 _atom_site_fract_x
 _atom_site_fract_y
 _atom_site_fract_z
 _atom_site_occupancy
  Zr  Zr0  1  0.047402  0.650438  0.650438  1
  Zr  Zr1  1  0.650438  0.047402  0.650438  1
  Zr  Zr2  1  0.650438  0.650438  0.047402  1
  Zr  Zr3  1  0.652269  0.652269  0.652269  1
  Zr  Zr4  1  0.818543  0.818543  0.180957  1
  Zr  Zr5  1  0.180964  0.180964  0.818990  1
  Zr  Zr6  1  0.818543  0.180957  0.818543  1
  Zr  Zr7  1  0.180964  0.818990  0.180964  1
  Zr  Zr8  1  0.180957  0.818543  0.818543  1
  Zr  Zr9  1  0.818990  0.180964  0.180964  1
  Zr  Zr10  1  0.431521  0.431521  0.069952  1
  Zr  Zr11  1  0.069396  0.069396  0.430700  1
  Zr  Zr12  1  0.431521  0.069952  0.431521  1
  Zr  Zr13  1  0.069396  0.430700  0.069396  1
  Zr  Zr14  1  0.069952  0.431521  0.431521  1
  Zr  Zr15  1  0.430700  0.069396  0.069396  1
  Cd  Cd16  1  0.745029  0.417463  0.417463  1
  Cd  Cd17  1  0.417463  0.745029  0.417463  1
  Cd  Cd18  1  0.417463  0.417463  0.745029  1
  Co  Co19  1  0.433126  0.856214  0.856214  1
  Co  Co20  1  0.856214  0.433126  0.856214  1
  Co  Co21  1  0.856214  0.856214  0.433126  1
  Co  Co22  1  0.855022  0.855022  0.855022  1
  Ag  Ag23  1  0.416478  0.416478  0.416478  1
  N  N24  1  0.622516  0.126196  0.126196  1
  N  N25  1  0.126196  0.622516  0.126196  1
  N  N26  1  0.126196  0.126196  0.622516  1
  N  N27  1  0.126085  0.126085  0.126085  1
