# generated using pymatgen
data_Tb17Ho3(Bi2Os)4
_symmetry_space_group_name_H-M   'P 1'
_cell_length_a   8.00501464
_cell_length_b   9.05208879
_cell_length_c   12.53916076
_cell_angle_alpha   90.05820608
_cell_angle_beta   89.98210132
_cell_angle_gamma   89.95776797
_symmetry_Int_Tables_number   1
_chemical_formula_structural   Tb17Ho3(Bi2Os)4
_chemical_formula_sum   'Tb17 Ho3 Bi8 Os4'
_cell_volume   908.61320213
_cell_formula_units_Z   1
loop_
 _symmetry_equiv_pos_site_id
 _symmetry_equiv_pos_as_xyz
  1  'x, y, z'
loop_
 _atom_site_type_symbol
 _atom_site_label
 _atom_site_symmetry_multiplicity
 _atom_site_fract_x
 _atom_site_fract_y
 _atom_site_fract_z
 _atom_site_occupancy
  Tb  Tb0  1  0.839852  0.749388  0.792231  1
  Tb  Tb1  1  0.160046  0.250552  0.207567  1
  Tb  Tb2  1  0.339815  0.250543  0.708028  1
  Tb  Tb3  1  0.660357  0.749612  0.292096  1
  Tb  Tb4  1  0.375236  0.749428  0.691581  1
  Tb  Tb5  1  0.625386  0.250692  0.308436  1
  Tb  Tb6  1  0.875062  0.250957  0.808770  1
  Tb  Tb7  1  0.124848  0.749085  0.191205  1
  Tb  Tb8  1  0.943189  0.749489  0.504172  1
  Tb  Tb9  1  0.056067  0.250363  0.495994  1
  Tb  Tb10  1  0.443705  0.250787  0.995851  1
  Tb  Tb11  1  0.556600  0.749265  0.004068  1
  Tb  Tb12  1  0.674634  0.041798  0.565004  1
  Tb  Tb13  1  0.325193  0.958511  0.434959  1
  Tb  Tb14  1  0.174706  0.958437  0.934800  1
  Tb  Tb15  1  0.325907  0.541631  0.435047  1
  Tb  Tb16  1  0.825149  0.041628  0.065127  1
  Ho  Ho17  1  0.672941  0.457998  0.564975  1
  Ho  Ho18  1  0.827428  0.458102  0.064820  1
  Ho  Ho19  1  0.172462  0.541855  0.935145  1
  Bi  Bi20  1  0.566677  0.493327  0.827490  1
  Bi  Bi21  1  0.433508  0.506683  0.172309  1
  Bi  Bi22  1  0.066687  0.506681  0.672552  1
  Bi  Bi23  1  0.432541  0.993281  0.172427  1
  Bi  Bi24  1  0.932674  0.493197  0.327324  1
  Bi  Bi25  1  0.567385  0.006702  0.827628  1
  Bi  Bi26  1  0.932879  0.006702  0.327484  1
  Bi  Bi27  1  0.067288  0.993318  0.672489  1
  Os  Os28  1  0.576523  0.749575  0.510120  1
  Os  Os29  1  0.425209  0.250414  0.490286  1
  Os  Os30  1  0.075264  0.250898  0.990193  1
  Os  Os31  1  0.924784  0.749099  0.009822  1
