# generated using pymatgen
data_Nd4CoGe2IrI2
_symmetry_space_group_name_H-M   'P 1'
_cell_length_a   4.32532000
_cell_length_b   4.32532087
_cell_length_c   16.92046800
_cell_angle_alpha   90.00000000
_cell_angle_beta   90.00000000
_cell_angle_gamma   119.99999337
_symmetry_Int_Tables_number   1
_chemical_formula_structural   Nd4CoGe2IrI2
_chemical_formula_sum   'Nd4 Co1 Ge2 Ir1 I2'
_cell_volume   274.14454298
_cell_formula_units_Z   1
loop_
 _symmetry_equiv_pos_site_id
 _symmetry_equiv_pos_as_xyz
  1  'x, y, z'
loop_
 _atom_site_type_symbol
 _atom_site_label
 _atom_site_symmetry_multiplicity
 _atom_site_fract_x
 _atom_site_fract_y
 _atom_site_fract_z
 _atom_site_occupancy
  Nd  Nd0  1  0.000000  0.000000  0.103794  1
  Nd  Nd1  1  0.000000  0.000000  0.900476  1
  Nd  Nd2  1  0.000000  0.000000  0.601981  1
  Nd  Nd3  1  0.000000  0.000000  0.393649  1
  Co  Co4  1  0.333333  0.666667  0.997316  1
  Ge  Ge5  1  0.666667  0.333333  0.492885  1
  Ge  Ge6  1  0.666667  0.333333  0.004338  1
  Ir  Ir7  1  0.333333  0.666667  0.504782  1
  I  I8  1  0.333333  0.666667  0.248614  1
  I  I9  1  0.666667  0.333333  0.752166  1
