# generated using pymatgen
data_Eu4Co(Si2Pt)5
_symmetry_space_group_name_H-M   'P 1'
_cell_length_a   8.27718670
_cell_length_b   8.27718650
_cell_length_c   8.27718726
_cell_angle_alpha   138.08486100
_cell_angle_beta   104.82996216
_cell_angle_gamma   89.99504988
_symmetry_Int_Tables_number   1
_chemical_formula_structural   Eu4Co(Si2Pt)5
_chemical_formula_sum   'Eu4 Co1 Si10 Pt5'
_cell_volume   349.93557521
_cell_formula_units_Z   1
loop_
 _symmetry_equiv_pos_site_id
 _symmetry_equiv_pos_as_xyz
  1  'x, y, z'
loop_
 _atom_site_type_symbol
 _atom_site_label
 _atom_site_symmetry_multiplicity
 _atom_site_fract_x
 _atom_site_fract_y
 _atom_site_fract_z
 _atom_site_occupancy
  Eu  Eu0  1  0.103566  0.873005  0.236550  1
  Eu  Eu1  1  0.896434  0.132984  0.769439  1
  Eu  Eu2  1  0.636455  0.367016  0.263450  1
  Eu  Eu3  1  0.363545  0.626995  0.730561  1
  Co  Co4  1  0.500000  0.750000  0.250000  1
  Si  Si5  1  0.000000  0.750000  0.750000  1
  Si  Si6  1  0.000000  0.250000  0.250000  1
  Si  Si7  1  0.273804  0.023804  0.750000  1
  Si  Si8  1  0.726196  0.476196  0.750000  1
  Si  Si9  1  0.724815  0.974815  0.250000  1
  Si  Si10  1  0.275185  0.525185  0.250000  1
  Si  Si11  1  0.753163  0.620705  0.161842  1
  Si  Si12  1  0.246837  0.408679  0.867542  1
  Si  Si13  1  0.458863  0.091321  0.338158  1
  Si  Si14  1  0.541137  0.879295  0.632458  1
  Pt  Pt15  1  0.500000  0.250000  0.750000  1
  Pt  Pt16  1  0.023571  0.637430  0.387501  1
  Pt  Pt17  1  0.976429  0.363931  0.613859  1
  Pt  Pt18  1  0.249928  0.136069  0.112499  1
  Pt  Pt19  1  0.750072  0.862570  0.886141  1
