# generated using pymatgen
data_Li15Zn4Si6Ag
_symmetry_space_group_name_H-M   'P 1'
_cell_length_a   9.15316999
_cell_length_b   9.15316973
_cell_length_c   9.15316956
_cell_angle_alpha   48.01323383
_cell_angle_beta   48.01323506
_cell_angle_gamma   48.01322085
_symmetry_Int_Tables_number   1
_chemical_formula_structural   Li15Zn4Si6Ag
_chemical_formula_sum   'Li15 Zn4 Si6 Ag1'
_cell_volume   388.16018170
_cell_formula_units_Z   1
loop_
 _symmetry_equiv_pos_site_id
 _symmetry_equiv_pos_as_xyz
  1  'x, y, z'
loop_
 _atom_site_type_symbol
 _atom_site_label
 _atom_site_symmetry_multiplicity
 _atom_site_fract_x
 _atom_site_fract_y
 _atom_site_fract_z
 _atom_site_occupancy
  Li  Li0  1  0.295218  0.611025  0.959151  1
  Li  Li1  1  0.563068  0.563068  0.563068  1
  Li  Li2  1  0.217115  0.915181  0.539910  1
  Li  Li3  1  0.611025  0.959151  0.295218  1
  Li  Li4  1  0.058010  0.417166  0.719013  1
  Li  Li5  1  0.915181  0.539910  0.217115  1
  Li  Li6  1  0.809040  0.433002  0.107128  1
  Li  Li7  1  0.959151  0.295218  0.611025  1
  Li  Li8  1  0.539910  0.217115  0.915181  1
  Li  Li9  1  0.433002  0.107128  0.809040  1
  Li  Li10  1  0.719013  0.058010  0.417166  1
  Li  Li11  1  0.107128  0.809040  0.433002  1
  Li  Li12  1  0.463431  0.463431  0.463431  1
  Li  Li13  1  0.925560  0.925560  0.925560  1
  Li  Li14  1  0.417166  0.719013  0.058010  1
  Zn  Zn15  1  0.678969  0.678969  0.678969  1
  Zn  Zn16  1  0.342196  0.342196  0.342196  1
  Zn  Zn17  1  0.822046  0.822046  0.822046  1
  Zn  Zn18  1  0.170090  0.170090  0.170090  1
  Si  Si19  1  0.176989  0.515342  0.834197  1
  Si  Si20  1  0.670318  0.339618  0.003941  1
  Si  Si21  1  0.834197  0.176989  0.515342  1
  Si  Si22  1  0.339618  0.003941  0.670318  1
  Si  Si23  1  0.003941  0.670318  0.339618  1
  Si  Si24  1  0.515342  0.834197  0.176989  1
  Ag  Ag25  1  0.030017  0.030017  0.030017  1
