# generated using pymatgen
data_Cs2RbCu3F12
_symmetry_space_group_name_H-M   'P 1'
_cell_length_a   7.89210066
_cell_length_b   7.89209999
_cell_length_c   12.63684328
_cell_angle_alpha   74.07651171
_cell_angle_beta   74.07651457
_cell_angle_gamma   59.81931352
_symmetry_Int_Tables_number   1
_chemical_formula_structural   Cs2RbCu3F12
_chemical_formula_sum   'Cs4 Rb2 Cu6 F24'
_cell_volume   645.41527075
_cell_formula_units_Z   2
loop_
 _symmetry_equiv_pos_site_id
 _symmetry_equiv_pos_as_xyz
  1  'x, y, z'
loop_
 _atom_site_type_symbol
 _atom_site_label
 _atom_site_symmetry_multiplicity
 _atom_site_fract_x
 _atom_site_fract_y
 _atom_site_fract_z
 _atom_site_occupancy
  Cs  Cs0  1  0.901546  0.477612  0.674952  1
  Cs  Cs1  1  0.098454  0.522388  0.325048  1
  Cs  Cs2  1  0.522388  0.098454  0.825048  1
  Cs  Cs3  1  0.477612  0.901546  0.174952  1
  Rb  Rb4  1  0.226315  0.773685  0.750000  1
  Rb  Rb5  1  0.773685  0.226315  0.250000  1
  Cu  Cu6  1  0.500000  0.000000  0.500000  1
  Cu  Cu7  1  0.000000  0.500000  0.000000  1
  Cu  Cu8  1  0.000000  0.000000  0.500000  1
  Cu  Cu9  1  0.000000  0.000000  0.000000  1
  Cu  Cu10  1  0.500000  0.500000  0.500000  1
  Cu  Cu11  1  0.500000  0.500000  0.000000  1
  F  F12  1  0.888670  0.962688  0.643300  1
  F  F13  1  0.519564  0.898447  0.644919  1
  F  F14  1  0.245745  0.402993  0.029737  1
  F  F15  1  0.654502  0.236174  0.035927  1
  F  F16  1  0.898447  0.519564  0.144919  1
  F  F17  1  0.101553  0.480436  0.855081  1
  F  F18  1  0.480436  0.101553  0.355081  1
  F  F19  1  0.763826  0.345498  0.464073  1
  F  F20  1  0.111330  0.037312  0.356700  1
  F  F21  1  0.597007  0.754255  0.470263  1
  F  F22  1  0.442518  0.524516  0.144170  1
  F  F23  1  0.402993  0.245745  0.529737  1
  F  F24  1  0.524516  0.442518  0.644170  1
  F  F25  1  0.852561  0.920932  0.458859  1
  F  F26  1  0.147439  0.079068  0.541141  1
  F  F27  1  0.557482  0.475484  0.855830  1
  F  F28  1  0.920932  0.852561  0.958859  1
  F  F29  1  0.475484  0.557482  0.355830  1
  F  F30  1  0.754255  0.597007  0.970263  1
  F  F31  1  0.962688  0.888670  0.143300  1
  F  F32  1  0.079068  0.147439  0.041141  1
  F  F33  1  0.345498  0.763826  0.964073  1
  F  F34  1  0.037312  0.111330  0.856700  1
  F  F35  1  0.236174  0.654502  0.535927  1
