# generated using pymatgen
data_NaCaSi7Rh12
_symmetry_space_group_name_H-M   'P 1'
_cell_length_a   9.69814600
_cell_length_b   9.69814667
_cell_length_c   3.87152300
_cell_angle_alpha   90.00000000
_cell_angle_beta   90.00000000
_cell_angle_gamma   120.00000454
_symmetry_Int_Tables_number   1
_chemical_formula_structural   NaCaSi7Rh12
_chemical_formula_sum   'Na1 Ca1 Si7 Rh12'
_cell_volume   315.34788399
_cell_formula_units_Z   1
loop_
 _symmetry_equiv_pos_site_id
 _symmetry_equiv_pos_as_xyz
  1  'x, y, z'
loop_
 _atom_site_type_symbol
 _atom_site_label
 _atom_site_symmetry_multiplicity
 _atom_site_fract_x
 _atom_site_fract_y
 _atom_site_fract_z
 _atom_site_occupancy
  Na  Na0  1  0.000000  0.000000  0.741204  1
  Ca  Ca1  1  0.333333  0.666667  0.240636  1
  Si  Si2  1  0.666667  0.333333  0.735190  1
  Si  Si3  1  0.068060  0.625036  0.740171  1
  Si  Si4  1  0.374964  0.443023  0.740171  1
  Si  Si5  1  0.556977  0.931940  0.740171  1
  Si  Si6  1  0.268092  0.042711  0.240287  1
  Si  Si7  1  0.957289  0.225381  0.240287  1
  Si  Si8  1  0.774619  0.731908  0.240287  1
  Rh  Rh9  1  0.819100  0.609192  0.740158  1
  Rh  Rh10  1  0.390808  0.209907  0.740158  1
  Rh  Rh11  1  0.790093  0.180900  0.740158  1
  Rh  Rh12  1  0.542883  0.110758  0.239727  1
  Rh  Rh13  1  0.889242  0.432125  0.239727  1
  Rh  Rh14  1  0.567875  0.457117  0.239727  1
  Rh  Rh15  1  0.106004  0.399485  0.740347  1
  Rh  Rh16  1  0.600515  0.706519  0.740347  1
  Rh  Rh17  1  0.293481  0.893996  0.740347  1
  Rh  Rh18  1  0.225838  0.278283  0.240281  1
  Rh  Rh19  1  0.721717  0.947555  0.240281  1
  Rh  Rh20  1  0.052445  0.774162  0.240281  1
