# generated using pymatgen
data_AlCd3Au4
_symmetry_space_group_name_H-M   'P 1'
_cell_length_a   12.91029857
_cell_length_b   12.91029827
_cell_length_c   4.53436600
_cell_angle_alpha   90.00000000
_cell_angle_beta   90.00000000
_cell_angle_gamma   167.31320926
_symmetry_Int_Tables_number   1
_chemical_formula_structural   AlCd3Au4
_chemical_formula_sum   'Al1 Cd3 Au4'
_cell_volume   165.98298871
_cell_formula_units_Z   1
loop_
 _symmetry_equiv_pos_site_id
 _symmetry_equiv_pos_as_xyz
  1  'x, y, z'
loop_
 _atom_site_type_symbol
 _atom_site_label
 _atom_site_symmetry_multiplicity
 _atom_site_fract_x
 _atom_site_fract_y
 _atom_site_fract_z
 _atom_site_occupancy
  Al  Al0  1  0.564449  0.435554  0.249999  1
  Cd  Cd1  1  0.286313  0.713690  0.249999  1
  Cd  Cd2  1  0.703528  0.296475  0.750000  1
  Cd  Cd3  1  0.424113  0.575890  0.750000  1
  Au  Au4  1  0.975910  0.024092  0.249999  1
  Au  Au5  1  0.154363  0.845640  0.249999  1
  Au  Au6  1  0.825545  0.174458  0.750000  1
  Au  Au7  1  0.065789  0.934213  0.750000  1
