# generated using pymatgen
data_PrLu3(Si5Os3)2
_symmetry_space_group_name_H-M   'P 1'
_cell_length_a   8.14662291
_cell_length_b   8.11756079
_cell_length_c   5.78480302
_cell_angle_alpha   70.62796517
_cell_angle_beta   70.56490654
_cell_angle_gamma   94.13208085
_symmetry_Int_Tables_number   1
_chemical_formula_structural   PrLu3(Si5Os3)2
_chemical_formula_sum   'Pr1 Lu3 Si10 Os6'
_cell_volume   333.09852986
_cell_formula_units_Z   1
loop_
 _symmetry_equiv_pos_site_id
 _symmetry_equiv_pos_as_xyz
  1  'x, y, z'
loop_
 _atom_site_type_symbol
 _atom_site_label
 _atom_site_symmetry_multiplicity
 _atom_site_fract_x
 _atom_site_fract_y
 _atom_site_fract_z
 _atom_site_occupancy
  Pr  Pr0  1  0.868104  0.600943  0.754484  1
  Lu  Lu1  1  0.399299  0.129742  0.747407  1
  Lu  Lu2  1  0.130251  0.400309  0.246404  1
  Lu  Lu3  1  0.602069  0.867798  0.253151  1
  Si  Si4  1  0.072136  0.263026  0.831540  1
  Si  Si5  1  0.737691  0.936625  0.665397  1
  Si  Si6  1  0.932224  0.738410  0.166147  1
  Si  Si7  1  0.258992  0.069135  0.333264  1
  Si  Si8  1  0.208799  0.796232  0.751565  1
  Si  Si9  1  0.794859  0.207567  0.244351  1
  Si  Si10  1  0.507668  0.483072  0.756211  1
  Si  Si11  1  0.485927  0.511044  0.249315  1
  Si  Si12  1  0.774230  0.221738  0.752925  1
  Si  Si13  1  0.227562  0.774917  0.245372  1
  Os  Os14  1  0.259168  0.546000  0.629247  1
  Os  Os15  1  0.457690  0.745941  0.866225  1
  Os  Os16  1  0.741989  0.452397  0.374332  1
  Os  Os17  1  0.540733  0.250301  0.134662  1
  Os  Os18  1  0.003504  0.000150  0.749243  1
  Os  Os19  1  0.997106  0.004652  0.248757  1
