# generated using pymatgen
data_Nd14Dy5LuPb16
_symmetry_space_group_name_H-M   'P 1'
_cell_length_a   8.36673200
_cell_length_b   8.45968122
_cell_length_c   16.06284500
_cell_angle_alpha   90.01315279
_cell_angle_beta   90.00000000
_cell_angle_gamma   90.00000000
_symmetry_Int_Tables_number   1
_chemical_formula_structural   Nd14Dy5LuPb16
_chemical_formula_sum   'Nd14 Dy5 Lu1 Pb16'
_cell_volume   1136.92630151
_cell_formula_units_Z   1
loop_
 _symmetry_equiv_pos_site_id
 _symmetry_equiv_pos_as_xyz
  1  'x, y, z'
loop_
 _atom_site_type_symbol
 _atom_site_label
 _atom_site_symmetry_multiplicity
 _atom_site_fract_x
 _atom_site_fract_y
 _atom_site_fract_z
 _atom_site_occupancy
  Nd  Nd0  1  0.373033  0.840638  0.118385  1
  Nd  Nd1  1  0.873089  0.659366  0.381662  1
  Nd  Nd2  1  0.375119  0.839668  0.379822  1
  Nd  Nd3  1  0.875200  0.660295  0.120158  1
  Nd  Nd4  1  0.624121  0.159172  0.880360  1
  Nd  Nd5  1  0.124095  0.340810  0.619638  1
  Nd  Nd6  1  0.469397  0.677389  0.600065  1
  Nd  Nd7  1  0.969428  0.822566  0.899961  1
  Nd  Nd8  1  0.530298  0.321976  0.099595  1
  Nd  Nd9  1  0.030710  0.178383  0.400495  1
  Nd  Nd10  1  0.528624  0.321534  0.401751  1
  Nd  Nd11  1  0.029037  0.178802  0.098159  1
  Nd  Nd12  1  0.470865  0.676234  0.899002  1
  Nd  Nd13  1  0.970881  0.823701  0.601031  1
  Dy  Dy14  1  0.628136  0.157617  0.623011  1
  Dy  Dy15  1  0.128193  0.342425  0.876920  1
  Dy  Dy16  1  0.794585  0.495197  0.750153  1
  Dy  Dy17  1  0.294665  0.004625  0.749867  1
  Dy  Dy18  1  0.204986  0.503668  0.249249  1
  Lu  Lu19  1  0.705506  0.995891  0.250706  1
  Pb  Pb20  1  0.715687  0.970278  0.458135  1
  Pb  Pb21  1  0.215715  0.529893  0.041509  1
  Pb  Pb22  1  0.279054  0.037875  0.954161  1
  Pb  Pb23  1  0.779189  0.462279  0.545844  1
  Pb  Pb24  1  0.290605  0.034972  0.545792  1
  Pb  Pb25  1  0.790856  0.465212  0.954235  1
  Pb  Pb26  1  0.715397  0.967739  0.045776  1
  Pb  Pb27  1  0.215405  0.532435  0.454551  1
  Pb  Pb28  1  0.431498  0.373427  0.749375  1
  Pb  Pb29  1  0.931550  0.126522  0.750589  1
  Pb  Pb30  1  0.569185  0.623812  0.249503  1
  Pb  Pb31  1  0.068143  0.876774  0.250533  1
  Pb  Pb32  1  0.659858  0.849045  0.748950  1
  Pb  Pb33  1  0.159779  0.651227  0.751054  1
  Pb  Pb34  1  0.339023  0.151867  0.249784  1
  Pb  Pb35  1  0.839090  0.346686  0.250220  1
