# generated using pymatgen
data_NdEuYZr(WN3)4
_symmetry_space_group_name_H-M   'P 1'
_cell_length_a   7.16099081
_cell_length_b   7.16099010
_cell_length_c   6.12529800
_cell_angle_alpha   75.17404222
_cell_angle_beta   75.17404371
_cell_angle_gamma   83.48624299
_symmetry_Int_Tables_number   1
_chemical_formula_structural   NdEuYZr(WN3)4
_chemical_formula_sum   'Nd1 Eu1 Y1 Zr1 W4 N12'
_cell_volume   293.15064101
_cell_formula_units_Z   1
loop_
 _symmetry_equiv_pos_site_id
 _symmetry_equiv_pos_as_xyz
  1  'x, y, z'
loop_
 _atom_site_type_symbol
 _atom_site_label
 _atom_site_symmetry_multiplicity
 _atom_site_fract_x
 _atom_site_fract_y
 _atom_site_fract_z
 _atom_site_occupancy
  Nd  Nd0  1  0.695983  0.304017  0.750000  1
  Eu  Eu1  1  0.308626  0.691374  0.250000  1
  Y  Y2  1  0.088458  0.911542  0.750000  1
  Zr  Zr3  1  0.914172  0.085828  0.250000  1
  W  W4  1  0.382747  0.199921  0.260161  1
  W  W5  1  0.619752  0.802097  0.732661  1
  W  W6  1  0.800079  0.617253  0.239839  1
  W  W7  1  0.197903  0.380248  0.767339  1
  N  N8  1  0.627876  0.098475  0.176255  1
  N  N9  1  0.373063  0.337506  0.493161  1
  N  N10  1  0.998075  0.207783  0.875076  1
  N  N11  1  0.383329  0.907037  0.829173  1
  N  N12  1  0.792217  0.001925  0.624924  1
  N  N13  1  0.092963  0.616671  0.670827  1
  N  N14  1  0.901525  0.372124  0.323745  1
  N  N15  1  0.618053  0.646091  0.517547  1
  N  N16  1  0.662494  0.626937  0.006839  1
  N  N17  1  0.353909  0.381947  0.982453  1
  N  N18  1  0.986973  0.798198  0.153554  1
  N  N19  1  0.201802  0.013027  0.346446  1
