# generated using pymatgen
data_Tb20Pt5Rh7
_symmetry_space_group_name_H-M   'P 1'
_cell_length_a   11.06799424
_cell_length_b   11.06799450
_cell_length_c   6.35167414
_cell_angle_alpha   89.98734517
_cell_angle_beta   89.98733876
_cell_angle_gamma   89.83785984
_symmetry_Int_Tables_number   1
_chemical_formula_structural   Tb20Pt5Rh7
_chemical_formula_sum   'Tb20 Pt5 Rh7'
_cell_volume   778.08010000
_cell_formula_units_Z   1
loop_
 _symmetry_equiv_pos_site_id
 _symmetry_equiv_pos_as_xyz
  1  'x, y, z'
loop_
 _atom_site_type_symbol
 _atom_site_label
 _atom_site_symmetry_multiplicity
 _atom_site_fract_x
 _atom_site_fract_y
 _atom_site_fract_z
 _atom_site_occupancy
  Tb  Tb0  1  0.293857  0.090461  0.375205  1
  Tb  Tb1  1  0.293983  0.909385  0.874291  1
  Tb  Tb2  1  0.705816  0.087716  0.874347  1
  Tb  Tb3  1  0.705910  0.908952  0.374726  1
  Tb  Tb4  1  0.588308  0.790116  0.878924  1
  Tb  Tb5  1  0.586778  0.207304  0.375839  1
  Tb  Tb6  1  0.411747  0.791492  0.378766  1
  Tb  Tb7  1  0.409762  0.208060  0.880051  1
  Tb  Tb8  1  0.209884  0.411692  0.621076  1
  Tb  Tb9  1  0.208508  0.588253  0.121234  1
  Tb  Tb10  1  0.792696  0.413222  0.124161  1
  Tb  Tb11  1  0.791940  0.590238  0.619949  1
  Tb  Tb12  1  0.909539  0.706143  0.124795  1
  Tb  Tb13  1  0.912284  0.294184  0.625653  1
  Tb  Tb14  1  0.090615  0.706017  0.625709  1
  Tb  Tb15  1  0.091048  0.294090  0.125274  1
  Tb  Tb16  1  0.999669  0.999682  0.499757  1
  Tb  Tb17  1  0.000318  0.000331  0.000243  1
  Tb  Tb18  1  0.498589  0.500675  0.000219  1
  Tb  Tb19  1  0.499325  0.501411  0.499781  1
  Pt  Pt20  1  0.845169  0.154831  0.250000  1
  Pt  Pt21  1  0.845351  0.846131  0.750377  1
  Pt  Pt22  1  0.153869  0.154649  0.749623  1
  Pt  Pt23  1  0.154718  0.845282  0.250000  1
  Pt  Pt24  1  0.655064  0.344936  0.750000  1
  Rh  Rh25  1  0.654173  0.653769  0.250005  1
  Rh  Rh26  1  0.346231  0.345827  0.249995  1
  Rh  Rh27  1  0.345022  0.654978  0.750000  1
  Rh  Rh28  1  0.500117  0.000097  0.121103  1
  Rh  Rh29  1  0.499983  0.000178  0.621938  1
  Rh  Rh30  1  0.999822  0.500017  0.878062  1
  Rh  Rh31  1  0.999903  0.499883  0.378897  1
