# generated using pymatgen
data_Ca3Er3(Si3Ru)8
_symmetry_space_group_name_H-M   'P 1'
_cell_length_a   10.15040040
_cell_length_b   10.15040112
_cell_length_c   8.14436882
_cell_angle_alpha   90.05649259
_cell_angle_beta   89.94350784
_cell_angle_gamma   132.66706182
_symmetry_Int_Tables_number   1
_chemical_formula_structural   Ca3Er3(Si3Ru)8
_chemical_formula_sum   'Ca3 Er3 Si24 Ru8'
_cell_volume   617.00784466
_cell_formula_units_Z   1
loop_
 _symmetry_equiv_pos_site_id
 _symmetry_equiv_pos_as_xyz
  1  'x, y, z'
loop_
 _atom_site_type_symbol
 _atom_site_label
 _atom_site_symmetry_multiplicity
 _atom_site_fract_x
 _atom_site_fract_y
 _atom_site_fract_z
 _atom_site_occupancy
  Ca  Ca0  1  0.997921  0.497921  0.250000  1
  Ca  Ca1  1  0.498837  0.998837  0.250000  1
  Ca  Ca2  1  0.001248  0.501248  0.750000  1
  Er  Er3  1  0.499726  0.499779  0.499704  1
  Er  Er4  1  0.999779  0.999726  0.000296  1
  Er  Er5  1  0.500385  0.000385  0.750000  1
  Si  Si6  1  0.793313  0.206458  0.500072  1
  Si  Si7  1  0.293251  0.705979  0.000766  1
  Si  Si8  1  0.205979  0.793251  0.499234  1
  Si  Si9  1  0.706458  0.293313  0.999928  1
  Si  Si10  1  0.333336  0.332281  0.833332  1
  Si  Si11  1  0.667846  0.665124  0.166926  1
  Si  Si12  1  0.165124  0.167846  0.333074  1
  Si  Si13  1  0.832281  0.833336  0.666668  1
  Si  Si14  1  0.124212  0.891152  0.727257  1
  Si  Si15  1  0.110810  0.876821  0.271891  1
  Si  Si16  1  0.611071  0.377229  0.228103  1
  Si  Si17  1  0.621620  0.388642  0.772987  1
  Si  Si18  1  0.877229  0.111071  0.271897  1
  Si  Si19  1  0.888642  0.121620  0.727013  1
  Si  Si20  1  0.391152  0.624212  0.772743  1
  Si  Si21  1  0.376821  0.610810  0.228109  1
  Si  Si22  1  0.343902  0.110590  0.506652  1
  Si  Si23  1  0.889058  0.655288  0.495171  1
  Si  Si24  1  0.389991  0.156963  0.003494  1
  Si  Si25  1  0.845055  0.610786  0.995814  1
  Si  Si26  1  0.656963  0.889991  0.496506  1
  Si  Si27  1  0.110786  0.345055  0.504186  1
  Si  Si28  1  0.610590  0.843902  0.993348  1
  Si  Si29  1  0.155288  0.389058  0.004829  1
  Ru  Ru30  1  0.666160  0.330323  0.502209  1
  Ru  Ru31  1  0.170840  0.834187  0.997708  1
  Ru  Ru32  1  0.334187  0.670840  0.502292  1
  Ru  Ru33  1  0.830323  0.166160  0.997791  1
  Ru  Ru34  1  0.126817  0.126799  0.626431  1
  Ru  Ru35  1  0.873486  0.872710  0.373001  1
  Ru  Ru36  1  0.372710  0.373486  0.126999  1
  Ru  Ru37  1  0.626799  0.626817  0.873569  1
