# generated using pymatgen
data_Tb4Y3Ho(Sc3Si4)4
_symmetry_space_group_name_H-M   'P 1'
_cell_length_a   7.10092894
_cell_length_b   7.39403965
_cell_length_c   14.01040500
_cell_angle_alpha   89.94773222
_cell_angle_beta   89.93071292
_cell_angle_gamma   90.00986572
_symmetry_Int_Tables_number   1
_chemical_formula_structural   Tb4Y3Ho(Sc3Si4)4
_chemical_formula_sum   'Tb4 Y3 Ho1 Sc12 Si16'
_cell_volume   735.60915644
_cell_formula_units_Z   1
loop_
 _symmetry_equiv_pos_site_id
 _symmetry_equiv_pos_as_xyz
  1  'x, y, z'
loop_
 _atom_site_type_symbol
 _atom_site_label
 _atom_site_symmetry_multiplicity
 _atom_site_fract_x
 _atom_site_fract_y
 _atom_site_fract_z
 _atom_site_occupancy
  Tb  Tb0  1  0.987917  0.824528  0.596968  1
  Tb  Tb1  1  0.511977  0.324672  0.096894  1
  Tb  Tb2  1  0.012275  0.175229  0.403411  1
  Tb  Tb3  1  0.511872  0.324819  0.403235  1
  Y  Y4  1  0.011795  0.175376  0.096840  1
  Y  Y5  1  0.988248  0.824391  0.902699  1
  Y  Y6  1  0.488110  0.675387  0.903143  1
  Ho  Ho7  1  0.487959  0.675802  0.597361  1
  Sc  Sc8  1  0.160654  0.502156  0.749884  1
  Sc  Sc9  1  0.839333  0.498160  0.250024  1
  Sc  Sc10  1  0.339324  0.002043  0.250134  1
  Sc  Sc11  1  0.660434  0.998009  0.749751  1
  Sc  Sc12  1  0.330964  0.176968  0.625450  1
  Sc  Sc13  1  0.668822  0.822945  0.374729  1
  Sc  Sc14  1  0.169328  0.676501  0.374806  1
  Sc  Sc15  1  0.669152  0.823254  0.125373  1
  Sc  Sc16  1  0.830718  0.323620  0.625340  1
  Sc  Sc17  1  0.330843  0.176741  0.874512  1
  Sc  Sc18  1  0.831016  0.323248  0.874329  1
  Sc  Sc19  1  0.169154  0.676969  0.125320  1
  Si  Si20  1  0.033353  0.117372  0.749924  1
  Si  Si21  1  0.966450  0.882656  0.250018  1
  Si  Si22  1  0.466472  0.617487  0.249969  1
  Si  Si23  1  0.533315  0.383413  0.749810  1
  Si  Si24  1  0.285948  0.873712  0.749816  1
  Si  Si25  1  0.714684  0.125448  0.249881  1
  Si  Si26  1  0.214416  0.374435  0.250050  1
  Si  Si27  1  0.784593  0.625889  0.749689  1
  Si  Si28  1  0.158291  0.465005  0.539574  1
  Si  Si29  1  0.842647  0.535662  0.460827  1
  Si  Si30  1  0.343452  0.963636  0.461026  1
  Si  Si31  1  0.843028  0.535753  0.039327  1
  Si  Si32  1  0.656446  0.034711  0.539619  1
  Si  Si33  1  0.156866  0.464162  0.960451  1
  Si  Si34  1  0.657401  0.035584  0.960523  1
  Si  Si35  1  0.342743  0.964255  0.039294  1
