# generated using pymatgen
data_Pa4In2OsRh3
_symmetry_space_group_name_H-M   'P 1'
_cell_length_a   7.69963447
_cell_length_b   7.69963447
_cell_length_c   3.60846100
_cell_angle_alpha   90.00000000
_cell_angle_beta   90.00000000
_cell_angle_gamma   90.04003454
_symmetry_Int_Tables_number   1
_chemical_formula_structural   Pa4In2OsRh3
_chemical_formula_sum   'Pa4 In2 Os1 Rh3'
_cell_volume   213.92528833
_cell_formula_units_Z   1
loop_
 _symmetry_equiv_pos_site_id
 _symmetry_equiv_pos_as_xyz
  1  'x, y, z'
loop_
 _atom_site_type_symbol
 _atom_site_label
 _atom_site_symmetry_multiplicity
 _atom_site_fract_x
 _atom_site_fract_y
 _atom_site_fract_z
 _atom_site_occupancy
  Pa  Pa0  1  0.668028  0.168028  0.500000  1
  Pa  Pa1  1  0.326920  0.826920  0.500000  1
  Pa  Pa2  1  0.171052  0.336523  0.500000  1
  Pa  Pa3  1  0.836523  0.671052  0.500000  1
  In  In4  1  0.999893  0.001871  0.000000  1
  In  In5  1  0.501871  0.499893  0.000000  1
  Os  Os6  1  0.132997  0.632997  0.000000  1
  Rh  Rh7  1  0.861376  0.361376  0.000000  1
  Rh  Rh8  1  0.634722  0.866618  0.000000  1
  Rh  Rh9  1  0.366618  0.134722  0.000000  1
