# generated using pymatgen
data_NdY3(ScIr)4
_symmetry_space_group_name_H-M   'P 1'
_cell_length_a   7.19511162
_cell_length_b   4.27166000
_cell_length_c   8.81034076
_cell_angle_alpha   90.00000000
_cell_angle_beta   89.40279236
_cell_angle_gamma   90.00000000
_symmetry_Int_Tables_number   1
_chemical_formula_structural   NdY3(ScIr)4
_chemical_formula_sum   'Nd1 Y3 Sc4 Ir4'
_cell_volume   270.77173496
_cell_formula_units_Z   1
loop_
 _symmetry_equiv_pos_site_id
 _symmetry_equiv_pos_as_xyz
  1  'x, y, z'
loop_
 _atom_site_type_symbol
 _atom_site_label
 _atom_site_symmetry_multiplicity
 _atom_site_fract_x
 _atom_site_fract_y
 _atom_site_fract_z
 _atom_site_occupancy
  Nd  Nd0  1  0.512682  0.750000  0.674627  1
  Y  Y1  1  0.981090  0.250000  0.174049  1
  Y  Y2  1  0.483338  0.250000  0.324258  1
  Y  Y3  1  0.016198  0.750000  0.828910  1
  Sc  Sc4  1  0.861314  0.250000  0.562608  1
  Sc  Sc5  1  0.359093  0.250000  0.940501  1
  Sc  Sc6  1  0.141614  0.750000  0.432942  1
  Sc  Sc7  1  0.641858  0.750000  0.067005  1
  Ir  Ir8  1  0.738693  0.250000  0.897095  1
  Ir  Ir9  1  0.233219  0.250000  0.602176  1
  Ir  Ir10  1  0.263793  0.750000  0.107016  1
  Ir  Ir11  1  0.767108  0.750000  0.388813  1
