# generated using pymatgen
data_Lu8Ta10TiSi16Mo
_symmetry_space_group_name_H-M   'P 1'
_cell_length_a   6.78607554
_cell_length_b   6.97466690
_cell_length_c   13.22149769
_cell_angle_alpha   90.04752879
_cell_angle_beta   89.99856016
_cell_angle_gamma   89.94745202
_symmetry_Int_Tables_number   1
_chemical_formula_structural   Lu8Ta10TiSi16Mo
_chemical_formula_sum   'Lu8 Ta10 Ti1 Si16 Mo1'
_cell_volume   625.78115662
_cell_formula_units_Z   1
loop_
 _symmetry_equiv_pos_site_id
 _symmetry_equiv_pos_as_xyz
  1  'x, y, z'
loop_
 _atom_site_type_symbol
 _atom_site_label
 _atom_site_symmetry_multiplicity
 _atom_site_fract_x
 _atom_site_fract_y
 _atom_site_fract_z
 _atom_site_occupancy
  Lu  Lu0  1  0.502775  0.329126  0.095451  1
  Lu  Lu1  1  0.001477  0.171319  0.404429  1
  Lu  Lu2  1  0.496609  0.674193  0.594670  1
  Lu  Lu3  1  0.998477  0.828333  0.904342  1
  Lu  Lu4  1  0.497856  0.670642  0.903781  1
  Lu  Lu5  1  0.997997  0.829164  0.595370  1
  Lu  Lu6  1  0.501553  0.327922  0.406355  1
  Lu  Lu7  1  0.001344  0.172831  0.095126  1
  Ta  Ta8  1  0.337257  0.175958  0.873853  1
  Ta  Ta9  1  0.163979  0.675609  0.124731  1
  Ta  Ta10  1  0.662429  0.825394  0.376335  1
  Ta  Ta11  1  0.165144  0.675743  0.376418  1
  Ta  Ta12  1  0.662647  0.824623  0.125255  1
  Ta  Ta13  1  0.836471  0.323244  0.873451  1
  Ta  Ta14  1  0.663796  0.008541  0.749664  1
  Ta  Ta15  1  0.163898  0.492224  0.749165  1
  Ta  Ta16  1  0.336773  0.992633  0.250673  1
  Ta  Ta17  1  0.837264  0.508319  0.250761  1
  Ti  Ti18  1  0.839407  0.325106  0.624515  1
  Si  Si19  1  0.662587  0.038433  0.542964  1
  Si  Si20  1  0.165435  0.465157  0.959019  1
  Si  Si21  1  0.333926  0.965822  0.039799  1
  Si  Si22  1  0.835728  0.532985  0.460483  1
  Si  Si23  1  0.333722  0.966445  0.461804  1
  Si  Si24  1  0.834447  0.534912  0.040155  1
  Si  Si25  1  0.665968  0.034410  0.959736  1
  Si  Si26  1  0.165263  0.461075  0.542444  1
  Si  Si27  1  0.540768  0.377308  0.745570  1
  Si  Si28  1  0.041884  0.121585  0.747803  1
  Si  Si29  1  0.459730  0.619091  0.250888  1
  Si  Si30  1  0.959190  0.880027  0.250458  1
  Si  Si31  1  0.794929  0.629154  0.749195  1
  Si  Si32  1  0.296834  0.869724  0.749644  1
  Si  Si33  1  0.205046  0.368559  0.250640  1
  Si  Si34  1  0.703760  0.131773  0.250131  1
  Mo  Mo35  1  0.333630  0.172613  0.624916  1
