# generated using pymatgen
data_Y3ThGa12Ru
_symmetry_space_group_name_H-M   'P 1'
_cell_length_a   7.55403542
_cell_length_b   7.43375831
_cell_length_c   7.55403446
_cell_angle_alpha   109.14899490
_cell_angle_beta   109.79150690
_cell_angle_gamma   109.14900607
_symmetry_Int_Tables_number   1
_chemical_formula_structural   Y3ThGa12Ru
_chemical_formula_sum   'Y3 Th1 Ga12 Ru1'
_cell_volume   327.83561773
_cell_formula_units_Z   1
loop_
 _symmetry_equiv_pos_site_id
 _symmetry_equiv_pos_as_xyz
  1  'x, y, z'
loop_
 _atom_site_type_symbol
 _atom_site_label
 _atom_site_symmetry_multiplicity
 _atom_site_fract_x
 _atom_site_fract_y
 _atom_site_fract_z
 _atom_site_occupancy
  Y  Y0  1  0.000000  0.000000  0.500000  1
  Y  Y1  1  0.500000  0.000000  0.000000  1
  Y  Y2  1  0.500000  0.500000  0.500000  1
  Th  Th3  1  0.000000  0.500000  0.000000  1
  Ga  Ga4  1  0.748111  0.248111  0.496221  1
  Ga  Ga5  1  0.748111  0.500000  0.251889  1
  Ga  Ga6  1  0.496221  0.248111  0.748111  1
  Ga  Ga7  1  0.251889  0.500000  0.748111  1
  Ga  Ga8  1  0.251889  0.751889  0.503779  1
  Ga  Ga9  1  0.503779  0.751889  0.251889  1
  Ga  Ga10  1  0.708156  0.711173  0.000000  1
  Ga  Ga11  1  0.291844  0.003017  0.291844  1
  Ga  Ga12  1  0.000000  0.288827  0.291844  1
  Ga  Ga13  1  0.291844  0.288827  0.000000  1
  Ga  Ga14  1  0.708156  0.996983  0.708156  1
  Ga  Ga15  1  0.000000  0.711173  0.708156  1
  Ru  Ru16  1  0.000000  0.000000  0.000000  1
