# generated using pymatgen
data_YB2IrRu
_symmetry_space_group_name_H-M   'P 1'
_cell_length_a   6.79872710
_cell_length_b   5.98632521
_cell_length_c   5.54964481
_cell_angle_alpha   72.10909664
_cell_angle_beta   56.92197994
_cell_angle_gamma   50.96891484
_symmetry_Int_Tables_number   1
_chemical_formula_structural   YB2IrRu
_chemical_formula_sum   'Y2 B4 Ir2 Ru2'
_cell_volume   146.78708776
_cell_formula_units_Z   2
loop_
 _symmetry_equiv_pos_site_id
 _symmetry_equiv_pos_as_xyz
  1  'x, y, z'
loop_
 _atom_site_type_symbol
 _atom_site_label
 _atom_site_symmetry_multiplicity
 _atom_site_fract_x
 _atom_site_fract_y
 _atom_site_fract_z
 _atom_site_occupancy
  Y  Y0  1  0.744901  0.744901  0.755099  1
  Y  Y1  1  0.494901  0.494901  0.505099  1
  B  B2  1  0.067491  0.435495  0.063190  1
  B  B3  1  0.816176  0.186810  0.814505  1
  B  B4  1  0.435495  0.067491  0.433824  1
  B  B5  1  0.186810  0.816176  0.182509  1
  Ir  Ir6  1  0.865840  0.865840  0.134160  1
  Ir  Ir7  1  0.115840  0.115840  0.384160  1
  Ru  Ru8  1  0.386273  0.386273  0.113727  1
  Ru  Ru9  1  0.136273  0.136273  0.863727  1
