# generated using pymatgen
data_LuU3(SnIr2)2
_symmetry_space_group_name_H-M   'P 1'
_cell_length_a   7.65917330
_cell_length_b   7.66254988
_cell_length_c   3.52845300
_cell_angle_alpha   90.00000000
_cell_angle_beta   90.00000000
_cell_angle_gamma   90.99034012
_symmetry_Int_Tables_number   1
_chemical_formula_structural   LuU3(SnIr2)2
_chemical_formula_sum   'Lu1 U3 Sn2 Ir4'
_cell_volume   207.04973062
_cell_formula_units_Z   1
loop_
 _symmetry_equiv_pos_site_id
 _symmetry_equiv_pos_as_xyz
  1  'x, y, z'
loop_
 _atom_site_type_symbol
 _atom_site_label
 _atom_site_symmetry_multiplicity
 _atom_site_fract_x
 _atom_site_fract_y
 _atom_site_fract_z
 _atom_site_occupancy
  Lu  Lu0  1  0.170201  0.329786  0.000000  1
  U  U1  1  0.832980  0.667060  0.000000  1
  U  U2  1  0.668619  0.172600  0.000000  1
  U  U3  1  0.327460  0.831342  0.000000  1
  Sn  Sn4  1  0.003523  0.010177  0.500000  1
  Sn  Sn5  1  0.489772  0.496524  0.500000  1
  Ir  Ir6  1  0.384943  0.115007  0.500000  1
  Ir  Ir7  1  0.641892  0.858085  0.500000  1
  Ir  Ir8  1  0.853724  0.373145  0.500000  1
  Ir  Ir9  1  0.126887  0.646275  0.500000  1
