# generated using pymatgen
data_Hf4NbAlRh10
_symmetry_space_group_name_H-M   'P 1'
_cell_length_a   4.18895500
_cell_length_b   5.56745957
_cell_length_c   10.86313861
_cell_angle_alpha   90.31046971
_cell_angle_beta   90.00000000
_cell_angle_gamma   90.00000000
_symmetry_Int_Tables_number   1
_chemical_formula_structural   Hf4NbAlRh10
_chemical_formula_sum   'Hf4 Nb1 Al1 Rh10'
_cell_volume   253.34463499
_cell_formula_units_Z   1
loop_
 _symmetry_equiv_pos_site_id
 _symmetry_equiv_pos_as_xyz
  1  'x, y, z'
loop_
 _atom_site_type_symbol
 _atom_site_label
 _atom_site_symmetry_multiplicity
 _atom_site_fract_x
 _atom_site_fract_y
 _atom_site_fract_z
 _atom_site_occupancy
  Hf  Hf0  1  0.500000  0.172595  0.637688  1
  Hf  Hf1  1  0.500000  0.827405  0.362312  1
  Hf  Hf2  1  0.500000  0.660884  0.852049  1
  Hf  Hf3  1  0.500000  0.339116  0.147951  1
  Nb  Nb4  1  0.000000  0.000000  0.000000  1
  Al  Al5  1  0.000000  0.500000  0.500000  1
  Rh  Rh6  1  0.500000  0.183012  0.894156  1
  Rh  Rh7  1  0.500000  0.816988  0.105844  1
  Rh  Rh8  1  0.500000  0.682978  0.606643  1
  Rh  Rh9  1  0.500000  0.317022  0.393357  1
  Rh  Rh10  1  0.000000  0.415612  0.740027  1
  Rh  Rh11  1  0.000000  0.584388  0.259973  1
  Rh  Rh12  1  0.000000  0.000000  0.500000  1
  Rh  Rh13  1  0.000000  0.500000  0.000000  1
  Rh  Rh14  1  0.000000  0.087704  0.242055  1
  Rh  Rh15  1  0.000000  0.912296  0.757945  1
