# generated using pymatgen
data_Tb3Nd2Zr3(Co4As3)4
_symmetry_space_group_name_H-M   'P 1'
_cell_length_a   12.77964800
_cell_length_b   12.77964692
_cell_length_c   3.85833200
_cell_angle_alpha   90.00000000
_cell_angle_beta   90.00000000
_cell_angle_gamma   120.00000796
_symmetry_Int_Tables_number   1
_chemical_formula_structural   Tb3Nd2Zr3(Co4As3)4
_chemical_formula_sum   'Tb3 Nd2 Zr3 Co16 As12'
_cell_volume   545.71757291
_cell_formula_units_Z   1
loop_
 _symmetry_equiv_pos_site_id
 _symmetry_equiv_pos_as_xyz
  1  'x, y, z'
loop_
 _atom_site_type_symbol
 _atom_site_label
 _atom_site_symmetry_multiplicity
 _atom_site_fract_x
 _atom_site_fract_y
 _atom_site_fract_z
 _atom_site_occupancy
  Tb  Tb0  1  0.183198  0.183198  0.500000  1
  Tb  Tb1  1  0.816802  0.000000  0.500000  1
  Tb  Tb2  1  0.000000  0.816802  0.500000  1
  Nd  Nd3  1  0.333333  0.666667  0.000000  1
  Nd  Nd4  1  0.666667  0.333333  0.000000  1
  Zr  Zr5  1  0.561672  0.561672  0.000000  1
  Zr  Zr6  1  0.438328  0.000000  0.000000  1
  Zr  Zr7  1  0.000000  0.438328  0.000000  1
  Co  Co8  1  0.721336  0.721336  0.500000  1
  Co  Co9  1  0.278664  0.000000  0.500000  1
  Co  Co10  1  0.000000  0.278664  0.500000  1
  Co  Co11  1  0.176891  0.372192  0.000000  1
  Co  Co12  1  0.627808  0.804699  0.000000  1
  Co  Co13  1  0.195301  0.823109  0.000000  1
  Co  Co14  1  0.804699  0.627808  0.000000  1
  Co  Co15  1  0.823109  0.195301  0.000000  1
  Co  Co16  1  0.372192  0.176891  0.000000  1
  Co  Co17  1  0.356975  0.477863  0.500000  1
  Co  Co18  1  0.522137  0.879113  0.500000  1
  Co  Co19  1  0.120887  0.643025  0.500000  1
  Co  Co20  1  0.879113  0.522137  0.500000  1
  Co  Co21  1  0.643025  0.120887  0.500000  1
  Co  Co22  1  0.477863  0.356975  0.500000  1
  Co  Co23  1  0.000000  0.000000  0.000000  1
  As  As24  1  0.823131  0.823131  0.000000  1
  As  As25  1  0.176869  0.000000  0.000000  1
  As  As26  1  0.000000  0.176869  0.000000  1
  As  As27  1  0.171210  0.477751  0.500000  1
  As  As28  1  0.522249  0.693460  0.500000  1
  As  As29  1  0.306540  0.828790  0.500000  1
  As  As30  1  0.693460  0.522249  0.500000  1
  As  As31  1  0.828790  0.306540  0.500000  1
  As  As32  1  0.477751  0.171210  0.500000  1
  As  As33  1  0.352626  0.352626  0.000000  1
  As  As34  1  0.647374  0.000000  0.000000  1
  As  As35  1  0.000000  0.647374  0.000000  1
