# generated using pymatgen
data_CaLaSiNiI
_symmetry_space_group_name_H-M   'P 1'
_cell_length_a   4.23189900
_cell_length_b   4.23189822
_cell_length_c   8.46890000
_cell_angle_alpha   90.00000000
_cell_angle_beta   90.00000000
_cell_angle_gamma   119.99998268
_symmetry_Int_Tables_number   1
_chemical_formula_structural   CaLaSiNiI
_chemical_formula_sum   'Ca1 La1 Si1 Ni1 I1'
_cell_volume   131.34943831
_cell_formula_units_Z   1
loop_
 _symmetry_equiv_pos_site_id
 _symmetry_equiv_pos_as_xyz
  1  'x, y, z'
loop_
 _atom_site_type_symbol
 _atom_site_label
 _atom_site_symmetry_multiplicity
 _atom_site_fract_x
 _atom_site_fract_y
 _atom_site_fract_z
 _atom_site_occupancy
  Ca  Ca0  1  0.000000  0.000000  0.211238  1
  La  La1  1  0.000000  0.000000  0.793872  1
  Si  Si2  1  0.333333  0.666667  0.000681  1
  Ni  Ni3  1  0.666667  0.333333  0.998422  1
  I  I4  1  0.666667  0.333333  0.495787  1
