# generated using pymatgen
data_Tb8Er2PdRh5
_symmetry_space_group_name_H-M   'P 1'
_cell_length_a   10.92596602
_cell_length_b   10.92646100
_cell_length_c   6.37439900
_cell_angle_alpha   90.00000000
_cell_angle_beta   90.00302579
_cell_angle_gamma   90.00000000
_symmetry_Int_Tables_number   1
_chemical_formula_structural   Tb8Er2PdRh5
_chemical_formula_sum   'Tb16 Er4 Pd2 Rh10'
_cell_volume   760.98940267
_cell_formula_units_Z   2
loop_
 _symmetry_equiv_pos_site_id
 _symmetry_equiv_pos_as_xyz
  1  'x, y, z'
loop_
 _atom_site_type_symbol
 _atom_site_label
 _atom_site_symmetry_multiplicity
 _atom_site_fract_x
 _atom_site_fract_y
 _atom_site_fract_z
 _atom_site_occupancy
  Tb  Tb0  1  0.289153  0.085549  0.379459  1
  Tb  Tb1  1  0.289153  0.914451  0.879459  1
  Tb  Tb2  1  0.710670  0.089476  0.880810  1
  Tb  Tb3  1  0.710670  0.910524  0.380810  1
  Tb  Tb4  1  0.593147  0.792963  0.879760  1
  Tb  Tb5  1  0.593147  0.207037  0.379760  1
  Tb  Tb6  1  0.412665  0.791851  0.372856  1
  Tb  Tb7  1  0.412665  0.208149  0.872856  1
  Tb  Tb8  1  0.205124  0.408827  0.625646  1
  Tb  Tb9  1  0.205124  0.591173  0.125646  1
  Tb  Tb10  1  0.790328  0.410318  0.121961  1
  Tb  Tb11  1  0.790328  0.589682  0.621961  1
  Tb  Tb12  1  0.909192  0.709970  0.119904  1
  Tb  Tb13  1  0.909192  0.290030  0.619904  1
  Tb  Tb14  1  0.084510  0.711034  0.620027  1
  Tb  Tb15  1  0.084510  0.288966  0.120027  1
  Er  Er16  1  0.999925  0.001044  0.500156  1
  Er  Er17  1  0.999925  0.998956  0.000156  1
  Er  Er18  1  0.503870  0.501085  0.000345  1
  Er  Er19  1  0.503870  0.498915  0.500345  1
  Pd  Pd20  1  0.347046  0.347251  0.250994  1
  Pd  Pd21  1  0.347046  0.652749  0.750994  1
  Rh  Rh22  1  0.848062  0.152322  0.249155  1
  Rh  Rh23  1  0.848062  0.847678  0.749155  1
  Rh  Rh24  1  0.153587  0.153311  0.750626  1
  Rh  Rh25  1  0.153587  0.846689  0.250626  1
  Rh  Rh26  1  0.652243  0.346944  0.749225  1
  Rh  Rh27  1  0.652243  0.653056  0.249225  1
  Rh  Rh28  1  0.499643  0.000555  0.123819  1
  Rh  Rh29  1  0.499643  0.999445  0.623819  1
  Rh  Rh30  1  0.000835  0.499565  0.875257  1
  Rh  Rh31  1  0.000835  0.500435  0.375257  1
