# generated using pymatgen
data_Dy3ErGa4(CuIr)2
_symmetry_space_group_name_H-M   'P 1'
_cell_length_a   4.35358400
_cell_length_b   6.89739459
_cell_length_c   7.60489321
_cell_angle_alpha   89.85383525
_cell_angle_beta   90.00000000
_cell_angle_gamma   90.00000000
_symmetry_Int_Tables_number   1
_chemical_formula_structural   Dy3ErGa4(CuIr)2
_chemical_formula_sum   'Dy3 Er1 Ga4 Cu2 Ir2'
_cell_volume   228.36193125
_cell_formula_units_Z   1
loop_
 _symmetry_equiv_pos_site_id
 _symmetry_equiv_pos_as_xyz
  1  'x, y, z'
loop_
 _atom_site_type_symbol
 _atom_site_label
 _atom_site_symmetry_multiplicity
 _atom_site_fract_x
 _atom_site_fract_y
 _atom_site_fract_z
 _atom_site_occupancy
  Dy  Dy0  1  0.250000  0.989802  0.296199  1
  Dy  Dy1  1  0.750000  0.022980  0.689042  1
  Dy  Dy2  1  0.750000  0.522769  0.811497  1
  Er  Er3  1  0.250000  0.489955  0.204104  1
  Ga  Ga4  1  0.250000  0.326288  0.578876  1
  Ga  Ga5  1  0.250000  0.825353  0.920848  1
  Ga  Ga6  1  0.750000  0.672090  0.431357  1
  Ga  Ga7  1  0.750000  0.173370  0.068225  1
  Cu  Cu8  1  0.250000  0.214394  0.899793  1
  Cu  Cu9  1  0.250000  0.713504  0.600653  1
  Ir  Ir10  1  0.750000  0.773732  0.102049  1
  Ir  Ir11  1  0.750000  0.275761  0.397356  1
