# generated using pymatgen
data_Dy3Y5Cd2CoNi
_symmetry_space_group_name_H-M   'P 1'
_cell_length_a   9.53172774
_cell_length_b   9.54279332
_cell_length_c   9.55365932
_cell_angle_alpha   59.88577746
_cell_angle_beta   59.99943541
_cell_angle_gamma   59.95941150
_symmetry_Int_Tables_number   1
_chemical_formula_structural   Dy3Y5Cd2CoNi
_chemical_formula_sum   'Dy6 Y10 Cd4 Co2 Ni2'
_cell_volume   613.74869606
_cell_formula_units_Z   2
loop_
 _symmetry_equiv_pos_site_id
 _symmetry_equiv_pos_as_xyz
  1  'x, y, z'
loop_
 _atom_site_type_symbol
 _atom_site_label
 _atom_site_symmetry_multiplicity
 _atom_site_fract_x
 _atom_site_fract_y
 _atom_site_fract_z
 _atom_site_occupancy
  Dy  Dy0  1  0.596632  0.596531  0.599272  1
  Dy  Dy1  1  0.596582  0.596585  0.207566  1
  Dy  Dy2  1  0.595280  0.209271  0.597757  1
  Dy  Dy3  1  0.209256  0.595252  0.597711  1
  Dy  Dy4  1  0.064790  0.437766  0.439519  1
  Dy  Dy5  1  0.437770  0.064827  0.057885  1
  Y  Y6  1  0.437913  0.064371  0.439887  1
  Y  Y7  1  0.064365  0.437919  0.057830  1
  Y  Y8  1  0.438768  0.438766  0.061235  1
  Y  Y9  1  0.061009  0.061011  0.438992  1
  Y  Y10  1  0.187306  0.811139  0.814240  1
  Y  Y11  1  0.811137  0.187309  0.187313  1
  Y  Y12  1  0.810825  0.187578  0.814141  1
  Y  Y13  1  0.187570  0.810827  0.187468  1
  Y  Y14  1  0.812804  0.812811  0.187194  1
  Y  Y15  1  0.188048  0.188062  0.811946  1
  Cd  Cd16  1  0.829961  0.829757  0.830885  1
  Cd  Cd17  1  0.829753  0.829967  0.509397  1
  Cd  Cd18  1  0.830865  0.506410  0.831492  1
  Cd  Cd19  1  0.506410  0.830868  0.831235  1
  Co  Co20  1  0.392073  0.394073  0.391980  1
  Co  Co21  1  0.394072  0.392079  0.821871  1
  Ni  Ni22  1  0.393809  0.823006  0.390672  1
  Ni  Ni23  1  0.822999  0.393814  0.392512  1
