# generated using pymatgen
data_La4Sc6Sn7Hg
_symmetry_space_group_name_H-M   'P 1'
_cell_length_a   7.81082200
_cell_length_b   8.22729100
_cell_length_c   15.28902100
_cell_angle_alpha   90.00000000
_cell_angle_beta   90.00000000
_cell_angle_gamma   90.00000000
_symmetry_Int_Tables_number   1
_chemical_formula_structural   La4Sc6Sn7Hg
_chemical_formula_sum   'La8 Sc12 Sn14 Hg2'
_cell_volume   982.50162335
_cell_formula_units_Z   2
loop_
 _symmetry_equiv_pos_site_id
 _symmetry_equiv_pos_as_xyz
  1  'x, y, z'
loop_
 _atom_site_type_symbol
 _atom_site_label
 _atom_site_symmetry_multiplicity
 _atom_site_fract_x
 _atom_site_fract_y
 _atom_site_fract_z
 _atom_site_occupancy
  La  La0  1  0.503040  0.321624  0.906354  1
  La  La1  1  0.003040  0.178376  0.593646  1
  La  La2  1  0.496054  0.674959  0.405689  1
  La  La3  1  0.996054  0.825041  0.094311  1
  La  La4  1  0.496054  0.674959  0.094311  1
  La  La5  1  0.996054  0.825041  0.405689  1
  La  La6  1  0.503040  0.321624  0.593646  1
  La  La7  1  0.003040  0.178376  0.906354  1
  Sc  Sc8  1  0.333030  0.835576  0.871337  1
  Sc  Sc9  1  0.833030  0.664424  0.628663  1
  Sc  Sc10  1  0.665770  0.161508  0.372511  1
  Sc  Sc11  1  0.165770  0.338492  0.127489  1
  Sc  Sc12  1  0.665770  0.161508  0.127489  1
  Sc  Sc13  1  0.165770  0.338492  0.372511  1
  Sc  Sc14  1  0.333030  0.835576  0.628663  1
  Sc  Sc15  1  0.833030  0.664424  0.871337  1
  Sc  Sc16  1  0.175086  0.504589  0.750000  1
  Sc  Sc17  1  0.675086  0.995411  0.750000  1
  Sc  Sc18  1  0.832986  0.495442  0.250000  1
  Sc  Sc19  1  0.332986  0.004558  0.250000  1
  Sn  Sn20  1  0.327914  0.044828  0.042798  1
  Sn  Sn21  1  0.827914  0.455172  0.457202  1
  Sn  Sn22  1  0.673435  0.954902  0.544788  1
  Sn  Sn23  1  0.173435  0.545098  0.955212  1
  Sn  Sn24  1  0.673435  0.954902  0.955212  1
  Sn  Sn25  1  0.173435  0.545098  0.544788  1
  Sn  Sn26  1  0.327914  0.044828  0.457202  1
  Sn  Sn27  1  0.827914  0.455172  0.042798  1
  Sn  Sn28  1  0.472185  0.365916  0.250000  1
  Sn  Sn29  1  0.972185  0.134084  0.250000  1
  Sn  Sn30  1  0.303081  0.131286  0.750000  1
  Sn  Sn31  1  0.803081  0.368714  0.750000  1
  Sn  Sn32  1  0.689008  0.859217  0.250000  1
  Sn  Sn33  1  0.189008  0.640783  0.250000  1
  Hg  Hg34  1  0.529170  0.630636  0.750000  1
  Hg  Hg35  1  0.029170  0.869364  0.750000  1
