# generated using pymatgen
data_Pr3Nd7(Bi3P)2
_symmetry_space_group_name_H-M   'P 1'
_cell_length_a   9.56605200
_cell_length_b   9.56605283
_cell_length_c   6.86464900
_cell_angle_alpha   90.00000000
_cell_angle_beta   90.00000000
_cell_angle_gamma   119.99999714
_symmetry_Int_Tables_number   1
_chemical_formula_structural   Pr3Nd7(Bi3P)2
_chemical_formula_sum   'Pr3 Nd7 Bi6 P2'
_cell_volume   544.01953180
_cell_formula_units_Z   1
loop_
 _symmetry_equiv_pos_site_id
 _symmetry_equiv_pos_as_xyz
  1  'x, y, z'
loop_
 _atom_site_type_symbol
 _atom_site_label
 _atom_site_symmetry_multiplicity
 _atom_site_fract_x
 _atom_site_fract_y
 _atom_site_fract_z
 _atom_site_occupancy
  Pr  Pr0  1  0.666667  0.333333  0.000000  1
  Pr  Pr1  1  0.333333  0.666667  0.000000  1
  Pr  Pr2  1  0.333333  0.666667  0.500000  1
  Nd  Nd3  1  0.666667  0.333333  0.500000  1
  Nd  Nd4  1  0.761297  0.761286  0.749974  1
  Nd  Nd5  1  0.238714  0.000012  0.749974  1
  Nd  Nd6  1  0.999988  0.238703  0.749974  1
  Nd  Nd7  1  0.238714  0.238703  0.250026  1
  Nd  Nd8  1  0.761297  0.000012  0.250026  1
  Nd  Nd9  1  0.999988  0.761286  0.250026  1
  Bi  Bi10  1  0.396612  0.396505  0.749908  1
  Bi  Bi11  1  0.603495  0.000107  0.749908  1
  Bi  Bi12  1  0.999893  0.603388  0.749908  1
  Bi  Bi13  1  0.603495  0.603388  0.250092  1
  Bi  Bi14  1  0.396612  0.000107  0.250092  1
  Bi  Bi15  1  0.999893  0.396505  0.250092  1
  P  P16  1  0.000000  0.000000  0.000000  1
  P  P17  1  0.000000  0.000000  0.500000  1
