# generated using pymatgen
data_U2CdF12
_symmetry_space_group_name_H-M   'P 1'
_cell_length_a   7.67262549
_cell_length_b   7.67263169
_cell_length_c   10.83017624
_cell_angle_alpha   68.36290335
_cell_angle_beta   68.36288155
_cell_angle_gamma   76.04279101
_symmetry_Int_Tables_number   1
_chemical_formula_structural   U2CdF12
_chemical_formula_sum   'U4 Cd2 F24'
_cell_volume   546.78001807
_cell_formula_units_Z   2
loop_
 _symmetry_equiv_pos_site_id
 _symmetry_equiv_pos_as_xyz
  1  'x, y, z'
loop_
 _atom_site_type_symbol
 _atom_site_label
 _atom_site_symmetry_multiplicity
 _atom_site_fract_x
 _atom_site_fract_y
 _atom_site_fract_z
 _atom_site_occupancy
  U  U0  1  0.246937  0.256081  0.370431  1
  U  U1  1  0.256080  0.246939  0.870432  1
  U  U2  1  0.753063  0.743919  0.629569  1
  U  U3  1  0.743920  0.753061  0.129568  1
  Cd  Cd4  1  0.171714  0.828285  0.750000  1
  Cd  Cd5  1  0.828286  0.171715  0.250000  1
  F  F6  1  0.856900  0.883850  0.224765  1
  F  F7  1  0.143100  0.116150  0.775235  1
  F  F8  1  0.285696  0.980010  0.517368  1
  F  F9  1  0.985185  0.285350  0.509154  1
  F  F10  1  0.285349  0.985187  0.009152  1
  F  F11  1  0.364668  0.357853  0.466783  1
  F  F12  1  0.357851  0.364668  0.966782  1
  F  F13  1  0.883849  0.856901  0.724764  1
  F  F14  1  0.789631  0.467748  0.263051  1
  F  F15  1  0.019989  0.714304  0.982632  1
  F  F16  1  0.714304  0.019990  0.482632  1
  F  F17  1  0.980011  0.285696  0.017368  1
  F  F18  1  0.517585  0.200620  0.737590  1
  F  F19  1  0.635332  0.642147  0.533217  1
  F  F20  1  0.210369  0.532252  0.736949  1
  F  F21  1  0.642149  0.635332  0.033218  1
  F  F22  1  0.467747  0.789632  0.763051  1
  F  F23  1  0.799379  0.482417  0.762409  1
  F  F24  1  0.532253  0.210368  0.236949  1
  F  F25  1  0.482415  0.799380  0.262410  1
  F  F26  1  0.200621  0.517583  0.237591  1
  F  F27  1  0.714651  0.014813  0.990848  1
  F  F28  1  0.116151  0.143099  0.275236  1
  F  F29  1  0.014815  0.714650  0.490846  1
