# generated using pymatgen
data_DyY3FeRu7
_symmetry_space_group_name_H-M   'P 1'
_cell_length_a   5.33561501
_cell_length_b   5.20861684
_cell_length_c   8.93665800
_cell_angle_alpha   89.99828585
_cell_angle_beta   90.00031500
_cell_angle_gamma   120.65572265
_symmetry_Int_Tables_number   1
_chemical_formula_structural   DyY3FeRu7
_chemical_formula_sum   'Dy1 Y3 Fe1 Ru7'
_cell_volume   213.65102265
_cell_formula_units_Z   1
loop_
 _symmetry_equiv_pos_site_id
 _symmetry_equiv_pos_as_xyz
  1  'x, y, z'
loop_
 _atom_site_type_symbol
 _atom_site_label
 _atom_site_symmetry_multiplicity
 _atom_site_fract_x
 _atom_site_fract_y
 _atom_site_fract_z
 _atom_site_occupancy
  Dy  Dy0  1  0.668699  0.337051  0.932752  1
  Y  Y1  1  0.668694  0.337052  0.567290  1
  Y  Y2  1  0.331526  0.663486  0.434533  1
  Y  Y3  1  0.331544  0.663516  0.065424  1
  Fe  Fe4  1  0.163396  0.327021  0.750027  1
  Ru  Ru5  1  0.002461  0.005521  0.501421  1
  Ru  Ru6  1  0.002447  0.005500  0.998489  1
  Ru  Ru7  1  0.173961  0.827594  0.750061  1
  Ru  Ru8  1  0.654172  0.827945  0.750067  1
  Ru  Ru9  1  0.832166  0.664779  0.249975  1
  Ru  Ru10  1  0.827208  0.169986  0.249980  1
  Ru  Ru11  1  0.343726  0.170549  0.249981  1
