# generated using pymatgen
data_HoScVB6
_symmetry_space_group_name_H-M   'P 1'
_cell_length_a   3.46023300
_cell_length_b   9.07259700
_cell_length_c   11.40440200
_cell_angle_alpha   90.00000000
_cell_angle_beta   90.00000000
_cell_angle_gamma   90.00000000
_symmetry_Int_Tables_number   1
_chemical_formula_structural   HoScVB6
_chemical_formula_sum   'Ho4 Sc4 V4 B24'
_cell_volume   358.02180800
_cell_formula_units_Z   4
loop_
 _symmetry_equiv_pos_site_id
 _symmetry_equiv_pos_as_xyz
  1  'x, y, z'
loop_
 _atom_site_type_symbol
 _atom_site_label
 _atom_site_symmetry_multiplicity
 _atom_site_fract_x
 _atom_site_fract_y
 _atom_site_fract_z
 _atom_site_occupancy
  Ho  Ho0  1  0.000000  0.822749  0.085087  1
  Ho  Ho1  1  0.000000  0.177251  0.914913  1
  Ho  Ho2  1  0.000000  0.322749  0.414913  1
  Ho  Ho3  1  0.000000  0.677251  0.585087  1
  Sc  Sc4  1  0.000000  0.443343  0.130730  1
  Sc  Sc5  1  0.000000  0.556657  0.869270  1
  Sc  Sc6  1  0.000000  0.943343  0.369270  1
  Sc  Sc7  1  0.000000  0.056657  0.630730  1
  V  V8  1  0.000000  0.142173  0.182126  1
  V  V9  1  0.000000  0.857827  0.817874  1
  V  V10  1  0.000000  0.642173  0.317874  1
  V  V11  1  0.000000  0.357827  0.682126  1
  B  B12  1  0.500000  0.053841  0.066549  1
  B  B13  1  0.500000  0.946159  0.933451  1
  B  B14  1  0.500000  0.553841  0.433451  1
  B  B15  1  0.500000  0.446159  0.566549  1
  B  B16  1  0.500000  0.254301  0.081574  1
  B  B17  1  0.500000  0.745699  0.918426  1
  B  B18  1  0.500000  0.754301  0.418426  1
  B  B19  1  0.500000  0.245699  0.581574  1
  B  B20  1  0.500000  0.295859  0.236564  1
  B  B21  1  0.500000  0.704141  0.763436  1
  B  B22  1  0.500000  0.795859  0.263436  1
  B  B23  1  0.500000  0.204141  0.736564  1
  B  B24  1  0.500000  0.129789  0.318289  1
  B  B25  1  0.500000  0.870211  0.681711  1
  B  B26  1  0.500000  0.629789  0.181711  1
  B  B27  1  0.500000  0.370211  0.818289  1
  B  B28  1  0.500000  0.481091  0.286217  1
  B  B29  1  0.500000  0.518909  0.713783  1
  B  B30  1  0.500000  0.981091  0.213783  1
  B  B31  1  0.500000  0.018909  0.786217  1
  B  B32  1  0.500000  0.095411  0.474179  1
  B  B33  1  0.500000  0.904589  0.525821  1
  B  B34  1  0.500000  0.595411  0.025821  1
  B  B35  1  0.500000  0.404589  0.974179  1
