# generated using pymatgen
data_VNi8Mo15C4
_symmetry_space_group_name_H-M   'P 1'
_cell_length_a   7.97425808
_cell_length_b   7.97425778
_cell_length_c   7.97425783
_cell_angle_alpha   60.09172733
_cell_angle_beta   60.09172496
_cell_angle_gamma   60.09172137
_symmetry_Int_Tables_number   1
_chemical_formula_structural   VNi8Mo15C4
_chemical_formula_sum   'V1 Ni8 Mo15 C4'
_cell_volume   359.30026955
_cell_formula_units_Z   1
loop_
 _symmetry_equiv_pos_site_id
 _symmetry_equiv_pos_as_xyz
  1  'x, y, z'
loop_
 _atom_site_type_symbol
 _atom_site_label
 _atom_site_symmetry_multiplicity
 _atom_site_fract_x
 _atom_site_fract_y
 _atom_site_fract_z
 _atom_site_occupancy
  V  V0  1  0.125000  0.125000  0.125000  1
  Ni  Ni1  1  0.920745  0.920745  0.246965  1
  Ni  Ni2  1  0.332514  0.332514  0.332514  1
  Ni  Ni3  1  0.246965  0.920745  0.920745  1
  Ni  Ni4  1  0.329255  0.003035  0.329255  1
  Ni  Ni5  1  0.003035  0.329255  0.329255  1
  Ni  Ni6  1  0.329255  0.329255  0.003035  1
  Ni  Ni7  1  0.917486  0.917486  0.917486  1
  Ni  Ni8  1  0.920745  0.246965  0.920745  1
  Mo  Mo9  1  0.689591  0.310539  0.310539  1
  Mo  Mo10  1  0.939461  0.939461  0.560409  1
  Mo  Mo11  1  0.690275  0.690275  0.309741  1
  Mo  Mo12  1  0.690275  0.309741  0.690275  1
  Mo  Mo13  1  0.310539  0.689591  0.310539  1
  Mo  Mo14  1  0.559725  0.940259  0.559725  1
  Mo  Mo15  1  0.560409  0.939461  0.939461  1
  Mo  Mo16  1  0.940259  0.559725  0.559725  1
  Mo  Mo17  1  0.939461  0.560409  0.939461  1
  Mo  Mo18  1  0.310539  0.310539  0.689591  1
  Mo  Mo19  1  0.559725  0.559725  0.940259  1
  Mo  Mo20  1  0.625000  0.125000  0.125000  1
  Mo  Mo21  1  0.125000  0.125000  0.625000  1
  Mo  Mo22  1  0.125000  0.625000  0.125000  1
  Mo  Mo23  1  0.309741  0.690275  0.690275  1
  C  C24  1  0.625000  0.625000  0.625000  1
  C  C25  1  0.625000  0.625000  0.125000  1
  C  C26  1  0.125000  0.625000  0.625000  1
  C  C27  1  0.625000  0.125000  0.625000  1
