# generated using pymatgen
data_Pr4Mg2As5
_symmetry_space_group_name_H-M   'P 1'
_cell_length_a   4.34203600
_cell_length_b   4.34203508
_cell_length_c   17.73409600
_cell_angle_alpha   90.00000000
_cell_angle_beta   90.00000000
_cell_angle_gamma   119.99999174
_symmetry_Int_Tables_number   1
_chemical_formula_structural   Pr4Mg2As5
_chemical_formula_sum   'Pr4 Mg2 As5'
_cell_volume   289.55193471
_cell_formula_units_Z   1
loop_
 _symmetry_equiv_pos_site_id
 _symmetry_equiv_pos_as_xyz
  1  'x, y, z'
loop_
 _atom_site_type_symbol
 _atom_site_label
 _atom_site_symmetry_multiplicity
 _atom_site_fract_x
 _atom_site_fract_y
 _atom_site_fract_z
 _atom_site_occupancy
  Pr  Pr0  1  0.666667  0.333333  0.901448  1
  Pr  Pr1  1  0.333333  0.666667  0.098552  1
  Pr  Pr2  1  0.000000  0.000000  0.707973  1
  Pr  Pr3  1  0.000000  0.000000  0.292027  1
  Mg  Mg4  1  0.666667  0.333333  0.445691  1
  Mg  Mg5  1  0.333333  0.666667  0.554309  1
  As  As6  1  0.666667  0.333333  0.599577  1
  As  As7  1  0.333333  0.666667  0.400423  1
  As  As8  1  0.666667  0.333333  0.198721  1
  As  As9  1  0.333333  0.666667  0.801279  1
  As  As10  1  0.000000  0.000000  0.000000  1
