# generated using pymatgen
data_YbTmPa2(Ni2Sn)2
_symmetry_space_group_name_H-M   'P 1'
_cell_length_a   7.35890476
_cell_length_b   7.35890538
_cell_length_c   3.62046700
_cell_angle_alpha   90.00000000
_cell_angle_beta   90.00000000
_cell_angle_gamma   93.76945253
_symmetry_Int_Tables_number   1
_chemical_formula_structural   YbTmPa2(Ni2Sn)2
_chemical_formula_sum   'Yb1 Tm1 Pa2 Ni4 Sn2'
_cell_volume   195.63675471
_cell_formula_units_Z   1
loop_
 _symmetry_equiv_pos_site_id
 _symmetry_equiv_pos_as_xyz
  1  'x, y, z'
loop_
 _atom_site_type_symbol
 _atom_site_label
 _atom_site_symmetry_multiplicity
 _atom_site_fract_x
 _atom_site_fract_y
 _atom_site_fract_z
 _atom_site_occupancy
  Yb  Yb0  1  0.172076  0.327924  0.500000  1
  Tm  Tm1  1  0.827087  0.672913  0.500000  1
  Pa  Pa2  1  0.675511  0.176686  0.500000  1
  Pa  Pa3  1  0.323314  0.824489  0.500000  1
  Ni  Ni4  1  0.869054  0.368127  0.000000  1
  Ni  Ni5  1  0.131873  0.630946  0.000000  1
  Ni  Ni6  1  0.384775  0.115225  0.000000  1
  Ni  Ni7  1  0.618261  0.881739  0.000000  1
  Sn  Sn8  1  0.498189  0.500140  0.000000  1
  Sn  Sn9  1  0.999860  0.001811  0.000000  1
