# generated using pymatgen
data_SrCd5Au3
_symmetry_space_group_name_H-M   'P 1'
_cell_length_a   4.63754500
_cell_length_b   13.08789400
_cell_length_c   13.98236300
_cell_angle_alpha   90.00000000
_cell_angle_beta   90.00000000
_cell_angle_gamma   90.00000000
_symmetry_Int_Tables_number   1
_chemical_formula_structural   SrCd5Au3
_chemical_formula_sum   'Sr4 Cd20 Au12'
_cell_volume   848.66927331
_cell_formula_units_Z   4
loop_
 _symmetry_equiv_pos_site_id
 _symmetry_equiv_pos_as_xyz
  1  'x, y, z'
loop_
 _atom_site_type_symbol
 _atom_site_label
 _atom_site_symmetry_multiplicity
 _atom_site_fract_x
 _atom_site_fract_y
 _atom_site_fract_z
 _atom_site_occupancy
  Sr  Sr0  1  0.250000  0.894430  0.297814  1
  Sr  Sr1  1  0.750000  0.105570  0.702186  1
  Sr  Sr2  1  0.750000  0.394430  0.202186  1
  Sr  Sr3  1  0.250000  0.605570  0.797814  1
  Cd  Cd4  1  0.250000  0.411654  0.999974  1
  Cd  Cd5  1  0.750000  0.588346  0.000026  1
  Cd  Cd6  1  0.750000  0.911654  0.500026  1
  Cd  Cd7  1  0.250000  0.088346  0.499974  1
  Cd  Cd8  1  0.250000  0.606391  0.324943  1
  Cd  Cd9  1  0.750000  0.393609  0.675057  1
  Cd  Cd10  1  0.750000  0.106391  0.175057  1
  Cd  Cd11  1  0.250000  0.893609  0.824943  1
  Cd  Cd12  1  0.250000  0.009746  0.069263  1
  Cd  Cd13  1  0.750000  0.990254  0.930737  1
  Cd  Cd14  1  0.750000  0.509746  0.430737  1
  Cd  Cd15  1  0.250000  0.490254  0.569263  1
  Cd  Cd16  1  0.250000  0.775862  0.026610  1
  Cd  Cd17  1  0.750000  0.224138  0.973390  1
  Cd  Cd18  1  0.750000  0.275862  0.473390  1
  Cd  Cd19  1  0.250000  0.724138  0.526610  1
  Cd  Cd20  1  0.250000  0.192204  0.304429  1
  Cd  Cd21  1  0.750000  0.807796  0.695571  1
  Cd  Cd22  1  0.750000  0.692204  0.195571  1
  Cd  Cd23  1  0.250000  0.307796  0.804429  1
  Au  Au24  1  0.250000  0.581028  0.124098  1
  Au  Au25  1  0.750000  0.418972  0.875902  1
  Au  Au26  1  0.750000  0.081028  0.375902  1
  Au  Au27  1  0.250000  0.918972  0.624098  1
  Au  Au28  1  0.250000  0.227172  0.105441  1
  Au  Au29  1  0.750000  0.772828  0.894559  1
  Au  Au30  1  0.750000  0.727172  0.394559  1
  Au  Au31  1  0.250000  0.272828  0.605441  1
  Au  Au32  1  0.250000  0.388304  0.383778  1
  Au  Au33  1  0.750000  0.611696  0.616222  1
  Au  Au34  1  0.750000  0.888304  0.116222  1
  Au  Au35  1  0.250000  0.111696  0.883778  1
