# generated using pymatgen
data_Ho3CoTcNi7P6
_symmetry_space_group_name_H-M   'P 1'
_cell_length_a   3.75093700
_cell_length_b   10.53177500
_cell_length_c   12.33103400
_cell_angle_alpha   90.00000000
_cell_angle_beta   90.00000000
_cell_angle_gamma   90.00000000
_symmetry_Int_Tables_number   1
_chemical_formula_structural   Ho3CoTcNi7P6
_chemical_formula_sum   'Ho6 Co2 Tc2 Ni14 P12'
_cell_volume   487.12546953
_cell_formula_units_Z   2
loop_
 _symmetry_equiv_pos_site_id
 _symmetry_equiv_pos_as_xyz
  1  'x, y, z'
loop_
 _atom_site_type_symbol
 _atom_site_label
 _atom_site_symmetry_multiplicity
 _atom_site_fract_x
 _atom_site_fract_y
 _atom_site_fract_z
 _atom_site_occupancy
  Ho  Ho0  1  0.000000  0.500000  0.523775  1
  Ho  Ho1  1  0.500000  0.000000  0.476225  1
  Ho  Ho2  1  0.500000  0.816671  0.208003  1
  Ho  Ho3  1  0.500000  0.183329  0.208003  1
  Ho  Ho4  1  0.000000  0.683329  0.791997  1
  Ho  Ho5  1  0.000000  0.316671  0.791997  1
  Co  Co6  1  0.000000  0.500000  0.983819  1
  Co  Co7  1  0.500000  0.000000  0.016181  1
  Tc  Tc8  1  0.500000  0.500000  0.153870  1
  Tc  Tc9  1  0.000000  0.000000  0.846130  1
  Ni  Ni10  1  0.500000  0.500000  0.701902  1
  Ni  Ni11  1  0.000000  0.000000  0.298098  1
  Ni  Ni12  1  0.500000  0.331644  0.987104  1
  Ni  Ni13  1  0.500000  0.668356  0.987104  1
  Ni  Ni14  1  0.000000  0.168356  0.012896  1
  Ni  Ni15  1  0.000000  0.831644  0.012896  1
  Ni  Ni16  1  0.500000  0.303123  0.428543  1
  Ni  Ni17  1  0.500000  0.696877  0.428543  1
  Ni  Ni18  1  0.000000  0.196877  0.571457  1
  Ni  Ni19  1  0.000000  0.803123  0.571457  1
  Ni  Ni20  1  0.500000  0.879433  0.709626  1
  Ni  Ni21  1  0.500000  0.120567  0.709626  1
  Ni  Ni22  1  0.000000  0.620567  0.290374  1
  Ni  Ni23  1  0.000000  0.379433  0.290374  1
  P  P24  1  0.500000  0.500000  0.878589  1
  P  P25  1  0.000000  0.000000  0.121411  1
  P  P26  1  0.500000  0.500000  0.348008  1
  P  P27  1  0.000000  0.000000  0.651992  1
  P  P28  1  0.500000  0.314212  0.614125  1
  P  P29  1  0.500000  0.685788  0.614125  1
  P  P30  1  0.000000  0.185788  0.385875  1
  P  P31  1  0.000000  0.814212  0.385875  1
  P  P32  1  0.500000  0.849505  0.892372  1
  P  P33  1  0.500000  0.150495  0.892372  1
  P  P34  1  0.000000  0.650495  0.107628  1
  P  P35  1  0.000000  0.349505  0.107628  1
