# generated using pymatgen
data_Ti7Tc5As6
_symmetry_space_group_name_H-M   'P 1'
_cell_length_a   7.59832233
_cell_length_b   7.59177465
_cell_length_c   7.59177479
_cell_angle_alpha   127.30406730
_cell_angle_beta   124.48344329
_cell_angle_gamma   80.06375658
_symmetry_Int_Tables_number   1
_chemical_formula_structural   Ti7Tc5As6
_chemical_formula_sum   'Ti7 Tc5 As6'
_cell_volume   277.24869344
_cell_formula_units_Z   1
loop_
 _symmetry_equiv_pos_site_id
 _symmetry_equiv_pos_as_xyz
  1  'x, y, z'
loop_
 _atom_site_type_symbol
 _atom_site_label
 _atom_site_symmetry_multiplicity
 _atom_site_fract_x
 _atom_site_fract_y
 _atom_site_fract_z
 _atom_site_occupancy
  Ti  Ti0  1  0.462139  0.244143  0.277035  1
  Ti  Ti1  1  0.537861  0.814897  0.782004  1
  Ti  Ti2  1  0.747927  0.651329  0.401973  1
  Ti  Ti3  1  0.252073  0.654047  0.903401  1
  Ti  Ti4  1  0.049383  0.851159  0.292180  1
  Ti  Ti5  1  0.950617  0.242797  0.801776  1
  Ti  Ti6  1  0.500000  0.997677  0.497677  1
  Tc  Tc7  1  0.667760  0.503516  0.915514  1
  Tc  Tc8  1  0.332240  0.247755  0.835758  1
  Tc  Tc9  1  0.906261  0.244493  0.406149  1
  Tc  Tc10  1  0.093739  0.499887  0.338233  1
  Tc  Tc11  1  0.000000  0.991862  0.991862  1
  As  As12  1  0.834213  0.575955  0.745825  1
  As  As13  1  0.165787  0.911610  0.741742  1
  As  As14  1  0.670171  0.914571  0.252955  1
  As  As15  1  0.329829  0.582783  0.244400  1
  As  As16  1  0.278006  0.285065  0.504856  1
  As  As17  1  0.721994  0.226850  0.007060  1
