# generated using pymatgen
data_Ta4BeAl5Au2
_symmetry_space_group_name_H-M   'P 1'
_cell_length_a   5.23033800
_cell_length_b   5.16735437
_cell_length_c   8.09345000
_cell_angle_alpha   90.00000000
_cell_angle_beta   90.00000000
_cell_angle_gamma   120.40402664
_symmetry_Int_Tables_number   1
_chemical_formula_structural   Ta4BeAl5Au2
_chemical_formula_sum   'Ta4 Be1 Al5 Au2'
_cell_volume   188.65997279
_cell_formula_units_Z   1
loop_
 _symmetry_equiv_pos_site_id
 _symmetry_equiv_pos_as_xyz
  1  'x, y, z'
loop_
 _atom_site_type_symbol
 _atom_site_label
 _atom_site_symmetry_multiplicity
 _atom_site_fract_x
 _atom_site_fract_y
 _atom_site_fract_z
 _atom_site_occupancy
  Ta  Ta0  1  0.664768  0.329537  0.072827  1
  Ta  Ta1  1  0.664768  0.329537  0.427172  1
  Ta  Ta2  1  0.334382  0.668763  0.572017  1
  Ta  Ta3  1  0.334382  0.668763  0.927983  1
  Be  Be4  1  0.172480  0.344962  0.250000  1
  Al  Al5  1  0.167833  0.811039  0.250000  1
  Al  Al6  1  0.643206  0.811039  0.250000  1
  Al  Al7  1  0.347337  0.174270  0.750001  1
  Al  Al8  1  0.826934  0.174270  0.750001  1
  Al  Al9  1  0.829387  0.658772  0.750001  1
  Au  Au10  1  0.007260  0.014520  0.007370  1
  Au  Au11  1  0.007260  0.014520  0.492630  1
