# generated using pymatgen
data_Ta4Al4V3Cu
_symmetry_space_group_name_H-M   'P 1'
_cell_length_a   4.97289464
_cell_length_b   4.97440772
_cell_length_c   8.44822700
_cell_angle_alpha   90.00000000
_cell_angle_beta   90.00000000
_cell_angle_gamma   61.34620285
_symmetry_Int_Tables_number   1
_chemical_formula_structural   Ta4Al4V3Cu
_chemical_formula_sum   'Ta4 Al4 V3 Cu1'
_cell_volume   183.39172321
_cell_formula_units_Z   1
loop_
 _symmetry_equiv_pos_site_id
 _symmetry_equiv_pos_as_xyz
  1  'x, y, z'
loop_
 _atom_site_type_symbol
 _atom_site_label
 _atom_site_symmetry_multiplicity
 _atom_site_fract_x
 _atom_site_fract_y
 _atom_site_fract_z
 _atom_site_occupancy
  Ta  Ta0  1  0.334688  0.334614  0.556930  1
  Ta  Ta1  1  0.663451  0.663487  0.437751  1
  Ta  Ta2  1  0.663451  0.663487  0.062249  1
  Ta  Ta3  1  0.334688  0.334614  0.943070  1
  Al  Al4  1  0.993885  0.993940  0.500692  1
  Al  Al5  1  0.993885  0.993940  0.999308  1
  Al  Al6  1  0.835256  0.350609  0.750000  1
  Al  Al7  1  0.350684  0.835235  0.750000  1
  V  V8  1  0.171005  0.650915  0.250000  1
  V  V9  1  0.650945  0.171008  0.250000  1
  V  V10  1  0.171088  0.171163  0.250000  1
  Cu  Cu11  1  0.836975  0.836989  0.750000  1
