# generated using pymatgen
data_Y3Zn3(Ni5B)2
_symmetry_space_group_name_H-M   'P 1'
_cell_length_a   5.13418598
_cell_length_b   5.13418687
_cell_length_c   10.80478100
_cell_angle_alpha   90.03542076
_cell_angle_beta   89.96456807
_cell_angle_gamma   120.00664991
_symmetry_Int_Tables_number   1
_chemical_formula_structural   Y3Zn3(Ni5B)2
_chemical_formula_sum   'Y3 Zn3 Ni10 B2'
_cell_volume   246.63837622
_cell_formula_units_Z   1
loop_
 _symmetry_equiv_pos_site_id
 _symmetry_equiv_pos_as_xyz
  1  'x, y, z'
loop_
 _atom_site_type_symbol
 _atom_site_label
 _atom_site_symmetry_multiplicity
 _atom_site_fract_x
 _atom_site_fract_y
 _atom_site_fract_z
 _atom_site_occupancy
  Y  Y0  1  0.000016  0.999984  0.999294  1
  Y  Y1  1  0.999987  0.000013  0.659313  1
  Y  Y2  1  0.999942  0.000058  0.329647  1
  Zn  Zn3  1  0.666575  0.333425  0.685363  1
  Zn  Zn4  1  0.333413  0.666587  0.685076  1
  Zn  Zn5  1  0.333363  0.666637  0.316531  1
  Ni  Ni6  1  0.501820  0.498180  0.499804  1
  Ni  Ni7  1  0.501821  0.003622  0.499806  1
  Ni  Ni8  1  0.996378  0.498179  0.499806  1
  Ni  Ni9  1  0.666596  0.333404  0.318355  1
  Ni  Ni10  1  0.499760  0.500240  0.873106  1
  Ni  Ni11  1  0.499797  0.999317  0.873006  1
  Ni  Ni12  1  0.000683  0.500203  0.873006  1
  Ni  Ni13  1  0.501540  0.498460  0.128914  1
  Ni  Ni14  1  0.501524  0.003238  0.129015  1
  Ni  Ni15  1  0.996762  0.498476  0.129015  1
  B  B16  1  0.666765  0.333235  0.000561  1
  B  B17  1  0.333258  0.666742  0.000383  1
