# generated using pymatgen
data_Hf6Si3As(PRu3)2
_symmetry_space_group_name_H-M   'P 1'
_cell_length_a   7.56331126
_cell_length_b   7.56355191
_cell_length_c   7.56595014
_cell_angle_alpha   128.25748256
_cell_angle_beta   120.64439990
_cell_angle_gamma   82.62659051
_symmetry_Int_Tables_number   1
_chemical_formula_structural   Hf6Si3As(PRu3)2
_chemical_formula_sum   'Hf6 Si3 As1 P2 Ru6'
_cell_volume   280.93957211
_cell_formula_units_Z   1
loop_
 _symmetry_equiv_pos_site_id
 _symmetry_equiv_pos_as_xyz
  1  'x, y, z'
loop_
 _atom_site_type_symbol
 _atom_site_label
 _atom_site_symmetry_multiplicity
 _atom_site_fract_x
 _atom_site_fract_y
 _atom_site_fract_z
 _atom_site_occupancy
  Hf  Hf0  1  0.465325  0.700396  0.726987  1
  Hf  Hf1  1  0.524711  0.250141  0.218659  1
  Hf  Hf2  1  0.748485  0.832655  0.576980  1
  Hf  Hf3  1  0.258526  0.839012  0.089391  1
  Hf  Hf4  1  0.050814  0.248552  0.703734  1
  Hf  Hf5  1  0.951110  0.659869  0.214765  1
  Si  Si6  1  0.272104  0.267169  0.495583  1
  Si  Si7  1  0.729850  0.234036  0.003756  1
  Si  Si8  1  0.328516  0.586099  0.248958  1
  As  As9  1  0.838676  0.586904  0.758649  1
  P  P10  1  0.671211  0.920709  0.256603  1
  P  P11  1  0.161504  0.920261  0.750402  1
  Ru  Ru12  1  0.495298  0.500725  0.992473  1
  Ru  Ru13  1  0.012348  0.502786  0.504643  1
  Ru  Ru14  1  0.098576  0.247764  0.101257  1
  Ru  Ru15  1  0.896261  0.012439  0.158660  1
  Ru  Ru16  1  0.351971  0.006840  0.610276  1
  Ru  Ru17  1  0.644712  0.243244  0.647827  1
