# generated using pymatgen
data_Y4Er(GaSb)2
_symmetry_space_group_name_H-M   'P 1'
_cell_length_a   8.65010114
_cell_length_b   8.65010167
_cell_length_c   7.92947500
_cell_angle_alpha   90.00000000
_cell_angle_beta   90.00000000
_cell_angle_gamma   125.42534696
_symmetry_Int_Tables_number   1
_chemical_formula_structural   Y4Er(GaSb)2
_chemical_formula_sum   'Y8 Er2 Ga4 Sb4'
_cell_volume   483.47712750
_cell_formula_units_Z   2
loop_
 _symmetry_equiv_pos_site_id
 _symmetry_equiv_pos_as_xyz
  1  'x, y, z'
loop_
 _atom_site_type_symbol
 _atom_site_label
 _atom_site_symmetry_multiplicity
 _atom_site_fract_x
 _atom_site_fract_y
 _atom_site_fract_z
 _atom_site_occupancy
  Y  Y0  1  0.039002  0.299480  0.332499  1
  Y  Y1  1  0.960998  0.700520  0.667501  1
  Y  Y2  1  0.460998  0.200520  0.832499  1
  Y  Y3  1  0.799480  0.539002  0.167501  1
  Y  Y4  1  0.539002  0.799480  0.167501  1
  Y  Y5  1  0.200520  0.460998  0.832499  1
  Y  Y6  1  0.700520  0.960998  0.667501  1
  Y  Y7  1  0.299480  0.039002  0.332499  1
  Er  Er8  1  0.000000  0.000000  0.000000  1
  Er  Er9  1  0.500000  0.500000  0.500000  1
  Ga  Ga10  1  0.374139  0.374139  0.125537  1
  Ga  Ga11  1  0.625861  0.625861  0.874463  1
  Ga  Ga12  1  0.125861  0.125861  0.625537  1
  Ga  Ga13  1  0.874139  0.874139  0.374463  1
  Sb  Sb14  1  0.794941  0.205059  0.000000  1
  Sb  Sb15  1  0.205059  0.794941  0.000000  1
  Sb  Sb16  1  0.705059  0.294941  0.500000  1
  Sb  Sb17  1  0.294941  0.705059  0.500000  1
