# generated using pymatgen
data_Pr4Al18CuIr4Pt
_symmetry_space_group_name_H-M   'P 1'
_cell_length_a   7.64434138
_cell_length_b   7.64434071
_cell_length_c   9.60797577
_cell_angle_alpha   90.04248996
_cell_angle_beta   90.04249632
_cell_angle_gamma   119.48033913
_symmetry_Int_Tables_number   1
_chemical_formula_structural   Pr4Al18CuIr4Pt
_chemical_formula_sum   'Pr4 Al18 Cu1 Ir4 Pt1'
_cell_volume   488.75655466
_cell_formula_units_Z   1
loop_
 _symmetry_equiv_pos_site_id
 _symmetry_equiv_pos_as_xyz
  1  'x, y, z'
loop_
 _atom_site_type_symbol
 _atom_site_label
 _atom_site_symmetry_multiplicity
 _atom_site_fract_x
 _atom_site_fract_y
 _atom_site_fract_z
 _atom_site_occupancy
  Pr  Pr0  1  0.994768  0.671492  0.249010  1
  Pr  Pr1  1  0.005232  0.328508  0.750990  1
  Pr  Pr2  1  0.671492  0.994768  0.249010  1
  Pr  Pr3  1  0.328508  0.005232  0.750990  1
  Al  Al4  1  0.133652  0.133652  0.249821  1
  Al  Al5  1  0.866348  0.866348  0.750179  1
  Al  Al6  1  0.003036  0.339091  0.074059  1
  Al  Al7  1  0.996964  0.660909  0.925941  1
  Al  Al8  1  0.998306  0.661901  0.571963  1
  Al  Al9  1  0.338099  0.001694  0.428037  1
  Al  Al10  1  0.001694  0.338099  0.428037  1
  Al  Al11  1  0.661901  0.998306  0.571963  1
  Al  Al12  1  0.660909  0.996964  0.925941  1
  Al  Al13  1  0.339091  0.003036  0.074059  1
  Al  Al14  1  0.337113  0.337113  0.549027  1
  Al  Al15  1  0.662887  0.662887  0.450973  1
  Al  Al16  1  0.661346  0.661346  0.051399  1
  Al  Al17  1  0.338654  0.338654  0.948601  1
  Al  Al18  1  0.338825  0.546583  0.250248  1
  Al  Al19  1  0.661175  0.453417  0.749752  1
  Al  Al20  1  0.546583  0.338825  0.250248  1
  Al  Al21  1  0.453417  0.661175  0.749752  1
  Cu  Cu22  1  0.000000  0.000000  0.000000  1
  Ir  Ir23  1  0.670853  0.329147  0.000000  1
  Ir  Ir24  1  0.329147  0.670853  0.000000  1
  Ir  Ir25  1  0.329418  0.670582  0.500000  1
  Ir  Ir26  1  0.670582  0.329418  0.500000  1
  Pt  Pt27  1  0.000000  0.000000  0.500000  1
