# generated using pymatgen
data_LiGd3Sn3Rh2
_symmetry_space_group_name_H-M   'P 1'
_cell_length_a   7.54349300
_cell_length_b   7.54349226
_cell_length_c   3.74269000
_cell_angle_alpha   90.00000000
_cell_angle_beta   90.00000000
_cell_angle_gamma   119.99999888
_symmetry_Int_Tables_number   1
_chemical_formula_structural   LiGd3Sn3Rh2
_chemical_formula_sum   'Li1 Gd3 Sn3 Rh2'
_cell_volume   184.44183480
_cell_formula_units_Z   1
loop_
 _symmetry_equiv_pos_site_id
 _symmetry_equiv_pos_as_xyz
  1  'x, y, z'
loop_
 _atom_site_type_symbol
 _atom_site_label
 _atom_site_symmetry_multiplicity
 _atom_site_fract_x
 _atom_site_fract_y
 _atom_site_fract_z
 _atom_site_occupancy
  Li  Li0  1  0.333333  0.666667  0.000000  1
  Gd  Gd1  1  0.408809  0.018442  0.500000  1
  Gd  Gd2  1  0.981558  0.390367  0.500000  1
  Gd  Gd3  1  0.609633  0.591191  0.500000  1
  Sn  Sn4  1  0.730738  0.988182  0.000000  1
  Sn  Sn5  1  0.011818  0.742556  0.000000  1
  Sn  Sn6  1  0.257444  0.269262  0.000000  1
  Rh  Rh7  1  0.666667  0.333333  0.000000  1
  Rh  Rh8  1  0.000000  0.000000  0.500000  1
