# generated using pymatgen
data_Nd6Cd19Ag4Se
_symmetry_space_group_name_H-M   'P 1'
_cell_length_a   10.02349988
_cell_length_b   10.02349912
_cell_length_c   10.00904500
_cell_angle_alpha   60.04768701
_cell_angle_beta   60.04768951
_cell_angle_gamma   59.90461364
_symmetry_Int_Tables_number   1
_chemical_formula_structural   Nd6Cd19Ag4Se
_chemical_formula_sum   'Nd6 Cd19 Ag4 Se1'
_cell_volume   711.07359912
_cell_formula_units_Z   1
loop_
 _symmetry_equiv_pos_site_id
 _symmetry_equiv_pos_as_xyz
  1  'x, y, z'
loop_
 _atom_site_type_symbol
 _atom_site_label
 _atom_site_symmetry_multiplicity
 _atom_site_fract_x
 _atom_site_fract_y
 _atom_site_fract_z
 _atom_site_occupancy
  Nd  Nd0  1  0.789457  0.790216  0.209788  1
  Nd  Nd1  1  0.211191  0.789294  0.210710  1
  Nd  Nd2  1  0.789067  0.210933  0.210936  1
  Nd  Nd3  1  0.210543  0.209784  0.790212  1
  Nd  Nd4  1  0.788809  0.210706  0.789290  1
  Nd  Nd5  1  0.210933  0.789067  0.789064  1
  Cd  Cd6  1  0.831504  0.832171  0.499419  1
  Cd  Cd7  1  0.836895  0.499432  0.832171  1
  Cd  Cd8  1  0.498583  0.837421  0.832345  1
  Cd  Cd9  1  0.831637  0.832351  0.837428  1
  Cd  Cd10  1  0.168496  0.167829  0.500581  1
  Cd  Cd11  1  0.163105  0.500568  0.167829  1
  Cd  Cd12  1  0.501417  0.162579  0.167655  1
  Cd  Cd13  1  0.168363  0.167649  0.162572  1
  Cd  Cd14  1  0.624940  0.625184  0.132006  1
  Cd  Cd15  1  0.617860  0.132000  0.625184  1
  Cd  Cd16  1  0.132959  0.617834  0.624710  1
  Cd  Cd17  1  0.624488  0.624707  0.617845  1
  Cd  Cd18  1  0.375060  0.374816  0.867994  1
  Cd  Cd19  1  0.382140  0.868000  0.374816  1
  Cd  Cd20  1  0.867041  0.382166  0.375290  1
  Cd  Cd21  1  0.375512  0.375293  0.382155  1
  Cd  Cd22  1  0.000000  0.000000  0.500000  1
  Cd  Cd23  1  0.500000  0.500000  0.000000  1
  Cd  Cd24  1  0.500000  0.500000  0.500000  1
  Ag  Ag25  1  0.500000  0.000000  0.500000  1
  Ag  Ag26  1  0.000000  0.500000  0.500000  1
  Ag  Ag27  1  0.000000  0.500000  0.000000  1
  Ag  Ag28  1  0.500000  0.000000  0.000000  1
  Se  Se29  1  0.000000  0.000000  0.000000  1
