# generated using pymatgen
data_Sc12InCo4Ru
_symmetry_space_group_name_H-M   'P 1'
_cell_length_a   7.72052867
_cell_length_b   7.72029131
_cell_length_c   7.72052742
_cell_angle_alpha   111.15714532
_cell_angle_beta   111.49286067
_cell_angle_gamma   105.82541863
_symmetry_Int_Tables_number   1
_chemical_formula_structural   Sc12InCo4Ru
_chemical_formula_sum   'Sc12 In1 Co4 Ru1'
_cell_volume   353.17112226
_cell_formula_units_Z   1
loop_
 _symmetry_equiv_pos_site_id
 _symmetry_equiv_pos_as_xyz
  1  'x, y, z'
loop_
 _atom_site_type_symbol
 _atom_site_label
 _atom_site_symmetry_multiplicity
 _atom_site_fract_x
 _atom_site_fract_y
 _atom_site_fract_z
 _atom_site_occupancy
  Sc  Sc0  1  0.424140  0.226067  0.198087  1
  Sc  Sc1  1  0.575860  0.773933  0.801913  1
  Sc  Sc2  1  0.027979  0.226067  0.801927  1
  Sc  Sc3  1  0.972021  0.773933  0.198073  1
  Sc  Sc4  1  0.312157  0.613213  0.301057  1
  Sc  Sc5  1  0.687843  0.386787  0.698943  1
  Sc  Sc6  1  0.312135  0.011090  0.698955  1
  Sc  Sc7  1  0.687865  0.988910  0.301045  1
  Sc  Sc8  1  0.184522  0.274600  0.459095  1
  Sc  Sc9  1  0.815478  0.725399  0.540905  1
  Sc  Sc10  1  0.184494  0.725399  0.909922  1
  Sc  Sc11  1  0.815506  0.274600  0.090078  1
  In  In12  1  0.500000  0.500000  0.000000  1
  Co  Co13  1  0.368637  0.000000  0.368637  1
  Co  Co14  1  0.631363  0.000000  0.631363  1
  Co  Co15  1  0.117566  0.617564  0.499998  1
  Co  Co16  1  0.882434  0.382436  0.500002  1
  Ru  Ru17  1  0.000000  0.000000  0.000000  1
