# generated using pymatgen
data_Ta3AlB4(Ru5W)2
_symmetry_space_group_name_H-M   'P 1'
_cell_length_a   2.95971900
_cell_length_b   9.41590703
_cell_length_c   9.39863003
_cell_angle_alpha   89.99088244
_cell_angle_beta   90.00000000
_cell_angle_gamma   90.00000000
_symmetry_Int_Tables_number   1
_chemical_formula_structural   Ta3AlB4(Ru5W)2
_chemical_formula_sum   'Ta3 Al1 B4 Ru10 W2'
_cell_volume   261.92514377
_cell_formula_units_Z   1
loop_
 _symmetry_equiv_pos_site_id
 _symmetry_equiv_pos_as_xyz
  1  'x, y, z'
loop_
 _atom_site_type_symbol
 _atom_site_label
 _atom_site_symmetry_multiplicity
 _atom_site_fract_x
 _atom_site_fract_y
 _atom_site_fract_z
 _atom_site_occupancy
  Ta  Ta0  1  0.000000  0.325610  0.181025  1
  Ta  Ta1  1  0.000000  0.819569  0.324596  1
  Ta  Ta2  1  0.000000  0.181938  0.674417  1
  Al  Al3  1  0.000000  0.499205  0.498801  1
  B  B4  1  0.000000  0.870860  0.614908  1
  B  B5  1  0.000000  0.129466  0.384398  1
  B  B6  1  0.000000  0.615412  0.130534  1
  B  B7  1  0.000000  0.383145  0.870548  1
  Ru  Ru8  1  0.500000  0.712762  0.574068  1
  Ru  Ru9  1  0.500000  0.284929  0.431988  1
  Ru  Ru10  1  0.500000  0.779559  0.067223  1
  Ru  Ru11  1  0.500000  0.219934  0.927935  1
  Ru  Ru12  1  0.500000  0.569453  0.285143  1
  Ru  Ru13  1  0.500000  0.435842  0.715545  1
  Ru  Ru14  1  0.500000  0.070293  0.219745  1
  Ru  Ru15  1  0.500000  0.924080  0.782304  1
  Ru  Ru16  1  0.500000  0.999095  0.500861  1
  Ru  Ru17  1  0.500000  0.503061  0.996933  1
  W  W18  1  0.000000  0.674767  0.818707  1
  W  W19  1  0.000000  0.001018  0.000323  1
