# generated using pymatgen
data_Yb11Pr(CuSi)12
_symmetry_space_group_name_H-M   'P 1'
_cell_length_a   4.28006600
_cell_length_b   7.26581008
_cell_length_c   20.92557167
_cell_angle_alpha   89.90757072
_cell_angle_beta   90.00000000
_cell_angle_gamma   90.00000000
_symmetry_Int_Tables_number   1
_chemical_formula_structural   Yb11Pr(CuSi)12
_chemical_formula_sum   'Yb11 Pr1 Cu12 Si12'
_cell_volume   650.74565069
_cell_formula_units_Z   1
loop_
 _symmetry_equiv_pos_site_id
 _symmetry_equiv_pos_as_xyz
  1  'x, y, z'
loop_
 _atom_site_type_symbol
 _atom_site_label
 _atom_site_symmetry_multiplicity
 _atom_site_fract_x
 _atom_site_fract_y
 _atom_site_fract_z
 _atom_site_occupancy
  Yb  Yb0  1  0.250000  0.712067  0.004936  1
  Yb  Yb1  1  0.750000  0.288956  0.999184  1
  Yb  Yb2  1  0.750000  0.210288  0.496758  1
  Yb  Yb3  1  0.250000  0.790438  0.502031  1
  Yb  Yb4  1  0.250000  0.797534  0.166940  1
  Yb  Yb5  1  0.750000  0.208402  0.833250  1
  Yb  Yb6  1  0.750000  0.297869  0.333550  1
  Yb  Yb7  1  0.250000  0.702823  0.664205  1
  Yb  Yb8  1  0.250000  0.702630  0.333057  1
  Yb  Yb9  1  0.750000  0.295215  0.664900  1
  Yb  Yb10  1  0.750000  0.202832  0.167482  1
  Pr  Pr11  1  0.250000  0.798899  0.833102  1
  Cu  Cu12  1  0.250000  0.414425  0.097313  1
  Cu  Cu13  1  0.750000  0.579760  0.907012  1
  Cu  Cu14  1  0.750000  0.913810  0.403476  1
  Cu  Cu15  1  0.250000  0.086762  0.595556  1
  Cu  Cu16  1  0.250000  0.412134  0.236814  1
  Cu  Cu17  1  0.750000  0.581198  0.760314  1
  Cu  Cu18  1  0.750000  0.913545  0.264139  1
  Cu  Cu19  1  0.250000  0.091327  0.733239  1
  Cu  Cu20  1  0.250000  0.417942  0.436789  1
  Cu  Cu21  1  0.750000  0.582693  0.562354  1
  Cu  Cu22  1  0.750000  0.918387  0.064438  1
  Cu  Cu23  1  0.250000  0.084773  0.942445  1
  Si  Si24  1  0.250000  0.090358  0.067460  1
  Si  Si25  1  0.750000  0.910012  0.931631  1
  Si  Si26  1  0.750000  0.589086  0.433653  1
  Si  Si27  1  0.250000  0.410835  0.565748  1
  Si  Si28  1  0.250000  0.081336  0.273284  1
  Si  Si29  1  0.750000  0.918108  0.725953  1
  Si  Si30  1  0.750000  0.580787  0.226904  1
  Si  Si31  1  0.250000  0.416750  0.771805  1
  Si  Si32  1  0.250000  0.083009  0.394474  1
  Si  Si33  1  0.750000  0.916824  0.604200  1
  Si  Si34  1  0.750000  0.584444  0.105895  1
  Si  Si35  1  0.250000  0.413740  0.895706  1
