# generated using pymatgen
data_LiLa2Ni4C3
_symmetry_space_group_name_H-M   'P 1'
_cell_length_a   8.31968700
_cell_length_b   8.31968700
_cell_length_c   4.13054600
_cell_angle_alpha   90.00000000
_cell_angle_beta   90.00000000
_cell_angle_gamma   90.00000000
_symmetry_Int_Tables_number   1
_chemical_formula_structural   LiLa2Ni4C3
_chemical_formula_sum   'Li2 La4 Ni8 C6'
_cell_volume   285.90479463
_cell_formula_units_Z   2
loop_
 _symmetry_equiv_pos_site_id
 _symmetry_equiv_pos_as_xyz
  1  'x, y, z'
loop_
 _atom_site_type_symbol
 _atom_site_label
 _atom_site_symmetry_multiplicity
 _atom_site_fract_x
 _atom_site_fract_y
 _atom_site_fract_z
 _atom_site_occupancy
  Li  Li0  1  0.500000  0.500000  0.000000  1
  Li  Li1  1  0.000000  0.000000  0.000000  1
  La  La2  1  0.343503  0.156497  0.000000  1
  La  La3  1  0.656497  0.843503  0.000000  1
  La  La4  1  0.156497  0.656497  0.000000  1
  La  La5  1  0.843503  0.343503  0.000000  1
  Ni  Ni6  1  0.924042  0.788556  0.500000  1
  Ni  Ni7  1  0.711444  0.575958  0.500000  1
  Ni  Ni8  1  0.424042  0.711444  0.500000  1
  Ni  Ni9  1  0.288556  0.424042  0.500000  1
  Ni  Ni10  1  0.575958  0.288556  0.500000  1
  Ni  Ni11  1  0.788556  0.075958  0.500000  1
  Ni  Ni12  1  0.075958  0.211444  0.500000  1
  Ni  Ni13  1  0.211444  0.924042  0.500000  1
  C  C14  1  0.441786  0.941786  0.500000  1
  C  C15  1  0.058214  0.441786  0.500000  1
  C  C16  1  0.941786  0.558214  0.500000  1
  C  C17  1  0.500000  0.500000  0.500000  1
  C  C18  1  0.558214  0.058214  0.500000  1
  C  C19  1  0.000000  0.000000  0.500000  1
