# generated using pymatgen
data_HoTm5Si24OsRu7
_symmetry_space_group_name_H-M   'P 1'
_cell_length_a   10.09573479
_cell_length_b   10.09557774
_cell_length_c   8.10358055
_cell_angle_alpha   89.95630578
_cell_angle_beta   90.03388201
_cell_angle_gamma   132.65421550
_symmetry_Int_Tables_number   1
_chemical_formula_structural   HoTm5Si24OsRu7
_chemical_formula_sum   'Ho1 Tm5 Si24 Os1 Ru7'
_cell_volume   607.43916717
_cell_formula_units_Z   1
loop_
 _symmetry_equiv_pos_site_id
 _symmetry_equiv_pos_as_xyz
  1  'x, y, z'
loop_
 _atom_site_type_symbol
 _atom_site_label
 _atom_site_symmetry_multiplicity
 _atom_site_fract_x
 _atom_site_fract_y
 _atom_site_fract_z
 _atom_site_occupancy
  Ho  Ho0  1  0.002444  0.502243  0.750491  1
  Tm  Tm1  1  0.500097  0.499852  0.499921  1
  Tm  Tm2  1  0.000044  0.999987  0.000071  1
  Tm  Tm3  1  0.502306  0.002446  0.750250  1
  Tm  Tm4  1  0.997749  0.497877  0.249703  1
  Tm  Tm5  1  0.498199  0.997994  0.249574  1
  Si  Si6  1  0.796125  0.204488  0.499831  1
  Si  Si7  1  0.294890  0.705040  0.000192  1
  Si  Si8  1  0.204838  0.795080  0.499684  1
  Si  Si9  1  0.705323  0.295037  0.000180  1
  Si  Si10  1  0.331786  0.332505  0.833219  1
  Si  Si11  1  0.667566  0.667869  0.166660  1
  Si  Si12  1  0.167277  0.166976  0.332545  1
  Si  Si13  1  0.832955  0.832250  0.667698  1
  Si  Si14  1  0.121782  0.887735  0.729375  1
  Si  Si15  1  0.111653  0.877785  0.271265  1
  Si  Si16  1  0.613634  0.379867  0.226806  1
  Si  Si17  1  0.620864  0.386637  0.772730  1
  Si  Si18  1  0.878346  0.111723  0.270803  1
  Si  Si19  1  0.888591  0.122545  0.729647  1
  Si  Si20  1  0.386969  0.621625  0.771333  1
  Si  Si21  1  0.377914  0.612389  0.227871  1
  Si  Si22  1  0.343371  0.110654  0.504915  1
  Si  Si23  1  0.888499  0.654667  0.494470  1
  Si  Si24  1  0.388309  0.155198  0.003439  1
  Si  Si25  1  0.846408  0.612582  0.996584  1
  Si  Si26  1  0.654762  0.887857  0.494179  1
  Si  Si27  1  0.113050  0.346976  0.505786  1
  Si  Si28  1  0.611557  0.844660  0.995857  1
  Si  Si29  1  0.153505  0.387651  0.004751  1
  Os  Os30  1  0.667986  0.328433  0.499343  1
  Ru  Ru31  1  0.171254  0.832111  0.000767  1
  Ru  Ru32  1  0.331746  0.671381  0.498990  1
  Ru  Ru33  1  0.828516  0.167744  0.000756  1
  Ru  Ru34  1  0.127251  0.127788  0.627589  1
  Ru  Ru35  1  0.872164  0.872194  0.373043  1
  Ru  Ru36  1  0.373858  0.374041  0.127758  1
  Ru  Ru37  1  0.626413  0.626114  0.871922  1
