# generated using pymatgen
data_LiZr2(PPd)3
_symmetry_space_group_name_H-M   'P 1'
_cell_length_a   6.54718100
_cell_length_b   6.67065005
_cell_length_c   3.74507100
_cell_angle_alpha   90.00000000
_cell_angle_beta   90.00000000
_cell_angle_gamma   119.38957818
_symmetry_Int_Tables_number   1
_chemical_formula_structural   LiZr2(PPd)3
_chemical_formula_sum   'Li1 Zr2 P3 Pd3'
_cell_volume   142.51212463
_cell_formula_units_Z   1
loop_
 _symmetry_equiv_pos_site_id
 _symmetry_equiv_pos_as_xyz
  1  'x, y, z'
loop_
 _atom_site_type_symbol
 _atom_site_label
 _atom_site_symmetry_multiplicity
 _atom_site_fract_x
 _atom_site_fract_y
 _atom_site_fract_z
 _atom_site_occupancy
  Li  Li0  1  0.597982  0.000000  0.500000  1
  Zr  Zr1  1  0.998333  0.594314  0.500000  1
  Zr  Zr2  1  0.404019  0.405686  0.500000  1
  P  P3  1  0.667138  0.343852  0.000000  1
  P  P4  1  0.323285  0.656148  0.000000  1
  P  P5  1  0.007498  0.000000  0.500000  1
  Pd  Pd6  1  0.278321  0.000000  0.000000  1
  Pd  Pd7  1  0.739619  0.755813  0.000000  1
  Pd  Pd8  1  0.983806  0.244187  0.000000  1
