# generated using pymatgen
data_TbHo9(In2Bi)2
_symmetry_space_group_name_H-M   'P 1'
_cell_length_a   9.02475031
_cell_length_b   9.02237433
_cell_length_c   6.60729700
_cell_angle_alpha   90.00000000
_cell_angle_beta   90.00000000
_cell_angle_gamma   120.02585787
_symmetry_Int_Tables_number   1
_chemical_formula_structural   TbHo9(In2Bi)2
_chemical_formula_sum   'Tb1 Ho9 In4 Bi2'
_cell_volume   465.79763390
_cell_formula_units_Z   1
loop_
 _symmetry_equiv_pos_site_id
 _symmetry_equiv_pos_as_xyz
  1  'x, y, z'
loop_
 _atom_site_type_symbol
 _atom_site_label
 _atom_site_symmetry_multiplicity
 _atom_site_fract_x
 _atom_site_fract_y
 _atom_site_fract_z
 _atom_site_occupancy
  Tb  Tb0  1  0.768742  0.760562  0.750000  1
  Ho  Ho1  1  0.670792  0.337868  0.006542  1
  Ho  Ho2  1  0.329058  0.667038  0.006426  1
  Ho  Ho3  1  0.329058  0.667038  0.493574  1
  Ho  Ho4  1  0.670792  0.337868  0.493458  1
  Ho  Ho5  1  0.231275  0.991752  0.750000  1
  Ho  Ho6  1  0.000079  0.242859  0.750000  1
  Ho  Ho7  1  0.237585  0.237990  0.250000  1
  Ho  Ho8  1  0.762315  0.000511  0.250000  1
  Ho  Ho9  1  0.000085  0.760420  0.250000  1
  In  In10  1  0.000390  0.598732  0.750000  1
  In  In11  1  0.604760  0.606590  0.250000  1
  In  In12  1  0.395387  0.001933  0.250000  1
  In  In13  1  0.000055  0.395317  0.250000  1
  Bi  Bi14  1  0.394633  0.393917  0.750000  1
  Bi  Bi15  1  0.604995  0.999606  0.750000  1
