# generated using pymatgen
data_Tm2(TeO3)3
_symmetry_space_group_name_H-M   'P 1'
_cell_length_a   6.98549250
_cell_length_b   13.35914448
_cell_length_c   14.70222200
_cell_angle_alpha   110.21633607
_cell_angle_beta   90.63314198
_cell_angle_gamma   100.11943165
_symmetry_Int_Tables_number   1
_chemical_formula_structural   Tm2(TeO3)3
_chemical_formula_sum   'Tm12 Te18 O54'
_cell_volume   1263.63165332
_cell_formula_units_Z   6
loop_
 _symmetry_equiv_pos_site_id
 _symmetry_equiv_pos_as_xyz
  1  'x, y, z'
loop_
 _atom_site_type_symbol
 _atom_site_label
 _atom_site_symmetry_multiplicity
 _atom_site_fract_x
 _atom_site_fract_y
 _atom_site_fract_z
 _atom_site_occupancy
  Tm  Tm0  1  0.754705  0.540197  0.465520  1
  Tm  Tm1  1  0.245295  0.459803  0.534480  1
  Tm  Tm2  1  0.250374  0.941289  0.527407  1
  Tm  Tm3  1  0.749626  0.058711  0.472593  1
  Tm  Tm4  1  0.164609  0.729258  0.661972  1
  Tm  Tm5  1  0.835391  0.270742  0.338028  1
  Tm  Tm6  1  0.819693  0.775995  0.331336  1
  Tm  Tm7  1  0.180307  0.224005  0.668664  1
  Tm  Tm8  1  0.923124  0.663874  0.074242  1
  Tm  Tm9  1  0.076876  0.336126  0.925758  1
  Tm  Tm10  1  0.512765  0.761176  0.969569  1
  Tm  Tm11  1  0.487235  0.238824  0.030431  1
  Te  Te12  1  0.772191  0.826542  0.570539  1
  Te  Te13  1  0.227809  0.173458  0.429461  1
  Te  Te14  1  0.646793  0.152288  0.706128  1
  Te  Te15  1  0.353207  0.847712  0.293872  1
  Te  Te16  1  0.932814  0.969613  0.228928  1
  Te  Te17  1  0.067186  0.030387  0.771072  1
  Te  Te18  1  0.638011  0.644773  0.725670  1
  Te  Te19  1  0.361989  0.355227  0.274330  1
  Te  Te20  1  0.729569  0.353064  0.579317  1
  Te  Te21  1  0.270431  0.646936  0.420683  1
  Te  Te22  1  0.042845  0.810885  0.931500  1
  Te  Te23  1  0.957155  0.189115  0.068500  1
  Te  Te24  1  0.511236  0.964252  0.858318  1
  Te  Te25  1  0.488764  0.035748  0.141682  1
  Te  Te26  1  0.136474  0.525151  0.807661  1
  Te  Te27  1  0.863526  0.474849  0.192339  1
  Te  Te28  1  0.623464  0.420074  0.882961  1
  Te  Te29  1  0.376536  0.579926  0.117039  1
  O  O30  1  0.850065  0.912253  0.489946  1
  O  O31  1  0.149935  0.087747  0.510054  1
  O  O32  1  0.044114  0.849493  0.614674  1
  O  O33  1  0.955886  0.150507  0.385326  1
  O  O34  1  0.795316  0.703744  0.450184  1
  O  O35  1  0.204684  0.296256  0.549816  1
  O  O36  1  0.544979  0.037018  0.586776  1
  O  O37  1  0.455021  0.962982  0.413224  1
  O  O38  1  0.503757  0.256129  0.684531  1
  O  O39  1  0.496243  0.743871  0.315469  1
  O  O40  1  0.858320  0.185901  0.631700  1
  O  O41  1  0.141680  0.814099  0.368300  1
  O  O42  1  0.776421  0.938904  0.324077  1
  O  O43  1  0.223579  0.061096  0.675923  1
  O  O44  1  0.811787  0.995380  0.705669  1
  O  O45  1  0.188213  0.004620  0.294331  1
  O  O46  1  0.937133  0.817433  0.187149  1
  O  O47  1  0.062867  0.182567  0.812851  1
  O  O48  1  0.656389  0.787012  0.821254  1
  O  O49  1  0.343611  0.212988  0.178746  1
  O  O50  1  0.413817  0.640703  0.649267  1
  O  O51  1  0.586183  0.359297  0.350733  1
  O  O52  1  0.813815  0.669654  0.628855  1
  O  O53  1  0.186185  0.330346  0.371145  1
  O  O54  1  0.361995  0.779939  0.523706  1
  O  O55  1  0.638005  0.220061  0.476294  1
  O  O56  1  0.562866  0.447553  0.561828  1
  O  O57  1  0.437134  0.552447  0.438172  1
  O  O58  1  0.100855  0.598346  0.509528  1
  O  O59  1  0.899145  0.401654  0.490472  1
  O  O60  1  0.063283  0.718288  0.803187  1
  O  O61  1  0.936717  0.281712  0.196813  1
  O  O62  1  0.816685  0.255365  0.999047  1
  O  O63  1  0.183315  0.744635  0.000953  1
  O  O64  1  0.815413  0.721407  0.959244  1
  O  O65  1  0.184587  0.278593  0.040756  1
  O  O66  1  0.346448  0.888711  0.744685  1
  O  O67  1  0.653552  0.111289  0.255315  1
  O  O68  1  0.614646  0.912134  0.102795  1
  O  O69  1  0.385354  0.087866  0.897205  1
  O  O70  1  0.375283  0.891344  0.938402  1
  O  O71  1  0.624717  0.108656  0.061598  1
  O  O72  1  0.099585  0.503589  0.674274  1
  O  O73  1  0.900415  0.496411  0.325726  1
  O  O74  1  0.394307  0.607008  0.841141  1
  O  O75  1  0.605693  0.392992  0.158859  1
  O  O76  1  0.800716  0.614604  0.208933  1
  O  O77  1  0.199284  0.385396  0.791067  1
  O  O78  1  0.554577  0.671458  0.070724  1
  O  O79  1  0.445423  0.328542  0.929276  1
  O  O80  1  0.809263  0.331320  0.832603  1
  O  O81  1  0.190737  0.668680  0.167397  1
  O  O82  1  0.788349  0.492602  0.999563  1
  O  O83  1  0.211651  0.507398  0.000437  1
