# generated using pymatgen
data_Tb13Ho3In4(PtRh)2
_symmetry_space_group_name_H-M   'P 1'
_cell_length_a   9.72830298
_cell_length_b   9.72541028
_cell_length_c   9.72302368
_cell_angle_alpha   60.02780972
_cell_angle_beta   60.10460157
_cell_angle_gamma   59.97393087
_symmetry_Int_Tables_number   1
_chemical_formula_structural   Tb13Ho3In4(PtRh)2
_chemical_formula_sum   'Tb13 Ho3 In4 Pt2 Rh2'
_cell_volume   650.99708039
_cell_formula_units_Z   1
loop_
 _symmetry_equiv_pos_site_id
 _symmetry_equiv_pos_as_xyz
  1  'x, y, z'
loop_
 _atom_site_type_symbol
 _atom_site_label
 _atom_site_symmetry_multiplicity
 _atom_site_fract_x
 _atom_site_fract_y
 _atom_site_fract_z
 _atom_site_occupancy
  Tb  Tb0  1  0.648831  0.048072  0.649541  1
  Tb  Tb1  1  0.061396  0.062626  0.437326  1
  Tb  Tb2  1  0.437326  0.438652  0.061396  1
  Tb  Tb3  1  0.649541  0.653557  0.648831  1
  Tb  Tb4  1  0.809781  0.186860  0.192728  1
  Tb  Tb5  1  0.192728  0.810630  0.809781  1
  Tb  Tb6  1  0.053888  0.649981  0.645798  1
  Tb  Tb7  1  0.437356  0.062536  0.061324  1
  Tb  Tb8  1  0.436898  0.063102  0.436898  1
  Tb  Tb9  1  0.060615  0.439385  0.060615  1
  Tb  Tb10  1  0.645798  0.650331  0.053888  1
  Tb  Tb11  1  0.189231  0.810769  0.189231  1
  Tb  Tb12  1  0.061324  0.438783  0.437356  1
  Ho  Ho13  1  0.809518  0.810338  0.192909  1
  Ho  Ho14  1  0.809631  0.190369  0.809631  1
  Ho  Ho15  1  0.192909  0.187234  0.809518  1
  In  In16  1  0.417303  0.416920  0.417480  1
  In  In17  1  0.417987  0.416945  0.747976  1
  In  In18  1  0.417480  0.748297  0.417303  1
  In  In19  1  0.747976  0.417089  0.417987  1
  Pt  Pt20  1  0.859042  0.426978  0.857737  1
  Pt  Pt21  1  0.857737  0.856244  0.859042  1
  Rh  Rh22  1  0.859249  0.856596  0.426452  1
  Rh  Rh23  1  0.426452  0.857703  0.859249  1
