# generated using pymatgen
data_Y5Er3Tc3B24Os
_symmetry_space_group_name_H-M   'P 1'
_cell_length_a   3.66879700
_cell_length_b   9.14636154
_cell_length_c   11.53898900
_cell_angle_alpha   89.95096899
_cell_angle_beta   90.00000000
_cell_angle_gamma   90.00000000
_symmetry_Int_Tables_number   1
_chemical_formula_structural   Y5Er3Tc3B24Os
_chemical_formula_sum   'Y5 Er3 Tc3 B24 Os1'
_cell_volume   387.20383220
_cell_formula_units_Z   1
loop_
 _symmetry_equiv_pos_site_id
 _symmetry_equiv_pos_as_xyz
  1  'x, y, z'
loop_
 _atom_site_type_symbol
 _atom_site_label
 _atom_site_symmetry_multiplicity
 _atom_site_fract_x
 _atom_site_fract_y
 _atom_site_fract_z
 _atom_site_occupancy
  Y  Y0  1  0.000000  0.323487  0.414060  1
  Y  Y1  1  0.000000  0.675639  0.584520  1
  Y  Y2  1  0.000000  0.822553  0.086801  1
  Y  Y3  1  0.000000  0.178583  0.914512  1
  Y  Y4  1  0.000000  0.942746  0.370482  1
  Er  Er5  1  0.000000  0.058351  0.630574  1
  Er  Er6  1  0.000000  0.442912  0.129927  1
  Er  Er7  1  0.000000  0.557063  0.869470  1
  Tc  Tc8  1  0.000000  0.637749  0.319801  1
  Tc  Tc9  1  0.000000  0.361530  0.680938  1
  Tc  Tc10  1  0.000000  0.138507  0.178040  1
  B  B11  1  0.500000  0.552735  0.432624  1
  B  B12  1  0.500000  0.446413  0.567381  1
  B  B13  1  0.500000  0.053466  0.066797  1
  B  B14  1  0.500000  0.945996  0.932517  1
  B  B15  1  0.500000  0.747942  0.418422  1
  B  B16  1  0.500000  0.250786  0.582027  1
  B  B17  1  0.500000  0.250030  0.081434  1
  B  B18  1  0.500000  0.750681  0.917963  1
  B  B19  1  0.500000  0.791117  0.265134  1
  B  B20  1  0.500000  0.208456  0.735177  1
  B  B21  1  0.500000  0.292153  0.234496  1
  B  B22  1  0.500000  0.708862  0.765292  1
  B  B23  1  0.500000  0.630095  0.185136  1
  B  B24  1  0.500000  0.369631  0.815251  1
  B  B25  1  0.500000  0.130951  0.313880  1
  B  B26  1  0.500000  0.869433  0.685768  1
  B  B27  1  0.500000  0.982181  0.211523  1
  B  B28  1  0.500000  0.016930  0.787986  1
  B  B29  1  0.500000  0.481680  0.287547  1
  B  B30  1  0.500000  0.517816  0.712167  1
  B  B31  1  0.500000  0.600259  0.027443  1
  B  B32  1  0.500000  0.400887  0.972059  1
  B  B33  1  0.500000  0.101758  0.472800  1
  B  B34  1  0.500000  0.899115  0.529240  1
  Os  Os35  1  0.000000  0.861508  0.820810  1
