# generated using pymatgen
data_Tb2AlGaPdRu
_symmetry_space_group_name_H-M   'P 1'
_cell_length_a   4.24477100
_cell_length_b   7.02144886
_cell_length_c   7.94546480
_cell_angle_alpha   91.43866314
_cell_angle_beta   90.00000000
_cell_angle_gamma   90.00000000
_symmetry_Int_Tables_number   1
_chemical_formula_structural   Tb2AlGaPdRu
_chemical_formula_sum   'Tb4 Al2 Ga2 Pd2 Ru2'
_cell_volume   236.73550020
_cell_formula_units_Z   2
loop_
 _symmetry_equiv_pos_site_id
 _symmetry_equiv_pos_as_xyz
  1  'x, y, z'
loop_
 _atom_site_type_symbol
 _atom_site_label
 _atom_site_symmetry_multiplicity
 _atom_site_fract_x
 _atom_site_fract_y
 _atom_site_fract_z
 _atom_site_occupancy
  Tb  Tb0  1  0.250000  0.475173  0.182643  1
  Tb  Tb1  1  0.750000  0.524827  0.817357  1
  Tb  Tb2  1  0.250000  0.969838  0.309449  1
  Tb  Tb3  1  0.750000  0.030162  0.690551  1
  Al  Al4  1  0.250000  0.857202  0.937697  1
  Al  Al5  1  0.750000  0.142798  0.062303  1
  Ga  Ga6  1  0.250000  0.341899  0.572750  1
  Ga  Ga7  1  0.750000  0.658101  0.427250  1
  Pd  Pd8  1  0.750000  0.275588  0.387533  1
  Pd  Pd9  1  0.250000  0.724412  0.612467  1
  Ru  Ru10  1  0.750000  0.769969  0.112698  1
  Ru  Ru11  1  0.250000  0.230031  0.887302  1
