# generated using pymatgen
data_CaY6FeBr12
_symmetry_space_group_name_H-M   'P 1'
_cell_length_a   9.20314632
_cell_length_b   9.20314691
_cell_length_c   9.20314755
_cell_angle_alpha   106.96368681
_cell_angle_beta   106.96368909
_cell_angle_gamma   106.96367028
_symmetry_Int_Tables_number   1
_chemical_formula_structural   CaY6FeBr12
_chemical_formula_sum   'Ca1 Y6 Fe1 Br12'
_cell_volume   649.80658068
_cell_formula_units_Z   1
loop_
 _symmetry_equiv_pos_site_id
 _symmetry_equiv_pos_as_xyz
  1  'x, y, z'
loop_
 _atom_site_type_symbol
 _atom_site_label
 _atom_site_symmetry_multiplicity
 _atom_site_fract_x
 _atom_site_fract_y
 _atom_site_fract_z
 _atom_site_occupancy
  Ca  Ca0  1  0.000000  0.000000  0.000000  1
  Y  Y1  1  0.805899  0.525196  0.599507  1
  Y  Y2  1  0.525196  0.599507  0.805899  1
  Y  Y3  1  0.194101  0.474804  0.400493  1
  Y  Y4  1  0.474804  0.400493  0.194101  1
  Y  Y5  1  0.599507  0.805899  0.525196  1
  Y  Y6  1  0.400493  0.194101  0.474804  1
  Fe  Fe7  1  0.500000  0.500000  0.500000  1
  Br  Br8  1  0.722420  0.182218  0.572682  1
  Br  Br9  1  0.955373  0.878246  0.655441  1
  Br  Br10  1  0.572682  0.722420  0.182218  1
  Br  Br11  1  0.121754  0.344559  0.044627  1
  Br  Br12  1  0.655441  0.955373  0.878246  1
  Br  Br13  1  0.878246  0.655441  0.955373  1
  Br  Br14  1  0.044627  0.121754  0.344559  1
  Br  Br15  1  0.817782  0.427318  0.277580  1
  Br  Br16  1  0.344559  0.044627  0.121754  1
  Br  Br17  1  0.277580  0.817782  0.427318  1
  Br  Br18  1  0.182218  0.572682  0.722420  1
  Br  Br19  1  0.427318  0.277580  0.817782  1
