# generated using pymatgen
data_Sm2Fe3NiP7Ru8
_symmetry_space_group_name_H-M   'P 1'
_cell_length_a   9.33073030
_cell_length_b   9.28909348
_cell_length_c   3.84874400
_cell_angle_alpha   90.00000000
_cell_angle_beta   90.00000000
_cell_angle_gamma   119.79285022
_symmetry_Int_Tables_number   1
_chemical_formula_structural   Sm2Fe3NiP7Ru8
_chemical_formula_sum   'Sm2 Fe3 Ni1 P7 Ru8'
_cell_volume   289.49521119
_cell_formula_units_Z   1
loop_
 _symmetry_equiv_pos_site_id
 _symmetry_equiv_pos_as_xyz
  1  'x, y, z'
loop_
 _atom_site_type_symbol
 _atom_site_label
 _atom_site_symmetry_multiplicity
 _atom_site_fract_x
 _atom_site_fract_y
 _atom_site_fract_z
 _atom_site_occupancy
  Sm  Sm0  1  0.332310  0.667178  0.000000  1
  Sm  Sm1  1  0.670107  0.337535  0.500000  1
  Fe  Fe2  1  0.153014  0.883248  0.000000  1
  Fe  Fe3  1  0.111940  0.271051  0.000000  1
  Fe  Fe4  1  0.735821  0.844617  0.000000  1
  Ni  Ni5  1  0.938979  0.577345  0.000000  1
  P  P6  1  0.407833  0.105228  0.000000  1
  P  P7  1  0.893406  0.301506  0.000000  1
  P  P8  1  0.697003  0.591098  0.000000  1
  P  P9  1  0.119271  0.721727  0.500000  1
  P  P10  1  0.280539  0.396505  0.500000  1
  P  P11  1  0.605295  0.887068  0.500000  1
  P  P12  1  0.001792  0.001356  0.000000  1
  Ru  Ru13  1  0.422807  0.361827  0.000000  1
  Ru  Ru14  1  0.640087  0.062719  0.000000  1
  Ru  Ru15  1  0.386874  0.950800  0.500000  1
  Ru  Ru16  1  0.046464  0.439166  0.500000  1
  Ru  Ru17  1  0.563180  0.615337  0.500000  1
  Ru  Ru18  1  0.202804  0.116661  0.500000  1
  Ru  Ru19  1  0.884384  0.087642  0.500000  1
  Ru  Ru20  1  0.906083  0.780386  0.500000  1
