# generated using pymatgen
data_Dy3Lu7Si5Sb
_symmetry_space_group_name_H-M   'P 1'
_cell_length_a   8.37702568
_cell_length_b   8.42408053
_cell_length_c   6.21205600
_cell_angle_alpha   90.00000000
_cell_angle_beta   90.00000000
_cell_angle_gamma   119.94872626
_symmetry_Int_Tables_number   1
_chemical_formula_structural   Dy3Lu7Si5Sb
_chemical_formula_sum   'Dy3 Lu7 Si5 Sb1'
_cell_volume   379.84158084
_cell_formula_units_Z   1
loop_
 _symmetry_equiv_pos_site_id
 _symmetry_equiv_pos_as_xyz
  1  'x, y, z'
loop_
 _atom_site_type_symbol
 _atom_site_label
 _atom_site_symmetry_multiplicity
 _atom_site_fract_x
 _atom_site_fract_y
 _atom_site_fract_z
 _atom_site_occupancy
  Dy  Dy0  1  0.765327  0.999788  0.750000  1
  Dy  Dy1  1  0.240915  0.253368  0.750000  1
  Dy  Dy2  1  0.241069  0.999615  0.250000  1
  Lu  Lu3  1  0.986720  0.745438  0.750000  1
  Lu  Lu4  1  0.998966  0.244797  0.250000  1
  Lu  Lu5  1  0.755278  0.756047  0.250000  1
  Lu  Lu6  1  0.675202  0.343980  0.003362  1
  Lu  Lu7  1  0.331232  0.656469  0.496443  1
  Lu  Lu8  1  0.331232  0.656469  0.003557  1
  Lu  Lu9  1  0.675202  0.343980  0.496638  1
  Si  Si10  1  0.394021  0.393022  0.250000  1
  Si  Si11  1  0.000942  0.606667  0.250000  1
  Si  Si12  1  0.998367  0.397159  0.750000  1
  Si  Si13  1  0.604965  0.605017  0.750000  1
  Si  Si14  1  0.608386  0.999823  0.250000  1
  Sb  Sb15  1  0.392176  0.998361  0.750000  1
