# generated using pymatgen
data_Dy5Y4TmRu4
_symmetry_space_group_name_H-M   'P 1'
_cell_length_a   6.34325711
_cell_length_b   7.27544520
_cell_length_c   8.49900990
_cell_angle_alpha   96.65301064
_cell_angle_beta   111.91164336
_cell_angle_gamma   89.99999990
_symmetry_Int_Tables_number   1
_chemical_formula_structural   Dy5Y4TmRu4
_chemical_formula_sum   'Dy5 Y4 Tm1 Ru4'
_cell_volume   361.04648939
_cell_formula_units_Z   1
loop_
 _symmetry_equiv_pos_site_id
 _symmetry_equiv_pos_as_xyz
  1  'x, y, z'
loop_
 _atom_site_type_symbol
 _atom_site_label
 _atom_site_symmetry_multiplicity
 _atom_site_fract_x
 _atom_site_fract_y
 _atom_site_fract_z
 _atom_site_occupancy
  Dy  Dy0  1  0.204086  0.185650  0.566400  1
  Dy  Dy1  1  0.637686  0.314350  0.433600  1
  Dy  Dy2  1  0.795685  0.813769  0.432777  1
  Dy  Dy3  1  0.362908  0.686231  0.567223  1
  Dy  Dy4  1  0.420204  0.250000  0.000000  1
  Y  Y5  1  0.791542  0.082966  0.812874  1
  Y  Y6  1  0.978667  0.417034  0.187126  1
  Y  Y7  1  0.207707  0.915469  0.186913  1
  Y  Y8  1  0.020794  0.584531  0.813087  1
  Tm  Tm9  1  0.578055  0.750000  0.000000  1
  Ru  Ru10  1  0.599432  0.425499  0.779615  1
  Ru  Ru11  1  0.819816  0.074501  0.220385  1
  Ru  Ru12  1  0.402116  0.576646  0.220813  1
  Ru  Ru13  1  0.181304  0.923354  0.779187  1
