# generated using pymatgen
data_Th8Co3Si12Pd
_symmetry_space_group_name_H-M   'P 1'
_cell_length_a   8.11800300
_cell_length_b   8.11800290
_cell_length_c   8.42869300
_cell_angle_alpha   90.00000000
_cell_angle_beta   90.00000000
_cell_angle_gamma   119.99999633
_symmetry_Int_Tables_number   1
_chemical_formula_structural   Th8Co3Si12Pd
_chemical_formula_sum   'Th8 Co3 Si12 Pd1'
_cell_volume   481.04897446
_cell_formula_units_Z   1
loop_
 _symmetry_equiv_pos_site_id
 _symmetry_equiv_pos_as_xyz
  1  'x, y, z'
loop_
 _atom_site_type_symbol
 _atom_site_label
 _atom_site_symmetry_multiplicity
 _atom_site_fract_x
 _atom_site_fract_y
 _atom_site_fract_z
 _atom_site_occupancy
  Th  Th0  1  0.000000  0.000000  0.748742  1
  Th  Th1  1  0.000000  0.000000  0.251315  1
  Th  Th2  1  0.502293  0.497707  0.746395  1
  Th  Th3  1  0.502293  0.004587  0.746395  1
  Th  Th4  1  0.995413  0.497707  0.746395  1
  Th  Th5  1  0.502837  0.497163  0.253718  1
  Th  Th6  1  0.994326  0.497163  0.253718  1
  Th  Th7  1  0.502837  0.005674  0.253718  1
  Co  Co8  1  0.666667  0.333333  0.998096  1
  Co  Co9  1  0.666667  0.333333  0.501909  1
  Co  Co10  1  0.333333  0.666667  0.498200  1
  Si  Si11  1  0.827281  0.172719  0.999530  1
  Si  Si12  1  0.827281  0.654564  0.999530  1
  Si  Si13  1  0.345436  0.172719  0.999530  1
  Si  Si14  1  0.829014  0.170986  0.500479  1
  Si  Si15  1  0.829014  0.658030  0.500479  1
  Si  Si16  1  0.341970  0.170986  0.500479  1
  Si  Si17  1  0.171462  0.828538  0.499554  1
  Si  Si18  1  0.657074  0.828538  0.499554  1
  Si  Si19  1  0.171462  0.342926  0.499554  1
  Si  Si20  1  0.163680  0.836320  0.000402  1
  Si  Si21  1  0.672640  0.836320  0.000402  1
  Si  Si22  1  0.163680  0.327360  0.000402  1
  Pd  Pd23  1  0.333333  0.666667  0.001505  1
