# generated using pymatgen
data_Mg5Fe3(P3Ir4)4
_symmetry_space_group_name_H-M   'P 1'
_cell_length_a   12.57434100
_cell_length_b   12.57434061
_cell_length_c   3.80779800
_cell_angle_alpha   90.00000000
_cell_angle_beta   90.00000000
_cell_angle_gamma   120.00000366
_symmetry_Int_Tables_number   1
_chemical_formula_structural   Mg5Fe3(P3Ir4)4
_chemical_formula_sum   'Mg5 Fe3 P12 Ir16'
_cell_volume   521.40473514
_cell_formula_units_Z   1
loop_
 _symmetry_equiv_pos_site_id
 _symmetry_equiv_pos_as_xyz
  1  'x, y, z'
loop_
 _atom_site_type_symbol
 _atom_site_label
 _atom_site_symmetry_multiplicity
 _atom_site_fract_x
 _atom_site_fract_y
 _atom_site_fract_z
 _atom_site_occupancy
  Mg  Mg0  1  0.666667  0.333333  0.000000  1
  Mg  Mg1  1  0.333333  0.666667  0.000000  1
  Mg  Mg2  1  0.829724  0.829724  0.500000  1
  Mg  Mg3  1  0.170276  0.000000  0.500000  1
  Mg  Mg4  1  0.000000  0.170276  0.500000  1
  Fe  Fe5  1  0.290225  0.290225  0.500000  1
  Fe  Fe6  1  0.709775  0.000000  0.500000  1
  Fe  Fe7  1  0.000000  0.709775  0.500000  1
  P  P8  1  0.685315  0.163025  0.500000  1
  P  P9  1  0.836975  0.522289  0.500000  1
  P  P10  1  0.477711  0.314685  0.500000  1
  P  P11  1  0.163025  0.685315  0.500000  1
  P  P12  1  0.522289  0.836975  0.500000  1
  P  P13  1  0.314685  0.477711  0.500000  1
  P  P14  1  0.640916  0.640916  0.000000  1
  P  P15  1  0.359084  0.000000  0.000000  1
  P  P16  1  0.000000  0.359084  0.000000  1
  P  P17  1  0.180336  0.180336  0.000000  1
  P  P18  1  0.819664  0.000000  0.000000  1
  P  P19  1  0.000000  0.819664  0.000000  1
  Ir  Ir20  1  0.811015  0.178068  0.000000  1
  Ir  Ir21  1  0.821932  0.632947  0.000000  1
  Ir  Ir22  1  0.367053  0.188985  0.000000  1
  Ir  Ir23  1  0.178068  0.811015  0.000000  1
  Ir  Ir24  1  0.632947  0.821932  0.000000  1
  Ir  Ir25  1  0.188985  0.367053  0.000000  1
  Ir  Ir26  1  0.454558  0.454558  0.000000  1
  Ir  Ir27  1  0.545442  0.000000  0.000000  1
  Ir  Ir28  1  0.000000  0.545442  0.000000  1
  Ir  Ir29  1  0.863281  0.356920  0.500000  1
  Ir  Ir30  1  0.643080  0.506363  0.500000  1
  Ir  Ir31  1  0.493637  0.136719  0.500000  1
  Ir  Ir32  1  0.356920  0.863281  0.500000  1
  Ir  Ir33  1  0.506363  0.643080  0.500000  1
  Ir  Ir34  1  0.136719  0.493637  0.500000  1
  Ir  Ir35  1  0.000000  0.000000  0.000000  1
