# generated using pymatgen
data_Dy5Er(Tm2Pb3)2
_symmetry_space_group_name_H-M   'P 1'
_cell_length_a   6.59062000
_cell_length_b   9.00352226
_cell_length_c   9.00626301
_cell_angle_alpha   119.98993243
_cell_angle_beta   90.00007294
_cell_angle_gamma   89.99985991
_symmetry_Int_Tables_number   1
_chemical_formula_structural   Dy5Er(Tm2Pb3)2
_chemical_formula_sum   'Dy5 Er1 Tm4 Pb6'
_cell_volume   462.86892024
_cell_formula_units_Z   1
loop_
 _symmetry_equiv_pos_site_id
 _symmetry_equiv_pos_as_xyz
  1  'x, y, z'
loop_
 _atom_site_type_symbol
 _atom_site_label
 _atom_site_symmetry_multiplicity
 _atom_site_fract_x
 _atom_site_fract_y
 _atom_site_fract_z
 _atom_site_occupancy
  Dy  Dy0  1  0.749982  0.763148  0.762729  1
  Dy  Dy1  1  0.749982  0.000418  0.237271  1
  Dy  Dy2  1  0.250006  0.762603  0.000000  1
  Dy  Dy3  1  0.250002  0.237035  0.237152  1
  Dy  Dy4  1  0.250002  0.999883  0.762848  1
  Er  Er5  1  0.750054  0.236766  0.000000  1
  Tm  Tm6  1  0.500029  0.333422  0.666901  1
  Tm  Tm7  1  0.500029  0.666521  0.333099  1
  Tm  Tm8  1  0.999959  0.666529  0.333095  1
  Tm  Tm9  1  0.999959  0.333434  0.666905  1
  Pb  Pb10  1  0.750000  0.603748  0.000000  1
  Pb  Pb11  1  0.749989  0.394906  0.394141  1
  Pb  Pb12  1  0.749989  0.000765  0.605859  1
  Pb  Pb13  1  0.250019  0.395916  0.000000  1
  Pb  Pb14  1  0.250001  0.604843  0.604780  1
  Pb  Pb15  1  0.250001  0.000062  0.395220  1
