# generated using pymatgen
data_Li4SnMo7N12
_symmetry_space_group_name_H-M   'P 1'
_cell_length_a   5.04846500
_cell_length_b   5.04846394
_cell_length_c   10.51547700
_cell_angle_alpha   90.00000000
_cell_angle_beta   90.00000000
_cell_angle_gamma   120.00000042
_symmetry_Int_Tables_number   1
_chemical_formula_structural   Li4SnMo7N12
_chemical_formula_sum   'Li4 Sn1 Mo7 N12'
_cell_volume   232.10164344
_cell_formula_units_Z   1
loop_
 _symmetry_equiv_pos_site_id
 _symmetry_equiv_pos_as_xyz
  1  'x, y, z'
loop_
 _atom_site_type_symbol
 _atom_site_label
 _atom_site_symmetry_multiplicity
 _atom_site_fract_x
 _atom_site_fract_y
 _atom_site_fract_z
 _atom_site_occupancy
  Li  Li0  1  0.333333  0.666667  0.000000  1
  Li  Li1  1  0.333333  0.666667  0.500000  1
  Li  Li2  1  0.666667  0.333333  0.500000  1
  Li  Li3  1  0.666667  0.333333  0.000000  1
  Sn  Sn4  1  0.000000  0.000000  0.000000  1
  Mo  Mo5  1  0.000000  0.336188  0.257071  1
  Mo  Mo6  1  0.663812  0.000000  0.742929  1
  Mo  Mo7  1  0.336188  0.336188  0.742929  1
  Mo  Mo8  1  0.000000  0.000000  0.500000  1
  Mo  Mo9  1  0.663812  0.663812  0.257071  1
  Mo  Mo10  1  0.336188  0.000000  0.257071  1
  Mo  Mo11  1  0.000000  0.663812  0.742929  1
  N  N12  1  0.668967  0.668967  0.621988  1
  N  N13  1  0.670972  0.670972  0.866448  1
  N  N14  1  0.329028  0.329028  0.133552  1
  N  N15  1  0.331033  0.331033  0.378012  1
  N  N16  1  0.329028  0.000000  0.866448  1
  N  N17  1  0.331033  0.000000  0.621988  1
  N  N18  1  0.000000  0.668967  0.378012  1
  N  N19  1  0.000000  0.670972  0.133552  1
  N  N20  1  0.670972  0.000000  0.133552  1
  N  N21  1  0.668967  0.000000  0.378012  1
  N  N22  1  0.000000  0.329028  0.866448  1
  N  N23  1  0.000000  0.331033  0.621988  1
