# generated using pymatgen
data_Dy2YAuO7
_symmetry_space_group_name_H-M   'P 1'
_cell_length_a   6.49899417
_cell_length_b   6.49899503
_cell_length_c   7.45298100
_cell_angle_alpha   90.00000000
_cell_angle_beta   90.00000000
_cell_angle_gamma   108.88820676
_symmetry_Int_Tables_number   1
_chemical_formula_structural   Dy2YAuO7
_chemical_formula_sum   'Dy4 Y2 Au2 O14'
_cell_volume   297.84017800
_cell_formula_units_Z   2
loop_
 _symmetry_equiv_pos_site_id
 _symmetry_equiv_pos_as_xyz
  1  'x, y, z'
loop_
 _atom_site_type_symbol
 _atom_site_label
 _atom_site_symmetry_multiplicity
 _atom_site_fract_x
 _atom_site_fract_y
 _atom_site_fract_z
 _atom_site_occupancy
  Dy  Dy0  1  0.528822  0.997806  0.750000  1
  Dy  Dy1  1  0.997806  0.528822  0.250000  1
  Dy  Dy2  1  0.471178  0.002194  0.250000  1
  Dy  Dy3  1  0.002194  0.471178  0.750000  1
  Y  Y4  1  0.500000  0.500000  0.500000  1
  Y  Y5  1  0.500000  0.500000  0.000000  1
  Au  Au6  1  0.000000  0.000000  0.500000  1
  Au  Au7  1  0.000000  0.000000  0.000000  1
  O  O8  1  0.670163  0.918433  0.475306  1
  O  O9  1  0.918433  0.670163  0.524694  1
  O  O10  1  0.670163  0.918433  0.024694  1
  O  O11  1  0.918433  0.670163  0.975306  1
  O  O12  1  0.329837  0.081567  0.524694  1
  O  O13  1  0.081567  0.329837  0.475306  1
  O  O14  1  0.329837  0.081567  0.975306  1
  O  O15  1  0.081567  0.329837  0.024694  1
  O  O16  1  0.920601  0.079399  0.750000  1
  O  O17  1  0.079399  0.920601  0.250000  1
  O  O18  1  0.367725  0.632275  0.750000  1
  O  O19  1  0.632275  0.367725  0.250000  1
  O  O20  1  0.638886  0.361114  0.750000  1
  O  O21  1  0.361114  0.638886  0.250000  1
