# generated using pymatgen
data_Tb2ThSn3Ir2Ru
_symmetry_space_group_name_H-M   'P 1'
_cell_length_a   7.65015700
_cell_length_b   7.55787691
_cell_length_c   3.97418400
_cell_angle_alpha   90.00000000
_cell_angle_beta   90.00000000
_cell_angle_gamma   120.40472087
_symmetry_Int_Tables_number   1
_chemical_formula_structural   Tb2ThSn3Ir2Ru
_chemical_formula_sum   'Tb2 Th1 Sn3 Ir2 Ru1'
_cell_volume   198.18150565
_cell_formula_units_Z   1
loop_
 _symmetry_equiv_pos_site_id
 _symmetry_equiv_pos_as_xyz
  1  'x, y, z'
loop_
 _atom_site_type_symbol
 _atom_site_label
 _atom_site_symmetry_multiplicity
 _atom_site_fract_x
 _atom_site_fract_y
 _atom_site_fract_z
 _atom_site_occupancy
  Tb  Tb0  1  0.000712  0.592928  0.000000  1
  Tb  Tb1  1  0.407784  0.407072  0.000000  1
  Th  Th2  1  0.587396  0.000000  0.000000  1
  Sn  Sn3  1  0.244049  0.000000  0.500000  1
  Sn  Sn4  1  0.010835  0.265355  0.500000  1
  Sn  Sn5  1  0.745481  0.734645  0.500000  1
  Ir  Ir6  1  0.346113  0.680631  0.500000  1
  Ir  Ir7  1  0.665483  0.319369  0.500000  1
  Ru  Ru8  1  0.992148  0.000000  0.000000  1
