# generated using pymatgen
data_NdDy3Ho(FeB3)2
_symmetry_space_group_name_H-M   'P 1'
_cell_length_a   8.30497410
_cell_length_b   8.30497442
_cell_length_c   8.30497299
_cell_angle_alpha   38.07406258
_cell_angle_beta   38.07405837
_cell_angle_gamma   38.07405492
_symmetry_Int_Tables_number   1
_chemical_formula_structural   NdDy3Ho(FeB3)2
_chemical_formula_sum   'Nd1 Dy3 Ho1 Fe2 B6'
_cell_volume   195.56793388
_cell_formula_units_Z   1
loop_
 _symmetry_equiv_pos_site_id
 _symmetry_equiv_pos_as_xyz
  1  'x, y, z'
loop_
 _atom_site_type_symbol
 _atom_site_label
 _atom_site_symmetry_multiplicity
 _atom_site_fract_x
 _atom_site_fract_y
 _atom_site_fract_z
 _atom_site_occupancy
  Nd  Nd0  1  0.999911  0.999911  0.999911  1
  Dy  Dy1  1  0.582837  0.582837  0.582837  1
  Dy  Dy2  1  0.417181  0.417181  0.417181  1
  Dy  Dy3  1  0.749774  0.749774  0.749774  1
  Ho  Ho4  1  0.249843  0.249843  0.249843  1
  Fe  Fe5  1  0.883279  0.883279  0.883279  1
  Fe  Fe6  1  0.116751  0.116751  0.116751  1
  B  B7  1  0.499838  0.832559  0.167814  1
  B  B8  1  0.167814  0.499838  0.832559  1
  B  B9  1  0.832559  0.167814  0.499838  1
  B  B10  1  0.499838  0.167814  0.832559  1
  B  B11  1  0.832559  0.499838  0.167814  1
  B  B12  1  0.167814  0.832559  0.499838  1
