# generated using pymatgen
data_LuU(ZnRu)2
_symmetry_space_group_name_H-M   'P 1'
_cell_length_a   3.61793100
_cell_length_b   7.10762027
_cell_length_c   8.51991751
_cell_angle_alpha   93.37767492
_cell_angle_beta   90.00000000
_cell_angle_gamma   90.00000000
_symmetry_Int_Tables_number   1
_chemical_formula_structural   LuU(ZnRu)2
_chemical_formula_sum   'Lu2 U2 Zn4 Ru4'
_cell_volume   218.70806649
_cell_formula_units_Z   2
loop_
 _symmetry_equiv_pos_site_id
 _symmetry_equiv_pos_as_xyz
  1  'x, y, z'
loop_
 _atom_site_type_symbol
 _atom_site_label
 _atom_site_symmetry_multiplicity
 _atom_site_fract_x
 _atom_site_fract_y
 _atom_site_fract_z
 _atom_site_occupancy
  Lu  Lu0  1  0.750000  0.942769  0.681003  1
  Lu  Lu1  1  0.250000  0.057231  0.318997  1
  U  U2  1  0.250000  0.546175  0.189957  1
  U  U3  1  0.750000  0.453825  0.810043  1
  Zn  Zn4  1  0.250000  0.629249  0.555132  1
  Zn  Zn5  1  0.750000  0.370751  0.444868  1
  Zn  Zn6  1  0.750000  0.885921  0.063752  1
  Zn  Zn7  1  0.250000  0.114079  0.936248  1
  Ru  Ru8  1  0.250000  0.707988  0.872378  1
  Ru  Ru9  1  0.750000  0.292012  0.127622  1
  Ru  Ru10  1  0.750000  0.742199  0.345917  1
  Ru  Ru11  1  0.250000  0.257801  0.654083  1
