# generated using pymatgen
data_TbTm5Al20(SiOs2)4
_symmetry_space_group_name_H-M   'P 1'
_cell_length_a   8.66963300
_cell_length_b   8.66963233
_cell_length_c   9.60254800
_cell_angle_alpha   90.00000000
_cell_angle_beta   90.00000000
_cell_angle_gamma   119.99614491
_symmetry_Int_Tables_number   1
_chemical_formula_structural   TbTm5Al20(SiOs2)4
_chemical_formula_sum   'Tb1 Tm5 Al20 Si4 Os8'
_cell_volume   625.07968062
_cell_formula_units_Z   1
loop_
 _symmetry_equiv_pos_site_id
 _symmetry_equiv_pos_as_xyz
  1  'x, y, z'
loop_
 _atom_site_type_symbol
 _atom_site_label
 _atom_site_symmetry_multiplicity
 _atom_site_fract_x
 _atom_site_fract_y
 _atom_site_fract_z
 _atom_site_occupancy
  Tb  Tb0  1  0.805147  0.194853  0.750000  1
  Tm  Tm1  1  0.196634  0.393256  0.250000  1
  Tm  Tm2  1  0.803367  0.607277  0.750000  1
  Tm  Tm3  1  0.606744  0.803366  0.250000  1
  Tm  Tm4  1  0.392723  0.196633  0.750000  1
  Tm  Tm5  1  0.196488  0.803512  0.250000  1
  Al  Al6  1  0.165335  0.330237  0.576951  1
  Al  Al7  1  0.835135  0.670152  0.422612  1
  Al  Al8  1  0.669763  0.834665  0.576951  1
  Al  Al9  1  0.835135  0.670152  0.077388  1
  Al  Al10  1  0.329848  0.164865  0.422612  1
  Al  Al11  1  0.165335  0.330237  0.923049  1
  Al  Al12  1  0.164876  0.835124  0.577202  1
  Al  Al13  1  0.329848  0.164865  0.077388  1
  Al  Al14  1  0.835080  0.164920  0.422145  1
  Al  Al15  1  0.669763  0.834665  0.923049  1
  Al  Al16  1  0.835080  0.164920  0.077855  1
  Al  Al17  1  0.164876  0.835124  0.922798  1
  Al  Al18  1  0.563439  0.126966  0.250000  1
  Al  Al19  1  0.435695  0.872500  0.750000  1
  Al  Al20  1  0.873034  0.436561  0.250000  1
  Al  Al21  1  0.127500  0.564305  0.750000  1
  Al  Al22  1  0.563419  0.436581  0.250000  1
  Al  Al23  1  0.436604  0.563396  0.750000  1
  Al  Al24  1  0.999948  0.000052  0.250000  1
  Al  Al25  1  0.000875  0.999125  0.750000  1
  Si  Si26  1  0.333231  0.666769  0.038932  1
  Si  Si27  1  0.666284  0.333716  0.961807  1
  Si  Si28  1  0.666284  0.333716  0.538193  1
  Si  Si29  1  0.333231  0.666769  0.461068  1
  Os  Os30  1  0.499430  0.999678  0.000511  1
  Os  Os31  1  0.000322  0.500570  0.000511  1
  Os  Os32  1  0.499430  0.999678  0.499489  1
  Os  Os33  1  0.499882  0.500118  0.000071  1
  Os  Os34  1  0.000322  0.500570  0.499489  1
  Os  Os35  1  0.499882  0.500118  0.499929  1
  Os  Os36  1  0.000007  0.999993  0.000098  1
  Os  Os37  1  0.000007  0.999993  0.499902  1
