# generated using pymatgen
data_Ba3Sr5V3PN12
_symmetry_space_group_name_H-M   'P 1'
_cell_length_a   6.34394666
_cell_length_b   6.33880960
_cell_length_c   12.47148358
_cell_angle_alpha   89.77322948
_cell_angle_beta   90.13334872
_cell_angle_gamma   126.14382265
_symmetry_Int_Tables_number   1
_chemical_formula_structural   Ba3Sr5V3PN12
_chemical_formula_sum   'Ba3 Sr5 V3 P1 N12'
_cell_volume   404.99107596
_cell_formula_units_Z   1
loop_
 _symmetry_equiv_pos_site_id
 _symmetry_equiv_pos_as_xyz
  1  'x, y, z'
loop_
 _atom_site_type_symbol
 _atom_site_label
 _atom_site_symmetry_multiplicity
 _atom_site_fract_x
 _atom_site_fract_y
 _atom_site_fract_z
 _atom_site_occupancy
  Ba  Ba0  1  0.550543  0.952135  0.850314  1
  Ba  Ba1  1  0.952319  0.555907  0.361112  1
  Ba  Ba2  1  0.444953  0.044530  0.146437  1
  Sr  Sr3  1  0.058833  0.443727  0.641381  1
  Sr  Sr4  1  0.651718  0.857190  0.428547  1
  Sr  Sr5  1  0.138497  0.351006  0.074637  1
  Sr  Sr6  1  0.364698  0.138992  0.581263  1
  Sr  Sr7  1  0.853961  0.645965  0.919363  1
  V  V8  1  0.260364  0.244843  0.339521  1
  V  V9  1  0.237620  0.262620  0.827674  1
  V  V10  1  0.755215  0.738377  0.164266  1
  P  P11  1  0.742239  0.757630  0.663486  1
  N  N12  1  0.673791  0.836758  0.047744  1
  N  N13  1  0.164429  0.326612  0.456998  1
  N  N14  1  0.322877  0.170645  0.945432  1
  N  N15  1  0.838250  0.663941  0.563772  1
  N  N16  1  0.976970  0.022979  0.251871  1
  N  N17  1  0.005196  0.967078  0.742946  1
  N  N18  1  0.463934  0.534726  0.251617  1
  N  N19  1  0.087080  0.417541  0.863478  1
  N  N20  1  0.422861  0.098891  0.375191  1
  N  N21  1  0.900188  0.576034  0.127438  1
  N  N22  1  0.596288  0.897975  0.631622  1
  N  N23  1  0.537179  0.493895  0.743888  1
