# generated using pymatgen
data_Ba4Al8Si7As
_symmetry_space_group_name_H-M   'P 1'
_cell_length_a   4.34807200
_cell_length_b   10.04667369
_cell_length_c   10.86175575
_cell_angle_alpha   89.95746471
_cell_angle_beta   90.00000000
_cell_angle_gamma   90.00000000
_symmetry_Int_Tables_number   1
_chemical_formula_structural   Ba4Al8Si7As
_chemical_formula_sum   'Ba4 Al8 Si7 As1'
_cell_volume   474.48112059
_cell_formula_units_Z   1
loop_
 _symmetry_equiv_pos_site_id
 _symmetry_equiv_pos_as_xyz
  1  'x, y, z'
loop_
 _atom_site_type_symbol
 _atom_site_label
 _atom_site_symmetry_multiplicity
 _atom_site_fract_x
 _atom_site_fract_y
 _atom_site_fract_z
 _atom_site_occupancy
  Ba  Ba0  1  0.250000  0.250189  0.172575  1
  Ba  Ba1  1  0.750000  0.748510  0.828625  1
  Ba  Ba2  1  0.250000  0.743967  0.321171  1
  Ba  Ba3  1  0.750000  0.257842  0.675486  1
  Al  Al4  1  0.250000  0.597109  0.048191  1
  Al  Al5  1  0.750000  0.402204  0.952029  1
  Al  Al6  1  0.250000  0.101941  0.447773  1
  Al  Al7  1  0.750000  0.896241  0.542314  1
  Al  Al8  1  0.250000  0.544721  0.619470  1
  Al  Al9  1  0.750000  0.456208  0.381724  1
  Al  Al10  1  0.250000  0.044224  0.890817  1
  Al  Al11  1  0.750000  0.956223  0.116958  1
  Si  Si12  1  0.750000  0.026205  0.346008  1
  Si  Si13  1  0.250000  0.473457  0.845285  1
  Si  Si14  1  0.750000  0.526039  0.155003  1
  Si  Si15  1  0.250000  0.356676  0.458780  1
  Si  Si16  1  0.750000  0.644078  0.543304  1
  Si  Si17  1  0.250000  0.854842  0.042874  1
  Si  Si18  1  0.750000  0.145063  0.956514  1
  As  As19  1  0.250000  0.974262  0.655098  1
