# generated using pymatgen
data_LiHf2(PO4)3
_symmetry_space_group_name_H-M   'P 1'
_cell_length_a   8.88857152
_cell_length_b   8.88857112
_cell_length_c   8.96193753
_cell_angle_alpha   60.56411532
_cell_angle_beta   60.56411491
_cell_angle_gamma   60.35057649
_symmetry_Int_Tables_number   1
_chemical_formula_structural   LiHf2(PO4)3
_chemical_formula_sum   'Li2 Hf4 P6 O24'
_cell_volume   506.24240108
_cell_formula_units_Z   2
loop_
 _symmetry_equiv_pos_site_id
 _symmetry_equiv_pos_as_xyz
  1  'x, y, z'
loop_
 _atom_site_type_symbol
 _atom_site_label
 _atom_site_symmetry_multiplicity
 _atom_site_fract_x
 _atom_site_fract_y
 _atom_site_fract_z
 _atom_site_occupancy
  Li  Li0  1  0.601424  0.926212  0.240135  1
  Li  Li1  1  0.073788  0.398576  0.759865  1
  Hf  Hf2  1  0.857912  0.359598  0.176664  1
  Hf  Hf3  1  0.640402  0.142088  0.823336  1
  Hf  Hf4  1  0.358321  0.856844  0.675487  1
  Hf  Hf5  1  0.143156  0.641679  0.324513  1
  P  P6  1  0.540714  0.748590  0.002858  1
  P  P7  1  0.753660  0.539554  0.499278  1
  P  P8  1  0.039226  0.960774  0.500000  1
  P  P9  1  0.961064  0.038936  0.000000  1
  P  P10  1  0.251410  0.459286  0.997142  1
  P  P11  1  0.460446  0.246340  0.500722  1
  O  O12  1  0.877140  0.000315  0.669833  1
  O  O13  1  0.493508  0.197603  0.675371  1
  O  O14  1  0.719175  0.583558  0.006439  1
  O  O15  1  0.379333  0.700416  0.173130  1
  O  O16  1  0.060712  0.780665  0.493759  1
  O  O17  1  0.697741  0.382413  0.667848  1
  O  O18  1  0.802397  0.506492  0.324629  1
  O  O19  1  0.564645  0.909107  0.005782  1
  O  O20  1  0.594070  0.726961  0.492361  1
  O  O21  1  0.917643  0.554120  0.502241  1
  O  O22  1  0.999685  0.122860  0.330167  1
  O  O23  1  0.219335  0.939288  0.506241  1
  O  O24  1  0.775399  0.054986  0.007046  1
  O  O25  1  0.997657  0.881630  0.172023  1
  O  O26  1  0.090893  0.435355  0.994218  1
  O  O27  1  0.416442  0.280825  0.993561  1
  O  O28  1  0.445880  0.082357  0.497759  1
  O  O29  1  0.299584  0.620667  0.826870  1
  O  O30  1  0.197580  0.501053  0.167864  1
  O  O31  1  0.945014  0.224601  0.992954  1
  O  O32  1  0.617587  0.302259  0.332152  1
  O  O33  1  0.273039  0.405930  0.507639  1
  O  O34  1  0.498947  0.802420  0.832136  1
  O  O35  1  0.118370  0.002343  0.827977  1
