# generated using pymatgen
data_Y7Sn22Os6Cl
_symmetry_space_group_name_H-M   'P 1'
_cell_length_a   9.86356500
_cell_length_b   9.86356624
_cell_length_c   10.08557200
_cell_angle_alpha   90.00000000
_cell_angle_beta   90.00000000
_cell_angle_gamma   119.99999921
_symmetry_Int_Tables_number   1
_chemical_formula_structural   Y7Sn22Os6Cl
_chemical_formula_sum   'Y7 Sn22 Os6 Cl1'
_cell_volume   849.76540304
_cell_formula_units_Z   1
loop_
 _symmetry_equiv_pos_site_id
 _symmetry_equiv_pos_as_xyz
  1  'x, y, z'
loop_
 _atom_site_type_symbol
 _atom_site_label
 _atom_site_symmetry_multiplicity
 _atom_site_fract_x
 _atom_site_fract_y
 _atom_site_fract_z
 _atom_site_occupancy
  Y  Y0  1  0.000000  0.000000  0.000000  1
  Y  Y1  1  0.032611  0.516305  0.304496  1
  Y  Y2  1  0.483695  0.967389  0.304496  1
  Y  Y3  1  0.483695  0.516305  0.304496  1
  Y  Y4  1  0.967389  0.483695  0.695504  1
  Y  Y5  1  0.516305  0.032611  0.695504  1
  Y  Y6  1  0.516305  0.483695  0.695504  1
  Sn  Sn7  1  0.118989  0.881011  0.275550  1
  Sn  Sn8  1  0.762022  0.881011  0.275550  1
  Sn  Sn9  1  0.118989  0.237978  0.275550  1
  Sn  Sn10  1  0.881011  0.118989  0.724450  1
  Sn  Sn11  1  0.237978  0.118989  0.724450  1
  Sn  Sn12  1  0.881011  0.762022  0.724450  1
  Sn  Sn13  1  0.350071  0.000000  0.000000  1
  Sn  Sn14  1  0.649929  0.649929  0.000000  1
  Sn  Sn15  1  0.000000  0.350071  0.000000  1
  Sn  Sn16  1  0.350071  0.350071  0.000000  1
  Sn  Sn17  1  0.000000  0.649929  0.000000  1
  Sn  Sn18  1  0.649929  0.000000  0.000000  1
  Sn  Sn19  1  0.778553  0.557104  0.461899  1
  Sn  Sn20  1  0.778553  0.221447  0.461899  1
  Sn  Sn21  1  0.442896  0.221447  0.461899  1
  Sn  Sn22  1  0.221447  0.442896  0.538101  1
  Sn  Sn23  1  0.221447  0.778553  0.538101  1
  Sn  Sn24  1  0.557104  0.778553  0.538101  1
  Sn  Sn25  1  0.666667  0.333333  0.172599  1
  Sn  Sn26  1  0.333333  0.666667  0.827401  1
  Sn  Sn27  1  0.666667  0.333333  0.872671  1
  Sn  Sn28  1  0.333333  0.666667  0.127329  1
  Os  Os29  1  0.167728  0.832272  0.794829  1
  Os  Os30  1  0.664544  0.832272  0.794829  1
  Os  Os31  1  0.167728  0.335456  0.794829  1
  Os  Os32  1  0.832272  0.167728  0.205171  1
  Os  Os33  1  0.335456  0.167728  0.205171  1
  Os  Os34  1  0.832272  0.664544  0.205171  1
  Cl  Cl35  1  0.000000  0.000000  0.500000  1
