# generated using pymatgen
data_PrNd7Zn8(Ir3Pd)2
_symmetry_space_group_name_H-M   'P 1'
_cell_length_a   4.05378800
_cell_length_b   7.34699661
_cell_length_c   16.74722851
_cell_angle_alpha   90.10018245
_cell_angle_beta   90.00000000
_cell_angle_gamma   90.00000000
_symmetry_Int_Tables_number   1
_chemical_formula_structural   PrNd7Zn8(Ir3Pd)2
_chemical_formula_sum   'Pr1 Nd7 Zn8 Ir6 Pd2'
_cell_volume   498.78473579
_cell_formula_units_Z   1
loop_
 _symmetry_equiv_pos_site_id
 _symmetry_equiv_pos_as_xyz
  1  'x, y, z'
loop_
 _atom_site_type_symbol
 _atom_site_label
 _atom_site_symmetry_multiplicity
 _atom_site_fract_x
 _atom_site_fract_y
 _atom_site_fract_z
 _atom_site_occupancy
  Pr  Pr0  1  0.250000  0.169276  0.934793  1
  Nd  Nd1  1  0.250000  0.667930  0.560337  1
  Nd  Nd2  1  0.750000  0.331999  0.439596  1
  Nd  Nd3  1  0.750000  0.951751  0.286775  1
  Nd  Nd4  1  0.750000  0.829995  0.065601  1
  Nd  Nd5  1  0.750000  0.454626  0.220264  1
  Nd  Nd6  1  0.250000  0.048426  0.713109  1
  Nd  Nd7  1  0.250000  0.545920  0.779741  1
  Zn  Zn8  1  0.750000  0.000566  0.559973  1
  Zn  Zn9  1  0.250000  0.622673  0.351367  1
  Zn  Zn10  1  0.750000  0.377541  0.648578  1
  Zn  Zn11  1  0.250000  0.497293  0.064016  1
  Zn  Zn12  1  0.750000  0.503724  0.936174  1
  Zn  Zn13  1  0.250000  0.999366  0.439965  1
  Zn  Zn14  1  0.250000  0.119928  0.155580  1
  Zn  Zn15  1  0.750000  0.879109  0.844221  1
  Ir  Ir16  1  0.750000  0.757237  0.434905  1
  Ir  Ir17  1  0.250000  0.247937  0.312089  1
  Ir  Ir18  1  0.750000  0.254666  0.816188  1
  Ir  Ir19  1  0.750000  0.751874  0.687784  1
  Ir  Ir20  1  0.250000  0.242768  0.564958  1
  Ir  Ir21  1  0.250000  0.746037  0.183168  1
  Pd  Pd22  1  0.750000  0.257134  0.066035  1
  Pd  Pd23  1  0.250000  0.742226  0.934786  1
