# generated using pymatgen
data_Dy7Er(SiI6)2
_symmetry_space_group_name_H-M   'P 1'
_cell_length_a   4.20053000
_cell_length_b   14.01798859
_cell_length_c   14.75261062
_cell_angle_alpha   90.03323581
_cell_angle_beta   90.00000000
_cell_angle_gamma   90.00000000
_symmetry_Int_Tables_number   1
_chemical_formula_structural   Dy7Er(SiI6)2
_chemical_formula_sum   'Dy7 Er1 Si2 I12'
_cell_volume   868.67755372
_cell_formula_units_Z   1
loop_
 _symmetry_equiv_pos_site_id
 _symmetry_equiv_pos_as_xyz
  1  'x, y, z'
loop_
 _atom_site_type_symbol
 _atom_site_label
 _atom_site_symmetry_multiplicity
 _atom_site_fract_x
 _atom_site_fract_y
 _atom_site_fract_z
 _atom_site_occupancy
  Dy  Dy0  1  0.500000  0.114444  0.347663  1
  Dy  Dy1  1  0.500000  0.885547  0.652354  1
  Dy  Dy2  1  0.500000  0.614025  0.151812  1
  Dy  Dy3  1  0.000000  0.111430  0.575002  1
  Dy  Dy4  1  0.000000  0.888723  0.425099  1
  Dy  Dy5  1  0.000000  0.611178  0.925291  1
  Dy  Dy6  1  0.000000  0.388920  0.074817  1
  Er  Er7  1  0.500000  0.386019  0.848426  1
  Si  Si8  1  0.500000  0.000034  0.500022  1
  Si  Si9  1  0.500000  0.499431  0.999235  1
  I  I10  1  0.500000  0.245501  0.161982  1
  I  I11  1  0.500000  0.754388  0.837798  1
  I  I12  1  0.500000  0.745419  0.337809  1
  I  I13  1  0.500000  0.255272  0.663116  1
  I  I14  1  0.000000  0.258952  0.415019  1
  I  I15  1  0.000000  0.740993  0.585042  1
  I  I16  1  0.000000  0.758826  0.085031  1
  I  I17  1  0.000000  0.243121  0.913252  1
  I  I18  1  0.000000  0.999314  0.240170  1
  I  I19  1  0.000000  0.000714  0.759870  1
  I  I20  1  0.000000  0.499359  0.259711  1
  I  I21  1  0.000000  0.498389  0.741481  1
