# generated using pymatgen
data_YbPrTm2(ReN3)4
_symmetry_space_group_name_H-M   'P 1'
_cell_length_a   7.32668320
_cell_length_b   7.32668308
_cell_length_c   6.22903018
_cell_angle_alpha   74.50302535
_cell_angle_beta   74.50303580
_cell_angle_gamma   83.72281478
_symmetry_Int_Tables_number   1
_chemical_formula_structural   YbPrTm2(ReN3)4
_chemical_formula_sum   'Yb1 Pr1 Tm2 Re4 N12'
_cell_volume   310.24591073
_cell_formula_units_Z   1
loop_
 _symmetry_equiv_pos_site_id
 _symmetry_equiv_pos_as_xyz
  1  'x, y, z'
loop_
 _atom_site_type_symbol
 _atom_site_label
 _atom_site_symmetry_multiplicity
 _atom_site_fract_x
 _atom_site_fract_y
 _atom_site_fract_z
 _atom_site_occupancy
  Yb  Yb0  1  0.296500  0.703500  0.750000  1
  Pr  Pr1  1  0.700895  0.299105  0.250000  1
  Tm  Tm2  1  0.912175  0.087825  0.750000  1
  Tm  Tm3  1  0.091723  0.908277  0.250000  1
  Re  Re4  1  0.620065  0.799797  0.261565  1
  Re  Re5  1  0.200203  0.379935  0.238435  1
  Re  Re6  1  0.376055  0.202311  0.741693  1
  Re  Re7  1  0.797689  0.623945  0.758307  1
  N  N8  1  0.349220  0.353351  0.950244  1
  N  N9  1  0.009565  0.210223  0.349594  1
  N  N10  1  0.789777  0.990435  0.150406  1
  N  N11  1  0.214456  0.007599  0.851330  1
  N  N12  1  0.652825  0.647601  0.049068  1
  N  N13  1  0.878822  0.376648  0.824474  1
  N  N14  1  0.116798  0.621564  0.171859  1
  N  N15  1  0.992401  0.785544  0.648670  1
  N  N16  1  0.378436  0.883202  0.328141  1
  N  N17  1  0.646649  0.650780  0.549756  1
  N  N18  1  0.623352  0.121178  0.675526  1
  N  N19  1  0.352399  0.347175  0.450932  1
