# generated using pymatgen
data_Hf8Ti11NbGe16
_symmetry_space_group_name_H-M   'P 1'
_cell_length_a   6.79138441
_cell_length_b   6.89911442
_cell_length_c   13.09057700
_cell_angle_alpha   90.00000000
_cell_angle_beta   90.00000000
_cell_angle_gamma   90.03994194
_symmetry_Int_Tables_number   1
_chemical_formula_structural   Hf8Ti11NbGe16
_chemical_formula_sum   'Hf8 Ti11 Nb1 Ge16'
_cell_volume   613.35279011
_cell_formula_units_Z   1
loop_
 _symmetry_equiv_pos_site_id
 _symmetry_equiv_pos_as_xyz
  1  'x, y, z'
loop_
 _atom_site_type_symbol
 _atom_site_label
 _atom_site_symmetry_multiplicity
 _atom_site_fract_x
 _atom_site_fract_y
 _atom_site_fract_z
 _atom_site_occupancy
  Hf  Hf0  1  0.489769  0.675368  0.593434  1
  Hf  Hf1  1  0.990275  0.824016  0.906474  1
  Hf  Hf2  1  0.511204  0.323456  0.093988  1
  Hf  Hf3  1  0.009977  0.174672  0.405906  1
  Hf  Hf4  1  0.511204  0.323456  0.406012  1
  Hf  Hf5  1  0.009977  0.174672  0.094094  1
  Hf  Hf6  1  0.489769  0.675368  0.906566  1
  Hf  Hf7  1  0.990275  0.824016  0.593526  1
  Ti  Ti8  1  0.657430  0.167091  0.626512  1
  Ti  Ti9  1  0.157215  0.333550  0.874147  1
  Ti  Ti10  1  0.343087  0.833480  0.125150  1
  Ti  Ti11  1  0.841253  0.667865  0.374791  1
  Ti  Ti12  1  0.343087  0.833480  0.374850  1
  Ti  Ti13  1  0.841253  0.667865  0.125209  1
  Ti  Ti14  1  0.657430  0.167091  0.873488  1
  Ti  Ti15  1  0.157215  0.333550  0.625853  1
  Ti  Ti16  1  0.829965  0.494706  0.750000  1
  Ti  Ti17  1  0.330513  0.004355  0.750000  1
  Ti  Ti18  1  0.169892  0.506175  0.250000  1
  Nb  Nb19  1  0.669995  0.995253  0.250000  1
  Ge  Ge20  1  0.684188  0.959463  0.461586  1
  Ge  Ge21  1  0.183713  0.539739  0.040710  1
  Ge  Ge22  1  0.316104  0.040610  0.959023  1
  Ge  Ge23  1  0.816454  0.459267  0.540772  1
  Ge  Ge24  1  0.316104  0.040610  0.540977  1
  Ge  Ge25  1  0.816454  0.459267  0.959228  1
  Ge  Ge26  1  0.684188  0.959463  0.038414  1
  Ge  Ge27  1  0.183713  0.539739  0.459290  1
  Ge  Ge28  1  0.459159  0.379930  0.750000  1
  Ge  Ge29  1  0.960141  0.119949  0.750000  1
  Ge  Ge30  1  0.538601  0.617589  0.250000  1
  Ge  Ge31  1  0.043514  0.877765  0.250000  1
  Ge  Ge32  1  0.689490  0.854090  0.750000  1
  Ge  Ge33  1  0.189306  0.645399  0.750000  1
  Ge  Ge34  1  0.305355  0.147766  0.250000  1
  Ge  Ge35  1  0.812731  0.359872  0.250000  1
