# generated using pymatgen
data_Er3Sc3Bi2Ir
_symmetry_space_group_name_H-M   'P 1'
_cell_length_a   7.96835300
_cell_length_b   7.96835314
_cell_length_c   4.17570300
_cell_angle_alpha   90.00000000
_cell_angle_beta   90.00000000
_cell_angle_gamma   120.00000356
_symmetry_Int_Tables_number   1
_chemical_formula_structural   Er3Sc3Bi2Ir
_chemical_formula_sum   'Er3 Sc3 Bi2 Ir1'
_cell_volume   229.61346682
_cell_formula_units_Z   1
loop_
 _symmetry_equiv_pos_site_id
 _symmetry_equiv_pos_as_xyz
  1  'x, y, z'
loop_
 _atom_site_type_symbol
 _atom_site_label
 _atom_site_symmetry_multiplicity
 _atom_site_fract_x
 _atom_site_fract_y
 _atom_site_fract_z
 _atom_site_occupancy
  Er  Er0  1  0.616784  0.000000  0.000000  1
  Er  Er1  1  0.000000  0.616784  0.000000  1
  Er  Er2  1  0.383216  0.383216  0.000000  1
  Sc  Sc3  1  0.227635  0.000000  0.500000  1
  Sc  Sc4  1  0.000000  0.227635  0.500000  1
  Sc  Sc5  1  0.772365  0.772365  0.500000  1
  Bi  Bi6  1  0.333333  0.666667  0.500000  1
  Bi  Bi7  1  0.666667  0.333333  0.500000  1
  Ir  Ir8  1  0.000000  0.000000  0.000000  1
