# generated using pymatgen
data_CrCdSn(PO4)3
_symmetry_space_group_name_H-M   'P 1'
_cell_length_a   8.66772518
_cell_length_b   8.66772306
_cell_length_c   8.87121070
_cell_angle_alpha   60.75591460
_cell_angle_beta   119.24407845
_cell_angle_gamma   119.99999925
_symmetry_Int_Tables_number   1
_chemical_formula_structural   CrCdSn(PO4)3
_chemical_formula_sum   'Cr2 Cd2 Sn2 P6 O24'
_cell_volume   476.59207192
_cell_formula_units_Z   2
loop_
 _symmetry_equiv_pos_site_id
 _symmetry_equiv_pos_as_xyz
  1  'x, y, z'
loop_
 _atom_site_type_symbol
 _atom_site_label
 _atom_site_symmetry_multiplicity
 _atom_site_fract_x
 _atom_site_fract_y
 _atom_site_fract_z
 _atom_site_occupancy
  Cr  Cr0  1  0.145039  0.854961  0.435117  1
  Cr  Cr1  1  0.854961  0.145039  0.564883  1
  Cd  Cd2  1  0.000000  0.000000  0.000000  1
  Cd  Cd3  1  0.500000  0.500000  0.499999  1
  Sn  Sn4  1  0.353511  0.646489  0.060532  1
  Sn  Sn5  1  0.646490  0.353510  0.939468  1
  P  P6  1  0.042102  0.244991  0.255282  1
  P  P7  1  0.755008  0.541829  0.255282  1
  P  P8  1  0.458170  0.957898  0.255282  1
  P  P9  1  0.541830  0.042103  0.744720  1
  P  P10  1  0.244990  0.458169  0.744720  1
  P  P11  1  0.957897  0.755007  0.744720  1
  O  O12  1  0.486564  0.106251  0.072106  1
  O  O13  1  0.893749  0.308206  0.072106  1
  O  O14  1  0.691794  0.513436  0.072106  1
  O  O15  1  0.240326  0.405238  0.255622  1
  O  O16  1  0.594764  0.579466  0.255622  1
  O  O17  1  0.420534  0.759675  0.255622  1
  O  O18  1  0.046690  0.070477  0.251156  1
  O  O19  1  0.929523  0.725057  0.251156  1
  O  O20  1  0.274944  0.953309  0.251156  1
  O  O21  1  0.011685  0.214156  0.423467  1
  O  O22  1  0.785846  0.374062  0.423467  1
  O  O23  1  0.625938  0.988315  0.423467  1
  O  O24  1  0.374062  0.011684  0.576534  1
  O  O25  1  0.214157  0.625938  0.576534  1
  O  O26  1  0.988315  0.785844  0.576534  1
  O  O27  1  0.725057  0.046690  0.748844  1
  O  O28  1  0.070477  0.274943  0.748844  1
  O  O29  1  0.953310  0.929522  0.748844  1
  O  O30  1  0.579467  0.240326  0.744378  1
  O  O31  1  0.405235  0.420532  0.744378  1
  O  O32  1  0.759676  0.594766  0.744378  1
  O  O33  1  0.308205  0.486564  0.927893  1
  O  O34  1  0.106250  0.691794  0.927893  1
  O  O35  1  0.513437  0.893751  0.927893  1
