# generated using pymatgen
data_Nd7Y12ErSi15Rh
_symmetry_space_group_name_H-M   'P 1'
_cell_length_a   7.52660443
_cell_length_b   7.78656477
_cell_length_c   14.81361986
_cell_angle_alpha   89.66046964
_cell_angle_beta   89.84286809
_cell_angle_gamma   90.28673755
_symmetry_Int_Tables_number   1
_chemical_formula_structural   Nd7Y12ErSi15Rh
_chemical_formula_sum   'Nd7 Y12 Er1 Si15 Rh1'
_cell_volume   868.14337506
_cell_formula_units_Z   1
loop_
 _symmetry_equiv_pos_site_id
 _symmetry_equiv_pos_as_xyz
  1  'x, y, z'
loop_
 _atom_site_type_symbol
 _atom_site_label
 _atom_site_symmetry_multiplicity
 _atom_site_fract_x
 _atom_site_fract_y
 _atom_site_fract_z
 _atom_site_occupancy
  Nd  Nd0  1  0.022854  0.178988  0.099144  1
  Nd  Nd1  1  0.977056  0.819024  0.899350  1
  Nd  Nd2  1  0.476849  0.679056  0.901644  1
  Nd  Nd3  1  0.980478  0.819541  0.596840  1
  Nd  Nd4  1  0.522324  0.321379  0.097792  1
  Nd  Nd5  1  0.019808  0.179517  0.403092  1
  Nd  Nd6  1  0.520800  0.319277  0.401538  1
  Y  Y7  1  0.159072  0.512878  0.742009  1
  Y  Y8  1  0.845556  0.489354  0.252564  1
  Y  Y9  1  0.343090  0.006405  0.251336  1
  Y  Y10  1  0.656071  0.989737  0.747814  1
  Y  Y11  1  0.323549  0.191233  0.618180  1
  Y  Y12  1  0.672578  0.818724  0.377727  1
  Y  Y13  1  0.177991  0.664720  0.382056  1
  Y  Y14  1  0.679167  0.821703  0.124054  1
  Y  Y15  1  0.826213  0.325236  0.620812  1
  Y  Y16  1  0.322140  0.181554  0.876461  1
  Y  Y17  1  0.825974  0.319223  0.876423  1
  Y  Y18  1  0.176664  0.680228  0.122582  1
  Er  Er19  1  0.475233  0.678066  0.600977  1
  Si  Si20  1  0.031826  0.110076  0.749284  1
  Si  Si21  1  0.971624  0.885827  0.252012  1
  Si  Si22  1  0.469570  0.608063  0.249202  1
  Si  Si23  1  0.534486  0.392256  0.751829  1
  Si  Si24  1  0.276473  0.881671  0.748756  1
  Si  Si25  1  0.726844  0.121586  0.249910  1
  Si  Si26  1  0.228532  0.374992  0.249269  1
  Si  Si27  1  0.768863  0.623368  0.750414  1
  Si  Si28  1  0.845538  0.529192  0.459559  1
  Si  Si29  1  0.351115  0.965521  0.462480  1
  Si  Si30  1  0.852016  0.531385  0.038374  1
  Si  Si31  1  0.644558  0.027413  0.539896  1
  Si  Si32  1  0.145904  0.469179  0.961894  1
  Si  Si33  1  0.647109  0.030680  0.961098  1
  Si  Si34  1  0.355032  0.969568  0.038665  1
  Rh  Rh35  1  0.147042  0.483386  0.544964  1
