# generated using pymatgen
data_Hf5Re17Tc7
_symmetry_space_group_name_H-M   'P 1'
_cell_length_a   8.46668692
_cell_length_b   8.46668690
_cell_length_c   8.45611433
_cell_angle_alpha   109.47795462
_cell_angle_beta   109.47795163
_cell_angle_gamma   109.58512812
_symmetry_Int_Tables_number   1
_chemical_formula_structural   Hf5Re17Tc7
_chemical_formula_sum   'Hf5 Re17 Tc7'
_cell_volume   465.89817041
_cell_formula_units_Z   1
loop_
 _symmetry_equiv_pos_site_id
 _symmetry_equiv_pos_as_xyz
  1  'x, y, z'
loop_
 _atom_site_type_symbol
 _atom_site_label
 _atom_site_symmetry_multiplicity
 _atom_site_fract_x
 _atom_site_fract_y
 _atom_site_fract_z
 _atom_site_occupancy
  Hf  Hf0  1  0.999404  0.999404  0.999708  1
  Hf  Hf1  1  0.625865  0.999684  0.999724  1
  Hf  Hf2  1  0.999684  0.625865  0.999724  1
  Hf  Hf3  1  0.001447  0.001447  0.628292  1
  Hf  Hf4  1  0.371847  0.371847  0.372297  1
  Re  Re5  1  0.000849  0.676456  0.396135  1
  Re  Re6  1  0.676456  0.000849  0.396135  1
  Re  Re7  1  0.603820  0.603820  0.279277  1
  Re  Re8  1  0.279765  0.605009  0.604092  1
  Re  Re9  1  0.605009  0.279765  0.604092  1
  Re  Re10  1  0.376333  0.195053  0.000840  1
  Re  Re11  1  0.180087  0.806045  0.805440  1
  Re  Re12  1  0.374830  0.000535  0.194383  1
  Re  Re13  1  0.195053  0.376333  0.000840  1
  Re  Re14  1  0.000535  0.374830  0.194383  1
  Re  Re15  1  0.806045  0.180087  0.805440  1
  Re  Re16  1  0.806024  0.806024  0.180924  1
  Re  Re17  1  0.000583  0.193980  0.376633  1
  Re  Re18  1  0.193980  0.000583  0.376633  1
  Re  Re19  1  0.623259  0.623259  0.816801  1
  Re  Re20  1  0.816699  0.623578  0.623000  1
  Re  Re21  1  0.623578  0.816699  0.623000  1
  Tc  Tc22  1  0.396356  0.677940  0.000507  1
  Tc  Tc23  1  0.719546  0.322781  0.322308  1
  Tc  Tc24  1  0.397280  0.001773  0.678387  1
  Tc  Tc25  1  0.677940  0.396356  0.000507  1
  Tc  Tc26  1  0.001773  0.397280  0.678387  1
  Tc  Tc27  1  0.322781  0.719546  0.322308  1
  Tc  Tc28  1  0.323171  0.323171  0.719804  1
