# generated using pymatgen
data_Th2SiAs(Ir2Pd)2
_symmetry_space_group_name_H-M   'P 1'
_cell_length_a   4.08454400
_cell_length_b   4.08454400
_cell_length_c   11.08831200
_cell_angle_alpha   90.00000000
_cell_angle_beta   90.00000000
_cell_angle_gamma   90.00000000
_symmetry_Int_Tables_number   1
_chemical_formula_structural   Th2SiAs(Ir2Pd)2
_chemical_formula_sum   'Th2 Si1 As1 Ir4 Pd2'
_cell_volume   184.99184979
_cell_formula_units_Z   1
loop_
 _symmetry_equiv_pos_site_id
 _symmetry_equiv_pos_as_xyz
  1  'x, y, z'
loop_
 _atom_site_type_symbol
 _atom_site_label
 _atom_site_symmetry_multiplicity
 _atom_site_fract_x
 _atom_site_fract_y
 _atom_site_fract_z
 _atom_site_occupancy
  Th  Th0  1  0.000000  0.500000  0.260461  1
  Th  Th1  1  0.500000  0.000000  0.731790  1
  Si  Si2  1  0.500000  0.000000  0.122605  1
  As  As3  1  0.000000  0.500000  0.879267  1
  Ir  Ir4  1  0.000000  0.000000  0.005389  1
  Ir  Ir5  1  0.500000  0.500000  0.005389  1
  Ir  Ir6  1  0.000000  0.500000  0.665557  1
  Ir  Ir7  1  0.500000  0.000000  0.330537  1
  Pd  Pd8  1  0.000000  0.000000  0.499503  1
  Pd  Pd9  1  0.500000  0.500000  0.499503  1
