# generated using pymatgen
data_Dy7Er(LuGa3)2
_symmetry_space_group_name_H-M   'P 1'
_cell_length_a   7.57242500
_cell_length_b   7.57256301
_cell_length_c   14.13695100
_cell_angle_alpha   89.99713996
_cell_angle_beta   90.00000000
_cell_angle_gamma   90.00000000
_symmetry_Int_Tables_number   1
_chemical_formula_structural   Dy7Er(LuGa3)2
_chemical_formula_sum   'Dy14 Er2 Lu4 Ga12'
_cell_volume   810.65045062
_cell_formula_units_Z   2
loop_
 _symmetry_equiv_pos_site_id
 _symmetry_equiv_pos_as_xyz
  1  'x, y, z'
loop_
 _atom_site_type_symbol
 _atom_site_label
 _atom_site_symmetry_multiplicity
 _atom_site_fract_x
 _atom_site_fract_y
 _atom_site_fract_z
 _atom_site_occupancy
  Dy  Dy0  1  0.676772  0.662433  0.602952  1
  Dy  Dy1  1  0.676673  0.337297  0.103005  1
  Dy  Dy2  1  0.823440  0.837739  0.397061  1
  Dy  Dy3  1  0.176560  0.837739  0.897061  1
  Dy  Dy4  1  0.323327  0.337297  0.603005  1
  Dy  Dy5  1  0.323228  0.662433  0.102952  1
  Dy  Dy6  1  0.176282  0.162453  0.397037  1
  Dy  Dy7  1  0.823718  0.162453  0.897037  1
  Dy  Dy8  1  0.662498  0.323479  0.397020  1
  Dy  Dy9  1  0.337502  0.323479  0.897020  1
  Dy  Dy10  1  0.162447  0.823670  0.602984  1
  Dy  Dy11  1  0.837553  0.823670  0.102984  1
  Dy  Dy12  1  0.337571  0.676488  0.397043  1
  Dy  Dy13  1  0.662429  0.676488  0.897043  1
  Er  Er14  1  0.837838  0.176380  0.603301  1
  Er  Er15  1  0.162162  0.176380  0.103301  1
  Lu  Lu16  1  0.999940  0.499818  0.762370  1
  Lu  Lu17  1  0.000060  0.499818  0.262370  1
  Lu  Lu18  1  0.499841  0.000107  0.237446  1
  Lu  Lu19  1  0.500159  0.000107  0.737446  1
  Ga  Ga20  1  0.999660  0.499685  0.495151  1
  Ga  Ga21  1  0.000340  0.499685  0.995151  1
  Ga  Ga22  1  0.500240  0.000306  0.505074  1
  Ga  Ga23  1  0.499760  0.000306  0.005074  1
  Ga  Ga24  1  0.875889  0.876270  0.749835  1
  Ga  Ga25  1  0.876313  0.124096  0.249819  1
  Ga  Ga26  1  0.623862  0.623892  0.249983  1
  Ga  Ga27  1  0.376138  0.623892  0.749983  1
  Ga  Ga28  1  0.123687  0.124096  0.749819  1
  Ga  Ga29  1  0.124111  0.876270  0.249835  1
  Ga  Ga30  1  0.375925  0.375883  0.249920  1
  Ga  Ga31  1  0.624075  0.375883  0.749920  1
