# generated using pymatgen
data_Hf4Cd(B7Ir6)2
_symmetry_space_group_name_H-M   'P 1'
_cell_length_a   3.43108371
_cell_length_b   7.87192793
_cell_length_c   13.59112390
_cell_angle_alpha   89.98750531
_cell_angle_beta   90.10652886
_cell_angle_gamma   90.14289048
_symmetry_Int_Tables_number   1
_chemical_formula_structural   Hf4Cd(B7Ir6)2
_chemical_formula_sum   'Hf4 Cd1 B14 Ir12'
_cell_volume   367.08419306
_cell_formula_units_Z   1
loop_
 _symmetry_equiv_pos_site_id
 _symmetry_equiv_pos_as_xyz
  1  'x, y, z'
loop_
 _atom_site_type_symbol
 _atom_site_label
 _atom_site_symmetry_multiplicity
 _atom_site_fract_x
 _atom_site_fract_y
 _atom_site_fract_z
 _atom_site_occupancy
  Hf  Hf0  1  0.250662  0.495790  0.836296  1
  Hf  Hf1  1  0.252804  0.002229  0.330334  1
  Hf  Hf2  1  0.747196  0.997771  0.669666  1
  Hf  Hf3  1  0.749338  0.504210  0.163704  1
  Cd  Cd4  1  0.500000  0.500000  0.500000  1
  B  B5  1  0.500000  0.000000  0.000000  1
  B  B6  1  0.000000  0.000000  0.000000  1
  B  B7  1  0.744240  0.325511  0.731098  1
  B  B8  1  0.750706  0.831234  0.218276  1
  B  B9  1  0.749285  0.753950  0.806052  1
  B  B10  1  0.746779  0.245469  0.296940  1
  B  B11  1  0.751539  0.425109  0.974440  1
  B  B12  1  0.741306  0.918367  0.473081  1
  B  B13  1  0.249294  0.168766  0.781724  1
  B  B14  1  0.255760  0.674489  0.268902  1
  B  B15  1  0.253221  0.754531  0.703060  1
  B  B16  1  0.250715  0.246050  0.193948  1
  B  B17  1  0.258694  0.081633  0.526919  1
  B  B18  1  0.248461  0.574891  0.025560  1
  Ir  Ir19  1  0.755399  0.593537  0.683535  1
  Ir  Ir20  1  0.749978  0.087587  0.159997  1
  Ir  Ir21  1  0.749086  0.701175  0.961828  1
  Ir  Ir22  1  0.762731  0.188217  0.455416  1
  Ir  Ir23  1  0.750312  0.203174  0.877646  1
  Ir  Ir24  1  0.758414  0.719738  0.359126  1
  Ir  Ir25  1  0.250022  0.912413  0.840003  1
  Ir  Ir26  1  0.244601  0.406463  0.316465  1
  Ir  Ir27  1  0.237269  0.811783  0.544584  1
  Ir  Ir28  1  0.250914  0.298825  0.038172  1
  Ir  Ir29  1  0.241586  0.280262  0.640874  1
  Ir  Ir30  1  0.249688  0.796826  0.122354  1
