# generated using pymatgen
data_TbEr11(Si3Pt)4
_symmetry_space_group_name_H-M   'P 1'
_cell_length_a   4.22518900
_cell_length_b   10.60350814
_cell_length_c   12.23521100
_cell_angle_alpha   89.99068981
_cell_angle_beta   90.00000000
_cell_angle_gamma   90.00000000
_symmetry_Int_Tables_number   1
_chemical_formula_structural   TbEr11(Si3Pt)4
_chemical_formula_sum   'Tb1 Er11 Si12 Pt4'
_cell_volume   548.15978650
_cell_formula_units_Z   1
loop_
 _symmetry_equiv_pos_site_id
 _symmetry_equiv_pos_as_xyz
  1  'x, y, z'
loop_
 _atom_site_type_symbol
 _atom_site_label
 _atom_site_symmetry_multiplicity
 _atom_site_fract_x
 _atom_site_fract_y
 _atom_site_fract_z
 _atom_site_occupancy
  Tb  Tb0  1  0.750000  0.159971  0.698296  1
  Er  Er1  1  0.250000  0.878217  0.020923  1
  Er  Er2  1  0.250000  0.621654  0.520699  1
  Er  Er3  1  0.750000  0.121497  0.979658  1
  Er  Er4  1  0.750000  0.378563  0.479052  1
  Er  Er5  1  0.250000  0.919072  0.601403  1
  Er  Er6  1  0.250000  0.580475  0.101560  1
  Er  Er7  1  0.750000  0.080487  0.398082  1
  Er  Er8  1  0.750000  0.419695  0.898694  1
  Er  Er9  1  0.250000  0.660416  0.801350  1
  Er  Er10  1  0.250000  0.839568  0.301365  1
  Er  Er11  1  0.750000  0.339623  0.198651  1
  Si  Si12  1  0.250000  0.015289  0.823757  1
  Si  Si13  1  0.250000  0.483992  0.323163  1
  Si  Si14  1  0.750000  0.983888  0.176803  1
  Si  Si15  1  0.750000  0.516026  0.676861  1
  Si  Si16  1  0.250000  0.246433  0.844041  1
  Si  Si17  1  0.250000  0.254194  0.342944  1
  Si  Si18  1  0.750000  0.754106  0.156793  1
  Si  Si19  1  0.750000  0.745877  0.656712  1
  Si  Si20  1  0.250000  0.194061  0.539594  1
  Si  Si21  1  0.250000  0.306510  0.041484  1
  Si  Si22  1  0.750000  0.806618  0.458701  1
  Si  Si23  1  0.750000  0.693545  0.958842  1
  Pt  Pt24  1  0.250000  0.390479  0.680713  1
  Pt  Pt25  1  0.250000  0.110597  0.180663  1
  Pt  Pt26  1  0.750000  0.610638  0.319293  1
  Pt  Pt27  1  0.750000  0.888511  0.819902  1
