# generated using pymatgen
data_Dy20GaCo4Sb7
_symmetry_space_group_name_H-M   'P 1'
_cell_length_a   12.14442577
_cell_length_b   8.78534460
_cell_length_c   7.87901372
_cell_angle_alpha   89.95242823
_cell_angle_beta   89.98953563
_cell_angle_gamma   89.85596133
_symmetry_Int_Tables_number   1
_chemical_formula_structural   Dy20GaCo4Sb7
_chemical_formula_sum   'Dy20 Ga1 Co4 Sb7'
_cell_volume   840.63237776
_cell_formula_units_Z   1
loop_
 _symmetry_equiv_pos_site_id
 _symmetry_equiv_pos_as_xyz
  1  'x, y, z'
loop_
 _atom_site_type_symbol
 _atom_site_label
 _atom_site_symmetry_multiplicity
 _atom_site_fract_x
 _atom_site_fract_y
 _atom_site_fract_z
 _atom_site_occupancy
  Dy  Dy0  1  0.496983  0.758744  0.047735  1
  Dy  Dy1  1  0.806278  0.250249  0.121639  1
  Dy  Dy2  1  0.796660  0.748603  0.153154  1
  Dy  Dy3  1  0.071467  0.032992  0.176102  1
  Dy  Dy4  1  0.065482  0.464150  0.179288  1
  Dy  Dy5  1  0.565265  0.036691  0.322139  1
  Dy  Dy6  1  0.565518  0.466992  0.318759  1
  Dy  Dy7  1  0.294365  0.755511  0.338964  1
  Dy  Dy8  1  0.307495  0.245158  0.368306  1
  Dy  Dy9  1  0.002426  0.748617  0.456137  1
  Dy  Dy10  1  0.997930  0.251025  0.547056  1
  Dy  Dy11  1  0.692984  0.750138  0.621536  1
  Dy  Dy12  1  0.701620  0.249531  0.654659  1
  Dy  Dy13  1  0.433654  0.532678  0.677657  1
  Dy  Dy14  1  0.432590  0.965833  0.681531  1
  Dy  Dy15  1  0.935320  0.536285  0.821809  1
  Dy  Dy16  1  0.934756  0.966318  0.821934  1
  Dy  Dy17  1  0.206654  0.244360  0.850018  1
  Dy  Dy18  1  0.197584  0.756616  0.884537  1
  Dy  Dy19  1  0.492388  0.241002  0.961050  1
  Ga  Ga20  1  0.329891  0.005053  0.071130  1
  Co  Co21  1  0.010115  0.750503  0.067475  1
  Co  Co22  1  0.508692  0.750323  0.433390  1
  Co  Co23  1  0.490265  0.250857  0.563452  1
  Co  Co24  1  0.990727  0.250573  0.933143  1
  Sb  Sb25  1  0.328000  0.492844  0.071940  1
  Sb  Sb26  1  0.828510  0.007537  0.427700  1
  Sb  Sb27  1  0.826865  0.491616  0.428701  1
  Sb  Sb28  1  0.174565  0.506856  0.572121  1
  Sb  Sb29  1  0.171928  0.992891  0.572702  1
  Sb  Sb30  1  0.669253  0.507781  0.926952  1
  Sb  Sb31  1  0.673766  0.991669  0.927290  1
