# generated using pymatgen
data_Ho2(CO3)3
_symmetry_space_group_name_H-M   'P 1'
_cell_length_a   8.03503100
_cell_length_b   8.30398096
_cell_length_c   8.33838000
_cell_angle_alpha   119.87502162
_cell_angle_beta   90.04038856
_cell_angle_gamma   89.97633557
_symmetry_Int_Tables_number   1
_chemical_formula_structural   Ho2(CO3)3
_chemical_formula_sum   'Ho4 C6 O18'
_cell_volume   482.42706638
_cell_formula_units_Z   2
loop_
 _symmetry_equiv_pos_site_id
 _symmetry_equiv_pos_as_xyz
  1  'x, y, z'
loop_
 _atom_site_type_symbol
 _atom_site_label
 _atom_site_symmetry_multiplicity
 _atom_site_fract_x
 _atom_site_fract_y
 _atom_site_fract_z
 _atom_site_occupancy
  Ho  Ho0  1  0.968167  0.665337  0.332317  1
  Ho  Ho1  1  0.531897  0.667248  0.333404  1
  Ho  Ho2  1  0.468103  0.332752  0.666596  1
  Ho  Ho3  1  0.031833  0.334663  0.667683  1
  C  C4  1  0.249496  0.967350  0.369974  1
  C  C5  1  0.250059  0.402956  0.033063  1
  C  C6  1  0.749664  0.368926  0.402772  1
  C  C7  1  0.250336  0.631074  0.597228  1
  C  C8  1  0.749941  0.597044  0.966937  1
  C  C9  1  0.750504  0.032650  0.630026  1
  O  O10  1  0.109918  0.881415  0.317331  1
  O  O11  1  0.389897  0.882981  0.317983  1
  O  O12  1  0.749740  0.666021  0.146499  1
  O  O13  1  0.389838  0.436799  0.118520  1
  O  O14  1  0.109868  0.434927  0.117433  1
  O  O15  1  0.749356  0.479515  0.332942  1
  O  O16  1  0.751066  0.852530  0.518722  1
  O  O17  1  0.110132  0.682490  0.563547  1
  O  O18  1  0.390175  0.683433  0.564113  1
  O  O19  1  0.609825  0.316567  0.435887  1
  O  O20  1  0.889868  0.317510  0.436453  1
  O  O21  1  0.248934  0.147470  0.481278  1
  O  O22  1  0.250644  0.520485  0.667058  1
  O  O23  1  0.890132  0.565073  0.882567  1
  O  O24  1  0.610162  0.563201  0.881480  1
  O  O25  1  0.250260  0.333979  0.853501  1
  O  O26  1  0.610103  0.117019  0.682017  1
  O  O27  1  0.890082  0.118585  0.682669  1
