# generated using pymatgen
data_Na2TaNi11P7
_symmetry_space_group_name_H-M   'P 1'
_cell_length_a   9.08182460
_cell_length_b   9.18939858
_cell_length_c   3.65253300
_cell_angle_alpha   90.00000000
_cell_angle_beta   90.00000000
_cell_angle_gamma   120.01673657
_symmetry_Int_Tables_number   1
_chemical_formula_structural   Na2TaNi11P7
_chemical_formula_sum   'Na2 Ta1 Ni11 P7'
_cell_volume   263.94394944
_cell_formula_units_Z   1
loop_
 _symmetry_equiv_pos_site_id
 _symmetry_equiv_pos_as_xyz
  1  'x, y, z'
loop_
 _atom_site_type_symbol
 _atom_site_label
 _atom_site_symmetry_multiplicity
 _atom_site_fract_x
 _atom_site_fract_y
 _atom_site_fract_z
 _atom_site_occupancy
  Na  Na0  1  0.667994  0.333081  0.500000  1
  Na  Na1  1  0.332707  0.663010  0.000000  1
  Ta  Ta2  1  0.215228  0.094963  0.500000  1
  Ni  Ni3  1  0.717837  0.879301  0.000000  1
  Ni  Ni4  1  0.938977  0.376554  0.000000  1
  Ni  Ni5  1  0.905938  0.122288  0.500000  1
  Ni  Ni6  1  0.153917  0.282676  0.000000  1
  Ni  Ni7  1  0.386481  0.441552  0.500000  1
  Ni  Ni8  1  0.120405  0.835031  0.000000  1
  Ni  Ni9  1  0.434528  0.058251  0.000000  1
  Ni  Ni10  1  0.047914  0.614437  0.500000  1
  Ni  Ni11  1  0.569712  0.954244  0.500000  1
  Ni  Ni12  1  0.631077  0.571606  0.000000  1
  Ni  Ni13  1  0.875419  0.778079  0.500000  1
  P  P14  1  0.415971  0.303095  0.000000  1
  P  P15  1  0.294360  0.875519  0.500000  1
  P  P16  1  0.709691  0.118329  0.000000  1
  P  P17  1  0.595216  0.710224  0.500000  1
  P  P18  1  0.883665  0.587635  0.000000  1
  P  P19  1  0.110330  0.404242  0.500000  1
  P  P20  1  0.992634  0.995882  0.000000  1
