# generated using pymatgen
data_NdCuHgPd3
_symmetry_space_group_name_H-M   'P 1'
_cell_length_a   5.25908028
_cell_length_b   5.25908065
_cell_length_c   5.25907981
_cell_angle_alpha   63.01504498
_cell_angle_beta   63.01504061
_cell_angle_gamma   63.01504452
_symmetry_Int_Tables_number   1
_chemical_formula_structural   NdCuHgPd3
_chemical_formula_sum   'Nd1 Cu1 Hg1 Pd3'
_cell_volume   109.73607020
_cell_formula_units_Z   1
loop_
 _symmetry_equiv_pos_site_id
 _symmetry_equiv_pos_as_xyz
  1  'x, y, z'
loop_
 _atom_site_type_symbol
 _atom_site_label
 _atom_site_symmetry_multiplicity
 _atom_site_fract_x
 _atom_site_fract_y
 _atom_site_fract_z
 _atom_site_occupancy
  Nd  Nd0  1  0.999935  0.999935  0.999935  1
  Cu  Cu1  1  0.624008  0.624008  0.624008  1
  Hg  Hg2  1  0.253387  0.253387  0.253387  1
  Pd  Pd3  1  0.623395  0.623395  0.125878  1
  Pd  Pd4  1  0.623395  0.125878  0.623395  1
  Pd  Pd5  1  0.125878  0.623395  0.623395  1
