# generated using pymatgen
data_KHf6PCl15
_symmetry_space_group_name_H-M   'P 1'
_cell_length_a   9.73991100
_cell_length_b   13.94139000
_cell_length_c   18.57733800
_cell_angle_alpha   90.00000000
_cell_angle_beta   90.00000000
_cell_angle_gamma   90.00000000
_symmetry_Int_Tables_number   1
_chemical_formula_structural   KHf6PCl15
_chemical_formula_sum   'K4 Hf24 P4 Cl60'
_cell_volume   2522.57767404
_cell_formula_units_Z   4
loop_
 _symmetry_equiv_pos_site_id
 _symmetry_equiv_pos_as_xyz
  1  'x, y, z'
loop_
 _atom_site_type_symbol
 _atom_site_label
 _atom_site_symmetry_multiplicity
 _atom_site_fract_x
 _atom_site_fract_y
 _atom_site_fract_z
 _atom_site_occupancy
  K  K0  1  0.830583  0.247880  0.750000  1
  K  K1  1  0.169417  0.752120  0.250000  1
  K  K2  1  0.830583  0.752120  0.750000  1
  K  K3  1  0.169417  0.247880  0.250000  1
  Hf  Hf4  1  0.103219  0.500000  0.750000  1
  Hf  Hf5  1  0.896781  0.500000  0.250000  1
  Hf  Hf6  1  0.085892  0.000000  0.118903  1
  Hf  Hf7  1  0.914108  0.000000  0.881097  1
  Hf  Hf8  1  0.085892  0.000000  0.381097  1
  Hf  Hf9  1  0.914108  0.000000  0.618903  1
  Hf  Hf10  1  0.342148  0.379182  0.659127  1
  Hf  Hf11  1  0.657852  0.620818  0.340873  1
  Hf  Hf12  1  0.342148  0.620818  0.840873  1
  Hf  Hf13  1  0.657852  0.379182  0.340873  1
  Hf  Hf14  1  0.657852  0.379182  0.159127  1
  Hf  Hf15  1  0.342148  0.620818  0.659127  1
  Hf  Hf16  1  0.657852  0.620818  0.159127  1
  Hf  Hf17  1  0.342148  0.379182  0.840873  1
  Hf  Hf18  1  0.583890  0.500000  0.750000  1
  Hf  Hf19  1  0.416110  0.500000  0.250000  1
  Hf  Hf20  1  0.163431  0.120404  0.530863  1
  Hf  Hf21  1  0.836569  0.879596  0.469137  1
  Hf  Hf22  1  0.163431  0.879596  0.969137  1
  Hf  Hf23  1  0.836569  0.120404  0.469137  1
  Hf  Hf24  1  0.836569  0.120404  0.030863  1
  Hf  Hf25  1  0.163431  0.879596  0.530863  1
  Hf  Hf26  1  0.836569  0.879596  0.030863  1
  Hf  Hf27  1  0.163431  0.120404  0.969137  1
  P  P28  1  0.000000  0.000000  0.500000  1
  P  P29  1  0.000000  0.000000  0.000000  1
  P  P30  1  0.343776  0.500000  0.750000  1
  P  P31  1  0.656224  0.500000  0.250000  1
  Cl  Cl32  1  0.809670  0.000000  0.750000  1
  Cl  Cl33  1  0.190330  0.000000  0.250000  1
  Cl  Cl34  1  0.842839  0.500000  0.750000  1
  Cl  Cl35  1  0.157161  0.500000  0.250000  1
  Cl  Cl36  1  0.340527  0.500000  0.556315  1
  Cl  Cl37  1  0.659473  0.500000  0.443685  1
  Cl  Cl38  1  0.340527  0.500000  0.943685  1
  Cl  Cl39  1  0.659473  0.500000  0.056315  1
  Cl  Cl40  1  0.000000  0.256767  0.500000  1
  Cl  Cl41  1  0.000000  0.743233  0.500000  1
  Cl  Cl42  1  0.000000  0.743233  0.000000  1
  Cl  Cl43  1  0.000000  0.256767  0.000000  1
  Cl  Cl44  1  0.352068  0.242100  0.750000  1
  Cl  Cl45  1  0.647932  0.757900  0.250000  1
  Cl  Cl46  1  0.352068  0.757900  0.750000  1
  Cl  Cl47  1  0.647932  0.242100  0.250000  1
  Cl  Cl48  1  0.345531  0.249285  0.560276  1
  Cl  Cl49  1  0.654469  0.750715  0.439724  1
  Cl  Cl50  1  0.345531  0.750715  0.939724  1
  Cl  Cl51  1  0.654469  0.249285  0.439724  1
  Cl  Cl52  1  0.654469  0.249285  0.060276  1
  Cl  Cl53  1  0.345531  0.750715  0.560276  1
  Cl  Cl54  1  0.654469  0.750715  0.060276  1
  Cl  Cl55  1  0.345531  0.249285  0.939724  1
  Cl  Cl56  1  0.082072  0.126509  0.661340  1
  Cl  Cl57  1  0.917928  0.873491  0.338660  1
  Cl  Cl58  1  0.082072  0.873491  0.838660  1
  Cl  Cl59  1  0.917928  0.126509  0.338660  1
  Cl  Cl60  1  0.917928  0.126509  0.161340  1
  Cl  Cl61  1  0.082072  0.873491  0.661340  1
  Cl  Cl62  1  0.917928  0.873491  0.161340  1
  Cl  Cl63  1  0.082072  0.126509  0.838660  1
  Cl  Cl64  1  0.079731  0.372995  0.653507  1
  Cl  Cl65  1  0.920269  0.627005  0.346493  1
  Cl  Cl66  1  0.079731  0.627005  0.846493  1
  Cl  Cl67  1  0.920269  0.372995  0.346493  1
  Cl  Cl68  1  0.920269  0.372995  0.153507  1
  Cl  Cl69  1  0.079731  0.627005  0.653507  1
  Cl  Cl70  1  0.920269  0.627005  0.153507  1
  Cl  Cl71  1  0.079731  0.372995  0.846493  1
  Cl  Cl72  1  0.347111  0.000000  0.567436  1
  Cl  Cl73  1  0.652889  0.000000  0.432564  1
  Cl  Cl74  1  0.347111  0.000000  0.932564  1
  Cl  Cl75  1  0.652889  0.000000  0.067436  1
  Cl  Cl76  1  0.605503  0.371090  0.652283  1
  Cl  Cl77  1  0.394497  0.628910  0.347717  1
  Cl  Cl78  1  0.605503  0.628910  0.847717  1
  Cl  Cl79  1  0.394497  0.371090  0.347717  1
  Cl  Cl80  1  0.394497  0.371090  0.152283  1
  Cl  Cl81  1  0.605503  0.628910  0.652283  1
  Cl  Cl82  1  0.394497  0.628910  0.152283  1
  Cl  Cl83  1  0.605503  0.371090  0.847717  1
  Cl  Cl84  1  0.265373  0.129928  0.096788  1
  Cl  Cl85  1  0.734627  0.870072  0.903212  1
  Cl  Cl86  1  0.265373  0.870072  0.403212  1
  Cl  Cl87  1  0.734627  0.129928  0.903212  1
  Cl  Cl88  1  0.734627  0.129928  0.596788  1
  Cl  Cl89  1  0.265373  0.870072  0.096788  1
  Cl  Cl90  1  0.734627  0.870072  0.596788  1
  Cl  Cl91  1  0.265373  0.129928  0.403212  1
