# generated using pymatgen
data_Nd4Th(B3Ru)2
_symmetry_space_group_name_H-M   'P 1'
_cell_length_a   5.59906644
_cell_length_b   5.59906710
_cell_length_c   8.60269018
_cell_angle_alpha   71.00864011
_cell_angle_beta   71.00863774
_cell_angle_gamma   60.00000769
_symmetry_Int_Tables_number   1
_chemical_formula_structural   Nd4Th(B3Ru)2
_chemical_formula_sum   'Nd4 Th1 B6 Ru2'
_cell_volume   216.44205309
_cell_formula_units_Z   1
loop_
 _symmetry_equiv_pos_site_id
 _symmetry_equiv_pos_as_xyz
  1  'x, y, z'
loop_
 _atom_site_type_symbol
 _atom_site_label
 _atom_site_symmetry_multiplicity
 _atom_site_fract_x
 _atom_site_fract_y
 _atom_site_fract_z
 _atom_site_occupancy
  Nd  Nd0  1  0.251189  0.251189  0.246432  1
  Nd  Nd1  1  0.748811  0.748811  0.753568  1
  Nd  Nd2  1  0.415040  0.415040  0.754879  1
  Nd  Nd3  1  0.584960  0.584960  0.245121  1
  Th  Th4  1  0.000000  0.000000  0.000000  1
  B  B5  1  0.171349  0.828651  0.500000  1
  B  B6  1  0.828651  0.500000  0.500000  1
  B  B7  1  0.500000  0.171349  0.500000  1
  B  B8  1  0.171349  0.500000  0.500000  1
  B  B9  1  0.500000  0.828651  0.500000  1
  B  B10  1  0.828651  0.171349  0.500000  1
  Ru  Ru11  1  0.111370  0.111370  0.665890  1
  Ru  Ru12  1  0.888630  0.888630  0.334110  1
