# generated using pymatgen
data_Tb5Dy3(TmRu2)2
_symmetry_space_group_name_H-M   'P 1'
_cell_length_a   6.36720347
_cell_length_b   7.27187972
_cell_length_c   8.49737520
_cell_angle_alpha   96.64753407
_cell_angle_beta   112.06198041
_cell_angle_gamma   89.92823129
_symmetry_Int_Tables_number   1
_chemical_formula_structural   Tb5Dy3(TmRu2)2
_chemical_formula_sum   'Tb5 Dy3 Tm2 Ru4'
_cell_volume   361.80031179
_cell_formula_units_Z   1
loop_
 _symmetry_equiv_pos_site_id
 _symmetry_equiv_pos_as_xyz
  1  'x, y, z'
loop_
 _atom_site_type_symbol
 _atom_site_label
 _atom_site_symmetry_multiplicity
 _atom_site_fract_x
 _atom_site_fract_y
 _atom_site_fract_z
 _atom_site_occupancy
  Tb  Tb0  1  0.791952  0.084060  0.814433  1
  Tb  Tb1  1  0.977035  0.415931  0.185501  1
  Tb  Tb2  1  0.208214  0.915824  0.185577  1
  Tb  Tb3  1  0.022825  0.584207  0.814519  1
  Tb  Tb4  1  0.206825  0.185164  0.567061  1
  Dy  Dy5  1  0.639870  0.315119  0.432912  1
  Dy  Dy6  1  0.793088  0.814860  0.432819  1
  Dy  Dy7  1  0.360209  0.684899  0.567008  1
  Tm  Tm8  1  0.422186  0.249846  0.000095  1
  Tm  Tm9  1  0.577918  0.750167  0.000030  1
  Ru  Ru10  1  0.602855  0.424978  0.781483  1
  Ru  Ru11  1  0.820986  0.075487  0.218339  1
  Ru  Ru12  1  0.397323  0.575146  0.218625  1
  Ru  Ru13  1  0.178714  0.924314  0.781601  1
