# generated using pymatgen
data_Tm7Sc(Si4Ru3)4
_symmetry_space_group_name_H-M   'P 1'
_cell_length_a   10.13638794
_cell_length_b   10.13384513
_cell_length_c   13.63074800
_cell_angle_alpha   53.35460107
_cell_angle_beta   53.27482986
_cell_angle_gamma   30.86869307
_symmetry_Int_Tables_number   1
_chemical_formula_structural   Tm7Sc(Si4Ru3)4
_chemical_formula_sum   'Tm7 Sc1 Si16 Ru12'
_cell_volume   563.77249624
_cell_formula_units_Z   1
loop_
 _symmetry_equiv_pos_site_id
 _symmetry_equiv_pos_as_xyz
  1  'x, y, z'
loop_
 _atom_site_type_symbol
 _atom_site_label
 _atom_site_symmetry_multiplicity
 _atom_site_fract_x
 _atom_site_fract_y
 _atom_site_fract_z
 _atom_site_occupancy
  Tm  Tm0  1  0.039711  0.288063  0.640360  1
  Tm  Tm1  1  0.711068  0.961538  0.860175  1
  Tm  Tm2  1  0.960452  0.711633  0.359130  1
  Tm  Tm3  1  0.289277  0.038287  0.140628  1
  Tm  Tm4  1  0.300196  0.557402  0.643434  1
  Tm  Tm5  1  0.442582  0.698126  0.858868  1
  Tm  Tm6  1  0.701146  0.441403  0.355437  1
  Sc  Sc7  1  0.558693  0.293746  0.146075  1
  Si  Si8  1  0.977114  0.250523  0.896291  1
  Si  Si9  1  0.752131  0.020456  0.604528  1
  Si  Si10  1  0.024274  0.749868  0.105820  1
  Si  Si11  1  0.248985  0.978461  0.394147  1
  Si  Si12  1  0.138732  0.384260  0.900428  1
  Si  Si13  1  0.615329  0.861528  0.599637  1
  Si  Si14  1  0.860676  0.616527  0.100819  1
  Si  Si15  1  0.382375  0.143765  0.396660  1
  Si  Si16  1  0.081516  0.574608  0.568211  1
  Si  Si17  1  0.425468  0.919371  0.931125  1
  Si  Si18  1  0.917721  0.425459  0.431902  1
  Si  Si19  1  0.574695  0.083940  0.069475  1
  Si  Si20  1  0.620376  0.380307  0.750054  1
  Si  Si21  1  0.382612  0.616065  0.247991  1
  Si  Si22  1  0.129944  0.869926  0.751031  1
  Si  Si23  1  0.865806  0.132485  0.248518  1
  Ru  Ru24  1  0.899261  0.137848  0.587612  1
  Ru  Ru25  1  0.858233  0.104261  0.914680  1
  Ru  Ru26  1  0.102309  0.860048  0.411078  1
  Ru  Ru27  1  0.137925  0.898572  0.087423  1
  Ru  Ru28  1  0.835613  0.642597  0.782620  1
  Ru  Ru29  1  0.358260  0.164971  0.716824  1
  Ru  Ru30  1  0.166956  0.359098  0.216886  1
  Ru  Ru31  1  0.642004  0.835038  0.282946  1
  Ru  Ru32  1  0.251401  0.502502  0.932727  1
  Ru  Ru33  1  0.497000  0.748693  0.568188  1
  Ru  Ru34  1  0.748389  0.496155  0.066495  1
  Ru  Ru35  1  0.501770  0.252473  0.431776  1
