# generated using pymatgen
data_Dy(Al3Cr)3
_symmetry_space_group_name_H-M   'P 1'
_cell_length_a   5.07866060
_cell_length_b   6.86126506
_cell_length_c   6.86788211
_cell_angle_alpha   98.11797398
_cell_angle_beta   112.42994889
_cell_angle_gamma   68.27842259
_symmetry_Int_Tables_number   1
_chemical_formula_structural   Dy(Al3Cr)3
_chemical_formula_sum   'Dy1 Al9 Cr3'
_cell_volume   205.50561227
_cell_formula_units_Z   1
loop_
 _symmetry_equiv_pos_site_id
 _symmetry_equiv_pos_as_xyz
  1  'x, y, z'
loop_
 _atom_site_type_symbol
 _atom_site_label
 _atom_site_symmetry_multiplicity
 _atom_site_fract_x
 _atom_site_fract_y
 _atom_site_fract_z
 _atom_site_occupancy
  Dy  Dy0  1  0.000000  0.000000  0.000000  1
  Al  Al1  1  0.730179  0.774730  0.214384  1
  Al  Al2  1  0.269821  0.225270  0.785616  1
  Al  Al3  1  0.495091  0.774730  0.785616  1
  Al  Al4  1  0.504909  0.225270  0.214384  1
  Al  Al5  1  0.665598  0.351439  0.666096  1
  Al  Al6  1  0.334402  0.648561  0.333904  1
  Al  Al7  1  0.982963  0.351439  0.333904  1
  Al  Al8  1  0.017037  0.648561  0.666096  1
  Al  Al9  1  0.500000  0.000000  0.500000  1
  Cr  Cr10  1  0.000000  0.000000  0.500000  1
  Cr  Cr11  1  0.500000  0.500000  0.000000  1
  Cr  Cr12  1  0.000000  0.500000  0.000000  1
