# generated using pymatgen
data_Er2TmIn3HgRh2
_symmetry_space_group_name_H-M   'P 1'
_cell_length_a   7.82573833
_cell_length_b   7.83934740
_cell_length_c   3.75143500
_cell_angle_alpha   90.00000000
_cell_angle_beta   90.00000000
_cell_angle_gamma   120.08764530
_symmetry_Int_Tables_number   1
_chemical_formula_structural   Er2TmIn3HgRh2
_chemical_formula_sum   'Er2 Tm1 In3 Hg1 Rh2'
_cell_volume   199.13566806
_cell_formula_units_Z   1
loop_
 _symmetry_equiv_pos_site_id
 _symmetry_equiv_pos_as_xyz
  1  'x, y, z'
loop_
 _atom_site_type_symbol
 _atom_site_label
 _atom_site_symmetry_multiplicity
 _atom_site_fract_x
 _atom_site_fract_y
 _atom_site_fract_z
 _atom_site_occupancy
  Er  Er0  1  0.968682  0.383522  0.500000  1
  Er  Er1  1  0.616237  0.584738  0.500000  1
  Tm  Tm2  1  0.415035  0.032276  0.500000  1
  In  In3  1  0.258983  0.259170  0.000000  1
  In  In4  1  0.000595  0.741345  0.000000  1
  In  In5  1  0.740644  0.999360  0.000000  1
  Hg  Hg6  1  0.333507  0.667441  0.000000  1
  Rh  Rh7  1  0.000539  0.000120  0.500000  1
  Rh  Rh8  1  0.665776  0.332029  0.000000  1
