# generated using pymatgen
data_DyY6Tm13Pt16
_symmetry_space_group_name_H-M   'P 1'
_cell_length_a   7.44116913
_cell_length_b   7.51375610
_cell_length_c   14.62203400
_cell_angle_alpha   90.00055666
_cell_angle_beta   89.98935113
_cell_angle_gamma   89.96904840
_symmetry_Int_Tables_number   1
_chemical_formula_structural   DyY6Tm13Pt16
_chemical_formula_sum   'Dy1 Y6 Tm13 Pt16'
_cell_volume   817.53430902
_cell_formula_units_Z   1
loop_
 _symmetry_equiv_pos_site_id
 _symmetry_equiv_pos_as_xyz
  1  'x, y, z'
loop_
 _atom_site_type_symbol
 _atom_site_label
 _atom_site_symmetry_multiplicity
 _atom_site_fract_x
 _atom_site_fract_y
 _atom_site_fract_z
 _atom_site_occupancy
  Dy  Dy0  1  0.498702  0.679375  0.093193  1
  Y  Y1  1  0.501357  0.320533  0.592852  1
  Y  Y2  1  0.001147  0.179403  0.907089  1
  Y  Y3  1  0.000846  0.178569  0.592599  1
  Y  Y4  1  0.501183  0.320680  0.907023  1
  Y  Y5  1  0.498752  0.679619  0.407117  1
  Y  Y6  1  0.998961  0.820562  0.092902  1
  Tm  Tm7  1  0.681163  0.989927  0.250378  1
  Tm  Tm8  1  0.181001  0.510247  0.250421  1
  Tm  Tm9  1  0.818983  0.489872  0.749801  1
  Tm  Tm10  1  0.318989  0.010016  0.749960  1
  Tm  Tm11  1  0.656135  0.832822  0.622350  1
  Tm  Tm12  1  0.156017  0.667392  0.877456  1
  Tm  Tm13  1  0.843892  0.332444  0.377625  1
  Tm  Tm14  1  0.343716  0.167430  0.122667  1
  Tm  Tm15  1  0.343187  0.167072  0.377772  1
  Tm  Tm16  1  0.844061  0.332389  0.122712  1
  Tm  Tm17  1  0.155477  0.667901  0.622097  1
  Tm  Tm18  1  0.656136  0.832513  0.877552  1
  Tm  Tm19  1  0.997699  0.819598  0.406737  1
  Pt  Pt20  1  0.817820  0.642578  0.251332  1
  Pt  Pt21  1  0.315942  0.858306  0.250333  1
  Pt  Pt22  1  0.683621  0.141458  0.749839  1
  Pt  Pt23  1  0.183615  0.358635  0.749805  1
  Pt  Pt24  1  0.546806  0.384312  0.250045  1
  Pt  Pt25  1  0.046073  0.115217  0.250677  1
  Pt  Pt26  1  0.953556  0.883803  0.749950  1
  Pt  Pt27  1  0.453462  0.616231  0.749863  1
  Pt  Pt28  1  0.818288  0.535512  0.541401  1
  Pt  Pt29  1  0.318156  0.965576  0.958144  1
  Pt  Pt30  1  0.684826  0.032251  0.457407  1
  Pt  Pt31  1  0.182223  0.466252  0.042202  1
  Pt  Pt32  1  0.181123  0.468133  0.457168  1
  Pt  Pt33  1  0.681802  0.034059  0.042101  1
  Pt  Pt34  1  0.317547  0.965084  0.541386  1
  Pt  Pt35  1  0.817741  0.534226  0.958048  1
