# generated using pymatgen
data_La5TbTi2(MnC6)2
_symmetry_space_group_name_H-M   'P 1'
_cell_length_a   8.40504747
_cell_length_b   8.41619105
_cell_length_c   5.28123200
_cell_angle_alpha   90.00000000
_cell_angle_beta   90.00000000
_cell_angle_gamma   119.74249985
_symmetry_Int_Tables_number   1
_chemical_formula_structural   La5TbTi2(MnC6)2
_chemical_formula_sum   'La5 Tb1 Ti2 Mn2 C12'
_cell_volume   324.37149190
_cell_formula_units_Z   1
loop_
 _symmetry_equiv_pos_site_id
 _symmetry_equiv_pos_as_xyz
  1  'x, y, z'
loop_
 _atom_site_type_symbol
 _atom_site_label
 _atom_site_symmetry_multiplicity
 _atom_site_fract_x
 _atom_site_fract_y
 _atom_site_fract_z
 _atom_site_occupancy
  La  La0  1  0.607313  0.679899  0.750000  1
  La  La1  1  0.926649  0.610344  0.250000  1
  La  La2  1  0.679098  0.071222  0.250000  1
  La  La3  1  0.320489  0.932021  0.750000  1
  La  La4  1  0.072353  0.391443  0.750000  1
  Tb  Tb5  1  0.376429  0.310964  0.250000  1
  Ti  Ti6  1  0.000417  0.000525  0.500245  1
  Ti  Ti7  1  0.000417  0.000525  0.999755  1
  Mn  Mn8  1  0.664874  0.335327  0.750000  1
  Mn  Mn9  1  0.335493  0.663247  0.250000  1
  C  C10  1  0.951599  0.759359  0.750000  1
  C  C11  1  0.200854  0.955847  0.250000  1
  C  C12  1  0.762292  0.810676  0.250000  1
  C  C13  1  0.238657  0.193032  0.750000  1
  C  C14  1  0.807476  0.050155  0.750000  1
  C  C15  1  0.050137  0.238661  0.250000  1
  C  C16  1  0.850791  0.571490  0.750000  1
  C  C17  1  0.281534  0.847299  0.250000  1
  C  C18  1  0.573862  0.714686  0.250000  1
  C  C19  1  0.426982  0.285596  0.750000  1
  C  C20  1  0.152769  0.426527  0.250000  1
  C  C21  1  0.719515  0.151154  0.750000  1
