# generated using pymatgen
data_Tm4Lu5Th3Co4
_symmetry_space_group_name_H-M   'P 1'
_cell_length_a   6.21701674
_cell_length_b   6.86578130
_cell_length_c   9.42545531
_cell_angle_alpha   90.01615224
_cell_angle_beta   90.02453302
_cell_angle_gamma   91.11204417
_symmetry_Int_Tables_number   1
_chemical_formula_structural   Tm4Lu5Th3Co4
_chemical_formula_sum   'Tm4 Lu5 Th3 Co4'
_cell_volume   402.24668897
_cell_formula_units_Z   1
loop_
 _symmetry_equiv_pos_site_id
 _symmetry_equiv_pos_as_xyz
  1  'x, y, z'
loop_
 _atom_site_type_symbol
 _atom_site_label
 _atom_site_symmetry_multiplicity
 _atom_site_fract_x
 _atom_site_fract_y
 _atom_site_fract_z
 _atom_site_occupancy
  Tm  Tm0  1  0.329417  0.674495  0.067610  1
  Tm  Tm1  1  0.169820  0.170867  0.431567  1
  Tm  Tm2  1  0.673645  0.327696  0.569995  1
  Tm  Tm3  1  0.357536  0.958271  0.750114  1
  Lu  Lu4  1  0.824741  0.827626  0.927578  1
  Lu  Lu5  1  0.673513  0.327297  0.930043  1
  Lu  Lu6  1  0.824872  0.827491  0.572231  1
  Lu  Lu7  1  0.329574  0.674465  0.432307  1
  Lu  Lu8  1  0.169805  0.170951  0.068157  1
  Th  Th9  1  0.847364  0.548650  0.249833  1
  Th  Th10  1  0.652159  0.052116  0.249539  1
  Th  Th11  1  0.153769  0.451171  0.750473  1
  Co  Co12  1  0.038463  0.871109  0.250162  1
  Co  Co13  1  0.459047  0.372818  0.249540  1
  Co  Co14  1  0.959093  0.130802  0.750837  1
  Co  Co15  1  0.537188  0.614175  0.750012  1
