# generated using pymatgen
data_LuHfBRh6
_symmetry_space_group_name_H-M   'P 1'
_cell_length_a   5.73678564
_cell_length_b   5.73678574
_cell_length_c   5.73678600
_cell_angle_alpha   59.99999849
_cell_angle_beta   59.99999794
_cell_angle_gamma   60.00000250
_symmetry_Int_Tables_number   1
_chemical_formula_structural   LuHfBRh6
_chemical_formula_sum   'Lu1 Hf1 B1 Rh6'
_cell_volume   133.50296180
_cell_formula_units_Z   1
loop_
 _symmetry_equiv_pos_site_id
 _symmetry_equiv_pos_as_xyz
  1  'x, y, z'
loop_
 _atom_site_type_symbol
 _atom_site_label
 _atom_site_symmetry_multiplicity
 _atom_site_fract_x
 _atom_site_fract_y
 _atom_site_fract_z
 _atom_site_occupancy
  Lu  Lu0  1  0.250001  0.250001  0.250001  1
  Hf  Hf1  1  0.750000  0.750000  0.750000  1
  B  B2  1  0.500000  0.500000  0.500000  1
  Rh  Rh3  1  0.757002  0.242998  0.242998  1
  Rh  Rh4  1  0.242998  0.757002  0.242998  1
  Rh  Rh5  1  0.757002  0.757002  0.242998  1
  Rh  Rh6  1  0.242998  0.242998  0.757002  1
  Rh  Rh7  1  0.757002  0.242998  0.757002  1
  Rh  Rh8  1  0.242998  0.757002  0.757002  1
