# generated using pymatgen
data_Tb3YGa12Fe
_symmetry_space_group_name_H-M   'P 1'
_cell_length_a   7.45218584
_cell_length_b   7.45552924
_cell_length_c   7.45218609
_cell_angle_alpha   109.48031556
_cell_angle_beta   109.46213368
_cell_angle_gamma   109.48030657
_symmetry_Int_Tables_number   1
_chemical_formula_structural   Tb3YGa12Fe
_chemical_formula_sum   'Tb3 Y1 Ga12 Fe1'
_cell_volume   318.69495840
_cell_formula_units_Z   1
loop_
 _symmetry_equiv_pos_site_id
 _symmetry_equiv_pos_as_xyz
  1  'x, y, z'
loop_
 _atom_site_type_symbol
 _atom_site_label
 _atom_site_symmetry_multiplicity
 _atom_site_fract_x
 _atom_site_fract_y
 _atom_site_fract_z
 _atom_site_occupancy
  Tb  Tb0  1  0.000000  0.000000  0.500000  1
  Tb  Tb1  1  0.500000  0.000000  0.000000  1
  Tb  Tb2  1  0.500000  0.500000  0.500000  1
  Y  Y3  1  0.000000  0.500000  0.000000  1
  Ga  Ga4  1  0.750000  0.250000  0.500001  1
  Ga  Ga5  1  0.750000  0.500000  0.250000  1
  Ga  Ga6  1  0.500001  0.250000  0.750000  1
  Ga  Ga7  1  0.250000  0.500000  0.750000  1
  Ga  Ga8  1  0.250000  0.750000  0.499999  1
  Ga  Ga9  1  0.499999  0.750000  0.250000  1
  Ga  Ga10  1  0.717229  0.717244  0.000000  1
  Ga  Ga11  1  0.282771  0.000015  0.282771  1
  Ga  Ga12  1  0.000000  0.282756  0.282771  1
  Ga  Ga13  1  0.282771  0.282756  0.000000  1
  Ga  Ga14  1  0.717229  0.999985  0.717229  1
  Ga  Ga15  1  0.000000  0.717244  0.717229  1
  Fe  Fe16  1  0.000000  0.000000  0.000000  1
