# generated using pymatgen
data_Dy6YRhI12
_symmetry_space_group_name_H-M   'P 1'
_cell_length_a   9.81323821
_cell_length_b   9.81323736
_cell_length_c   9.81323809
_cell_angle_alpha   106.93408832
_cell_angle_beta   106.93408730
_cell_angle_gamma   106.93409686
_symmetry_Int_Tables_number   1
_chemical_formula_structural   Dy6YRhI12
_chemical_formula_sum   'Dy6 Y1 Rh1 I12'
_cell_volume   788.42513215
_cell_formula_units_Z   1
loop_
 _symmetry_equiv_pos_site_id
 _symmetry_equiv_pos_as_xyz
  1  'x, y, z'
loop_
 _atom_site_type_symbol
 _atom_site_label
 _atom_site_symmetry_multiplicity
 _atom_site_fract_x
 _atom_site_fract_y
 _atom_site_fract_z
 _atom_site_occupancy
  Dy  Dy0  1  0.905422  0.976770  0.704599  1
  Dy  Dy1  1  0.976770  0.704599  0.905422  1
  Dy  Dy2  1  0.704599  0.905422  0.976770  1
  Dy  Dy3  1  0.094578  0.023230  0.295401  1
  Dy  Dy4  1  0.023230  0.295401  0.094578  1
  Dy  Dy5  1  0.295401  0.094578  0.023230  1
  Y  Y6  1  0.500000  0.500000  0.500000  1
  Rh  Rh7  1  0.000000  0.000000  0.000000  1
  I  I8  1  0.535389  0.837285  0.612577  1
  I  I9  1  0.837285  0.612577  0.535389  1
  I  I10  1  0.612577  0.535389  0.837285  1
  I  I11  1  0.464611  0.162715  0.387423  1
  I  I12  1  0.162715  0.387423  0.464611  1
  I  I13  1  0.387423  0.464611  0.162715  1
  I  I14  1  0.676271  0.224228  0.070641  1
  I  I15  1  0.224228  0.070641  0.676271  1
  I  I16  1  0.070641  0.676271  0.224228  1
  I  I17  1  0.323729  0.775772  0.929359  1
  I  I18  1  0.775772  0.929359  0.323729  1
  I  I19  1  0.929359  0.323729  0.775772  1
