# generated using pymatgen
data_ZrTa5(NbTc2)6
_symmetry_space_group_name_H-M   'P 1'
_cell_length_a   4.50813100
_cell_length_b   6.40274900
_cell_length_c   13.65018300
_cell_angle_alpha   90.00000000
_cell_angle_beta   90.00009701
_cell_angle_gamma   90.00000000
_symmetry_Int_Tables_number   1
_chemical_formula_structural   ZrTa5(NbTc2)6
_chemical_formula_sum   'Zr1 Ta5 Nb6 Tc12'
_cell_volume   394.00476878
_cell_formula_units_Z   1
loop_
 _symmetry_equiv_pos_site_id
 _symmetry_equiv_pos_as_xyz
  1  'x, y, z'
loop_
 _atom_site_type_symbol
 _atom_site_label
 _atom_site_symmetry_multiplicity
 _atom_site_fract_x
 _atom_site_fract_y
 _atom_site_fract_z
 _atom_site_occupancy
  Zr  Zr0  1  0.500024  0.500000  0.833312  1
  Ta  Ta1  1  0.000000  0.000000  0.999680  1
  Ta  Ta2  1  0.499979  0.500000  0.167404  1
  Ta  Ta3  1  0.999983  0.000000  0.333348  1
  Ta  Ta4  1  0.499998  0.500000  0.499271  1
  Ta  Ta5  1  0.000019  0.000000  0.666975  1
  Nb  Nb6  1  0.999999  0.500000  0.001422  1
  Nb  Nb7  1  0.499982  0.000000  0.166365  1
  Nb  Nb8  1  0.999981  0.500000  0.333345  1
  Nb  Nb9  1  0.499999  0.000000  0.500312  1
  Nb  Nb10  1  0.000025  0.500000  0.665238  1
  Nb  Nb11  1  0.500018  0.000000  0.833322  1
  Tc  Tc12  1  0.499999  0.247956  0.002727  1
  Tc  Tc13  1  0.499999  0.752044  0.002727  1
  Tc  Tc14  1  0.999984  0.249856  0.167482  1
  Tc  Tc15  1  0.999984  0.750144  0.167482  1
  Tc  Tc16  1  0.499980  0.250176  0.333319  1
  Tc  Tc17  1  0.499980  0.749824  0.333319  1
  Tc  Tc18  1  0.000004  0.249864  0.499172  1
  Tc  Tc19  1  0.000004  0.750136  0.499172  1
  Tc  Tc20  1  0.500015  0.247946  0.663955  1
  Tc  Tc21  1  0.500015  0.752054  0.663955  1
  Tc  Tc22  1  0.000014  0.245575  0.833348  1
  Tc  Tc23  1  0.000014  0.754425  0.833348  1
