# generated using pymatgen
data_Rb2Cu(CO3)2
_symmetry_space_group_name_H-M   'P 1'
_cell_length_a   6.59680833
_cell_length_b   6.86266604
_cell_length_c   9.59117698
_cell_angle_alpha   99.51204103
_cell_angle_beta   69.89138069
_cell_angle_gamma   118.73552864
_symmetry_Int_Tables_number   1
_chemical_formula_structural   Rb2Cu(CO3)2
_chemical_formula_sum   'Rb4 Cu2 C4 O12'
_cell_volume   357.52657149
_cell_formula_units_Z   2
loop_
 _symmetry_equiv_pos_site_id
 _symmetry_equiv_pos_as_xyz
  1  'x, y, z'
loop_
 _atom_site_type_symbol
 _atom_site_label
 _atom_site_symmetry_multiplicity
 _atom_site_fract_x
 _atom_site_fract_y
 _atom_site_fract_z
 _atom_site_occupancy
  Rb  Rb0  1  0.668700  0.338034  0.099441  1
  Rb  Rb1  1  0.018071  0.838035  0.400581  1
  Rb  Rb2  1  0.580665  0.161999  0.599439  1
  Rb  Rb3  1  0.430075  0.662017  0.900577  1
  Cu  Cu4  1  0.989138  0.000007  0.999986  1
  Cu  Cu5  1  0.238963  0.500013  0.500003  1
  C  C6  1  0.089401  0.330886  0.245718  1
  C  C7  1  0.585001  0.830888  0.254264  1
  C  C8  1  0.008485  0.169066  0.745709  1
  C  C9  1  0.004120  0.669111  0.754287  1
  O  O10  1  0.141938  0.282922  0.102745  1
  O  O11  1  0.477626  0.874976  0.185975  1
  O  O12  1  0.799583  0.837617  0.187807  1
  O  O13  1  0.237525  0.337617  0.312182  1
  O  O14  1  0.913757  0.374968  0.314033  1
  O  O15  1  0.494613  0.782946  0.397254  1
  O  O16  1  0.109065  0.217094  0.602738  1
  O  O17  1  0.852605  0.624954  0.686014  1
  O  O18  1  0.211980  0.662411  0.687800  1
  O  O19  1  0.149954  0.162406  0.812160  1
  O  O20  1  0.788737  0.124939  0.814025  1
  O  O21  1  0.961751  0.717094  0.897263  1
