# generated using pymatgen
data_Zr10Al12Ir6Pt
_symmetry_space_group_name_H-M   'P 1'
_cell_length_a   8.97311292
_cell_length_b   8.97311251
_cell_length_c   8.97311300
_cell_angle_alpha   60.00000187
_cell_angle_beta   60.00000337
_cell_angle_gamma   60.00000500
_symmetry_Int_Tables_number   1
_chemical_formula_structural   Zr10Al12Ir6Pt
_chemical_formula_sum   'Zr10 Al12 Ir6 Pt1'
_cell_volume   510.87472697
_cell_formula_units_Z   1
loop_
 _symmetry_equiv_pos_site_id
 _symmetry_equiv_pos_as_xyz
  1  'x, y, z'
loop_
 _atom_site_type_symbol
 _atom_site_label
 _atom_site_symmetry_multiplicity
 _atom_site_fract_x
 _atom_site_fract_y
 _atom_site_fract_z
 _atom_site_occupancy
  Zr  Zr0  1  0.684750  0.684750  0.315250  1
  Zr  Zr1  1  0.315250  0.684750  0.315250  1
  Zr  Zr2  1  0.684750  0.315250  0.315250  1
  Zr  Zr3  1  0.315250  0.315250  0.684750  1
  Zr  Zr4  1  0.684750  0.315250  0.684750  1
  Zr  Zr5  1  0.315250  0.684750  0.684750  1
  Zr  Zr6  1  0.879340  0.879340  0.361979  1
  Zr  Zr7  1  0.879340  0.361979  0.879340  1
  Zr  Zr8  1  0.361979  0.879340  0.879340  1
  Zr  Zr9  1  0.879340  0.879340  0.879340  1
  Al  Al10  1  0.123925  0.123925  0.628224  1
  Al  Al11  1  0.123925  0.628224  0.123925  1
  Al  Al12  1  0.628224  0.123925  0.123925  1
  Al  Al13  1  0.123925  0.123925  0.123925  1
  Al  Al14  1  0.658957  0.658957  0.023130  1
  Al  Al15  1  0.658957  0.023130  0.658957  1
  Al  Al16  1  0.023130  0.658957  0.658957  1
  Al  Al17  1  0.658957  0.658957  0.658957  1
  Al  Al18  1  0.337800  0.337800  0.986600  1
  Al  Al19  1  0.337800  0.986600  0.337800  1
  Al  Al20  1  0.986600  0.337800  0.337800  1
  Al  Al21  1  0.337800  0.337800  0.337800  1
  Ir  Ir22  1  0.999677  0.999677  0.500323  1
  Ir  Ir23  1  0.500323  0.999677  0.500323  1
  Ir  Ir24  1  0.999677  0.500323  0.500323  1
  Ir  Ir25  1  0.500323  0.500323  0.999677  1
  Ir  Ir26  1  0.999677  0.500323  0.999677  1
  Ir  Ir27  1  0.500323  0.999677  0.999677  1
  Pt  Pt28  1  0.000000  0.000000  0.000000  1
