# generated using pymatgen
data_PrCu9Si4
_symmetry_space_group_name_H-M   'P 1'
_cell_length_a   8.09769965
_cell_length_b   8.09769926
_cell_length_c   8.15622917
_cell_angle_alpha   119.76290345
_cell_angle_beta   119.76290440
_cell_angle_gamma   89.99999828
_symmetry_Int_Tables_number   1
_chemical_formula_structural   PrCu9Si4
_chemical_formula_sum   'Pr2 Cu18 Si8'
_cell_volume   380.87374548
_cell_formula_units_Z   2
loop_
 _symmetry_equiv_pos_site_id
 _symmetry_equiv_pos_as_xyz
  1  'x, y, z'
loop_
 _atom_site_type_symbol
 _atom_site_label
 _atom_site_symmetry_multiplicity
 _atom_site_fract_x
 _atom_site_fract_y
 _atom_site_fract_z
 _atom_site_occupancy
  Pr  Pr0  1  0.250000  0.250000  0.500000  1
  Pr  Pr1  1  0.750000  0.750000  0.500000  1
  Cu  Cu2  1  0.500000  0.000000  0.000000  1
  Cu  Cu3  1  0.201937  0.064210  0.000000  1
  Cu  Cu4  1  0.935790  0.201937  0.000000  1
  Cu  Cu5  1  0.435790  0.298062  0.000000  1
  Cu  Cu6  1  0.701937  0.435790  0.000000  1
  Cu  Cu7  1  0.000000  0.500000  0.000000  1
  Cu  Cu8  1  0.298062  0.564210  0.000000  1
  Cu  Cu9  1  0.564210  0.701937  0.000000  1
  Cu  Cu10  1  0.064210  0.798062  0.000000  1
  Cu  Cu11  1  0.798062  0.935790  0.000000  1
  Cu  Cu12  1  0.806840  0.057933  0.364773  1
  Cu  Cu13  1  0.557933  0.306840  0.364773  1
  Cu  Cu14  1  0.057933  0.557933  0.364773  1
  Cu  Cu15  1  0.306840  0.806840  0.364773  1
  Cu  Cu16  1  0.693159  0.193159  0.635226  1
  Cu  Cu17  1  0.942067  0.442067  0.635226  1
  Cu  Cu18  1  0.442067  0.693159  0.635226  1
  Cu  Cu19  1  0.193159  0.942067  0.635226  1
  Si  Si20  1  0.793483  0.293483  0.236285  1
  Si  Si21  1  0.293483  0.442801  0.236285  1
  Si  Si22  1  0.942801  0.793483  0.236285  1
  Si  Si23  1  0.442801  0.942801  0.236285  1
  Si  Si24  1  0.557198  0.057199  0.763715  1
  Si  Si25  1  0.057199  0.206517  0.763715  1
  Si  Si26  1  0.706517  0.557198  0.763715  1
  Si  Si27  1  0.206517  0.706517  0.763715  1
