# generated using pymatgen
data_LiHf5(AsRu)6
_symmetry_space_group_name_H-M   'P 1'
_cell_length_a   7.64875373
_cell_length_b   7.65369375
_cell_length_c   7.64875442
_cell_angle_alpha   128.17869554
_cell_angle_beta   120.47268650
_cell_angle_gamma   82.78679525
_symmetry_Int_Tables_number   1
_chemical_formula_structural   LiHf5(AsRu)6
_chemical_formula_sum   'Li1 Hf5 As6 Ru6'
_cell_volume   291.46407095
_cell_formula_units_Z   1
loop_
 _symmetry_equiv_pos_site_id
 _symmetry_equiv_pos_as_xyz
  1  'x, y, z'
loop_
 _atom_site_type_symbol
 _atom_site_label
 _atom_site_symmetry_multiplicity
 _atom_site_fract_x
 _atom_site_fract_y
 _atom_site_fract_z
 _atom_site_occupancy
  Li  Li0  1  0.475623  0.711858  0.736235  1
  Hf  Hf1  1  0.527850  0.256996  0.229145  1
  Hf  Hf2  1  0.750198  0.834214  0.584015  1
  Hf  Hf3  1  0.249890  0.832117  0.082225  1
  Hf  Hf4  1  0.052032  0.258087  0.706056  1
  Hf  Hf5  1  0.946386  0.648568  0.202181  1
  As  As6  1  0.284014  0.298293  0.514280  1
  As  As7  1  0.716899  0.204481  0.987582  1
  As  As8  1  0.332060  0.589007  0.260020  1
  As  As9  1  0.667400  0.914839  0.246134  1
  As  As10  1  0.168705  0.914839  0.747439  1
  As  As11  1  0.828987  0.589007  0.756947  1
  Ru  Ru12  1  0.508658  0.494763  0.007572  1
  Ru  Ru13  1  0.987191  0.494763  0.486105  1
  Ru  Ru14  1  0.091278  0.249371  0.096369  1
  Ru  Ru15  1  0.919230  0.009515  0.168917  1
  Ru  Ru16  1  0.340598  0.009515  0.590285  1
  Ru  Ru17  1  0.653002  0.249371  0.658093  1
