# generated using pymatgen
data_Ho8Mg2Co3SiBi2
_symmetry_space_group_name_H-M   'P 1'
_cell_length_a   8.77387164
_cell_length_b   8.77387287
_cell_length_c   8.87069298
_cell_angle_alpha   129.95256620
_cell_angle_beta   129.95257866
_cell_angle_gamma   72.63373295
_symmetry_Int_Tables_number   1
_chemical_formula_structural   Ho8Mg2Co3SiBi2
_chemical_formula_sum   'Ho8 Mg2 Co3 Si1 Bi2'
_cell_volume   393.67556322
_cell_formula_units_Z   1
loop_
 _symmetry_equiv_pos_site_id
 _symmetry_equiv_pos_as_xyz
  1  'x, y, z'
loop_
 _atom_site_type_symbol
 _atom_site_label
 _atom_site_symmetry_multiplicity
 _atom_site_fract_x
 _atom_site_fract_y
 _atom_site_fract_z
 _atom_site_occupancy
  Ho  Ho0  1  0.690907  0.543792  0.482672  1
  Ho  Ho1  1  0.469528  0.969528  0.181795  1
  Ho  Ho2  1  0.797859  0.297859  0.854691  1
  Ho  Ho3  1  0.556832  0.056832  0.854691  1
  Ho  Ho4  1  0.043792  0.190907  0.482672  1
  Ho  Ho5  1  0.291766  0.438881  0.482675  1
  Ho  Ho6  1  0.212266  0.712266  0.181796  1
  Ho  Ho7  1  0.938881  0.791766  0.482675  1
  Mg  Mg8  1  0.000762  0.993591  0.994352  1
  Mg  Mg9  1  0.493591  0.500762  0.994352  1
  Co  Co10  1  0.896908  0.396908  0.293816  1
  Co  Co11  1  0.614050  0.885633  0.499682  1
  Co  Co12  1  0.385633  0.114050  0.499682  1
  Si  Si13  1  0.125396  0.625396  0.750791  1
  Bi  Bi14  1  0.240915  0.240914  0.981829  1
  Bi  Bi15  1  0.740914  0.740915  0.981829  1
