# generated using pymatgen
data_Tb3Dy5Mg2(SiB4)4
_symmetry_space_group_name_H-M   'P 1'
_cell_length_a   7.17682909
_cell_length_b   7.17682909
_cell_length_c   7.87110500
_cell_angle_alpha   90.00114978
_cell_angle_beta   90.00114978
_cell_angle_gamma   90.01845771
_symmetry_Int_Tables_number   1
_chemical_formula_structural   Tb3Dy5Mg2(SiB4)4
_chemical_formula_sum   'Tb3 Dy5 Mg2 Si4 B16'
_cell_volume   405.41600677
_cell_formula_units_Z   1
loop_
 _symmetry_equiv_pos_site_id
 _symmetry_equiv_pos_as_xyz
  1  'x, y, z'
loop_
 _atom_site_type_symbol
 _atom_site_label
 _atom_site_symmetry_multiplicity
 _atom_site_fract_x
 _atom_site_fract_y
 _atom_site_fract_z
 _atom_site_occupancy
  Tb  Tb0  1  0.683036  0.183036  0.233630  1
  Tb  Tb1  1  0.317025  0.817025  0.766343  1
  Tb  Tb2  1  0.316992  0.816992  0.233662  1
  Dy  Dy3  1  0.817067  0.682914  0.233046  1
  Dy  Dy4  1  0.817048  0.682924  0.766968  1
  Dy  Dy5  1  0.683006  0.183006  0.766966  1
  Dy  Dy6  1  0.182924  0.317048  0.766968  1
  Dy  Dy7  1  0.182914  0.317067  0.233046  1
  Mg  Mg8  1  0.999919  0.000043  0.500068  1
  Mg  Mg9  1  0.500043  0.499919  0.500068  1
  Si  Si10  1  0.114944  0.614944  0.500028  1
  Si  Si11  1  0.884806  0.384806  0.500265  1
  Si  Si12  1  0.384651  0.115664  0.500197  1
  Si  Si13  1  0.615664  0.884651  0.500197  1
  B  B14  1  0.173415  0.040214  0.999936  1
  B  B15  1  0.826470  0.959969  0.999864  1
  B  B16  1  0.960058  0.173521  0.999887  1
  B  B17  1  0.326573  0.539751  0.999952  1
  B  B18  1  0.039751  0.826573  0.999952  1
  B  B19  1  0.673521  0.460058  0.999887  1
  B  B20  1  0.540214  0.673415  0.999936  1
  B  B21  1  0.459969  0.326470  0.999864  1
  B  B22  1  0.089547  0.589547  0.999962  1
  B  B23  1  0.910411  0.410411  0.999972  1
  B  B24  1  0.410373  0.089753  0.999843  1
  B  B25  1  0.589753  0.910373  0.999843  1
  B  B26  1  0.999981  0.000033  0.161462  1
  B  B27  1  0.999780  0.000111  0.838363  1
  B  B28  1  0.500111  0.499780  0.838363  1
  B  B29  1  0.500033  0.499981  0.161462  1
