# generated using pymatgen
data_TeP4RhO14
_symmetry_space_group_name_H-M   'P 1'
_cell_length_a   8.40895047
_cell_length_b   4.94864829
_cell_length_c   7.12210900
_cell_angle_alpha   74.22848152
_cell_angle_beta   90.57772690
_cell_angle_gamma   89.74397407
_symmetry_Int_Tables_number   1
_chemical_formula_structural   TeP4RhO14
_chemical_formula_sum   'Te1 P4 Rh1 O14'
_cell_volume   285.19193504
_cell_formula_units_Z   1
loop_
 _symmetry_equiv_pos_site_id
 _symmetry_equiv_pos_as_xyz
  1  'x, y, z'
loop_
 _atom_site_type_symbol
 _atom_site_label
 _atom_site_symmetry_multiplicity
 _atom_site_fract_x
 _atom_site_fract_y
 _atom_site_fract_z
 _atom_site_occupancy
  Te  Te0  1  0.007842  0.781619  0.728922  1
  P  P1  1  0.255736  0.229203  0.893808  1
  P  P2  1  0.814365  0.383862  0.476860  1
  P  P3  1  0.710450  0.771907  0.109071  1
  P  P4  1  0.325599  0.615680  0.515385  1
  Rh  Rh5  1  0.500053  0.221473  0.282015  1
  O  O6  1  0.834305  0.563773  0.621793  1
  O  O7  1  0.792120  0.867214  0.915326  1
  O  O8  1  0.100418  0.393735  0.906952  1
  O  O9  1  0.367681  0.440934  0.735802  1
  O  O10  1  0.221694  0.976553  0.814473  1
  O  O11  1  0.840336  0.581618  0.259426  1
  O  O12  1  0.943604  0.157362  0.501254  1
  O  O13  1  0.324485  0.415687  0.383004  1
  O  O14  1  0.676253  0.028341  0.187764  1
  O  O15  1  0.641822  0.280384  0.496585  1
  O  O16  1  0.346580  0.133335  0.084805  1
  O  O17  1  0.149474  0.720708  0.511917  1
  O  O18  1  0.562402  0.587619  0.102338  1
  O  O19  1  0.447385  0.848994  0.472503  1
