# generated using pymatgen
data_Ho17(ErRu2)7
_symmetry_space_group_name_H-M   'P 1'
_cell_length_a   11.24378462
_cell_length_b   8.32898915
_cell_length_c   11.18443774
_cell_angle_alpha   56.48938268
_cell_angle_beta   89.98226560
_cell_angle_gamma   89.99770924
_symmetry_Int_Tables_number   1
_chemical_formula_structural   Ho17(ErRu2)7
_chemical_formula_sum   'Ho17 Er7 Ru14'
_cell_volume   873.31768811
_cell_formula_units_Z   1
loop_
 _symmetry_equiv_pos_site_id
 _symmetry_equiv_pos_as_xyz
  1  'x, y, z'
loop_
 _atom_site_type_symbol
 _atom_site_label
 _atom_site_symmetry_multiplicity
 _atom_site_fract_x
 _atom_site_fract_y
 _atom_site_fract_z
 _atom_site_occupancy
  Ho  Ho0  1  0.705519  0.243329  0.531095  1
  Ho  Ho1  1  0.205634  0.756606  0.968986  1
  Ho  Ho2  1  0.844688  0.507905  0.655198  1
  Ho  Ho3  1  0.344876  0.492033  0.845162  1
  Ho  Ho4  1  0.155038  0.492304  0.344530  1
  Ho  Ho5  1  0.655322  0.507897  0.155265  1
  Ho  Ho6  1  0.006425  0.852765  0.361357  1
  Ho  Ho7  1  0.506579  0.147105  0.138826  1
  Ho  Ho8  1  0.993135  0.147232  0.638451  1
  Ho  Ho9  1  0.493623  0.852283  0.861792  1
  Ho  Ho10  1  0.794304  0.243066  0.031359  1
  Ho  Ho11  1  0.294203  0.757291  0.468569  1
  Ho  Ho12  1  0.930714  0.777416  0.090026  1
  Ho  Ho13  1  0.430878  0.222689  0.409745  1
  Ho  Ho14  1  0.068971  0.222799  0.910048  1
  Ho  Ho15  1  0.569124  0.777290  0.590006  1
  Ho  Ho16  1  0.301976  0.240919  0.675168  1
  Er  Er17  1  0.801897  0.758992  0.824508  1
  Er  Er18  1  0.698083  0.758921  0.324811  1
  Er  Er19  1  0.197876  0.240884  0.175373  1
  Er  Er20  1  0.925190  0.280014  0.293546  1
  Er  Er21  1  0.425308  0.720086  0.206339  1
  Er  Er22  1  0.074825  0.720187  0.706097  1
  Er  Er23  1  0.574929  0.279757  0.793893  1
  Ru  Ru24  1  0.500376  0.500553  0.499794  1
  Ru  Ru25  1  0.999876  0.500534  0.999867  1
  Ru  Ru26  1  0.646822  0.924064  0.034374  1
  Ru  Ru27  1  0.146648  0.076091  0.465592  1
  Ru  Ru28  1  0.353508  0.076027  0.965916  1
  Ru  Ru29  1  0.853205  0.924089  0.534254  1
  Ru  Ru30  1  0.397518  0.483741  0.104040  1
  Ru  Ru31  1  0.897706  0.515677  0.396318  1
  Ru  Ru32  1  0.602434  0.515976  0.896037  1
  Ru  Ru33  1  0.102061  0.484028  0.603725  1
  Ru  Ru34  1  0.819698  0.098489  0.849664  1
  Ru  Ru35  1  0.319685  0.901027  0.650249  1
  Ru  Ru36  1  0.180577  0.901373  0.150438  1
  Ru  Ru37  1  0.680769  0.098561  0.349574  1
