# generated using pymatgen
data_Dy4Ho16IrRu11
_symmetry_space_group_name_H-M   'P 1'
_cell_length_a   10.79009853
_cell_length_b   10.79040556
_cell_length_c   6.35531600
_cell_angle_alpha   89.97077061
_cell_angle_beta   89.97080916
_cell_angle_gamma   90.00274488
_symmetry_Int_Tables_number   1
_chemical_formula_structural   Dy4Ho16IrRu11
_chemical_formula_sum   'Dy4 Ho16 Ir1 Ru11'
_cell_volume   739.94632073
_cell_formula_units_Z   1
loop_
 _symmetry_equiv_pos_site_id
 _symmetry_equiv_pos_as_xyz
  1  'x, y, z'
loop_
 _atom_site_type_symbol
 _atom_site_label
 _atom_site_symmetry_multiplicity
 _atom_site_fract_x
 _atom_site_fract_y
 _atom_site_fract_z
 _atom_site_occupancy
  Dy  Dy0  1  0.292035  0.086371  0.376478  1
  Dy  Dy1  1  0.292000  0.914556  0.876683  1
  Dy  Dy2  1  0.708141  0.086574  0.876544  1
  Dy  Dy3  1  0.708202  0.913462  0.376463  1
  Ho  Ho4  1  0.586541  0.792452  0.876696  1
  Ho  Ho5  1  0.586348  0.207451  0.376447  1
  Ho  Ho6  1  0.414041  0.792724  0.376503  1
  Ho  Ho7  1  0.413602  0.208313  0.876607  1
  Ho  Ho8  1  0.207443  0.413492  0.623340  1
  Ho  Ho9  1  0.207176  0.585942  0.123519  1
  Ho  Ho10  1  0.792651  0.413681  0.123575  1
  Ho  Ho11  1  0.791790  0.586377  0.623409  1
  Ho  Ho12  1  0.913729  0.707841  0.123451  1
  Ho  Ho13  1  0.913529  0.291987  0.623401  1
  Ho  Ho14  1  0.085342  0.707868  0.623285  1
  Ho  Ho15  1  0.086423  0.291926  0.123467  1
  Ho  Ho16  1  0.000148  0.000191  0.500005  1
  Ho  Ho17  1  0.999802  0.999856  0.999983  1
  Ho  Ho18  1  0.501238  0.499521  0.000847  1
  Ho  Ho19  1  0.500482  0.498765  0.499179  1
  Ir  Ir20  1  0.346169  0.653779  0.749953  1
  Ru  Ru21  1  0.847063  0.153072  0.250086  1
  Ru  Ru22  1  0.846965  0.846594  0.749797  1
  Ru  Ru23  1  0.153274  0.153165  0.750356  1
  Ru  Ru24  1  0.154059  0.845813  0.250073  1
  Ru  Ru25  1  0.652755  0.347285  0.749961  1
  Ru  Ru26  1  0.652089  0.653301  0.250285  1
  Ru  Ru27  1  0.346657  0.347950  0.249659  1
  Ru  Ru28  1  0.500023  0.999563  0.124255  1
  Ru  Ru29  1  0.500001  0.000165  0.624803  1
  Ru  Ru30  1  0.999842  0.499989  0.875169  1
  Ru  Ru31  1  0.000439  0.499976  0.375721  1
