# generated using pymatgen
data_U6CoNiGe4
_symmetry_space_group_name_H-M   'P 1'
_cell_length_a   3.85609800
_cell_length_b   9.84884100
_cell_length_c   12.02741000
_cell_angle_alpha   90.00000000
_cell_angle_beta   90.00000000
_cell_angle_gamma   90.00000000
_symmetry_Int_Tables_number   1
_chemical_formula_structural   U6CoNiGe4
_chemical_formula_sum   'U12 Co2 Ni2 Ge8'
_cell_volume   456.77813260
_cell_formula_units_Z   2
loop_
 _symmetry_equiv_pos_site_id
 _symmetry_equiv_pos_as_xyz
  1  'x, y, z'
loop_
 _atom_site_type_symbol
 _atom_site_label
 _atom_site_symmetry_multiplicity
 _atom_site_fract_x
 _atom_site_fract_y
 _atom_site_fract_z
 _atom_site_occupancy
  U  U0  1  0.250000  0.088948  0.862159  1
  U  U1  1  0.250000  0.411052  0.362159  1
  U  U2  1  0.750000  0.909738  0.139050  1
  U  U3  1  0.750000  0.590262  0.639050  1
  U  U4  1  0.250000  0.077106  0.532959  1
  U  U5  1  0.250000  0.422894  0.032959  1
  U  U6  1  0.750000  0.918928  0.464993  1
  U  U7  1  0.750000  0.581072  0.964993  1
  U  U8  1  0.250000  0.752818  0.708134  1
  U  U9  1  0.250000  0.747182  0.208134  1
  U  U10  1  0.750000  0.249338  0.296523  1
  U  U11  1  0.750000  0.250662  0.796523  1
  Co  Co12  1  0.750000  0.676853  0.354122  1
  Co  Co13  1  0.750000  0.823147  0.854122  1
  Ni  Ni14  1  0.250000  0.337282  0.640681  1
  Ni  Ni15  1  0.250000  0.162718  0.140681  1
  Ge  Ge16  1  0.250000  0.813417  0.967995  1
  Ge  Ge17  1  0.250000  0.686583  0.467995  1
  Ge  Ge18  1  0.750000  0.190477  0.032877  1
  Ge  Ge19  1  0.750000  0.309523  0.532877  1
  Ge  Ge20  1  0.250000  0.479342  0.799632  1
  Ge  Ge21  1  0.250000  0.020658  0.299632  1
  Ge  Ge22  1  0.750000  0.520120  0.200875  1
  Ge  Ge23  1  0.750000  0.979880  0.700875  1
