# generated using pymatgen
data_RbNa(CeB12)2
_symmetry_space_group_name_H-M   'P 1'
_cell_length_a   4.16701500
_cell_length_b   5.90440900
_cell_length_c   11.77784100
_cell_angle_alpha   90.00000000
_cell_angle_beta   90.00000000
_cell_angle_gamma   90.00000000
_symmetry_Int_Tables_number   1
_chemical_formula_structural   RbNa(CeB12)2
_chemical_formula_sum   'Rb1 Na1 Ce2 B24'
_cell_volume   289.77918352
_cell_formula_units_Z   1
loop_
 _symmetry_equiv_pos_site_id
 _symmetry_equiv_pos_as_xyz
  1  'x, y, z'
loop_
 _atom_site_type_symbol
 _atom_site_label
 _atom_site_symmetry_multiplicity
 _atom_site_fract_x
 _atom_site_fract_y
 _atom_site_fract_z
 _atom_site_occupancy
  Rb  Rb0  1  0.000000  0.000000  0.500000  1
  Na  Na1  1  0.000000  0.000000  0.000000  1
  Ce  Ce2  1  0.000000  0.500000  0.248743  1
  Ce  Ce3  1  0.000000  0.500000  0.751257  1
  B  B4  1  0.202197  0.500000  0.500000  1
  B  B5  1  0.201745  0.000000  0.752787  1
  B  B6  1  0.201418  0.500000  0.000000  1
  B  B7  1  0.201745  0.000000  0.247213  1
  B  B8  1  0.500000  0.649338  0.574986  1
  B  B9  1  0.500000  0.147969  0.827155  1
  B  B10  1  0.500000  0.649905  0.073829  1
  B  B11  1  0.500000  0.148940  0.322783  1
  B  B12  1  0.500000  0.350662  0.574986  1
  B  B13  1  0.500000  0.852031  0.827155  1
  B  B14  1  0.500000  0.350095  0.073829  1
  B  B15  1  0.500000  0.851060  0.322783  1
  B  B16  1  0.500000  0.350662  0.425014  1
  B  B17  1  0.500000  0.851060  0.677217  1
  B  B18  1  0.500000  0.350095  0.926171  1
  B  B19  1  0.500000  0.852031  0.172845  1
  B  B20  1  0.500000  0.649338  0.425014  1
  B  B21  1  0.500000  0.148940  0.677217  1
  B  B22  1  0.500000  0.649905  0.926171  1
  B  B23  1  0.500000  0.147969  0.172845  1
  B  B24  1  0.797803  0.500000  0.500000  1
  B  B25  1  0.798255  0.000000  0.752787  1
  B  B26  1  0.798582  0.500000  0.000000  1
  B  B27  1  0.798255  0.000000  0.247213  1
