# generated using pymatgen
data_PrPu9C4Br15
_symmetry_space_group_name_H-M   'P 1'
_cell_length_a   9.12520263
_cell_length_b   10.17642965
_cell_length_c   11.00936600
_cell_angle_alpha   70.52241462
_cell_angle_beta   66.48024610
_cell_angle_gamma   70.82881353
_symmetry_Int_Tables_number   1
_chemical_formula_structural   PrPu9C4Br15
_chemical_formula_sum   'Pr1 Pu9 C4 Br15'
_cell_volume   860.91399649
_cell_formula_units_Z   1
loop_
 _symmetry_equiv_pos_site_id
 _symmetry_equiv_pos_as_xyz
  1  'x, y, z'
loop_
 _atom_site_type_symbol
 _atom_site_label
 _atom_site_symmetry_multiplicity
 _atom_site_fract_x
 _atom_site_fract_y
 _atom_site_fract_z
 _atom_site_occupancy
  Pr  Pr0  1  0.968956  0.894531  0.732501  1
  Pu  Pu1  1  0.329952  0.744117  0.834610  1
  Pu  Pu2  1  0.669049  0.256476  0.166189  1
  Pu  Pu3  1  0.156930  0.433841  0.044782  1
  Pu  Pu4  1  0.844924  0.562497  0.959144  1
  Pu  Pu5  1  0.082456  0.186212  0.884126  1
  Pu  Pu6  1  0.920345  0.814403  0.116806  1
  Pu  Pu7  1  0.247943  0.540234  0.642552  1
  Pu  Pu8  1  0.751274  0.460825  0.357413  1
  Pu  Pu9  1  0.027998  0.110275  0.260957  1
  C  C10  1  0.877570  0.359522  0.175885  1
  C  C11  1  0.122698  0.639099  0.825903  1
  C  C12  1  0.956842  0.292784  0.061131  1
  C  C13  1  0.044158  0.705635  0.939880  1
  Br  Br14  1  0.499302  0.500590  0.000838  1
  Br  Br15  1  0.130788  0.811094  0.465358  1
  Br  Br16  1  0.868947  0.186726  0.530026  1
  Br  Br17  1  0.255464  0.024074  0.653225  1
  Br  Br18  1  0.745918  0.976844  0.344432  1
  Br  Br19  1  0.336049  0.176096  0.213502  1
  Br  Br20  1  0.661671  0.821513  0.787666  1
  Br  Br21  1  0.453891  0.373523  0.412460  1
  Br  Br22  1  0.546303  0.627018  0.588564  1
  Br  Br23  1  0.949870  0.444366  0.708825  1
  Br  Br24  1  0.050332  0.555963  0.292938  1
  Br  Br25  1  0.217867  0.914511  0.057113  1
  Br  Br26  1  0.780941  0.086967  0.943575  1
  Br  Br27  1  0.378967  0.277163  0.820606  1
  Br  Br28  1  0.622595  0.723100  0.178994  1
