# generated using pymatgen
data_Yb6Nb4Al12Ir7
_symmetry_space_group_name_H-M   'P 1'
_cell_length_a   9.03533693
_cell_length_b   9.03533793
_cell_length_c   9.03533800
_cell_angle_alpha   59.99999975
_cell_angle_beta   59.99999607
_cell_angle_gamma   60.00000740
_symmetry_Int_Tables_number   1
_chemical_formula_structural   Yb6Nb4Al12Ir7
_chemical_formula_sum   'Yb6 Nb4 Al12 Ir7'
_cell_volume   521.57668356
_cell_formula_units_Z   1
loop_
 _symmetry_equiv_pos_site_id
 _symmetry_equiv_pos_as_xyz
  1  'x, y, z'
loop_
 _atom_site_type_symbol
 _atom_site_label
 _atom_site_symmetry_multiplicity
 _atom_site_fract_x
 _atom_site_fract_y
 _atom_site_fract_z
 _atom_site_occupancy
  Yb  Yb0  1  0.702834  0.702834  0.297166  1
  Yb  Yb1  1  0.297166  0.702834  0.297166  1
  Yb  Yb2  1  0.702834  0.297166  0.297166  1
  Yb  Yb3  1  0.297166  0.297166  0.702834  1
  Yb  Yb4  1  0.702834  0.297166  0.702834  1
  Yb  Yb5  1  0.297166  0.702834  0.702834  1
  Nb  Nb6  1  0.880084  0.880084  0.359748  1
  Nb  Nb7  1  0.880084  0.359748  0.880084  1
  Nb  Nb8  1  0.359748  0.880084  0.880084  1
  Nb  Nb9  1  0.880084  0.880084  0.880084  1
  Al  Al10  1  0.120868  0.120868  0.637396  1
  Al  Al11  1  0.120868  0.637396  0.120868  1
  Al  Al12  1  0.637396  0.120868  0.120868  1
  Al  Al13  1  0.120868  0.120868  0.120868  1
  Al  Al14  1  0.670894  0.670894  0.987316  1
  Al  Al15  1  0.670894  0.987316  0.670894  1
  Al  Al16  1  0.987316  0.670894  0.670894  1
  Al  Al17  1  0.670894  0.670894  0.670894  1
  Al  Al18  1  0.326716  0.326716  0.019854  1
  Al  Al19  1  0.326716  0.019854  0.326716  1
  Al  Al20  1  0.019854  0.326716  0.326716  1
  Al  Al21  1  0.326716  0.326716  0.326716  1
  Ir  Ir22  1  0.000000  0.000000  0.000000  1
  Ir  Ir23  1  0.998254  0.998254  0.501746  1
  Ir  Ir24  1  0.501746  0.998254  0.501746  1
  Ir  Ir25  1  0.998254  0.501746  0.501746  1
  Ir  Ir26  1  0.501746  0.501746  0.998254  1
  Ir  Ir27  1  0.998254  0.501746  0.998254  1
  Ir  Ir28  1  0.501746  0.998254  0.998254  1
