# generated using pymatgen
data_Yb9Eu8Dy3Pt16
_symmetry_space_group_name_H-M   'P 1'
_cell_length_a   7.68266886
_cell_length_b   7.82192509
_cell_length_c   14.87466600
_cell_angle_alpha   90.00095225
_cell_angle_beta   89.97294311
_cell_angle_gamma   89.93466124
_symmetry_Int_Tables_number   1
_chemical_formula_structural   Yb9Eu8Dy3Pt16
_chemical_formula_sum   'Yb9 Eu8 Dy3 Pt16'
_cell_volume   893.86649429
_cell_formula_units_Z   1
loop_
 _symmetry_equiv_pos_site_id
 _symmetry_equiv_pos_as_xyz
  1  'x, y, z'
loop_
 _atom_site_type_symbol
 _atom_site_label
 _atom_site_symmetry_multiplicity
 _atom_site_fract_x
 _atom_site_fract_y
 _atom_site_fract_z
 _atom_site_occupancy
  Yb  Yb0  1  0.161872  0.334157  0.122755  1
  Yb  Yb1  1  0.662477  0.167956  0.122177  1
  Yb  Yb2  1  0.162677  0.332715  0.378298  1
  Yb  Yb3  1  0.338890  0.831691  0.621648  1
  Yb  Yb4  1  0.837920  0.668595  0.877823  1
  Yb  Yb5  1  0.177263  0.494542  0.750228  1
  Yb  Yb6  1  0.677556  0.005628  0.750673  1
  Yb  Yb7  1  0.825597  0.503570  0.249130  1
  Yb  Yb8  1  0.321086  0.997665  0.250042  1
  Eu  Eu9  1  0.496936  0.322980  0.903075  1
  Eu  Eu10  1  0.996921  0.176928  0.596983  1
  Eu  Eu11  1  0.502211  0.676218  0.401967  1
  Eu  Eu12  1  0.003138  0.821375  0.097490  1
  Eu  Eu13  1  0.502920  0.678091  0.098895  1
  Eu  Eu14  1  0.004251  0.821639  0.401013  1
  Eu  Eu15  1  0.496050  0.320736  0.597979  1
  Eu  Eu16  1  0.996451  0.180753  0.903399  1
  Dy  Dy17  1  0.337033  0.833559  0.876317  1
  Dy  Dy18  1  0.838292  0.665690  0.623385  1
  Dy  Dy19  1  0.661647  0.166708  0.376501  1
  Pt  Pt20  1  0.325926  0.032165  0.039317  1
  Pt  Pt21  1  0.823995  0.460476  0.459626  1
  Pt  Pt22  1  0.676270  0.959206  0.540112  1
  Pt  Pt23  1  0.172847  0.541706  0.957360  1
  Pt  Pt24  1  0.663172  0.966816  0.955998  1
  Pt  Pt25  1  0.160716  0.535732  0.542946  1
  Pt  Pt26  1  0.339446  0.035239  0.456500  1
  Pt  Pt27  1  0.835328  0.467202  0.041840  1
  Pt  Pt28  1  0.544501  0.628110  0.751533  1
  Pt  Pt29  1  0.044184  0.872689  0.746977  1
  Pt  Pt30  1  0.458682  0.373056  0.253662  1
  Pt  Pt31  1  0.952211  0.125517  0.252535  1
  Pt  Pt32  1  0.300808  0.129350  0.752819  1
  Pt  Pt33  1  0.801373  0.370793  0.746774  1
  Pt  Pt34  1  0.696907  0.869017  0.252725  1
  Pt  Pt35  1  0.202445  0.631730  0.249501  1
