# generated using pymatgen
data_Te4PdRh2
_symmetry_space_group_name_H-M   'P 1'
_cell_length_a   6.94073595
_cell_length_b   6.94073539
_cell_length_c   6.96041575
_cell_angle_alpha   61.21341926
_cell_angle_beta   61.21342476
_cell_angle_gamma   34.39165165
_symmetry_Int_Tables_number   1
_chemical_formula_structural   Te4PdRh2
_chemical_formula_sum   'Te4 Pd1 Rh2'
_cell_volume   163.57535660
_cell_formula_units_Z   1
loop_
 _symmetry_equiv_pos_site_id
 _symmetry_equiv_pos_as_xyz
  1  'x, y, z'
loop_
 _atom_site_type_symbol
 _atom_site_label
 _atom_site_symmetry_multiplicity
 _atom_site_fract_x
 _atom_site_fract_y
 _atom_site_fract_z
 _atom_site_occupancy
  Te  Te0  1  0.361545  0.361545  0.978945  1
  Te  Te1  1  0.638455  0.638455  0.021055  1
  Te  Te2  1  0.127023  0.127023  0.532801  1
  Te  Te3  1  0.872977  0.872977  0.467199  1
  Pd  Pd4  1  0.000000  0.000000  0.000000  1
  Rh  Rh5  1  0.258479  0.258479  0.728684  1
  Rh  Rh6  1  0.741521  0.741521  0.271316  1
