# generated using pymatgen
data_Rb2Be3Se4
_symmetry_space_group_name_H-M   'P 1'
_cell_length_a   9.27856548
_cell_length_b   9.27856552
_cell_length_c   9.27856537
_cell_angle_alpha   145.11521672
_cell_angle_beta   107.53919971
_cell_angle_gamma   83.01196892
_symmetry_Int_Tables_number   1
_chemical_formula_structural   Rb2Be3Se4
_chemical_formula_sum   'Rb4 Be6 Se8'
_cell_volume   423.92129353
_cell_formula_units_Z   2
loop_
 _symmetry_equiv_pos_site_id
 _symmetry_equiv_pos_as_xyz
  1  'x, y, z'
loop_
 _atom_site_type_symbol
 _atom_site_label
 _atom_site_symmetry_multiplicity
 _atom_site_fract_x
 _atom_site_fract_y
 _atom_site_fract_z
 _atom_site_occupancy
  Rb  Rb0  1  0.121348  0.232537  0.353885  1
  Rb  Rb1  1  0.378652  0.732537  0.111189  1
  Rb  Rb2  1  0.621348  0.267463  0.888811  1
  Rb  Rb3  1  0.878652  0.767463  0.646115  1
  Be  Be4  1  0.514642  0.750000  0.764642  1
  Be  Be5  1  0.985358  0.750000  0.235358  1
  Be  Be6  1  0.485358  0.250000  0.235358  1
  Be  Be7  1  0.750000  0.250000  0.500000  1
  Be  Be8  1  0.250000  0.750000  0.500000  1
  Be  Be9  1  0.014642  0.250000  0.764642  1
  Se  Se10  1  0.207137  0.063913  0.592396  1
  Se  Se11  1  0.292863  0.885260  0.856777  1
  Se  Se12  1  0.028483  0.436087  0.143223  1
  Se  Se13  1  0.471517  0.614740  0.407604  1
  Se  Se14  1  0.792863  0.936087  0.407604  1
  Se  Se15  1  0.707137  0.114740  0.143223  1
  Se  Se16  1  0.971517  0.563913  0.856777  1
  Se  Se17  1  0.528483  0.385260  0.592396  1
