# generated using pymatgen
data_YbScPa2Sb5
_symmetry_space_group_name_H-M   'P 1'
_cell_length_a   9.27563572
_cell_length_b   9.27873393
_cell_length_c   6.30769900
_cell_angle_alpha   90.00000000
_cell_angle_beta   90.00000000
_cell_angle_gamma   120.01105619
_symmetry_Int_Tables_number   1
_chemical_formula_structural   YbScPa2Sb5
_chemical_formula_sum   'Yb2 Sc2 Pa4 Sb10'
_cell_volume   470.09496868
_cell_formula_units_Z   2
loop_
 _symmetry_equiv_pos_site_id
 _symmetry_equiv_pos_as_xyz
  1  'x, y, z'
loop_
 _atom_site_type_symbol
 _atom_site_label
 _atom_site_symmetry_multiplicity
 _atom_site_fract_x
 _atom_site_fract_y
 _atom_site_fract_z
 _atom_site_occupancy
  Yb  Yb0  1  0.620629  0.622831  0.750000  1
  Yb  Yb1  1  0.620629  0.997797  0.250000  1
  Sc  Sc2  1  0.996724  0.998362  0.000000  1
  Sc  Sc3  1  0.996724  0.998362  0.500000  1
  Pa  Pa4  1  0.390190  0.999020  0.750000  1
  Pa  Pa5  1  0.390190  0.391169  0.250000  1
  Pa  Pa6  1  0.995284  0.608156  0.250000  1
  Pa  Pa7  1  0.995284  0.387128  0.750000  1
  Sb  Sb8  1  0.661710  0.330854  0.500000  1
  Sb  Sb9  1  0.327390  0.663696  0.000000  1
  Sb  Sb10  1  0.734074  0.003365  0.750000  1
  Sb  Sb11  1  0.734074  0.730709  0.250000  1
  Sb  Sb12  1  0.327390  0.663696  0.500000  1
  Sb  Sb13  1  0.661710  0.330854  0.000000  1
  Sb  Sb14  1  0.268010  0.000326  0.250000  1
  Sb  Sb15  1  0.268010  0.267683  0.750000  1
  Sb  Sb16  1  0.005991  0.735161  0.750000  1
  Sb  Sb17  1  0.005991  0.270831  0.250000  1
