# generated using pymatgen
data_Zr3(ReW2)2
_symmetry_space_group_name_H-M   'P 1'
_cell_length_a   5.37475479
_cell_length_b   5.38217137
_cell_length_c   13.23355738
_cell_angle_alpha   90.23451688
_cell_angle_beta   89.62790358
_cell_angle_gamma   119.77636016
_symmetry_Int_Tables_number   1
_chemical_formula_structural   Zr3(ReW2)2
_chemical_formula_sum   'Zr6 Re4 W8'
_cell_volume   332.26786019
_cell_formula_units_Z   2
loop_
 _symmetry_equiv_pos_site_id
 _symmetry_equiv_pos_as_xyz
  1  'x, y, z'
loop_
 _atom_site_type_symbol
 _atom_site_label
 _atom_site_symmetry_multiplicity
 _atom_site_fract_x
 _atom_site_fract_y
 _atom_site_fract_z
 _atom_site_occupancy
  Zr  Zr0  1  0.334116  0.664415  0.917531  1
  Zr  Zr1  1  0.001693  0.002358  0.248770  1
  Zr  Zr2  1  0.666869  0.332730  0.583047  1
  Zr  Zr3  1  0.333131  0.667270  0.666953  1
  Zr  Zr4  1  0.998307  0.997642  0.001229  1
  Zr  Zr5  1  0.665884  0.335585  0.332469  1
  Re  Re6  1  0.500000  0.500000  0.125000  1
  Re  Re7  1  0.166515  0.834020  0.458241  1
  Re  Re8  1  0.833485  0.165980  0.791759  1
  Re  Re9  1  0.500000  0.000000  0.125000  1
  W  W10  1  0.166445  0.334125  0.457676  1
  W  W11  1  0.833555  0.665875  0.792324  1
  W  W12  1  0.333884  0.668889  0.290706  1
  W  W13  1  0.000000  0.000000  0.625000  1
  W  W14  1  0.666116  0.331111  0.959294  1
  W  W15  1  0.000000  0.500000  0.125000  1
  W  W16  1  0.665917  0.834056  0.458114  1
  W  W17  1  0.334083  0.165944  0.791886  1
