# generated using pymatgen
data_HoLuBe2Co5
_symmetry_space_group_name_H-M   'P 1'
_cell_length_a   4.92471438
_cell_length_b   4.92471462
_cell_length_c   11.45341942
_cell_angle_alpha   77.58513510
_cell_angle_beta   77.58513467
_cell_angle_gamma   59.99999818
_symmetry_Int_Tables_number   1
_chemical_formula_structural   HoLuBe2Co5
_chemical_formula_sum   'Ho2 Lu2 Be4 Co10'
_cell_volume   233.03206791
_cell_formula_units_Z   2
loop_
 _symmetry_equiv_pos_site_id
 _symmetry_equiv_pos_as_xyz
  1  'x, y, z'
loop_
 _atom_site_type_symbol
 _atom_site_label
 _atom_site_symmetry_multiplicity
 _atom_site_fract_x
 _atom_site_fract_y
 _atom_site_fract_z
 _atom_site_occupancy
  Ho  Ho0  1  0.949270  0.949270  0.152187  1
  Ho  Ho1  1  0.050730  0.050730  0.847813  1
  Lu  Lu2  1  0.851741  0.851741  0.444776  1
  Lu  Lu3  1  0.148259  0.148259  0.555225  1
  Be  Be4  1  0.719182  0.719182  0.842456  1
  Be  Be5  1  0.280818  0.280818  0.157544  1
  Be  Be6  1  0.613766  0.613766  0.158704  1
  Be  Be7  1  0.386234  0.386234  0.841296  1
  Co  Co8  1  0.500000  0.500000  0.500000  1
  Co  Co9  1  0.000000  0.500000  0.000000  1
  Co  Co10  1  0.500000  0.000000  0.000000  1
  Co  Co11  1  0.500000  0.500000  0.000000  1
  Co  Co12  1  0.393499  0.393499  0.317841  1
  Co  Co13  1  0.895161  0.393499  0.317841  1
  Co  Co14  1  0.393499  0.895161  0.317841  1
  Co  Co15  1  0.606501  0.606501  0.682159  1
  Co  Co16  1  0.104839  0.606501  0.682159  1
  Co  Co17  1  0.606501  0.104839  0.682159  1
