# generated using pymatgen
data_Nd6Ho2Sc12Si15Ag
_symmetry_space_group_name_H-M   'P 1'
_cell_length_a   7.23383674
_cell_length_b   7.46068282
_cell_length_c   14.21895641
_cell_angle_alpha   89.76328257
_cell_angle_beta   89.70341431
_cell_angle_gamma   90.35190890
_symmetry_Int_Tables_number   1
_chemical_formula_structural   Nd6Ho2Sc12Si15Ag
_chemical_formula_sum   'Nd6 Ho2 Sc12 Si15 Ag1'
_cell_volume   767.35659158
_cell_formula_units_Z   1
loop_
 _symmetry_equiv_pos_site_id
 _symmetry_equiv_pos_as_xyz
  1  'x, y, z'
loop_
 _atom_site_type_symbol
 _atom_site_label
 _atom_site_symmetry_multiplicity
 _atom_site_fract_x
 _atom_site_fract_y
 _atom_site_fract_z
 _atom_site_occupancy
  Nd  Nd0  1  0.011679  0.173288  0.098997  1
  Nd  Nd1  1  0.988273  0.828493  0.902268  1
  Nd  Nd2  1  0.488090  0.673544  0.903808  1
  Nd  Nd3  1  0.988900  0.831085  0.596727  1
  Nd  Nd4  1  0.511673  0.327032  0.096391  1
  Nd  Nd5  1  0.009064  0.171132  0.400151  1
  Ho  Ho6  1  0.512081  0.322765  0.399726  1
  Ho  Ho7  1  0.495359  0.678462  0.600658  1
  Sc  Sc8  1  0.163357  0.500360  0.752573  1
  Sc  Sc9  1  0.837178  0.499633  0.251851  1
  Sc  Sc10  1  0.338075  0.997763  0.249819  1
  Sc  Sc11  1  0.665144  0.999318  0.750639  1
  Sc  Sc12  1  0.343296  0.174075  0.626920  1
  Sc  Sc13  1  0.663930  0.822040  0.374228  1
  Sc  Sc14  1  0.167831  0.673794  0.372597  1
  Sc  Sc15  1  0.669433  0.824980  0.125654  1
  Sc  Sc16  1  0.823191  0.326882  0.624013  1
  Sc  Sc17  1  0.329143  0.174209  0.874792  1
  Sc  Sc18  1  0.830027  0.323993  0.875038  1
  Sc  Sc19  1  0.169271  0.675382  0.125963  1
  Si  Si20  1  0.036908  0.128453  0.748634  1
  Si  Si21  1  0.963876  0.876127  0.250234  1
  Si  Si22  1  0.465770  0.618833  0.249861  1
  Si  Si23  1  0.535348  0.382708  0.750596  1
  Si  Si24  1  0.289736  0.878175  0.748630  1
  Si  Si25  1  0.707918  0.122418  0.250397  1
  Si  Si26  1  0.215368  0.377217  0.250980  1
  Si  Si27  1  0.787464  0.622130  0.749769  1
  Si  Si28  1  0.832290  0.536752  0.458702  1
  Si  Si29  1  0.344864  0.960691  0.461308  1
  Si  Si30  1  0.848337  0.537428  0.039474  1
  Si  Si31  1  0.651991  0.036179  0.537709  1
  Si  Si32  1  0.150936  0.462872  0.961279  1
  Si  Si33  1  0.653031  0.036974  0.960395  1
  Si  Si34  1  0.346192  0.962841  0.039815  1
  Ag  Ag35  1  0.164978  0.461972  0.539404  1
