# generated using pymatgen
data_Np5(PaH10)3
_symmetry_space_group_name_H-M   'P 1'
_cell_length_a   7.57300112
_cell_length_b   7.56304257
_cell_length_c   7.58081170
_cell_angle_alpha   109.60089357
_cell_angle_beta   109.36526257
_cell_angle_gamma   109.52335778
_symmetry_Int_Tables_number   1
_chemical_formula_structural   Np5(PaH10)3
_chemical_formula_sum   'Np5 Pa3 H30'
_cell_volume   333.92561719
_cell_formula_units_Z   1
loop_
 _symmetry_equiv_pos_site_id
 _symmetry_equiv_pos_as_xyz
  1  'x, y, z'
loop_
 _atom_site_type_symbol
 _atom_site_label
 _atom_site_symmetry_multiplicity
 _atom_site_fract_x
 _atom_site_fract_y
 _atom_site_fract_z
 _atom_site_occupancy
  Np  Np0  1  0.086080  0.499788  0.000798  1
  Np  Np1  1  0.999872  0.585954  0.498618  1
  Np  Np2  1  0.586551  0.499679  0.000925  1
  Np  Np3  1  0.499561  0.000189  0.586388  1
  Np  Np4  1  0.413516  0.415007  0.413748  1
  Pa  Pa5  1  0.915166  0.915067  0.914956  1
  Pa  Pa6  1  0.498800  0.000270  0.082878  1
  Pa  Pa7  1  0.002398  0.084726  0.501568  1
  H  H8  1  0.654109  0.969408  0.367675  1
  H  H9  1  0.217076  0.312256  0.845897  1
  H  H10  1  0.181163  0.398940  0.531727  1
  H  H11  1  0.092692  0.275381  0.125171  1
  H  H12  1  0.277573  0.124374  0.093159  1
  H  H13  1  0.124686  0.093030  0.278474  1
  H  H14  1  0.465757  0.150125  0.873484  1
  H  H15  1  0.718482  0.348289  0.814848  1
  H  H16  1  0.623236  0.370428  0.247672  1
  H  H17  1  0.249330  0.624918  0.375146  1
  H  H18  1  0.751330  0.878792  0.126377  1
  H  H19  1  0.126401  0.754432  0.877642  1
  H  H20  1  0.370074  0.248242  0.623952  1
  H  H21  1  0.876588  0.121728  0.748530  1
  H  H22  1  0.783543  0.600526  0.632826  1
  H  H23  1  0.317715  0.851244  0.216613  1
  H  H24  1  0.372364  0.655324  0.967682  1
  H  H25  1  0.967481  0.366436  0.649503  1
  H  H26  1  0.531958  0.182119  0.398081  1
  H  H27  1  0.404280  0.532793  0.184656  1
  H  H28  1  0.847052  0.212920  0.313982  1
  H  H29  1  0.904439  0.689488  0.034382  1
  H  H30  1  0.816184  0.723416  0.349486  1
  H  H31  1  0.151194  0.874712  0.467984  1
  H  H32  1  0.686059  0.032060  0.907135  1
  H  H33  1  0.348683  0.816281  0.723319  1
  H  H34  1  0.869916  0.465705  0.151725  1
  H  H35  1  0.634822  0.784807  0.600996  1
  H  H36  1  0.600056  0.634277  0.785064  1
  H  H37  1  0.033812  0.906870  0.686933  1
