# generated using pymatgen
data_AcDy2Ir2Rh7
_symmetry_space_group_name_H-M   'P 1'
_cell_length_a   5.26714634
_cell_length_b   5.26463382
_cell_length_c   17.56670100
_cell_angle_alpha   90.00026120
_cell_angle_beta   89.97939715
_cell_angle_gamma   119.98470650
_symmetry_Int_Tables_number   1
_chemical_formula_structural   AcDy2Ir2Rh7
_chemical_formula_sum   'Ac2 Dy4 Ir4 Rh14'
_cell_volume   421.92112055
_cell_formula_units_Z   2
loop_
 _symmetry_equiv_pos_site_id
 _symmetry_equiv_pos_as_xyz
  1  'x, y, z'
loop_
 _atom_site_type_symbol
 _atom_site_label
 _atom_site_symmetry_multiplicity
 _atom_site_fract_x
 _atom_site_fract_y
 _atom_site_fract_z
 _atom_site_occupancy
  Ac  Ac0  1  0.333350  0.666676  0.749976  1
  Ac  Ac1  1  0.666366  0.333183  0.250043  1
  Dy  Dy2  1  0.333126  0.666564  0.960252  1
  Dy  Dy3  1  0.666597  0.333299  0.039897  1
  Dy  Dy4  1  0.667959  0.333980  0.460277  1
  Dy  Dy5  1  0.334028  0.667012  0.539582  1
  Ir  Ir6  1  0.164809  0.830858  0.376254  1
  Ir  Ir7  1  0.164813  0.333954  0.376254  1
  Ir  Ir8  1  0.003461  0.001731  0.500257  1
  Ir  Ir9  1  0.999504  0.999753  0.999939  1
  Rh  Rh10  1  0.662380  0.831193  0.377304  1
  Rh  Rh11  1  0.832763  0.167277  0.623418  1
  Rh  Rh12  1  0.832765  0.665480  0.623416  1
  Rh  Rh13  1  0.334957  0.167478  0.623228  1
  Rh  Rh14  1  0.832858  0.167484  0.877000  1
  Rh  Rh15  1  0.832855  0.665381  0.877000  1
  Rh  Rh16  1  0.334782  0.167393  0.877094  1
  Rh  Rh17  1  0.167577  0.832511  0.122587  1
  Rh  Rh18  1  0.167575  0.335062  0.122588  1
  Rh  Rh19  1  0.665975  0.832984  0.122936  1
  Rh  Rh20  1  0.334183  0.667093  0.249970  1
  Rh  Rh21  1  0.666106  0.333055  0.750357  1
  Rh  Rh22  1  0.000522  0.000259  0.250251  1
  Rh  Rh23  1  0.000685  0.000341  0.750121  1
