# generated using pymatgen
data_Pr5Si9As3Ir19
_symmetry_space_group_name_H-M   'P 1'
_cell_length_a   13.03350500
_cell_length_b   13.03350574
_cell_length_c   4.01301200
_cell_angle_alpha   90.00000000
_cell_angle_beta   90.00000000
_cell_angle_gamma   120.00000065
_symmetry_Int_Tables_number   1
_chemical_formula_structural   Pr5Si9As3Ir19
_chemical_formula_sum   'Pr5 Si9 As3 Ir19'
_cell_volume   590.36901763
_cell_formula_units_Z   1
loop_
 _symmetry_equiv_pos_site_id
 _symmetry_equiv_pos_as_xyz
  1  'x, y, z'
loop_
 _atom_site_type_symbol
 _atom_site_label
 _atom_site_symmetry_multiplicity
 _atom_site_fract_x
 _atom_site_fract_y
 _atom_site_fract_z
 _atom_site_occupancy
  Pr  Pr0  1  0.000000  0.809072  0.500000  1
  Pr  Pr1  1  0.190928  0.190928  0.500000  1
  Pr  Pr2  1  0.809072  0.000000  0.500000  1
  Pr  Pr3  1  0.333333  0.666667  0.000000  1
  Pr  Pr4  1  0.666667  0.333333  0.000000  1
  Si  Si5  1  0.517784  0.687751  0.500000  1
  Si  Si6  1  0.312249  0.830033  0.500000  1
  Si  Si7  1  0.169967  0.482216  0.500000  1
  Si  Si8  1  0.482216  0.169967  0.500000  1
  Si  Si9  1  0.687751  0.517784  0.500000  1
  Si  Si10  1  0.830033  0.312249  0.500000  1
  Si  Si11  1  0.000000  0.628781  0.000000  1
  Si  Si12  1  0.371219  0.371219  0.000000  1
  Si  Si13  1  0.628781  0.000000  0.000000  1
  As  As14  1  0.000000  0.181764  0.000000  1
  As  As15  1  0.818236  0.818236  0.000000  1
  As  As16  1  0.181764  0.000000  0.000000  1
  Ir  Ir17  1  0.000000  0.289671  0.500000  1
  Ir  Ir18  1  0.710329  0.710329  0.500000  1
  Ir  Ir19  1  0.289671  0.000000  0.500000  1
  Ir  Ir20  1  0.619243  0.802839  0.000000  1
  Ir  Ir21  1  0.197161  0.816404  0.000000  1
  Ir  Ir22  1  0.183596  0.380757  0.000000  1
  Ir  Ir23  1  0.380757  0.183596  0.000000  1
  Ir  Ir24  1  0.802839  0.619243  0.000000  1
  Ir  Ir25  1  0.816404  0.197161  0.000000  1
  Ir  Ir26  1  0.512444  0.875021  0.500000  1
  Ir  Ir27  1  0.124979  0.637423  0.500000  1
  Ir  Ir28  1  0.362577  0.487556  0.500000  1
  Ir  Ir29  1  0.487556  0.362577  0.500000  1
  Ir  Ir30  1  0.875021  0.512444  0.500000  1
  Ir  Ir31  1  0.637423  0.124979  0.500000  1
  Ir  Ir32  1  0.000000  0.000000  0.000000  1
  Ir  Ir33  1  0.000000  0.447356  0.000000  1
  Ir  Ir34  1  0.552644  0.552644  0.000000  1
  Ir  Ir35  1  0.447356  0.000000  0.000000  1
