# generated using pymatgen
data_Er2SiIrSe
_symmetry_space_group_name_H-M   'P 1'
_cell_length_a   4.06155000
_cell_length_b   4.06154699
_cell_length_c   14.87413900
_cell_angle_alpha   90.00000000
_cell_angle_beta   90.00000000
_cell_angle_gamma   120.00002454
_symmetry_Int_Tables_number   1
_chemical_formula_structural   Er2SiIrSe
_chemical_formula_sum   'Er4 Si2 Ir2 Se2'
_cell_volume   212.49349805
_cell_formula_units_Z   2
loop_
 _symmetry_equiv_pos_site_id
 _symmetry_equiv_pos_as_xyz
  1  'x, y, z'
loop_
 _atom_site_type_symbol
 _atom_site_label
 _atom_site_symmetry_multiplicity
 _atom_site_fract_x
 _atom_site_fract_y
 _atom_site_fract_z
 _atom_site_occupancy
  Er  Er0  1  0.333333  0.666667  0.377731  1
  Er  Er1  1  0.666667  0.333333  0.622269  1
  Er  Er2  1  0.666667  0.333333  0.877731  1
  Er  Er3  1  0.333333  0.666667  0.122269  1
  Si  Si4  1  0.000000  0.000000  0.250000  1
  Si  Si5  1  0.000000  0.000000  0.750000  1
  Ir  Ir6  1  0.333333  0.666667  0.750000  1
  Ir  Ir7  1  0.666667  0.333333  0.250000  1
  Se  Se8  1  0.000000  0.000000  0.500000  1
  Se  Se9  1  0.000000  0.000000  0.000000  1
