# generated using pymatgen
data_Li2Th(P3Pd10)2
_symmetry_space_group_name_H-M   'P 1'
_cell_length_a   8.62645510
_cell_length_b   8.62645522
_cell_length_c   8.62645500
_cell_angle_alpha   59.99999702
_cell_angle_beta   59.99999654
_cell_angle_gamma   59.99999817
_symmetry_Int_Tables_number   1
_chemical_formula_structural   Li2Th(P3Pd10)2
_chemical_formula_sum   'Li2 Th1 P6 Pd20'
_cell_volume   453.92288080
_cell_formula_units_Z   1
loop_
 _symmetry_equiv_pos_site_id
 _symmetry_equiv_pos_as_xyz
  1  'x, y, z'
loop_
 _atom_site_type_symbol
 _atom_site_label
 _atom_site_symmetry_multiplicity
 _atom_site_fract_x
 _atom_site_fract_y
 _atom_site_fract_z
 _atom_site_occupancy
  Li  Li0  1  0.000000  0.000000  0.000000  1
  Li  Li1  1  0.750000  0.750000  0.750000  1
  Th  Th2  1  0.250000  0.250000  0.250000  1
  P  P3  1  0.739335  0.260665  0.260665  1
  P  P4  1  0.739335  0.739335  0.260665  1
  P  P5  1  0.739335  0.260665  0.739335  1
  P  P6  1  0.260665  0.739335  0.260665  1
  P  P7  1  0.260665  0.739335  0.739335  1
  P  P8  1  0.260665  0.260665  0.739335  1
  Pd  Pd9  1  0.342767  0.002574  0.002574  1
  Pd  Pd10  1  0.002574  0.652084  0.342767  1
  Pd  Pd11  1  0.342767  0.002574  0.652084  1
  Pd  Pd12  1  0.002574  0.652084  0.002574  1
  Pd  Pd13  1  0.652084  0.342767  0.002574  1
  Pd  Pd14  1  0.617876  0.617876  0.146371  1
  Pd  Pd15  1  0.387340  0.837983  0.387340  1
  Pd  Pd16  1  0.146371  0.617876  0.617876  1
  Pd  Pd17  1  0.652084  0.002574  0.342767  1
  Pd  Pd18  1  0.002574  0.342767  0.652084  1
  Pd  Pd19  1  0.652084  0.002574  0.002574  1
  Pd  Pd20  1  0.002574  0.002574  0.342767  1
  Pd  Pd21  1  0.617876  0.146371  0.617876  1
  Pd  Pd22  1  0.342767  0.652084  0.002574  1
  Pd  Pd23  1  0.387340  0.387340  0.387340  1
  Pd  Pd24  1  0.617876  0.617876  0.617876  1
  Pd  Pd25  1  0.387340  0.387340  0.837983  1
  Pd  Pd26  1  0.002574  0.002574  0.652084  1
  Pd  Pd27  1  0.837983  0.387340  0.387340  1
  Pd  Pd28  1  0.002574  0.342767  0.002574  1
