# generated using pymatgen
data_CaGd2(RhPb)3
_symmetry_space_group_name_H-M   'P 1'
_cell_length_a   7.87617600
_cell_length_b   7.87617562
_cell_length_c   4.00819600
_cell_angle_alpha   90.00000000
_cell_angle_beta   90.00000000
_cell_angle_gamma   121.25447345
_symmetry_Int_Tables_number   1
_chemical_formula_structural   CaGd2(RhPb)3
_chemical_formula_sum   'Ca1 Gd2 Rh3 Pb3'
_cell_volume   212.55950192
_cell_formula_units_Z   1
loop_
 _symmetry_equiv_pos_site_id
 _symmetry_equiv_pos_as_xyz
  1  'x, y, z'
loop_
 _atom_site_type_symbol
 _atom_site_label
 _atom_site_symmetry_multiplicity
 _atom_site_fract_x
 _atom_site_fract_y
 _atom_site_fract_z
 _atom_site_occupancy
  Ca  Ca0  1  0.403954  0.403954  0.500000  1
  Gd  Gd1  1  0.593942  0.002076  0.500000  1
  Gd  Gd2  1  0.002076  0.593942  0.500000  1
  Rh  Rh3  1  0.985784  0.985784  0.500000  1
  Rh  Rh4  1  0.687629  0.329204  0.000000  1
  Rh  Rh5  1  0.329204  0.687629  0.000000  1
  Pb  Pb6  1  0.727630  0.727630  0.000000  1
  Pb  Pb7  1  0.260984  0.008797  0.000000  1
  Pb  Pb8  1  0.008797  0.260984  0.000000  1
