# generated using pymatgen
data_TaZn(GaPt6)2
_symmetry_space_group_name_H-M   'P 1'
_cell_length_a   5.59796939
_cell_length_b   5.59797078
_cell_length_c   7.91717100
_cell_angle_alpha   90.00000000
_cell_angle_beta   90.00000000
_cell_angle_gamma   89.94461782
_symmetry_Int_Tables_number   1
_chemical_formula_structural   TaZn(GaPt6)2
_chemical_formula_sum   'Ta1 Zn1 Ga2 Pt12'
_cell_volume   248.10240183
_cell_formula_units_Z   1
loop_
 _symmetry_equiv_pos_site_id
 _symmetry_equiv_pos_as_xyz
  1  'x, y, z'
loop_
 _atom_site_type_symbol
 _atom_site_label
 _atom_site_symmetry_multiplicity
 _atom_site_fract_x
 _atom_site_fract_y
 _atom_site_fract_z
 _atom_site_occupancy
  Ta  Ta0  1  0.000000  0.500000  0.750466  1
  Zn  Zn1  1  0.500000  0.000000  0.749832  1
  Ga  Ga2  1  0.500000  0.000000  0.250095  1
  Ga  Ga3  1  0.000000  0.500000  0.249816  1
  Pt  Pt4  1  0.240950  0.259050  0.998675  1
  Pt  Pt5  1  0.760375  0.260375  0.501691  1
  Pt  Pt6  1  0.744664  0.244664  0.999005  1
  Pt  Pt7  1  0.759050  0.740950  0.998675  1
  Pt  Pt8  1  0.500000  0.500000  0.749881  1
  Pt  Pt9  1  0.256466  0.243534  0.500587  1
  Pt  Pt10  1  0.743534  0.756466  0.500587  1
  Pt  Pt11  1  0.239625  0.739625  0.501691  1
  Pt  Pt12  1  0.500000  0.500000  0.250056  1
  Pt  Pt13  1  0.000000  0.000000  0.749881  1
  Pt  Pt14  1  0.000000  0.000000  0.250056  1
  Pt  Pt15  1  0.255336  0.755336  0.999005  1
