# generated using pymatgen
data_Pr3Sm(AuBr6)4
_symmetry_space_group_name_H-M   'P 1'
_cell_length_a   8.38847035
_cell_length_b   10.61027971
_cell_length_c   15.24131696
_cell_angle_alpha   103.13550964
_cell_angle_beta   96.23952876
_cell_angle_gamma   112.48722473
_symmetry_Int_Tables_number   1
_chemical_formula_structural   Pr3Sm(AuBr6)4
_chemical_formula_sum   'Pr3 Sm1 Au4 Br24'
_cell_volume   1191.40836551
_cell_formula_units_Z   1
loop_
 _symmetry_equiv_pos_site_id
 _symmetry_equiv_pos_as_xyz
  1  'x, y, z'
loop_
 _atom_site_type_symbol
 _atom_site_label
 _atom_site_symmetry_multiplicity
 _atom_site_fract_x
 _atom_site_fract_y
 _atom_site_fract_z
 _atom_site_occupancy
  Pr  Pr0  1  0.579381  0.922921  0.622194  1
  Pr  Pr1  1  0.419947  0.076468  0.377339  1
  Pr  Pr2  1  0.975467  0.313111  0.871408  1
  Sm  Sm3  1  0.025056  0.687146  0.128943  1
  Au  Au4  1  0.294003  0.631758  0.762555  1
  Au  Au5  1  0.706430  0.368738  0.237117  1
  Au  Au6  1  0.499922  0.499875  0.499904  1
  Au  Au7  1  0.000116  0.999587  0.000441  1
  Br  Br8  1  0.607410  0.733411  0.750221  1
  Br  Br9  1  0.392962  0.266824  0.249846  1
  Br  Br10  1  0.274865  0.846614  0.734295  1
  Br  Br11  1  0.725399  0.153772  0.265747  1
  Br  Br12  1  0.977933  0.533039  0.770629  1
  Br  Br13  1  0.021749  0.469722  0.228032  1
  Br  Br14  1  0.312075  0.413652  0.787004  1
  Br  Br15  1  0.691431  0.587467  0.212290  1
  Br  Br16  1  0.689572  0.369477  0.507035  1
  Br  Br17  1  0.310335  0.630459  0.492896  1
  Br  Br18  1  0.761716  0.728244  0.527204  1
  Br  Br19  1  0.238036  0.271412  0.472621  1
  Br  Br20  1  0.789173  0.108721  0.979606  1
  Br  Br21  1  0.208318  0.888586  0.021900  1
  Br  Br22  1  0.771346  0.793499  0.031652  1
  Br  Br23  1  0.231014  0.205281  0.969343  1
  Br  Br24  1  0.617418  0.195230  0.746084  1
  Br  Br25  1  0.378285  0.803715  0.252554  1
  Br  Br26  1  0.950634  0.054377  0.728451  1
  Br  Br27  1  0.048886  0.941531  0.269346  1
  Br  Br28  1  0.728048  0.049931  0.480542  1
  Br  Br29  1  0.271636  0.949885  0.519205  1
  Br  Br30  1  0.765057  0.438423  0.979560  1
  Br  Br31  1  0.236382  0.567125  0.024037  1
