# generated using pymatgen
data_CaHoEr(GeRh2)3
_symmetry_space_group_name_H-M   'P 1'
_cell_length_a   5.60608000
_cell_length_b   5.60608026
_cell_length_c   15.45363800
_cell_angle_alpha   90.00000000
_cell_angle_beta   90.00000000
_cell_angle_gamma   119.99999844
_symmetry_Int_Tables_number   1
_chemical_formula_structural   CaHoEr(GeRh2)3
_chemical_formula_sum   'Ca2 Ho2 Er2 Ge6 Rh12'
_cell_volume   420.61036969
_cell_formula_units_Z   2
loop_
 _symmetry_equiv_pos_site_id
 _symmetry_equiv_pos_as_xyz
  1  'x, y, z'
loop_
 _atom_site_type_symbol
 _atom_site_label
 _atom_site_symmetry_multiplicity
 _atom_site_fract_x
 _atom_site_fract_y
 _atom_site_fract_z
 _atom_site_occupancy
  Ca  Ca0  1  0.333333  0.666667  0.750036  1
  Ca  Ca1  1  0.666667  0.333333  0.249964  1
  Ho  Ho2  1  0.333333  0.666667  0.540906  1
  Ho  Ho3  1  0.666667  0.333333  0.459094  1
  Er  Er4  1  0.666667  0.333333  0.040775  1
  Er  Er5  1  0.333333  0.666667  0.959225  1
  Ge  Ge6  1  0.000000  0.000000  0.249937  1
  Ge  Ge7  1  0.000000  0.000000  0.750063  1
  Ge  Ge8  1  0.333333  0.666667  0.249976  1
  Ge  Ge9  1  0.666667  0.333333  0.750024  1
  Ge  Ge10  1  0.000000  0.000000  0.000000  1
  Ge  Ge11  1  0.000000  0.000000  0.500000  1
  Rh  Rh12  1  0.168748  0.337496  0.125570  1
  Rh  Rh13  1  0.831252  0.662504  0.874430  1
  Rh  Rh14  1  0.662504  0.831252  0.125570  1
  Rh  Rh15  1  0.831298  0.662596  0.625725  1
  Rh  Rh16  1  0.337496  0.168748  0.874430  1
  Rh  Rh17  1  0.168702  0.337404  0.374275  1
  Rh  Rh18  1  0.168748  0.831252  0.125570  1
  Rh  Rh19  1  0.337404  0.168702  0.625725  1
  Rh  Rh20  1  0.831252  0.168748  0.874430  1
  Rh  Rh21  1  0.662596  0.831298  0.374275  1
  Rh  Rh22  1  0.831298  0.168702  0.625725  1
  Rh  Rh23  1  0.168702  0.831298  0.374275  1
