# generated using pymatgen
data_Ho3TmAl24Pt8Rh
_symmetry_space_group_name_H-M   'P 1'
_cell_length_a   7.51438784
_cell_length_b   7.53447852
_cell_length_c   13.14480446
_cell_angle_alpha   84.60602852
_cell_angle_beta   79.09757589
_cell_angle_gamma   59.91887125
_symmetry_Int_Tables_number   1
_chemical_formula_structural   Ho3TmAl24Pt8Rh
_chemical_formula_sum   'Ho3 Tm1 Al24 Pt8 Rh1'
_cell_volume   632.36153647
_cell_formula_units_Z   1
loop_
 _symmetry_equiv_pos_site_id
 _symmetry_equiv_pos_as_xyz
  1  'x, y, z'
loop_
 _atom_site_type_symbol
 _atom_site_label
 _atom_site_symmetry_multiplicity
 _atom_site_fract_x
 _atom_site_fract_y
 _atom_site_fract_z
 _atom_site_occupancy
  Ho  Ho0  1  0.394441  0.167792  0.808857  1
  Ho  Ho1  1  0.605628  0.832247  0.191135  1
  Ho  Ho2  1  0.732946  0.498389  0.808905  1
  Tm  Tm3  1  0.266573  0.501518  0.191617  1
  Al  Al4  1  0.687499  0.830146  0.945485  1
  Al  Al5  1  0.312457  0.170369  0.054789  1
  Al  Al6  1  0.146562  0.832088  0.561738  1
  Al  Al7  1  0.853464  0.167903  0.438235  1
  Al  Al8  1  0.480072  0.166734  0.558923  1
  Al  Al9  1  0.519905  0.833293  0.441039  1
  Al  Al10  1  0.217099  0.165723  0.327578  1
  Al  Al11  1  0.783037  0.834571  0.672120  1
  Al  Al12  1  0.435844  0.507393  0.672046  1
  Al  Al13  1  0.563896  0.492583  0.327647  1
  Al  Al14  1  0.109347  0.160087  0.669968  1
  Al  Al15  1  0.891127  0.839565  0.329726  1
  Al  Al16  1  0.349032  0.499213  0.945869  1
  Al  Al17  1  0.650302  0.500785  0.054714  1
  Al  Al18  1  0.015257  0.172084  0.954598  1
  Al  Al19  1  0.985180  0.827487  0.045704  1
  Al  Al20  1  0.186603  0.499369  0.441015  1
  Al  Al21  1  0.813460  0.500636  0.558848  1
  Al  Al22  1  0.734534  0.164515  0.182853  1
  Al  Al23  1  0.264947  0.835970  0.817097  1
  Al  Al24  1  0.060803  0.628278  0.818138  1
  Al  Al25  1  0.939730  0.371761  0.181846  1
  Al  Al26  1  0.856146  0.040937  0.816771  1
  Al  Al27  1  0.143898  0.958484  0.183175  1
  Pt  Pt28  1  0.120003  0.492090  0.638665  1
  Pt  Pt29  1  0.880333  0.507957  0.361116  1
  Pt  Pt30  1  0.656846  0.171596  0.999936  1
  Pt  Pt31  1  0.343039  0.828427  0.000194  1
  Pt  Pt32  1  0.537206  0.167072  0.361245  1
  Pt  Pt33  1  0.462553  0.833226  0.638530  1
  Pt  Pt34  1  0.778544  0.175243  0.637288  1
  Pt  Pt35  1  0.221605  0.824424  0.362466  1
  Rh  Rh36  1  0.000079  0.500045  0.000123  1
