# generated using pymatgen
data_TlTe19
_symmetry_space_group_name_H-M   'P 1'
_cell_length_a   8.01800484
_cell_length_b   9.02478963
_cell_length_c   10.16484400
_cell_angle_alpha   104.08862850
_cell_angle_beta   97.23290686
_cell_angle_gamma   106.97193268
_symmetry_Int_Tables_number   1
_chemical_formula_structural   TlTe19
_chemical_formula_sum   'Tl1 Te19'
_cell_volume   666.78472118
_cell_formula_units_Z   1
loop_
 _symmetry_equiv_pos_site_id
 _symmetry_equiv_pos_as_xyz
  1  'x, y, z'
loop_
 _atom_site_type_symbol
 _atom_site_label
 _atom_site_symmetry_multiplicity
 _atom_site_fract_x
 _atom_site_fract_y
 _atom_site_fract_z
 _atom_site_occupancy
  Tl  Tl0  1  0.000000  0.500000  0.000000  1
  Te  Te1  1  0.790273  0.581461  0.617893  1
  Te  Te2  1  0.631413  0.202038  0.207707  1
  Te  Te3  1  0.368587  0.797962  0.792293  1
  Te  Te4  1  0.603496  0.682047  0.196528  1
  Te  Te5  1  0.209727  0.418539  0.382107  1
  Te  Te6  1  0.396504  0.317953  0.803472  1
  Te  Te7  1  0.000000  0.000000  0.000000  1
  Te  Te8  1  0.197499  0.915707  0.393439  1
  Te  Te9  1  0.802501  0.084293  0.606561  1
  Te  Te10  1  0.684211  0.633151  0.899459  1
  Te  Te11  1  0.513306  0.255191  0.498468  1
  Te  Te12  1  0.703063  0.128605  0.903291  1
  Te  Te13  1  0.296937  0.871395  0.096709  1
  Te  Te14  1  0.486694  0.744809  0.501532  1
  Te  Te15  1  0.098280  0.463979  0.696925  1
  Te  Te16  1  0.315789  0.366849  0.100541  1
  Te  Te17  1  0.914087  0.038993  0.301502  1
  Te  Te18  1  0.085913  0.961007  0.698498  1
  Te  Te19  1  0.901720  0.536021  0.303075  1
