# generated using pymatgen
data_BaLi4Nd3Pt4
_symmetry_space_group_name_H-M   'P 1'
_cell_length_a   4.18345800
_cell_length_b   7.37827747
_cell_length_c   8.71345590
_cell_angle_alpha   91.20222488
_cell_angle_beta   90.00000000
_cell_angle_gamma   90.00000000
_symmetry_Int_Tables_number   1
_chemical_formula_structural   BaLi4Nd3Pt4
_chemical_formula_sum   'Ba1 Li4 Nd3 Pt4'
_cell_volume   268.89654499
_cell_formula_units_Z   1
loop_
 _symmetry_equiv_pos_site_id
 _symmetry_equiv_pos_as_xyz
  1  'x, y, z'
loop_
 _atom_site_type_symbol
 _atom_site_label
 _atom_site_symmetry_multiplicity
 _atom_site_fract_x
 _atom_site_fract_y
 _atom_site_fract_z
 _atom_site_occupancy
  Ba  Ba0  1  0.750000  0.456661  0.187566  1
  Li  Li1  1  0.250000  0.125841  0.048173  1
  Li  Li2  1  0.250000  0.630231  0.454455  1
  Li  Li3  1  0.750000  0.882555  0.943089  1
  Li  Li4  1  0.750000  0.363619  0.561286  1
  Nd  Nd5  1  0.250000  0.039585  0.684065  1
  Nd  Nd6  1  0.250000  0.548686  0.812998  1
  Nd  Nd7  1  0.750000  0.950791  0.321718  1
  Pt  Pt8  1  0.250000  0.225939  0.394505  1
  Pt  Pt9  1  0.250000  0.778538  0.110485  1
  Pt  Pt10  1  0.750000  0.746025  0.622630  1
  Pt  Pt11  1  0.750000  0.251532  0.859030  1
