# generated using pymatgen
data_Li8Sm8Si3Sb5
_symmetry_space_group_name_H-M   'P 1'
_cell_length_a   9.22998189
_cell_length_b   9.24133549
_cell_length_c   7.32124448
_cell_angle_alpha   89.99999892
_cell_angle_beta   89.96720453
_cell_angle_gamma   120.04069932
_symmetry_Int_Tables_number   1
_chemical_formula_structural   Li8Sm8Si3Sb5
_chemical_formula_sum   'Li8 Sm8 Si3 Sb5'
_cell_volume   540.59593462
_cell_formula_units_Z   1
loop_
 _symmetry_equiv_pos_site_id
 _symmetry_equiv_pos_as_xyz
  1  'x, y, z'
loop_
 _atom_site_type_symbol
 _atom_site_label
 _atom_site_symmetry_multiplicity
 _atom_site_fract_x
 _atom_site_fract_y
 _atom_site_fract_z
 _atom_site_occupancy
  Li  Li0  1  0.823160  0.164758  0.727634  1
  Li  Li1  1  0.823160  0.658402  0.727634  1
  Li  Li2  1  0.348469  0.174235  0.716818  1
  Li  Li3  1  0.174187  0.829040  0.222799  1
  Li  Li4  1  0.174187  0.345147  0.222799  1
  Li  Li5  1  0.653365  0.826682  0.217255  1
  Li  Li6  1  0.663155  0.331577  0.329303  1
  Li  Li7  1  0.342934  0.671468  0.822961  1
  Sm  Sm8  1  0.493356  0.523590  0.506602  1
  Sm  Sm9  1  0.493356  0.969767  0.506602  1
  Sm  Sm10  1  0.022093  0.511048  0.503095  1
  Sm  Sm11  1  0.515301  0.494752  0.998036  1
  Sm  Sm12  1  0.515301  0.020546  0.998036  1
  Sm  Sm13  1  0.978763  0.489381  0.001911  1
  Sm  Sm14  1  0.989807  0.994903  0.503507  1
  Sm  Sm15  1  0.988802  0.994401  0.993349  1
  Si  Si16  1  0.667966  0.833984  0.761122  1
  Si  Si17  1  0.669451  0.334724  0.746328  1
  Si  Si18  1  0.331904  0.665952  0.244527  1
  Sb  Sb19  1  0.833592  0.166916  0.261100  1
  Sb  Sb20  1  0.833592  0.666675  0.261100  1
  Sb  Sb21  1  0.331349  0.165674  0.262640  1
  Sb  Sb22  1  0.166378  0.833735  0.761428  1
  Sb  Sb23  1  0.166378  0.332644  0.761428  1
