# generated using pymatgen
data_Lu4Al18(OsPt)3
_symmetry_space_group_name_H-M   'P 1'
_cell_length_a   7.55950715
_cell_length_b   7.55950799
_cell_length_c   9.42164835
_cell_angle_alpha   89.93725096
_cell_angle_beta   89.93725369
_cell_angle_gamma   119.33394638
_symmetry_Int_Tables_number   1
_chemical_formula_structural   Lu4Al18(OsPt)3
_chemical_formula_sum   'Lu4 Al18 Os3 Pt3'
_cell_volume   469.37436896
_cell_formula_units_Z   1
loop_
 _symmetry_equiv_pos_site_id
 _symmetry_equiv_pos_as_xyz
  1  'x, y, z'
loop_
 _atom_site_type_symbol
 _atom_site_label
 _atom_site_symmetry_multiplicity
 _atom_site_fract_x
 _atom_site_fract_y
 _atom_site_fract_z
 _atom_site_occupancy
  Lu  Lu0  1  0.993594  0.673303  0.252140  1
  Lu  Lu1  1  0.004774  0.325481  0.748235  1
  Lu  Lu2  1  0.674519  0.995226  0.251765  1
  Lu  Lu3  1  0.326697  0.006406  0.747860  1
  Al  Al4  1  0.125563  0.126824  0.250149  1
  Al  Al5  1  0.873176  0.874437  0.749851  1
  Al  Al6  1  0.000594  0.332808  0.075768  1
  Al  Al7  1  0.998996  0.668924  0.923175  1
  Al  Al8  1  0.995028  0.662986  0.575015  1
  Al  Al9  1  0.337014  0.004972  0.424985  1
  Al  Al10  1  0.997264  0.331411  0.425039  1
  Al  Al11  1  0.668589  0.002736  0.574961  1
  Al  Al12  1  0.667192  0.999406  0.924232  1
  Al  Al13  1  0.331076  0.001004  0.076825  1
  Al  Al14  1  0.333444  0.327857  0.550935  1
  Al  Al15  1  0.672143  0.666556  0.449065  1
  Al  Al16  1  0.670483  0.671286  0.056515  1
  Al  Al17  1  0.328714  0.329517  0.943485  1
  Al  Al18  1  0.340885  0.547570  0.250350  1
  Al  Al19  1  0.658569  0.449849  0.747191  1
  Al  Al20  1  0.550151  0.341431  0.252809  1
  Al  Al21  1  0.452430  0.659115  0.749650  1
  Os  Os22  1  0.672277  0.327723  0.500000  1
  Os  Os23  1  0.999493  0.000507  0.000000  1
  Os  Os24  1  0.000557  0.999443  0.500000  1
  Pt  Pt25  1  0.672172  0.327828  0.000000  1
  Pt  Pt26  1  0.327179  0.672821  0.000000  1
  Pt  Pt27  1  0.327425  0.672575  0.500000  1
