# generated using pymatgen
data_Er4Lu(OsO6)2
_symmetry_space_group_name_H-M   'P 1'
_cell_length_a   6.80918385
_cell_length_b   6.80918597
_cell_length_c   7.39170308
_cell_angle_alpha   73.99544741
_cell_angle_beta   73.99544191
_cell_angle_gamma   48.78002352
_symmetry_Int_Tables_number   1
_chemical_formula_structural   Er4Lu(OsO6)2
_chemical_formula_sum   'Er4 Lu1 Os2 O12'
_cell_volume   245.68980825
_cell_formula_units_Z   1
loop_
 _symmetry_equiv_pos_site_id
 _symmetry_equiv_pos_as_xyz
  1  'x, y, z'
loop_
 _atom_site_type_symbol
 _atom_site_label
 _atom_site_symmetry_multiplicity
 _atom_site_fract_x
 _atom_site_fract_y
 _atom_site_fract_z
 _atom_site_occupancy
  Er  Er0  1  0.700032  0.700032  0.640841  1
  Er  Er1  1  0.299968  0.299968  0.359159  1
  Er  Er2  1  0.687100  0.687100  0.173184  1
  Er  Er3  1  0.312900  0.312900  0.826816  1
  Lu  Lu4  1  0.000000  0.000000  0.500000  1
  Os  Os5  1  0.780482  0.219518  0.000000  1
  Os  Os6  1  0.219518  0.780482  0.000000  1
  O  O7  1  0.001686  0.001686  0.206479  1
  O  O8  1  0.998314  0.998314  0.793521  1
  O  O9  1  0.578354  0.086302  0.087776  1
  O  O10  1  0.421646  0.913698  0.912224  1
  O  O11  1  0.913698  0.421646  0.912224  1
  O  O12  1  0.086302  0.578354  0.087776  1
  O  O13  1  0.498993  0.498993  0.177174  1
  O  O14  1  0.501007  0.501007  0.822826  1
  O  O15  1  0.400623  0.900666  0.429338  1
  O  O16  1  0.599377  0.099334  0.570662  1
  O  O17  1  0.099334  0.599377  0.570662  1
  O  O18  1  0.900666  0.400623  0.429338  1
