# generated using pymatgen
data_Co4Si2Mo5WC
_symmetry_space_group_name_H-M   'P 1'
_cell_length_a   7.71028697
_cell_length_b   7.71031055
_cell_length_c   7.71216800
_cell_angle_alpha   59.99466653
_cell_angle_beta   59.99444667
_cell_angle_gamma   60.02223272
_symmetry_Int_Tables_number   1
_chemical_formula_structural   Co4Si2Mo5WC
_chemical_formula_sum   'Co8 Si4 Mo10 W2 C2'
_cell_volume   324.22094453
_cell_formula_units_Z   2
loop_
 _symmetry_equiv_pos_site_id
 _symmetry_equiv_pos_as_xyz
  1  'x, y, z'
loop_
 _atom_site_type_symbol
 _atom_site_label
 _atom_site_symmetry_multiplicity
 _atom_site_fract_x
 _atom_site_fract_y
 _atom_site_fract_z
 _atom_site_occupancy
  Co  Co0  1  0.918193  0.245110  0.918378  1
  Co  Co1  1  0.332239  0.004183  0.331802  1
  Co  Co2  1  0.331659  0.331669  0.331889  1
  Co  Co3  1  0.004202  0.332239  0.331795  1
  Co  Co4  1  0.918283  0.918245  0.245724  1
  Co  Co5  1  0.245184  0.918146  0.918366  1
  Co  Co6  1  0.331646  0.331656  0.004839  1
  Co  Co7  1  0.918296  0.918260  0.917812  1
  Si  Si8  1  0.125296  0.125395  0.625006  1
  Si  Si9  1  0.125662  0.624988  0.124654  1
  Si  Si10  1  0.125340  0.125426  0.124276  1
  Si  Si11  1  0.625090  0.125711  0.124583  1
  Mo  Mo12  1  0.302942  0.696282  0.697150  1
  Mo  Mo13  1  0.303989  0.303953  0.695917  1
  Mo  Mo14  1  0.552896  0.946421  0.553735  1
  Mo  Mo15  1  0.946399  0.552918  0.553720  1
  Mo  Mo16  1  0.552945  0.946310  0.946972  1
  Mo  Mo17  1  0.696152  0.302976  0.303656  1
  Mo  Mo18  1  0.946289  0.552969  0.946987  1
  Mo  Mo19  1  0.302977  0.696151  0.303628  1
  Mo  Mo20  1  0.553959  0.553999  0.946083  1
  Mo  Mo21  1  0.696293  0.302939  0.697119  1
  W  W22  1  0.696527  0.696502  0.303473  1
  W  W23  1  0.946430  0.946455  0.553561  1
  C  C24  1  0.750574  0.750574  0.749454  1
  C  C25  1  0.500540  0.500524  0.499419  1
