# generated using pymatgen
data_Dy2Mg2IrRh
_symmetry_space_group_name_H-M   'P 1'
_cell_length_a   4.11331200
_cell_length_b   7.09414237
_cell_length_c   8.53108567
_cell_angle_alpha   90.89317852
_cell_angle_beta   90.00000000
_cell_angle_gamma   90.00000000
_symmetry_Int_Tables_number   1
_chemical_formula_structural   Dy2Mg2IrRh
_chemical_formula_sum   'Dy4 Mg4 Ir2 Rh2'
_cell_volume   248.91042373
_cell_formula_units_Z   2
loop_
 _symmetry_equiv_pos_site_id
 _symmetry_equiv_pos_as_xyz
  1  'x, y, z'
loop_
 _atom_site_type_symbol
 _atom_site_label
 _atom_site_symmetry_multiplicity
 _atom_site_fract_x
 _atom_site_fract_y
 _atom_site_fract_z
 _atom_site_occupancy
  Dy  Dy0  1  0.250000  0.541008  0.177046  1
  Dy  Dy1  1  0.750000  0.458992  0.822954  1
  Dy  Dy2  1  0.250000  0.035384  0.325959  1
  Dy  Dy3  1  0.750000  0.964616  0.674041  1
  Mg  Mg4  1  0.250000  0.135515  0.940065  1
  Mg  Mg5  1  0.750000  0.864485  0.059935  1
  Mg  Mg6  1  0.250000  0.635360  0.560072  1
  Mg  Mg7  1  0.750000  0.364640  0.439928  1
  Ir  Ir8  1  0.750000  0.747647  0.369743  1
  Ir  Ir9  1  0.250000  0.252353  0.630257  1
  Rh  Rh10  1  0.750000  0.250498  0.127581  1
  Rh  Rh11  1  0.250000  0.749502  0.872419  1
