# generated using pymatgen
data_Zr6Zn22AuC
_symmetry_space_group_name_H-M   'P 1'
_cell_length_a   8.73441998
_cell_length_b   8.73442451
_cell_length_c   8.73441752
_cell_angle_alpha   59.91599105
_cell_angle_beta   59.91603206
_cell_angle_gamma   59.91608647
_symmetry_Int_Tables_number   1
_chemical_formula_structural   Zr6Zn22AuC
_chemical_formula_sum   'Zr6 Zn22 Au1 C1'
_cell_volume   470.28306713
_cell_formula_units_Z   1
loop_
 _symmetry_equiv_pos_site_id
 _symmetry_equiv_pos_as_xyz
  1  'x, y, z'
loop_
 _atom_site_type_symbol
 _atom_site_label
 _atom_site_symmetry_multiplicity
 _atom_site_fract_x
 _atom_site_fract_y
 _atom_site_fract_z
 _atom_site_occupancy
  Zr  Zr0  1  0.691268  0.310693  0.310698  1
  Zr  Zr1  1  0.310695  0.689095  0.689099  1
  Zr  Zr2  1  0.310692  0.691269  0.310699  1
  Zr  Zr3  1  0.689094  0.310696  0.689100  1
  Zr  Zr4  1  0.310696  0.310698  0.691269  1
  Zr  Zr5  1  0.689095  0.689096  0.310699  1
  Zn  Zn6  1  0.877878  0.877877  0.877876  1
  Zn  Zn7  1  0.122102  0.122101  0.635415  1
  Zn  Zn8  1  0.122102  0.635417  0.122099  1
  Zn  Zn9  1  0.880075  0.880074  0.361172  1
  Zn  Zn10  1  0.880075  0.361172  0.880073  1
  Zn  Zn11  1  0.635417  0.122101  0.122100  1
  Zn  Zn12  1  0.361173  0.880075  0.880072  1
  Zn  Zn13  1  0.504772  0.999623  0.999621  1
  Zn  Zn14  1  0.000459  0.500465  0.500464  1
  Zn  Zn15  1  0.999624  0.504772  0.999621  1
  Zn  Zn16  1  0.500465  0.000459  0.500464  1
  Zn  Zn17  1  0.999623  0.999623  0.504771  1
  Zn  Zn18  1  0.500465  0.500465  0.000457  1
  Zn  Zn19  1  0.332486  0.332486  0.332486  1
  Zn  Zn20  1  0.668988  0.668988  0.668987  1
  Zn  Zn21  1  0.331230  0.331229  0.007585  1
  Zn  Zn22  1  0.331229  0.007587  0.331229  1
  Zn  Zn23  1  0.668536  0.668536  0.994312  1
  Zn  Zn24  1  0.668536  0.994314  0.668535  1
  Zn  Zn25  1  0.007588  0.331229  0.331228  1
  Zn  Zn26  1  0.994315  0.668535  0.668535  1
  Zn  Zn27  1  0.995291  0.995292  0.995291  1
  Au  Au28  1  0.115920  0.115920  0.115918  1
  C  C29  1  0.500113  0.500115  0.500124  1
