# generated using pymatgen
data_KNdY2(SbAu)4
_symmetry_space_group_name_H-M   'P 1'
_cell_length_a   4.65350100
_cell_length_b   4.65350118
_cell_length_c   17.40571300
_cell_angle_alpha   90.00000000
_cell_angle_beta   90.00000000
_cell_angle_gamma   120.00000584
_symmetry_Int_Tables_number   1
_chemical_formula_structural   KNdY2(SbAu)4
_chemical_formula_sum   'K1 Nd1 Y2 Sb4 Au4'
_cell_volume   326.42398637
_cell_formula_units_Z   1
loop_
 _symmetry_equiv_pos_site_id
 _symmetry_equiv_pos_as_xyz
  1  'x, y, z'
loop_
 _atom_site_type_symbol
 _atom_site_label
 _atom_site_symmetry_multiplicity
 _atom_site_fract_x
 _atom_site_fract_y
 _atom_site_fract_z
 _atom_site_occupancy
  K  K0  1  0.000000  0.000000  0.251314  1
  Nd  Nd1  1  0.000000  0.000000  0.985150  1
  Y  Y2  1  0.000000  0.000000  0.512836  1
  Y  Y3  1  0.000000  0.000000  0.746620  1
  Sb  Sb4  1  0.333333  0.666667  0.391759  1
  Sb  Sb5  1  0.666667  0.333333  0.615060  1
  Sb  Sb6  1  0.666667  0.333333  0.877948  1
  Sb  Sb7  1  0.333333  0.666667  0.109506  1
  Au  Au8  1  0.666667  0.333333  0.432178  1
  Au  Au9  1  0.333333  0.666667  0.665450  1
  Au  Au10  1  0.333333  0.666667  0.831562  1
  Au  Au11  1  0.666667  0.333333  0.080617  1
