# generated using pymatgen
data_Y4Sn7SbRh16
_symmetry_space_group_name_H-M   'P 1'
_cell_length_a   4.39537400
_cell_length_b   9.70350217
_cell_length_c   11.90210466
_cell_angle_alpha   89.92335893
_cell_angle_beta   90.00000000
_cell_angle_gamma   90.00000000
_symmetry_Int_Tables_number   1
_chemical_formula_structural   Y4Sn7SbRh16
_chemical_formula_sum   'Y4 Sn7 Sb1 Rh16'
_cell_volume   507.63051245
_cell_formula_units_Z   1
loop_
 _symmetry_equiv_pos_site_id
 _symmetry_equiv_pos_as_xyz
  1  'x, y, z'
loop_
 _atom_site_type_symbol
 _atom_site_label
 _atom_site_symmetry_multiplicity
 _atom_site_fract_x
 _atom_site_fract_y
 _atom_site_fract_z
 _atom_site_occupancy
  Y  Y0  1  0.250000  0.150623  0.827708  1
  Y  Y1  1  0.250000  0.348747  0.324889  1
  Y  Y2  1  0.750000  0.848389  0.173625  1
  Y  Y3  1  0.750000  0.652265  0.673859  1
  Sn  Sn4  1  0.250000  0.084581  0.138271  1
  Sn  Sn5  1  0.750000  0.585110  0.361059  1
  Sn  Sn6  1  0.750000  0.914613  0.861956  1
  Sn  Sn7  1  0.250000  0.616592  0.062605  1
  Sn  Sn8  1  0.250000  0.882937  0.562935  1
  Sn  Sn9  1  0.750000  0.383275  0.938116  1
  Sn  Sn10  1  0.750000  0.116912  0.436695  1
  Sb  Sb11  1  0.250000  0.414323  0.637748  1
  Rh  Rh12  1  0.250000  0.614874  0.496530  1
  Rh  Rh13  1  0.250000  0.881489  0.995847  1
  Rh  Rh14  1  0.750000  0.382835  0.505114  1
  Rh  Rh15  1  0.750000  0.117996  0.004057  1
  Rh  Rh16  1  0.250000  0.709090  0.273777  1
  Rh  Rh17  1  0.250000  0.791758  0.773893  1
  Rh  Rh18  1  0.750000  0.293156  0.727650  1
  Rh  Rh19  1  0.750000  0.209497  0.225687  1
  Rh  Rh20  1  0.250000  0.171014  0.563469  1
  Rh  Rh21  1  0.250000  0.332271  0.063899  1
  Rh  Rh22  1  0.750000  0.831307  0.437510  1
  Rh  Rh23  1  0.750000  0.666913  0.936071  1
  Rh  Rh24  1  0.250000  0.995714  0.345353  1
  Rh  Rh25  1  0.250000  0.502927  0.841166  1
  Rh  Rh26  1  0.750000  0.005681  0.655259  1
  Rh  Rh27  1  0.750000  0.495113  0.155252  1
