# generated using pymatgen
data_Y12Er8Si15Ir
_symmetry_space_group_name_H-M   'P 1'
_cell_length_a   7.44707924
_cell_length_b   7.68664570
_cell_length_c   14.62601000
_cell_angle_alpha   89.73709869
_cell_angle_beta   89.68824103
_cell_angle_gamma   90.18289552
_symmetry_Int_Tables_number   1
_chemical_formula_structural   Y12Er8Si15Ir
_chemical_formula_sum   'Y12 Er8 Si15 Ir1'
_cell_volume   837.21202210
_cell_formula_units_Z   1
loop_
 _symmetry_equiv_pos_site_id
 _symmetry_equiv_pos_as_xyz
  1  'x, y, z'
loop_
 _atom_site_type_symbol
 _atom_site_label
 _atom_site_symmetry_multiplicity
 _atom_site_fract_x
 _atom_site_fract_y
 _atom_site_fract_z
 _atom_site_occupancy
  Y  Y0  1  0.647951  0.993649  0.248644  1
  Y  Y1  1  0.147959  0.510818  0.247704  1
  Y  Y2  1  0.848043  0.488549  0.758070  1
  Y  Y3  1  0.352769  0.009908  0.752500  1
  Y  Y4  1  0.973191  0.814703  0.097031  1
  Y  Y5  1  0.471106  0.682651  0.401247  1
  Y  Y6  1  0.530085  0.323620  0.901641  1
  Y  Y7  1  0.029629  0.184626  0.599195  1
  Y  Y8  1  0.028029  0.185901  0.902701  1
  Y  Y9  1  0.530000  0.318098  0.598664  1
  Y  Y10  1  0.475357  0.681526  0.098732  1
  Y  Y11  1  0.970051  0.817274  0.400675  1
  Er  Er12  1  0.684810  0.810732  0.882746  1
  Er  Er13  1  0.178779  0.681487  0.621906  1
  Er  Er14  1  0.817305  0.333606  0.118697  1
  Er  Er15  1  0.315883  0.177625  0.375985  1
  Er  Er16  1  0.320307  0.178773  0.123744  1
  Er  Er17  1  0.819034  0.319558  0.377150  1
  Er  Er18  1  0.175159  0.674899  0.878404  1
  Er  Er19  1  0.682839  0.819903  0.622342  1
  Si  Si20  1  0.764752  0.627445  0.252335  1
  Si  Si21  1  0.265915  0.874572  0.250831  1
  Si  Si22  1  0.733121  0.120932  0.748344  1
  Si  Si23  1  0.235698  0.375560  0.746158  1
  Si  Si24  1  0.019617  0.108123  0.249157  1
  Si  Si25  1  0.522698  0.393492  0.251743  1
  Si  Si26  1  0.471579  0.609177  0.745883  1
  Si  Si27  1  0.977554  0.895514  0.747735  1
  Si  Si28  1  0.354126  0.971385  0.539764  1
  Si  Si29  1  0.645695  0.027929  0.041865  1
  Si  Si30  1  0.147126  0.469624  0.460153  1
  Si  Si31  1  0.155194  0.470955  0.040917  1
  Si  Si32  1  0.643429  0.029415  0.459467  1
  Si  Si33  1  0.353756  0.968129  0.961686  1
  Si  Si34  1  0.854262  0.529434  0.539034  1
  Ir  Ir35  1  0.857193  0.520407  0.957146  1
