# generated using pymatgen
data_Tm6C2I11
_symmetry_space_group_name_H-M   'P 1'
_cell_length_a   9.46768949
_cell_length_b   10.77016231
_cell_length_c   15.03193781
_cell_angle_alpha   90.83535991
_cell_angle_beta   104.22789030
_cell_angle_gamma   109.89285097
_symmetry_Int_Tables_number   1
_chemical_formula_structural   Tm6C2I11
_chemical_formula_sum   'Tm12 C4 I22'
_cell_volume   1388.97983300
_cell_formula_units_Z   2
loop_
 _symmetry_equiv_pos_site_id
 _symmetry_equiv_pos_as_xyz
  1  'x, y, z'
loop_
 _atom_site_type_symbol
 _atom_site_label
 _atom_site_symmetry_multiplicity
 _atom_site_fract_x
 _atom_site_fract_y
 _atom_site_fract_z
 _atom_site_occupancy
  Tm  Tm0  1  0.385579  0.479266  0.119761  1
  Tm  Tm1  1  0.614421  0.520734  0.880239  1
  Tm  Tm2  1  0.429711  0.780194  0.266280  1
  Tm  Tm3  1  0.570289  0.219806  0.733720  1
  Tm  Tm4  1  0.626542  0.585698  0.357098  1
  Tm  Tm5  1  0.373458  0.414302  0.642902  1
  Tm  Tm6  1  0.829621  0.649971  0.201143  1
  Tm  Tm7  1  0.170379  0.350029  0.798857  1
  Tm  Tm8  1  0.629364  0.838836  0.107089  1
  Tm  Tm9  1  0.370636  0.161164  0.892911  1
  Tm  Tm10  1  0.860305  0.945459  0.347484  1
  Tm  Tm11  1  0.139695  0.054541  0.652516  1
  C  C12  1  0.431761  0.345400  0.797926  1
  C  C13  1  0.568239  0.654600  0.202074  1
  C  C14  1  0.314208  0.231318  0.739881  1
  C  C15  1  0.685792  0.768682  0.260119  1
  I  I16  1  0.388318  0.313015  0.271749  1
  I  I17  1  0.611682  0.686985  0.728251  1
  I  I18  1  0.125290  0.558706  0.150442  1
  I  I19  1  0.874710  0.441294  0.849558  1
  I  I20  1  0.626417  0.378657  0.061748  1
  I  I21  1  0.373583  0.621343  0.938252  1
  I  I22  1  0.122084  0.206656  0.482235  1
  I  I23  1  0.877916  0.793344  0.517765  1
  I  I24  1  0.617719  0.033579  0.391228  1
  I  I25  1  0.382281  0.966421  0.608772  1
  I  I26  1  0.125910  0.869018  0.305576  1
  I  I27  1  0.874090  0.130982  0.694424  1
  I  I28  1  0.131842  0.525822  0.653893  1
  I  I29  1  0.868158  0.474178  0.346107  1
  I  I30  1  0.613845  0.365756  0.567025  1
  I  I31  1  0.386155  0.634244  0.432975  1
  I  I32  1  0.140634  0.222704  0.976871  1
  I  I33  1  0.859366  0.777296  0.023129  1
  I  I34  1  0.623884  0.059636  0.895966  1
  I  I35  1  0.376116  0.940364  0.104034  1
  I  I36  1  0.129400  0.895040  0.814583  1
  I  I37  1  0.870600  0.104960  0.185417  1
