# generated using pymatgen
data_ErTm11(TcRu)2
_symmetry_space_group_name_H-M   'P 1'
_cell_length_a   6.21265505
_cell_length_b   7.29789206
_cell_length_c   9.00324800
_cell_angle_alpha   90.00000000
_cell_angle_beta   90.00000000
_cell_angle_gamma   90.01423273
_symmetry_Int_Tables_number   1
_chemical_formula_structural   ErTm11(TcRu)2
_chemical_formula_sum   'Er1 Tm11 Tc2 Ru2'
_cell_volume   408.20082271
_cell_formula_units_Z   1
loop_
 _symmetry_equiv_pos_site_id
 _symmetry_equiv_pos_as_xyz
  1  'x, y, z'
loop_
 _atom_site_type_symbol
 _atom_site_label
 _atom_site_symmetry_multiplicity
 _atom_site_fract_x
 _atom_site_fract_y
 _atom_site_fract_z
 _atom_site_occupancy
  Er  Er0  1  0.368971  0.957727  0.750000  1
  Tm  Tm1  1  0.334179  0.676200  0.063395  1
  Tm  Tm2  1  0.165718  0.176383  0.436562  1
  Tm  Tm3  1  0.664186  0.324208  0.562249  1
  Tm  Tm4  1  0.835943  0.824107  0.937816  1
  Tm  Tm5  1  0.664186  0.324208  0.937751  1
  Tm  Tm6  1  0.835943  0.824107  0.562184  1
  Tm  Tm7  1  0.334179  0.676200  0.436605  1
  Tm  Tm8  1  0.165718  0.176383  0.063438  1
  Tm  Tm9  1  0.874413  0.539152  0.250000  1
  Tm  Tm10  1  0.625514  0.039112  0.250000  1
  Tm  Tm11  1  0.131328  0.457535  0.750000  1
  Tc  Tc12  1  0.038272  0.885794  0.250000  1
  Tc  Tc13  1  0.461691  0.385832  0.250000  1
  Ru  Ru14  1  0.960681  0.116745  0.750000  1
  Ru  Ru15  1  0.539077  0.616308  0.750000  1
