# generated using pymatgen
data_Li4Ni9As7Ru
_symmetry_space_group_name_H-M   'P 1'
_cell_length_a   9.40214274
_cell_length_b   9.41562606
_cell_length_c   3.73638100
_cell_angle_alpha   90.00000000
_cell_angle_beta   90.00000000
_cell_angle_gamma   120.09945231
_symmetry_Int_Tables_number   1
_chemical_formula_structural   Li4Ni9As7Ru
_chemical_formula_sum   'Li4 Ni9 As7 Ru1'
_cell_volume   286.16843560
_cell_formula_units_Z   1
loop_
 _symmetry_equiv_pos_site_id
 _symmetry_equiv_pos_as_xyz
  1  'x, y, z'
loop_
 _atom_site_type_symbol
 _atom_site_label
 _atom_site_symmetry_multiplicity
 _atom_site_fract_x
 _atom_site_fract_y
 _atom_site_fract_z
 _atom_site_occupancy
  Li  Li0  1  0.443871  0.214670  0.500000  1
  Li  Li1  1  0.789192  0.233956  0.500000  1
  Li  Li2  1  0.334205  0.671083  0.000000  1
  Li  Li3  1  0.999388  0.001773  0.500000  1
  Ni  Ni4  1  0.279218  0.375030  0.500000  1
  Ni  Ni5  1  0.622421  0.901375  0.500000  1
  Ni  Ni6  1  0.101718  0.719865  0.500000  1
  Ni  Ni7  1  0.496482  0.449639  0.000000  1
  Ni  Ni8  1  0.550441  0.053308  0.000000  1
  Ni  Ni9  1  0.955777  0.499634  0.000000  1
  Ni  Ni10  1  0.720461  0.762762  0.000000  1
  Ni  Ni11  1  0.236541  0.953490  0.000000  1
  Ni  Ni12  1  0.045871  0.284679  0.000000  1
  As  As13  1  0.958998  0.752195  0.000000  1
  As  As14  1  0.238792  0.201487  0.000000  1
  As  As15  1  0.794786  0.037382  0.000000  1
  As  As16  1  0.670304  0.340375  0.000000  1
  As  As17  1  0.539422  0.623600  0.500000  1
  As  As18  1  0.377343  0.915971  0.500000  1
  As  As19  1  0.089715  0.464570  0.500000  1
  Ru  Ru20  1  0.755056  0.543155  0.500000  1
