# generated using pymatgen
data_Ho8Tm2In8Pt3Rh
_symmetry_space_group_name_H-M   'P 1'
_cell_length_a   3.60905300
_cell_length_b   8.12149001
_cell_length_c   18.19366390
_cell_angle_alpha   90.08145376
_cell_angle_beta   90.00000000
_cell_angle_gamma   90.00000000
_symmetry_Int_Tables_number   1
_chemical_formula_structural   Ho8Tm2In8Pt3Rh
_chemical_formula_sum   'Ho8 Tm2 In8 Pt3 Rh1'
_cell_volume   533.27190404
_cell_formula_units_Z   1
loop_
 _symmetry_equiv_pos_site_id
 _symmetry_equiv_pos_as_xyz
  1  'x, y, z'
loop_
 _atom_site_type_symbol
 _atom_site_label
 _atom_site_symmetry_multiplicity
 _atom_site_fract_x
 _atom_site_fract_y
 _atom_site_fract_z
 _atom_site_occupancy
  Ho  Ho0  1  0.000000  0.383581  0.915398  1
  Ho  Ho1  1  0.000000  0.616478  0.085990  1
  Ho  Ho2  1  0.000000  0.237758  0.222118  1
  Ho  Ho3  1  0.000000  0.758802  0.779344  1
  Ho  Ho4  1  0.000000  0.257996  0.720954  1
  Ho  Ho5  1  0.000000  0.749570  0.278853  1
  Ho  Ho6  1  0.000000  0.999834  0.000161  1
  Ho  Ho7  1  0.000000  0.500522  0.499559  1
  Tm  Tm8  1  0.000000  0.113830  0.412229  1
  Tm  Tm9  1  0.000000  0.883593  0.584883  1
  In  In10  1  0.500000  0.421992  0.351501  1
  In  In11  1  0.500000  0.577189  0.648346  1
  In  In12  1  0.500000  0.076297  0.851612  1
  In  In13  1  0.500000  0.926959  0.149460  1
  In  In14  1  0.500000  0.291225  0.067233  1
  In  In15  1  0.500000  0.708320  0.933691  1
  In  In16  1  0.500000  0.207885  0.565962  1
  In  In17  1  0.500000  0.792705  0.431377  1
  Pt  Pt18  1  0.500000  0.975766  0.695603  1
  Pt  Pt19  1  0.500000  0.476422  0.803673  1
  Pt  Pt20  1  0.500000  0.521481  0.197021  1
  Rh  Rh21  1  0.500000  0.021792  0.305032  1
