# generated using pymatgen
data_HoEr11Tc3Rh
_symmetry_space_group_name_H-M   'P 1'
_cell_length_a   6.22903132
_cell_length_b   7.33966005
_cell_length_c   9.05665100
_cell_angle_alpha   90.00000000
_cell_angle_beta   90.00000000
_cell_angle_gamma   89.92344913
_symmetry_Int_Tables_number   1
_chemical_formula_structural   HoEr11Tc3Rh
_chemical_formula_sum   'Ho1 Er11 Tc3 Rh1'
_cell_volume   414.06040644
_cell_formula_units_Z   1
loop_
 _symmetry_equiv_pos_site_id
 _symmetry_equiv_pos_as_xyz
  1  'x, y, z'
loop_
 _atom_site_type_symbol
 _atom_site_label
 _atom_site_symmetry_multiplicity
 _atom_site_fract_x
 _atom_site_fract_y
 _atom_site_fract_z
 _atom_site_occupancy
  Ho  Ho0  1  0.368968  0.542639  0.250000  1
  Er  Er1  1  0.663200  0.173822  0.060757  1
  Er  Er2  1  0.168095  0.323047  0.935030  1
  Er  Er3  1  0.836513  0.678817  0.439161  1
  Er  Er4  1  0.336762  0.824254  0.562642  1
  Er  Er5  1  0.336762  0.824254  0.937358  1
  Er  Er6  1  0.836513  0.678817  0.060839  1
  Er  Er7  1  0.168095  0.323047  0.564970  1
  Er  Er8  1  0.663200  0.173822  0.439243  1
  Er  Er9  1  0.875459  0.961061  0.750000  1
  Er  Er10  1  0.626620  0.459437  0.750000  1
  Er  Er11  1  0.127609  0.041044  0.250000  1
  Tc  Tc12  1  0.037913  0.612778  0.750000  1
  Tc  Tc13  1  0.539292  0.883888  0.250000  1
  Tc  Tc14  1  0.459864  0.115329  0.750000  1
  Rh  Rh15  1  0.955136  0.383943  0.250000  1
