# generated using pymatgen
data_Lu3Sc5(CrB6)4
_symmetry_space_group_name_H-M   'P 1'
_cell_length_a   3.41069400
_cell_length_b   8.93779200
_cell_length_c   11.24670000
_cell_angle_alpha   89.99925498
_cell_angle_beta   90.00000000
_cell_angle_gamma   90.00000000
_symmetry_Int_Tables_number   1
_chemical_formula_structural   Lu3Sc5(CrB6)4
_chemical_formula_sum   'Lu3 Sc5 Cr4 B24'
_cell_volume   342.84522995
_cell_formula_units_Z   1
loop_
 _symmetry_equiv_pos_site_id
 _symmetry_equiv_pos_as_xyz
  1  'x, y, z'
loop_
 _atom_site_type_symbol
 _atom_site_label
 _atom_site_symmetry_multiplicity
 _atom_site_fract_x
 _atom_site_fract_y
 _atom_site_fract_z
 _atom_site_occupancy
  Lu  Lu0  1  0.000000  0.822654  0.085492  1
  Lu  Lu1  1  0.000000  0.177174  0.914271  1
  Lu  Lu2  1  0.000000  0.323091  0.414755  1
  Sc  Sc3  1  0.000000  0.676762  0.585659  1
  Sc  Sc4  1  0.000000  0.443374  0.130830  1
  Sc  Sc5  1  0.000000  0.557162  0.868652  1
  Sc  Sc6  1  0.000000  0.942730  0.370022  1
  Sc  Sc7  1  0.000000  0.056298  0.630368  1
  Cr  Cr8  1  0.000000  0.141312  0.181496  1
  Cr  Cr9  1  0.000000  0.858010  0.817504  1
  Cr  Cr10  1  0.000000  0.641321  0.319972  1
  Cr  Cr11  1  0.000000  0.359885  0.680859  1
  B  B12  1  0.500000  0.053986  0.066546  1
  B  B13  1  0.500000  0.945529  0.932959  1
  B  B14  1  0.500000  0.554932  0.434868  1
  B  B15  1  0.500000  0.447164  0.566534  1
  B  B16  1  0.500000  0.252762  0.081379  1
  B  B17  1  0.500000  0.747166  0.918014  1
  B  B18  1  0.500000  0.752292  0.420651  1
  B  B19  1  0.500000  0.247646  0.581357  1
  B  B20  1  0.500000  0.294815  0.236490  1
  B  B21  1  0.500000  0.704858  0.762170  1
  B  B22  1  0.500000  0.794545  0.264513  1
  B  B23  1  0.500000  0.205473  0.736053  1
  B  B24  1  0.500000  0.130080  0.317194  1
  B  B25  1  0.500000  0.868518  0.681792  1
  B  B26  1  0.500000  0.630360  0.183375  1
  B  B27  1  0.500000  0.370268  0.816709  1
  B  B28  1  0.500000  0.482155  0.287928  1
  B  B29  1  0.500000  0.519448  0.711585  1
  B  B30  1  0.500000  0.981662  0.212944  1
  B  B31  1  0.500000  0.017753  0.786808  1
  B  B32  1  0.500000  0.097110  0.473618  1
  B  B33  1  0.500000  0.901404  0.526877  1
  B  B34  1  0.500000  0.597254  0.026384  1
  B  B35  1  0.500000  0.403050  0.973373  1
