# generated using pymatgen
data_Y6Tm13Mg(Cd3Ru)2
_symmetry_space_group_name_H-M   'P 1'
_cell_length_a   9.51690000
_cell_length_b   9.51690036
_cell_length_c   9.62703600
_cell_angle_alpha   90.00000000
_cell_angle_beta   90.00000000
_cell_angle_gamma   120.00000571
_symmetry_Int_Tables_number   1
_chemical_formula_structural   Y6Tm13Mg(Cd3Ru)2
_chemical_formula_sum   'Y6 Tm13 Mg1 Cd6 Ru2'
_cell_volume   755.11697048
_cell_formula_units_Z   1
loop_
 _symmetry_equiv_pos_site_id
 _symmetry_equiv_pos_as_xyz
  1  'x, y, z'
loop_
 _atom_site_type_symbol
 _atom_site_label
 _atom_site_symmetry_multiplicity
 _atom_site_fract_x
 _atom_site_fract_y
 _atom_site_fract_z
 _atom_site_occupancy
  Y  Y0  1  0.540499  0.459501  0.251509  1
  Y  Y1  1  0.540499  0.080998  0.251509  1
  Y  Y2  1  0.919002  0.459501  0.251509  1
  Y  Y3  1  0.459501  0.540499  0.748491  1
  Y  Y4  1  0.459501  0.919002  0.748491  1
  Y  Y5  1  0.080998  0.540499  0.748491  1
  Tm  Tm6  1  0.000000  0.000000  0.000000  1
  Tm  Tm7  1  0.208830  0.791170  0.439544  1
  Tm  Tm8  1  0.208830  0.417661  0.439544  1
  Tm  Tm9  1  0.582339  0.791170  0.439544  1
  Tm  Tm10  1  0.791170  0.208830  0.560456  1
  Tm  Tm11  1  0.791170  0.582339  0.560456  1
  Tm  Tm12  1  0.417661  0.208830  0.560456  1
  Tm  Tm13  1  0.788932  0.211068  0.941244  1
  Tm  Tm14  1  0.788932  0.577863  0.941244  1
  Tm  Tm15  1  0.422137  0.211068  0.941244  1
  Tm  Tm16  1  0.211068  0.788932  0.058756  1
  Tm  Tm17  1  0.211068  0.422137  0.058756  1
  Tm  Tm18  1  0.577863  0.788932  0.058756  1
  Mg  Mg19  1  0.000000  0.000000  0.500000  1
  Cd  Cd20  1  0.887636  0.112364  0.255895  1
  Cd  Cd21  1  0.887636  0.775274  0.255895  1
  Cd  Cd22  1  0.224726  0.112364  0.255895  1
  Cd  Cd23  1  0.112364  0.887636  0.744105  1
  Cd  Cd24  1  0.112364  0.224726  0.744105  1
  Cd  Cd25  1  0.775274  0.887636  0.744105  1
  Ru  Ru26  1  0.333333  0.666667  0.250153  1
  Ru  Ru27  1  0.666667  0.333333  0.749847  1
