# generated using pymatgen
data_Sm2CuSi4Pt2Au
_symmetry_space_group_name_H-M   'P 1'
_cell_length_a   4.20716000
_cell_length_b   4.20716000
_cell_length_c   10.06408900
_cell_angle_alpha   90.00000000
_cell_angle_beta   90.00000000
_cell_angle_gamma   90.00000000
_symmetry_Int_Tables_number   1
_chemical_formula_structural   Sm2CuSi4Pt2Au
_chemical_formula_sum   'Sm2 Cu1 Si4 Pt2 Au1'
_cell_volume   178.13634047
_cell_formula_units_Z   1
loop_
 _symmetry_equiv_pos_site_id
 _symmetry_equiv_pos_as_xyz
  1  'x, y, z'
loop_
 _atom_site_type_symbol
 _atom_site_label
 _atom_site_symmetry_multiplicity
 _atom_site_fract_x
 _atom_site_fract_y
 _atom_site_fract_z
 _atom_site_occupancy
  Sm  Sm0  1  0.000000  0.500000  0.749319  1
  Sm  Sm1  1  0.500000  0.000000  0.250681  1
  Cu  Cu2  1  0.000000  0.000000  0.000000  1
  Si  Si3  1  0.000000  0.500000  0.140210  1
  Si  Si4  1  0.500000  0.500000  0.500000  1
  Si  Si5  1  0.500000  0.000000  0.859790  1
  Si  Si6  1  0.000000  0.000000  0.500000  1
  Pt  Pt7  1  0.500000  0.000000  0.620948  1
  Pt  Pt8  1  0.000000  0.500000  0.379052  1
  Au  Au9  1  0.500000  0.500000  0.000000  1
