# generated using pymatgen
data_LiYHo15In3Rh4
_symmetry_space_group_name_H-M   'P 1'
_cell_length_a   9.60701530
_cell_length_b   9.60701503
_cell_length_c   9.60789233
_cell_angle_alpha   59.87421580
_cell_angle_beta   59.87421785
_cell_angle_gamma   59.85555267
_symmetry_Int_Tables_number   1
_chemical_formula_structural   LiYHo15In3Rh4
_chemical_formula_sum   'Li1 Y1 Ho15 In3 Rh4'
_cell_volume   625.15431847
_cell_formula_units_Z   1
loop_
 _symmetry_equiv_pos_site_id
 _symmetry_equiv_pos_as_xyz
  1  'x, y, z'
loop_
 _atom_site_type_symbol
 _atom_site_label
 _atom_site_symmetry_multiplicity
 _atom_site_fract_x
 _atom_site_fract_y
 _atom_site_fract_z
 _atom_site_occupancy
  Li  Li0  1  0.822010  0.822010  0.822035  1
  Y  Y1  1  0.187665  0.187665  0.812556  1
  Ho  Ho2  1  0.599686  0.599686  0.202265  1
  Ho  Ho3  1  0.440969  0.059533  0.440665  1
  Ho  Ho4  1  0.440962  0.440962  0.059394  1
  Ho  Ho5  1  0.813102  0.185923  0.813375  1
  Ho  Ho6  1  0.187791  0.812226  0.187846  1
  Ho  Ho7  1  0.436621  0.063082  0.063281  1
  Ho  Ho8  1  0.185923  0.813102  0.813375  1
  Ho  Ho9  1  0.063082  0.436621  0.063281  1
  Ho  Ho10  1  0.813297  0.813297  0.185999  1
  Ho  Ho11  1  0.202179  0.599757  0.599584  1
  Ho  Ho12  1  0.059533  0.440969  0.440665  1
  Ho  Ho13  1  0.063177  0.063177  0.436418  1
  Ho  Ho14  1  0.812226  0.187791  0.187846  1
  Ho  Ho15  1  0.599757  0.202179  0.599584  1
  Ho  Ho16  1  0.599948  0.599948  0.599991  1
  In  In17  1  0.833119  0.833119  0.503410  1
  In  In18  1  0.503510  0.833025  0.833084  1
  In  In19  1  0.833025  0.503510  0.833084  1
  Rh  Rh20  1  0.392860  0.823356  0.392952  1
  Rh  Rh21  1  0.393268  0.393268  0.392933  1
  Rh  Rh22  1  0.823356  0.392860  0.392952  1
  Rh  Rh23  1  0.392937  0.392937  0.823432  1
