# generated using pymatgen
data_Tm9Th3Tc3Pt
_symmetry_space_group_name_H-M   'P 1'
_cell_length_a   6.34447590
_cell_length_b   7.26178634
_cell_length_c   9.34200600
_cell_angle_alpha   90.00000000
_cell_angle_beta   90.00000000
_cell_angle_gamma   90.21373056
_symmetry_Int_Tables_number   1
_chemical_formula_structural   Tm9Th3Tc3Pt
_chemical_formula_sum   'Tm9 Th3 Tc3 Pt1'
_cell_volume   430.40403965
_cell_formula_units_Z   1
loop_
 _symmetry_equiv_pos_site_id
 _symmetry_equiv_pos_as_xyz
  1  'x, y, z'
loop_
 _atom_site_type_symbol
 _atom_site_label
 _atom_site_symmetry_multiplicity
 _atom_site_fract_x
 _atom_site_fract_y
 _atom_site_fract_z
 _atom_site_occupancy
  Tm  Tm0  1  0.328306  0.676769  0.065190  1
  Tm  Tm1  1  0.164658  0.174279  0.436083  1
  Tm  Tm2  1  0.663742  0.320522  0.563254  1
  Tm  Tm3  1  0.835511  0.826269  0.934119  1
  Tm  Tm4  1  0.663742  0.320522  0.936746  1
  Tm  Tm5  1  0.835511  0.826269  0.565881  1
  Tm  Tm6  1  0.328306  0.676769  0.434810  1
  Tm  Tm7  1  0.164658  0.174279  0.063917  1
  Tm  Tm8  1  0.372166  0.968804  0.750000  1
  Th  Th9  1  0.860613  0.548740  0.250000  1
  Th  Th10  1  0.632312  0.046629  0.250000  1
  Th  Th11  1  0.135620  0.447371  0.750000  1
  Tc  Tc12  1  0.020336  0.870495  0.250000  1
  Tc  Tc13  1  0.477791  0.371594  0.250000  1
  Tc  Tc14  1  0.964608  0.129944  0.750000  1
  Pt  Pt15  1  0.552119  0.620744  0.750000  1
