# generated using pymatgen
data_TaAlCl8
_symmetry_space_group_name_H-M   'P 1'
_cell_length_a   9.91717566
_cell_length_b   9.91717469
_cell_length_c   8.82850700
_cell_angle_alpha   90.00000000
_cell_angle_beta   90.00000000
_cell_angle_gamma   128.23699755
_symmetry_Int_Tables_number   1
_chemical_formula_structural   TaAlCl8
_chemical_formula_sum   'Ta2 Al2 Cl16'
_cell_volume   682.00235325
_cell_formula_units_Z   2
loop_
 _symmetry_equiv_pos_site_id
 _symmetry_equiv_pos_as_xyz
  1  'x, y, z'
loop_
 _atom_site_type_symbol
 _atom_site_label
 _atom_site_symmetry_multiplicity
 _atom_site_fract_x
 _atom_site_fract_y
 _atom_site_fract_z
 _atom_site_occupancy
  Ta  Ta0  1  0.613656  0.386344  0.250000  1
  Ta  Ta1  1  0.386344  0.613656  0.750000  1
  Al  Al2  1  0.814111  0.185889  0.250000  1
  Al  Al3  1  0.185889  0.814111  0.750000  1
  Cl  Cl4  1  0.538904  0.080345  0.250000  1
  Cl  Cl5  1  0.080345  0.538904  0.750000  1
  Cl  Cl6  1  0.461096  0.919655  0.750000  1
  Cl  Cl7  1  0.919655  0.461096  0.250000  1
  Cl  Cl8  1  0.630982  0.369018  0.990020  1
  Cl  Cl9  1  0.369018  0.630982  0.009980  1
  Cl  Cl10  1  0.630982  0.369018  0.509980  1
  Cl  Cl11  1  0.369018  0.630982  0.490020  1
  Cl  Cl12  1  0.331036  0.262161  0.250000  1
  Cl  Cl13  1  0.262161  0.331036  0.750000  1
  Cl  Cl14  1  0.668964  0.737839  0.750000  1
  Cl  Cl15  1  0.737839  0.668964  0.250000  1
  Cl  Cl16  1  0.876078  0.123922  0.452747  1
  Cl  Cl17  1  0.123922  0.876078  0.547253  1
  Cl  Cl18  1  0.876078  0.123922  0.047253  1
  Cl  Cl19  1  0.123922  0.876078  0.952747  1
