# generated using pymatgen
data_TbLuZr2(Ga3Rh)6
_symmetry_space_group_name_H-M   'P 1'
_cell_length_a   7.51901185
_cell_length_b   7.51340592
_cell_length_c   9.41561000
_cell_angle_alpha   90.00000000
_cell_angle_beta   90.00000000
_cell_angle_gamma   119.82906218
_symmetry_Int_Tables_number   1
_chemical_formula_structural   TbLuZr2(Ga3Rh)6
_chemical_formula_sum   'Tb1 Lu1 Zr2 Ga18 Rh6'
_cell_volume   461.44740282
_cell_formula_units_Z   1
loop_
 _symmetry_equiv_pos_site_id
 _symmetry_equiv_pos_as_xyz
  1  'x, y, z'
loop_
 _atom_site_type_symbol
 _atom_site_label
 _atom_site_symmetry_multiplicity
 _atom_site_fract_x
 _atom_site_fract_y
 _atom_site_fract_z
 _atom_site_occupancy
  Tb  Tb0  1  0.669574  0.996614  0.250000  1
  Lu  Lu1  1  0.329999  0.003138  0.750000  1
  Zr  Zr2  1  0.997423  0.670274  0.250000  1
  Zr  Zr3  1  0.002893  0.329832  0.750000  1
  Ga  Ga4  1  0.337716  0.548509  0.250000  1
  Ga  Ga5  1  0.661445  0.450133  0.750000  1
  Ga  Ga6  1  0.551411  0.341334  0.250000  1
  Ga  Ga7  1  0.448092  0.659116  0.750000  1
  Ga  Ga8  1  0.000457  0.337565  0.079125  1
  Ga  Ga9  1  0.001053  0.663738  0.919223  1
  Ga  Ga10  1  0.001053  0.663738  0.580777  1
  Ga  Ga11  1  0.332134  0.997965  0.419856  1
  Ga  Ga12  1  0.000457  0.337565  0.420875  1
  Ga  Ga13  1  0.666189  0.002028  0.582940  1
  Ga  Ga14  1  0.666189  0.002028  0.917060  1
  Ga  Ga15  1  0.332134  0.997965  0.080144  1
  Ga  Ga16  1  0.330504  0.331635  0.568452  1
  Ga  Ga17  1  0.669598  0.667104  0.433723  1
  Ga  Ga18  1  0.669598  0.667104  0.066277  1
  Ga  Ga19  1  0.330504  0.331635  0.931548  1
  Ga  Ga20  1  0.126473  0.124728  0.250000  1
  Ga  Ga21  1  0.874824  0.875638  0.750000  1
  Rh  Rh22  1  0.673062  0.328559  0.999360  1
  Rh  Rh23  1  0.326851  0.671359  0.999786  1
  Rh  Rh24  1  0.326851  0.671359  0.500214  1
  Rh  Rh25  1  0.673062  0.328559  0.500640  1
  Rh  Rh26  1  0.000228  0.000390  0.999365  1
  Rh  Rh27  1  0.000228  0.000390  0.500635  1
