# generated using pymatgen
data_Ca20In3GaPd8
_symmetry_space_group_name_H-M   'P 1'
_cell_length_a   7.81903100
_cell_length_b   7.81903100
_cell_length_c   14.57866800
_cell_angle_alpha   90.00000000
_cell_angle_beta   90.00000000
_cell_angle_gamma   90.00000000
_symmetry_Int_Tables_number   1
_chemical_formula_structural   Ca20In3GaPd8
_chemical_formula_sum   'Ca20 In3 Ga1 Pd8'
_cell_volume   891.29960865
_cell_formula_units_Z   1
loop_
 _symmetry_equiv_pos_site_id
 _symmetry_equiv_pos_as_xyz
  1  'x, y, z'
loop_
 _atom_site_type_symbol
 _atom_site_label
 _atom_site_symmetry_multiplicity
 _atom_site_fract_x
 _atom_site_fract_y
 _atom_site_fract_z
 _atom_site_occupancy
  Ca  Ca0  1  0.674123  0.164160  0.110852  1
  Ca  Ca1  1  0.169321  0.668047  0.613846  1
  Ca  Ca2  1  0.325877  0.835840  0.110852  1
  Ca  Ca3  1  0.830679  0.331953  0.613846  1
  Ca  Ca4  1  0.835840  0.674123  0.110852  1
  Ca  Ca5  1  0.331953  0.169321  0.613846  1
  Ca  Ca6  1  0.164160  0.325877  0.110852  1
  Ca  Ca7  1  0.668047  0.830679  0.613846  1
  Ca  Ca8  1  0.835840  0.325877  0.889148  1
  Ca  Ca9  1  0.331953  0.830679  0.386154  1
  Ca  Ca10  1  0.164160  0.674123  0.889148  1
  Ca  Ca11  1  0.668047  0.169321  0.386154  1
  Ca  Ca12  1  0.674123  0.835840  0.889148  1
  Ca  Ca13  1  0.169321  0.331953  0.386154  1
  Ca  Ca14  1  0.325877  0.164160  0.889148  1
  Ca  Ca15  1  0.830679  0.668047  0.386154  1
  Ca  Ca16  1  0.500000  0.500000  0.754555  1
  Ca  Ca17  1  0.000000  0.000000  0.250822  1
  Ca  Ca18  1  0.000000  0.000000  0.749178  1
  Ca  Ca19  1  0.500000  0.500000  0.245445  1
  In  In20  1  0.500000  0.500000  0.500000  1
  In  In21  1  0.500000  0.500000  0.000000  1
  In  In22  1  0.000000  0.000000  0.500000  1
  Ga  Ga23  1  0.000000  0.000000  0.000000  1
  Pd  Pd24  1  0.627529  0.127622  0.751737  1
  Pd  Pd25  1  0.127622  0.627529  0.248263  1
  Pd  Pd26  1  0.872378  0.372471  0.248263  1
  Pd  Pd27  1  0.372471  0.872378  0.751737  1
  Pd  Pd28  1  0.872378  0.627529  0.751737  1
  Pd  Pd29  1  0.372471  0.127622  0.248263  1
  Pd  Pd30  1  0.127622  0.372471  0.751737  1
  Pd  Pd31  1  0.627529  0.872378  0.248263  1
