# generated using pymatgen
data_Th6Mg6Cd17Os
_symmetry_space_group_name_H-M   'P 1'
_cell_length_a   9.98078071
_cell_length_b   10.04587448
_cell_length_c   10.04587300
_cell_angle_alpha   60.17535018
_cell_angle_beta   60.21411046
_cell_angle_gamma   60.21410595
_symmetry_Int_Tables_number   1
_chemical_formula_structural   Th6Mg6Cd17Os
_chemical_formula_sum   'Th6 Mg6 Cd17 Os1'
_cell_volume   715.48215881
_cell_formula_units_Z   1
loop_
 _symmetry_equiv_pos_site_id
 _symmetry_equiv_pos_as_xyz
  1  'x, y, z'
loop_
 _atom_site_type_symbol
 _atom_site_label
 _atom_site_symmetry_multiplicity
 _atom_site_fract_x
 _atom_site_fract_y
 _atom_site_fract_z
 _atom_site_occupancy
  Th  Th0  1  0.798978  0.802402  0.197462  1
  Th  Th1  1  0.201022  0.802538  0.197598  1
  Th  Th2  1  0.803620  0.196276  0.196276  1
  Th  Th3  1  0.201022  0.197598  0.802538  1
  Th  Th4  1  0.798978  0.197462  0.802402  1
  Th  Th5  1  0.196380  0.803724  0.803724  1
  Mg  Mg6  1  0.000000  0.000000  0.500000  1
  Mg  Mg7  1  0.500000  0.000000  0.500000  1
  Mg  Mg8  1  0.000000  0.500000  0.500000  1
  Mg  Mg9  1  0.500000  0.500000  0.000000  1
  Mg  Mg10  1  0.000000  0.500000  0.000000  1
  Mg  Mg11  1  0.500000  0.500000  0.500000  1
  Cd  Cd12  1  0.832149  0.830269  0.505409  1
  Cd  Cd13  1  0.832149  0.505409  0.830269  1
  Cd  Cd14  1  0.509014  0.828969  0.828969  1
  Cd  Cd15  1  0.833189  0.828890  0.828890  1
  Cd  Cd16  1  0.167851  0.169731  0.494591  1
  Cd  Cd17  1  0.167851  0.494591  0.169731  1
  Cd  Cd18  1  0.490986  0.171031  0.171031  1
  Cd  Cd19  1  0.166811  0.171110  0.171110  1
  Cd  Cd20  1  0.622190  0.615874  0.139820  1
  Cd  Cd21  1  0.622190  0.139820  0.615874  1
  Cd  Cd22  1  0.138689  0.620242  0.620242  1
  Cd  Cd23  1  0.620740  0.620262  0.620262  1
  Cd  Cd24  1  0.377810  0.384126  0.860180  1
  Cd  Cd25  1  0.377810  0.860180  0.384126  1
  Cd  Cd26  1  0.861311  0.379758  0.379758  1
  Cd  Cd27  1  0.379260  0.379738  0.379738  1
  Cd  Cd28  1  0.500000  0.000000  0.000000  1
  Os  Os29  1  0.000000  0.000000  0.000000  1
