# generated using pymatgen
data_CaTb3Y4(B6Ru)4
_symmetry_space_group_name_H-M   'P 1'
_cell_length_a   3.67323100
_cell_length_b   9.17507260
_cell_length_c   11.56601201
_cell_angle_alpha   89.88664122
_cell_angle_beta   90.00000000
_cell_angle_gamma   90.00000000
_symmetry_Int_Tables_number   1
_chemical_formula_structural   CaTb3Y4(B6Ru)4
_chemical_formula_sum   'Ca1 Tb3 Y4 B24 Ru4'
_cell_volume   389.79883700
_cell_formula_units_Z   1
loop_
 _symmetry_equiv_pos_site_id
 _symmetry_equiv_pos_as_xyz
  1  'x, y, z'
loop_
 _atom_site_type_symbol
 _atom_site_label
 _atom_site_symmetry_multiplicity
 _atom_site_fract_x
 _atom_site_fract_y
 _atom_site_fract_z
 _atom_site_occupancy
  Ca  Ca0  1  0.000000  0.323167  0.413725  1
  Tb  Tb1  1  0.000000  0.675331  0.585152  1
  Tb  Tb2  1  0.000000  0.823150  0.086562  1
  Tb  Tb3  1  0.000000  0.177273  0.914333  1
  Y  Y4  1  0.000000  0.943933  0.371400  1
  Y  Y5  1  0.000000  0.058002  0.627860  1
  Y  Y6  1  0.000000  0.442927  0.129405  1
  Y  Y7  1  0.000000  0.556193  0.872372  1
  B  B8  1  0.500000  0.554271  0.432373  1
  B  B9  1  0.500000  0.446152  0.567849  1
  B  B10  1  0.500000  0.053307  0.066908  1
  B  B11  1  0.500000  0.945864  0.932171  1
  B  B12  1  0.500000  0.747672  0.419136  1
  B  B13  1  0.500000  0.252915  0.581176  1
  B  B14  1  0.500000  0.246876  0.080492  1
  B  B15  1  0.500000  0.752517  0.919511  1
  B  B16  1  0.500000  0.790947  0.266378  1
  B  B17  1  0.500000  0.210220  0.733826  1
  B  B18  1  0.500000  0.289385  0.233028  1
  B  B19  1  0.500000  0.709801  0.766637  1
  B  B20  1  0.500000  0.632263  0.186272  1
  B  B21  1  0.500000  0.368262  0.814724  1
  B  B22  1  0.500000  0.131187  0.313444  1
  B  B23  1  0.500000  0.868411  0.685597  1
  B  B24  1  0.500000  0.983665  0.211792  1
  B  B25  1  0.500000  0.016193  0.787339  1
  B  B26  1  0.500000  0.484428  0.287691  1
  B  B27  1  0.500000  0.516085  0.712730  1
  B  B28  1  0.500000  0.609258  0.030502  1
  B  B29  1  0.500000  0.390892  0.970192  1
  B  B30  1  0.500000  0.105476  0.470639  1
  B  B31  1  0.500000  0.893459  0.529527  1
  Ru  Ru32  1  0.000000  0.639731  0.320523  1
  Ru  Ru33  1  0.000000  0.362205  0.680481  1
  Ru  Ru34  1  0.000000  0.136358  0.177136  1
  Ru  Ru35  1  0.000000  0.862227  0.821124  1
