# generated using pymatgen
data_Hf15Sc(FeOs)4
_symmetry_space_group_name_H-M   'P 1'
_cell_length_a   8.59115964
_cell_length_b   8.58210508
_cell_length_c   8.58210500
_cell_angle_alpha   60.03690799
_cell_angle_beta   59.96509210
_cell_angle_gamma   59.96509831
_symmetry_Int_Tables_number   1
_chemical_formula_structural   Hf15Sc(FeOs)4
_chemical_formula_sum   'Hf15 Sc1 Fe4 Os4'
_cell_volume   447.31759120
_cell_formula_units_Z   1
loop_
 _symmetry_equiv_pos_site_id
 _symmetry_equiv_pos_as_xyz
  1  'x, y, z'
loop_
 _atom_site_type_symbol
 _atom_site_label
 _atom_site_symmetry_multiplicity
 _atom_site_fract_x
 _atom_site_fract_y
 _atom_site_fract_z
 _atom_site_occupancy
  Hf  Hf0  1  0.061702  0.645890  0.645890  1
  Hf  Hf1  1  0.645622  0.061034  0.647722  1
  Hf  Hf2  1  0.645622  0.647722  0.061034  1
  Hf  Hf3  1  0.646517  0.645890  0.645890  1
  Hf  Hf4  1  0.798947  0.799955  0.200654  1
  Hf  Hf5  1  0.200442  0.200654  0.799955  1
  Hf  Hf6  1  0.798947  0.200654  0.799955  1
  Hf  Hf7  1  0.200442  0.799955  0.200654  1
  Hf  Hf8  1  0.200772  0.799228  0.799228  1
  Hf  Hf9  1  0.799721  0.200279  0.200279  1
  Hf  Hf10  1  0.436937  0.437147  0.063103  1
  Hf  Hf11  1  0.062813  0.063103  0.437147  1
  Hf  Hf12  1  0.436937  0.063103  0.437147  1
  Hf  Hf13  1  0.062813  0.437147  0.063103  1
  Hf  Hf14  1  0.063584  0.436416  0.436416  1
  Sc  Sc15  1  0.436328  0.063672  0.063672  1
  Fe  Fe16  1  0.421822  0.857591  0.857591  1
  Fe  Fe17  1  0.859156  0.423147  0.858540  1
  Fe  Fe18  1  0.859156  0.858540  0.423147  1
  Fe  Fe19  1  0.862996  0.857591  0.857591  1
  Os  Os20  1  0.749944  0.416775  0.416775  1
  Os  Os21  1  0.416136  0.748919  0.418808  1
  Os  Os22  1  0.416136  0.418808  0.748919  1
  Os  Os23  1  0.416508  0.416775  0.416775  1
