# generated using pymatgen
data_Y4Al4CoNi3
_symmetry_space_group_name_H-M   'P 1'
_cell_length_a   4.26354500
_cell_length_b   6.68135169
_cell_length_c   7.67870492
_cell_angle_alpha   90.13841259
_cell_angle_beta   90.00000000
_cell_angle_gamma   90.00000000
_symmetry_Int_Tables_number   1
_chemical_formula_structural   Y4Al4CoNi3
_chemical_formula_sum   'Y4 Al4 Co1 Ni3'
_cell_volume   218.73682053
_cell_formula_units_Z   1
loop_
 _symmetry_equiv_pos_site_id
 _symmetry_equiv_pos_as_xyz
  1  'x, y, z'
loop_
 _atom_site_type_symbol
 _atom_site_label
 _atom_site_symmetry_multiplicity
 _atom_site_fract_x
 _atom_site_fract_y
 _atom_site_fract_z
 _atom_site_occupancy
  Y  Y0  1  0.250000  0.036677  0.323789  1
  Y  Y1  1  0.250000  0.535096  0.177004  1
  Y  Y2  1  0.750000  0.969850  0.677416  1
  Y  Y3  1  0.750000  0.464121  0.820550  1
  Al  Al4  1  0.250000  0.141029  0.939653  1
  Al  Al5  1  0.250000  0.636179  0.560191  1
  Al  Al6  1  0.750000  0.860471  0.059562  1
  Al  Al7  1  0.750000  0.359769  0.440886  1
  Co  Co8  1  0.250000  0.269012  0.622531  1
  Ni  Ni9  1  0.250000  0.775011  0.878959  1
  Ni  Ni10  1  0.750000  0.725906  0.377427  1
  Ni  Ni11  1  0.750000  0.226877  0.122034  1
