# generated using pymatgen
data_K6Li4TaNbP6
_symmetry_space_group_name_H-M   'P 1'
_cell_length_a   9.82348212
_cell_length_b   9.82348191
_cell_length_c   14.95447900
_cell_angle_alpha   90.00000000
_cell_angle_beta   90.00000000
_cell_angle_gamma   142.63287939
_symmetry_Int_Tables_number   1
_chemical_formula_structural   K6Li4TaNbP6
_chemical_formula_sum   'K12 Li8 Ta2 Nb2 P12'
_cell_volume   875.85768767
_cell_formula_units_Z   2
loop_
 _symmetry_equiv_pos_site_id
 _symmetry_equiv_pos_as_xyz
  1  'x, y, z'
loop_
 _atom_site_type_symbol
 _atom_site_label
 _atom_site_symmetry_multiplicity
 _atom_site_fract_x
 _atom_site_fract_y
 _atom_site_fract_z
 _atom_site_occupancy
  K  K0  1  0.108520  0.446861  0.672659  1
  K  K1  1  0.711855  0.713347  0.682775  1
  K  K2  1  0.213347  0.211855  0.817225  1
  K  K3  1  0.788145  0.786653  0.182775  1
  K  K4  1  0.946861  0.608520  0.827341  1
  K  K5  1  0.553139  0.891480  0.327341  1
  K  K6  1  0.391480  0.053139  0.172659  1
  K  K7  1  0.051384  0.391207  0.173354  1
  K  K8  1  0.891207  0.551384  0.326646  1
  K  K9  1  0.448616  0.108793  0.673354  1
  K  K10  1  0.608793  0.948617  0.826646  1
  K  K11  1  0.286653  0.288145  0.317225  1
  Li  Li12  1  0.917849  0.082151  0.000000  1
  Li  Li13  1  0.582151  0.417849  0.500000  1
  Li  Li14  1  0.082293  0.917707  0.000000  1
  Li  Li15  1  0.417707  0.582293  0.500000  1
  Li  Li16  1  0.750997  0.249003  0.000000  1
  Li  Li17  1  0.749003  0.250997  0.500000  1
  Li  Li18  1  0.249154  0.750846  0.000000  1
  Li  Li19  1  0.250846  0.749154  0.500000  1
  Ta  Ta20  1  0.083550  0.916450  0.500000  1
  Ta  Ta21  1  0.416450  0.583550  0.000000  1
  Nb  Nb22  1  0.915868  0.084132  0.500000  1
  Nb  Nb23  1  0.584132  0.415868  0.000000  1
  P  P24  1  0.886394  0.565902  0.090811  1
  P  P25  1  0.434098  0.113606  0.909189  1
  P  P26  1  0.613606  0.934098  0.590811  1
  P  P27  1  0.935472  0.616321  0.590738  1
  P  P28  1  0.116321  0.435472  0.909262  1
  P  P29  1  0.564528  0.883679  0.090738  1
  P  P30  1  0.383679  0.064528  0.409262  1
  P  P31  1  0.224823  0.223136  0.588774  1
  P  P32  1  0.723136  0.724823  0.911226  1
  P  P33  1  0.275177  0.276864  0.088774  1
  P  P34  1  0.065902  0.386394  0.409189  1
  P  P35  1  0.776864  0.775177  0.411226  1
