# generated using pymatgen
data_YTm4(In2Cu)2
_symmetry_space_group_name_H-M   'P 1'
_cell_length_a   3.63235600
_cell_length_b   8.00551500
_cell_length_c   17.87556400
_cell_angle_alpha   90.00000000
_cell_angle_beta   90.00000000
_cell_angle_gamma   90.00000000
_symmetry_Int_Tables_number   1
_chemical_formula_structural   YTm4(In2Cu)2
_chemical_formula_sum   'Y2 Tm8 In8 Cu4'
_cell_volume   519.80138841
_cell_formula_units_Z   2
loop_
 _symmetry_equiv_pos_site_id
 _symmetry_equiv_pos_as_xyz
  1  'x, y, z'
loop_
 _atom_site_type_symbol
 _atom_site_label
 _atom_site_symmetry_multiplicity
 _atom_site_fract_x
 _atom_site_fract_y
 _atom_site_fract_z
 _atom_site_occupancy
  Y  Y0  1  0.000000  0.500000  0.500000  1
  Y  Y1  1  0.000000  0.000000  0.000000  1
  Tm  Tm2  1  0.000000  0.737685  0.280638  1
  Tm  Tm3  1  0.000000  0.262315  0.719362  1
  Tm  Tm4  1  0.000000  0.762315  0.780638  1
  Tm  Tm5  1  0.000000  0.237685  0.219362  1
  Tm  Tm6  1  0.000000  0.617683  0.083736  1
  Tm  Tm7  1  0.000000  0.382317  0.916264  1
  Tm  Tm8  1  0.000000  0.882317  0.583736  1
  Tm  Tm9  1  0.000000  0.117683  0.416264  1
  In  In10  1  0.500000  0.705827  0.931019  1
  In  In11  1  0.500000  0.294173  0.068981  1
  In  In12  1  0.500000  0.794173  0.431019  1
  In  In13  1  0.500000  0.205827  0.568981  1
  In  In14  1  0.500000  0.580884  0.651100  1
  In  In15  1  0.500000  0.419116  0.348900  1
  In  In16  1  0.500000  0.919116  0.151100  1
  In  In17  1  0.500000  0.080884  0.848900  1
  Cu  Cu18  1  0.500000  0.523867  0.197331  1
  Cu  Cu19  1  0.500000  0.476133  0.802669  1
  Cu  Cu20  1  0.500000  0.976133  0.697331  1
  Cu  Cu21  1  0.500000  0.023867  0.302669  1
