# generated using pymatgen
data_UTa2Co3Ni17B6
_symmetry_space_group_name_H-M   'P 1'
_cell_length_a   7.53891777
_cell_length_b   7.53891831
_cell_length_c   7.53891848
_cell_angle_alpha   59.85967921
_cell_angle_beta   59.85967972
_cell_angle_gamma   59.85968409
_symmetry_Int_Tables_number   1
_chemical_formula_structural   UTa2Co3Ni17B6
_chemical_formula_sum   'U1 Ta2 Co3 Ni17 B6'
_cell_volume   302.01395800
_cell_formula_units_Z   1
loop_
 _symmetry_equiv_pos_site_id
 _symmetry_equiv_pos_as_xyz
  1  'x, y, z'
loop_
 _atom_site_type_symbol
 _atom_site_label
 _atom_site_symmetry_multiplicity
 _atom_site_fract_x
 _atom_site_fract_y
 _atom_site_fract_z
 _atom_site_occupancy
  U  U0  1  0.754220  0.754220  0.754220  1
  Ta  Ta1  1  0.000100  0.000100  0.000100  1
  Ta  Ta2  1  0.250079  0.250079  0.250079  1
  Co  Co3  1  0.618157  0.618157  0.145209  1
  Co  Co4  1  0.618157  0.145209  0.618157  1
  Co  Co5  1  0.145209  0.618157  0.618157  1
  Ni  Ni6  1  0.613663  0.613663  0.613663  1
  Ni  Ni7  1  0.384039  0.384039  0.845770  1
  Ni  Ni8  1  0.384039  0.845770  0.384039  1
  Ni  Ni9  1  0.845770  0.384039  0.384039  1
  Ni  Ni10  1  0.384503  0.384503  0.384503  1
  Ni  Ni11  1  0.002248  0.002248  0.339751  1
  Ni  Ni12  1  0.655791  0.001417  0.341104  1
  Ni  Ni13  1  0.001417  0.655791  0.341104  1
  Ni  Ni14  1  0.655791  0.341104  0.001417  1
  Ni  Ni15  1  0.002248  0.339751  0.002248  1
  Ni  Ni16  1  0.001417  0.341104  0.655791  1
  Ni  Ni17  1  0.341104  0.655791  0.001417  1
  Ni  Ni18  1  0.341104  0.001417  0.655791  1
  Ni  Ni19  1  0.339751  0.002248  0.002248  1
  Ni  Ni20  1  0.004338  0.004338  0.653703  1
  Ni  Ni21  1  0.004338  0.653703  0.004338  1
  Ni  Ni22  1  0.653703  0.004338  0.004338  1
  B  B23  1  0.731315  0.731315  0.267351  1
  B  B24  1  0.269232  0.730371  0.269232  1
  B  B25  1  0.730371  0.269232  0.269232  1
  B  B26  1  0.269232  0.269232  0.730371  1
  B  B27  1  0.731315  0.267351  0.731315  1
  B  B28  1  0.267351  0.731315  0.731315  1
