# generated using pymatgen
data_Tb3Dy(GeRh2)8
_symmetry_space_group_name_H-M   'P 1'
_cell_length_a   4.23463600
_cell_length_b   9.20248863
_cell_length_c   11.53101179
_cell_angle_alpha   90.04236972
_cell_angle_beta   90.00000000
_cell_angle_gamma   90.00000000
_symmetry_Int_Tables_number   1
_chemical_formula_structural   Tb3Dy(GeRh2)8
_chemical_formula_sum   'Tb3 Dy1 Ge8 Rh16'
_cell_volume   449.35406223
_cell_formula_units_Z   1
loop_
 _symmetry_equiv_pos_site_id
 _symmetry_equiv_pos_as_xyz
  1  'x, y, z'
loop_
 _atom_site_type_symbol
 _atom_site_label
 _atom_site_symmetry_multiplicity
 _atom_site_fract_x
 _atom_site_fract_y
 _atom_site_fract_z
 _atom_site_occupancy
  Tb  Tb0  1  0.250000  0.148643  0.825572  1
  Tb  Tb1  1  0.250000  0.351427  0.325674  1
  Tb  Tb2  1  0.750000  0.851314  0.174374  1
  Dy  Dy3  1  0.750000  0.648539  0.674408  1
  Ge  Ge4  1  0.250000  0.413931  0.638426  1
  Ge  Ge5  1  0.250000  0.086394  0.138360  1
  Ge  Ge6  1  0.750000  0.586447  0.361686  1
  Ge  Ge7  1  0.750000  0.913491  0.861438  1
  Ge  Ge8  1  0.250000  0.618102  0.059552  1
  Ge  Ge9  1  0.250000  0.882052  0.559550  1
  Ge  Ge10  1  0.750000  0.381972  0.940425  1
  Ge  Ge11  1  0.750000  0.118038  0.440573  1
  Rh  Rh12  1  0.250000  0.615428  0.498778  1
  Rh  Rh13  1  0.250000  0.884896  0.997979  1
  Rh  Rh14  1  0.750000  0.385143  0.501833  1
  Rh  Rh15  1  0.750000  0.115009  0.001805  1
  Rh  Rh16  1  0.250000  0.689468  0.269595  1
  Rh  Rh17  1  0.250000  0.809649  0.769042  1
  Rh  Rh18  1  0.750000  0.310614  0.730484  1
  Rh  Rh19  1  0.750000  0.189524  0.230699  1
  Rh  Rh20  1  0.250000  0.171044  0.560239  1
  Rh  Rh21  1  0.250000  0.329180  0.059966  1
  Rh  Rh22  1  0.750000  0.829004  0.440096  1
  Rh  Rh23  1  0.750000  0.670780  0.939617  1
  Rh  Rh24  1  0.250000  0.003459  0.344881  1
  Rh  Rh25  1  0.250000  0.496607  0.844667  1
  Rh  Rh26  1  0.750000  0.996290  0.655169  1
  Rh  Rh27  1  0.750000  0.503556  0.155112  1
