# generated using pymatgen
data_Sr2Cd2AgSn4Au
_symmetry_space_group_name_H-M   'P 1'
_cell_length_a   4.65090100
_cell_length_b   4.65090100
_cell_length_c   12.53613900
_cell_angle_alpha   90.00000000
_cell_angle_beta   90.00000000
_cell_angle_gamma   90.00000000
_symmetry_Int_Tables_number   1
_chemical_formula_structural   Sr2Cd2AgSn4Au
_chemical_formula_sum   'Sr2 Cd2 Ag1 Sn4 Au1'
_cell_volume   271.16771977
_cell_formula_units_Z   1
loop_
 _symmetry_equiv_pos_site_id
 _symmetry_equiv_pos_as_xyz
  1  'x, y, z'
loop_
 _atom_site_type_symbol
 _atom_site_label
 _atom_site_symmetry_multiplicity
 _atom_site_fract_x
 _atom_site_fract_y
 _atom_site_fract_z
 _atom_site_occupancy
  Sr  Sr0  1  0.000000  0.500000  0.244009  1
  Sr  Sr1  1  0.500000  0.000000  0.754785  1
  Cd  Cd2  1  0.000000  0.000000  0.499922  1
  Cd  Cd3  1  0.500000  0.500000  0.499922  1
  Ag  Ag4  1  0.000000  0.500000  0.861623  1
  Sn  Sn5  1  0.000000  0.000000  0.000957  1
  Sn  Sn6  1  0.500000  0.500000  0.000957  1
  Sn  Sn7  1  0.000000  0.500000  0.644339  1
  Sn  Sn8  1  0.500000  0.000000  0.354752  1
  Au  Au9  1  0.500000  0.000000  0.138733  1
