# generated using pymatgen
data_Sm8Si13Sn
_symmetry_space_group_name_H-M   'P 1'
_cell_length_a   7.44982497
_cell_length_b   7.44982572
_cell_length_c   11.66646790
_cell_angle_alpha   89.79584013
_cell_angle_beta   89.79583582
_cell_angle_gamma   133.90340737
_symmetry_Int_Tables_number   1
_chemical_formula_structural   Sm8Si13Sn
_chemical_formula_sum   'Sm8 Si13 Sn1'
_cell_volume   466.50201198
_cell_formula_units_Z   1
loop_
 _symmetry_equiv_pos_site_id
 _symmetry_equiv_pos_as_xyz
  1  'x, y, z'
loop_
 _atom_site_type_symbol
 _atom_site_label
 _atom_site_symmetry_multiplicity
 _atom_site_fract_x
 _atom_site_fract_y
 _atom_site_fract_z
 _atom_site_occupancy
  Sm  Sm0  1  0.502776  0.502102  0.508792  1
  Sm  Sm1  1  0.497898  0.497224  0.991208  1
  Sm  Sm2  1  0.999305  0.000695  0.250000  1
  Sm  Sm3  1  0.997036  0.002964  0.750000  1
  Sm  Sm4  1  0.009434  0.502842  0.623494  1
  Sm  Sm5  1  0.506545  0.007230  0.378563  1
  Sm  Sm6  1  0.992770  0.493455  0.121437  1
  Sm  Sm7  1  0.497158  0.990566  0.876506  1
  Si  Si8  1  0.429934  0.570066  0.750000  1
  Si  Si9  1  0.880934  0.561434  0.860129  1
  Si  Si10  1  0.554731  0.864773  0.141048  1
  Si  Si11  1  0.135227  0.445269  0.358952  1
  Si  Si12  1  0.438566  0.119066  0.639871  1
  Si  Si13  1  0.087181  0.423081  0.871631  1
  Si  Si14  1  0.419042  0.074810  0.123734  1
  Si  Si15  1  0.918582  0.090928  0.495488  1
  Si  Si16  1  0.086940  0.914284  0.506738  1
  Si  Si17  1  0.085716  0.913060  0.993262  1
  Si  Si18  1  0.909072  0.081418  0.004512  1
  Si  Si19  1  0.576919  0.912819  0.628369  1
  Si  Si20  1  0.925190  0.580958  0.376266  1
  Sn  Sn21  1  0.549045  0.450955  0.250000  1
