# generated using pymatgen
data_ErTm9(Si3O)2
_symmetry_space_group_name_H-M   'P 1'
_cell_length_a   8.28428200
_cell_length_b   8.28410476
_cell_length_c   6.10444700
_cell_angle_alpha   90.00000000
_cell_angle_beta   90.00000000
_cell_angle_gamma   120.00070776
_symmetry_Int_Tables_number   1
_chemical_formula_structural   ErTm9(Si3O)2
_chemical_formula_sum   'Er1 Tm9 Si6 O2'
_cell_volume   362.80588069
_cell_formula_units_Z   1
loop_
 _symmetry_equiv_pos_site_id
 _symmetry_equiv_pos_as_xyz
  1  'x, y, z'
loop_
 _atom_site_type_symbol
 _atom_site_label
 _atom_site_symmetry_multiplicity
 _atom_site_fract_x
 _atom_site_fract_y
 _atom_site_fract_z
 _atom_site_occupancy
  Er  Er0  1  0.232438  0.000000  0.250000  1
  Tm  Tm1  1  0.768077  0.000000  0.750000  1
  Tm  Tm2  1  0.999987  0.231952  0.250000  1
  Tm  Tm3  1  0.999905  0.768010  0.750000  1
  Tm  Tm4  1  0.768035  0.768048  0.250000  1
  Tm  Tm5  1  0.231895  0.231990  0.750000  1
  Tm  Tm6  1  0.333365  0.666595  0.999982  1
  Tm  Tm7  1  0.666770  0.333405  0.999982  1
  Tm  Tm8  1  0.666770  0.333405  0.500018  1
  Tm  Tm9  1  0.333365  0.666595  0.500018  1
  Si  Si10  1  0.602567  0.000000  0.250000  1
  Si  Si11  1  0.397623  0.000000  0.750000  1
  Si  Si12  1  0.999810  0.602066  0.250000  1
  Si  Si13  1  0.000010  0.397590  0.750000  1
  Si  Si14  1  0.397744  0.397934  0.250000  1
  Si  Si15  1  0.602420  0.602410  0.750000  1
  O  O16  1  0.999609  0.000000  0.999535  1
  O  O17  1  0.999609  0.000000  0.500465  1
