# generated using pymatgen
data_Ba4Sr2Al4Sb3As5
_symmetry_space_group_name_H-M   'P 1'
_cell_length_a   9.08495061
_cell_length_b   9.02609838
_cell_length_c   7.17690692
_cell_angle_alpha   87.58804112
_cell_angle_beta   87.63735432
_cell_angle_gamma   75.99217600
_symmetry_Int_Tables_number   1
_chemical_formula_structural   Ba4Sr2Al4Sb3As5
_chemical_formula_sum   'Ba4 Sr2 Al4 Sb3 As5'
_cell_volume   570.21893742
_cell_formula_units_Z   1
loop_
 _symmetry_equiv_pos_site_id
 _symmetry_equiv_pos_as_xyz
  1  'x, y, z'
loop_
 _atom_site_type_symbol
 _atom_site_label
 _atom_site_symmetry_multiplicity
 _atom_site_fract_x
 _atom_site_fract_y
 _atom_site_fract_z
 _atom_site_occupancy
  Ba  Ba0  1  0.999060  0.740490  0.545937  1
  Ba  Ba1  1  0.266204  0.996833  0.953975  1
  Ba  Ba2  1  0.993314  0.261765  0.455985  1
  Ba  Ba3  1  0.732767  0.003899  0.051024  1
  Sr  Sr4  1  0.411974  0.589320  0.250188  1
  Sr  Sr5  1  0.589434  0.406150  0.746634  1
  Al  Al6  1  0.812315  0.587178  0.082086  1
  Al  Al7  1  0.423968  0.180908  0.423610  1
  Al  Al8  1  0.188556  0.413170  0.918105  1
  Al  Al9  1  0.588845  0.824190  0.579401  1
  Sb  Sb10  1  0.065653  0.702691  0.036564  1
  Sb  Sb11  1  0.298341  0.933654  0.463437  1
  Sb  Sb12  1  0.933893  0.296672  0.963138  1
  As  As13  1  0.692208  0.062239  0.531718  1
  As  As14  1  0.728354  0.583327  0.419270  1
  As  As15  1  0.422075  0.270581  0.083979  1
  As  As16  1  0.271595  0.417503  0.580665  1
  As  As17  1  0.581443  0.729431  0.914286  1
