# generated using pymatgen
data_GdYTm6(WO6)4
_symmetry_space_group_name_H-M   'P 1'
_cell_length_a   5.36452600
_cell_length_b   7.66150463
_cell_length_c   11.41010103
_cell_angle_alpha   75.28771430
_cell_angle_beta   90.00000000
_cell_angle_gamma   90.00000000
_symmetry_Int_Tables_number   1
_chemical_formula_structural   GdYTm6(WO6)4
_chemical_formula_sum   'Gd1 Y1 Tm6 W4 O24'
_cell_volume   453.58342973
_cell_formula_units_Z   1
loop_
 _symmetry_equiv_pos_site_id
 _symmetry_equiv_pos_as_xyz
  1  'x, y, z'
loop_
 _atom_site_type_symbol
 _atom_site_label
 _atom_site_symmetry_multiplicity
 _atom_site_fract_x
 _atom_site_fract_y
 _atom_site_fract_z
 _atom_site_occupancy
  Gd  Gd0  1  0.685158  0.500000  0.750000  1
  Y  Y1  1  0.315278  0.500000  0.250000  1
  Tm  Tm2  1  0.741029  0.000000  0.750000  1
  Tm  Tm3  1  0.259634  0.000000  0.250000  1
  Tm  Tm4  1  0.185480  0.796869  0.577651  1
  Tm  Tm5  1  0.814850  0.796113  0.078335  1
  Tm  Tm6  1  0.185480  0.203131  0.922349  1
  Tm  Tm7  1  0.814850  0.203887  0.421665  1
  W  W8  1  0.254863  0.725392  0.885733  1
  W  W9  1  0.745071  0.724902  0.384841  1
  W  W10  1  0.254863  0.274608  0.614267  1
  W  W11  1  0.745071  0.275098  0.115159  1
  O  O12  1  0.040261  0.941514  0.896161  1
  O  O13  1  0.536172  0.847862  0.930882  1
  O  O14  1  0.959320  0.942043  0.395102  1
  O  O15  1  0.458228  0.794482  0.726159  1
  O  O16  1  0.464519  0.848076  0.430659  1
  O  O17  1  0.983005  0.716154  0.769386  1
  O  O18  1  0.540703  0.793440  0.225879  1
  O  O19  1  0.854952  0.636669  0.547716  1
  O  O20  1  0.354914  0.488841  0.887511  1
  O  O21  1  0.018719  0.713774  0.269675  1
  O  O22  1  0.354914  0.511159  0.612489  1
  O  O23  1  0.854952  0.363331  0.952284  1
  O  O24  1  0.146620  0.636982  0.049211  1
  O  O25  1  0.641776  0.488892  0.386481  1
  O  O26  1  0.983005  0.283846  0.730614  1
  O  O27  1  0.641776  0.511108  0.113519  1
  O  O28  1  0.146620  0.363018  0.450789  1
  O  O29  1  0.458228  0.205518  0.773841  1
  O  O30  1  0.018719  0.286226  0.230325  1
  O  O31  1  0.536172  0.152138  0.569118  1
  O  O32  1  0.540703  0.206560  0.274121  1
  O  O33  1  0.040261  0.058486  0.603839  1
  O  O34  1  0.464519  0.151924  0.069341  1
  O  O35  1  0.959320  0.057957  0.104898  1
