# generated using pymatgen
data_Dy2Ho4Al19Si5Ru8
_symmetry_space_group_name_H-M   'P 1'
_cell_length_a   8.68208200
_cell_length_b   8.66802249
_cell_length_c   9.58578800
_cell_angle_alpha   90.00000000
_cell_angle_beta   90.00000000
_cell_angle_gamma   120.05747956
_symmetry_Int_Tables_number   1
_chemical_formula_structural   Dy2Ho4Al19Si5Ru8
_chemical_formula_sum   'Dy2 Ho4 Al19 Si5 Ru8'
_cell_volume   624.38222183
_cell_formula_units_Z   1
loop_
 _symmetry_equiv_pos_site_id
 _symmetry_equiv_pos_as_xyz
  1  'x, y, z'
loop_
 _atom_site_type_symbol
 _atom_site_label
 _atom_site_symmetry_multiplicity
 _atom_site_fract_x
 _atom_site_fract_y
 _atom_site_fract_z
 _atom_site_occupancy
  Dy  Dy0  1  0.806799  0.613390  0.750000  1
  Dy  Dy1  1  0.388042  0.193988  0.750000  1
  Ho  Ho2  1  0.194543  0.389036  0.250000  1
  Ho  Ho3  1  0.608569  0.806896  0.250000  1
  Ho  Ho4  1  0.198412  0.806825  0.250000  1
  Ho  Ho5  1  0.805486  0.194691  0.750000  1
  Al  Al6  1  0.164741  0.329658  0.578818  1
  Al  Al7  1  0.834725  0.669497  0.420697  1
  Al  Al8  1  0.669731  0.835186  0.577970  1
  Al  Al9  1  0.834725  0.669497  0.079303  1
  Al  Al10  1  0.329531  0.165523  0.420829  1
  Al  Al11  1  0.164741  0.329658  0.921182  1
  Al  Al12  1  0.165398  0.835064  0.577922  1
  Al  Al13  1  0.329531  0.165523  0.079171  1
  Al  Al14  1  0.835955  0.165501  0.420923  1
  Al  Al15  1  0.669731  0.835186  0.922030  1
  Al  Al16  1  0.835955  0.165501  0.079077  1
  Al  Al17  1  0.165398  0.835064  0.922078  1
  Al  Al18  1  0.437384  0.874396  0.750000  1
  Al  Al19  1  0.873193  0.433845  0.250000  1
  Al  Al20  1  0.127163  0.563921  0.750000  1
  Al  Al21  1  0.560683  0.433866  0.250000  1
  Al  Al22  1  0.436777  0.564270  0.750000  1
  Al  Al23  1  0.999865  0.999710  0.250000  1
  Al  Al24  1  0.000196  0.000850  0.750000  1
  Si  Si25  1  0.332561  0.665046  0.037405  1
  Si  Si26  1  0.667580  0.334554  0.961142  1
  Si  Si27  1  0.667580  0.334554  0.538858  1
  Si  Si28  1  0.332561  0.665046  0.462595  1
  Si  Si29  1  0.563530  0.127001  0.250000  1
  Ru  Ru30  1  0.500880  0.001467  0.006101  1
  Ru  Ru31  1  0.999008  0.498780  0.000767  1
  Ru  Ru32  1  0.500880  0.001467  0.493899  1
  Ru  Ru33  1  0.499912  0.498978  0.000939  1
  Ru  Ru34  1  0.999008  0.498780  0.499233  1
  Ru  Ru35  1  0.499912  0.498978  0.499061  1
  Ru  Ru36  1  0.999657  0.999407  0.000149  1
  Ru  Ru37  1  0.999657  0.999407  0.499851  1
