# generated using pymatgen
data_HoThTcC2
_symmetry_space_group_name_H-M   'P 1'
_cell_length_a   5.23772400
_cell_length_b   6.64229400
_cell_length_c   9.86171300
_cell_angle_alpha   90.00000000
_cell_angle_beta   90.00000000
_cell_angle_gamma   90.00000000
_symmetry_Int_Tables_number   1
_chemical_formula_structural   HoThTcC2
_chemical_formula_sum   'Ho4 Th4 Tc4 C8'
_cell_volume   343.09395274
_cell_formula_units_Z   4
loop_
 _symmetry_equiv_pos_site_id
 _symmetry_equiv_pos_as_xyz
  1  'x, y, z'
loop_
 _atom_site_type_symbol
 _atom_site_label
 _atom_site_symmetry_multiplicity
 _atom_site_fract_x
 _atom_site_fract_y
 _atom_site_fract_z
 _atom_site_occupancy
  Ho  Ho0  1  0.250000  0.826738  0.053589  1
  Ho  Ho1  1  0.750000  0.673262  0.553589  1
  Ho  Ho2  1  0.250000  0.326738  0.446411  1
  Ho  Ho3  1  0.750000  0.173262  0.946411  1
  Th  Th4  1  0.250000  0.471330  0.786425  1
  Th  Th5  1  0.750000  0.028670  0.286425  1
  Th  Th6  1  0.250000  0.971330  0.713575  1
  Th  Th7  1  0.750000  0.528670  0.213575  1
  Tc  Tc8  1  0.250000  0.273578  0.135640  1
  Tc  Tc9  1  0.750000  0.226422  0.635640  1
  Tc  Tc10  1  0.250000  0.773578  0.364360  1
  Tc  Tc11  1  0.750000  0.726422  0.864360  1
  C  C12  1  0.250000  0.169416  0.946941  1
  C  C13  1  0.750000  0.830584  0.053059  1
  C  C14  1  0.250000  0.669416  0.553059  1
  C  C15  1  0.750000  0.330584  0.446941  1
  C  C16  1  0.250000  0.041765  0.260660  1
  C  C17  1  0.750000  0.458235  0.760660  1
  C  C18  1  0.250000  0.541765  0.239340  1
  C  C19  1  0.750000  0.958235  0.739340  1
