# generated using pymatgen
data_LiCr21TcC6
_symmetry_space_group_name_H-M   'P 1'
_cell_length_a   7.47789608
_cell_length_b   7.47789650
_cell_length_c   7.47789700
_cell_angle_alpha   60.00000221
_cell_angle_beta   60.00000037
_cell_angle_gamma   59.99999954
_symmetry_Int_Tables_number   1
_chemical_formula_structural   LiCr21TcC6
_chemical_formula_sum   'Li1 Cr21 Tc1 C6'
_cell_volume   295.68096278
_cell_formula_units_Z   1
loop_
 _symmetry_equiv_pos_site_id
 _symmetry_equiv_pos_as_xyz
  1  'x, y, z'
loop_
 _atom_site_type_symbol
 _atom_site_label
 _atom_site_symmetry_multiplicity
 _atom_site_fract_x
 _atom_site_fract_y
 _atom_site_fract_z
 _atom_site_occupancy
  Li  Li0  1  0.000000  0.000000  0.000000  1
  Cr  Cr1  1  0.250000  0.250000  0.250000  1
  Cr  Cr2  1  0.615698  0.615698  0.152906  1
  Cr  Cr3  1  0.615698  0.152906  0.615698  1
  Cr  Cr4  1  0.152906  0.615698  0.615698  1
  Cr  Cr5  1  0.615698  0.615698  0.615698  1
  Cr  Cr6  1  0.380015  0.380015  0.859956  1
  Cr  Cr7  1  0.380015  0.859956  0.380015  1
  Cr  Cr8  1  0.859956  0.380015  0.380015  1
  Cr  Cr9  1  0.380015  0.380015  0.380015  1
  Cr  Cr10  1  0.000644  0.000644  0.343790  1
  Cr  Cr11  1  0.654923  0.000644  0.343790  1
  Cr  Cr12  1  0.000644  0.654923  0.343790  1
  Cr  Cr13  1  0.654923  0.343790  0.000644  1
  Cr  Cr14  1  0.000644  0.343790  0.000644  1
  Cr  Cr15  1  0.000644  0.343790  0.654923  1
  Cr  Cr16  1  0.343790  0.654923  0.000644  1
  Cr  Cr17  1  0.343790  0.000644  0.654923  1
  Cr  Cr18  1  0.343790  0.000644  0.000644  1
  Cr  Cr19  1  0.000644  0.000644  0.654923  1
  Cr  Cr20  1  0.000644  0.654923  0.000644  1
  Cr  Cr21  1  0.654923  0.000644  0.000644  1
  Tc  Tc22  1  0.750000  0.750000  0.750000  1
  C  C23  1  0.725813  0.725813  0.274187  1
  C  C24  1  0.274187  0.725813  0.274187  1
  C  C25  1  0.725813  0.274187  0.274187  1
  C  C26  1  0.274187  0.274187  0.725813  1
  C  C27  1  0.725813  0.274187  0.725813  1
  C  C28  1  0.274187  0.725813  0.725813  1
