# generated using pymatgen
data_Y3Ho5CdInPd2
_symmetry_space_group_name_H-M   'P 1'
_cell_length_a   9.69857990
_cell_length_b   9.69858026
_cell_length_c   9.70764800
_cell_angle_alpha   59.96906711
_cell_angle_beta   59.96906588
_cell_angle_gamma   60.00687751
_symmetry_Int_Tables_number   1
_chemical_formula_structural   Y3Ho5CdInPd2
_chemical_formula_sum   'Y6 Ho10 Cd2 In2 Pd4'
_cell_volume   645.40847660
_cell_formula_units_Z   2
loop_
 _symmetry_equiv_pos_site_id
 _symmetry_equiv_pos_as_xyz
  1  'x, y, z'
loop_
 _atom_site_type_symbol
 _atom_site_label
 _atom_site_symmetry_multiplicity
 _atom_site_fract_x
 _atom_site_fract_y
 _atom_site_fract_z
 _atom_site_occupancy
  Y  Y0  1  0.937028  0.564968  0.564520  1
  Y  Y1  1  0.564968  0.937028  0.933484  1
  Y  Y2  1  0.564968  0.937028  0.564520  1
  Y  Y3  1  0.937028  0.564968  0.933484  1
  Y  Y4  1  0.565324  0.565324  0.934676  1
  Y  Y5  1  0.936482  0.936482  0.563518  1
  Ho  Ho6  1  0.352942  0.352942  0.353015  1
  Ho  Ho7  1  0.352942  0.352942  0.941102  1
  Ho  Ho8  1  0.353938  0.939075  0.353493  1
  Ho  Ho9  1  0.939075  0.353938  0.353493  1
  Ho  Ho10  1  0.810171  0.190234  0.189642  1
  Ho  Ho11  1  0.190234  0.810171  0.809953  1
  Ho  Ho12  1  0.190234  0.810171  0.189642  1
  Ho  Ho13  1  0.810171  0.190234  0.809953  1
  Ho  Ho14  1  0.188766  0.188766  0.811234  1
  Ho  Ho15  1  0.809000  0.809000  0.191000  1
  Cd  Cd16  1  0.581621  0.251365  0.583508  1
  Cd  Cd17  1  0.251365  0.581621  0.583508  1
  In  In18  1  0.582345  0.582345  0.584039  1
  In  In19  1  0.582345  0.582345  0.251270  1
  Pd  Pd20  1  0.143965  0.143965  0.144893  1
  Pd  Pd21  1  0.143965  0.143965  0.567176  1
  Pd  Pd22  1  0.143558  0.567563  0.144439  1
  Pd  Pd23  1  0.567563  0.143558  0.144439  1
