# generated using pymatgen
data_TmLu2Ga7Cu4
_symmetry_space_group_name_H-M   'P 1'
_cell_length_a   7.92569325
_cell_length_b   7.92569221
_cell_length_c   9.32030800
_cell_angle_alpha   54.27580403
_cell_angle_beta   54.27581117
_cell_angle_gamma   30.60673068
_symmetry_Int_Tables_number   1
_chemical_formula_structural   TmLu2Ga7Cu4
_chemical_formula_sum   'Tm1 Lu2 Ga7 Cu4'
_cell_volume   237.26606141
_cell_formula_units_Z   1
loop_
 _symmetry_equiv_pos_site_id
 _symmetry_equiv_pos_as_xyz
  1  'x, y, z'
loop_
 _atom_site_type_symbol
 _atom_site_label
 _atom_site_symmetry_multiplicity
 _atom_site_fract_x
 _atom_site_fract_y
 _atom_site_fract_z
 _atom_site_occupancy
  Tm  Tm0  1  0.000000  0.000000  0.000000  1
  Lu  Lu1  1  0.302317  0.302317  0.705115  1
  Lu  Lu2  1  0.697683  0.697683  0.294885  1
  Ga  Ga3  1  0.859394  0.859394  0.420484  1
  Ga  Ga4  1  0.140606  0.140606  0.579516  1
  Ga  Ga5  1  0.139902  0.139902  0.131799  1
  Ga  Ga6  1  0.860098  0.860098  0.868201  1
  Ga  Ga7  1  0.000000  0.000000  0.500000  1
  Ga  Ga8  1  0.344915  0.344915  0.276036  1
  Ga  Ga9  1  0.655085  0.655085  0.723964  1
  Cu  Cu10  1  0.497142  0.497142  0.311334  1
  Cu  Cu11  1  0.502858  0.502858  0.688666  1
  Cu  Cu12  1  0.657331  0.657331  0.981601  1
  Cu  Cu13  1  0.342669  0.342669  0.018399  1
