# generated using pymatgen
data_TlRu2F12
_symmetry_space_group_name_H-M   'P 1'
_cell_length_a   11.70258214
_cell_length_b   5.81032265
_cell_length_c   5.86271400
_cell_angle_alpha   57.76680618
_cell_angle_beta   57.56241134
_cell_angle_gamma   57.37207106
_symmetry_Int_Tables_number   1
_chemical_formula_structural   TlRu2F12
_chemical_formula_sum   'Tl1 Ru2 F12'
_cell_volume   266.10678888
_cell_formula_units_Z   1
loop_
 _symmetry_equiv_pos_site_id
 _symmetry_equiv_pos_as_xyz
  1  'x, y, z'
loop_
 _atom_site_type_symbol
 _atom_site_label
 _atom_site_symmetry_multiplicity
 _atom_site_fract_x
 _atom_site_fract_y
 _atom_site_fract_z
 _atom_site_occupancy
  Tl  Tl0  1  0.750000  0.500000  0.500000  1
  Ru  Ru1  1  0.011051  0.993821  0.990302  1
  Ru  Ru2  1  0.488949  0.006179  0.009698  1
  F  F3  1  0.172582  0.101154  0.784616  1
  F  F4  1  0.670145  0.081911  0.803766  1
  F  F5  1  0.048584  0.799122  0.331313  1
  F  F6  1  0.536276  0.795250  0.358599  1
  F  F7  1  0.109668  0.658100  0.898847  1
  F  F8  1  0.604893  0.644241  0.925587  1
  F  F9  1  0.451416  0.200878  0.668687  1
  F  F10  1  0.963724  0.204750  0.641401  1
  F  F11  1  0.327418  0.898846  0.215384  1
  F  F12  1  0.829855  0.918089  0.196234  1
  F  F13  1  0.390332  0.341900  0.101153  1
  F  F14  1  0.895107  0.355759  0.074413  1
