# generated using pymatgen
data_Ce2Th2AlRe7
_symmetry_space_group_name_H-M   'P 1'
_cell_length_a   5.45582100
_cell_length_b   5.45582198
_cell_length_c   9.03844400
_cell_angle_alpha   90.00000000
_cell_angle_beta   90.00000000
_cell_angle_gamma   119.99998802
_symmetry_Int_Tables_number   1
_chemical_formula_structural   Ce2Th2AlRe7
_chemical_formula_sum   'Ce2 Th2 Al1 Re7'
_cell_volume   232.99395831
_cell_formula_units_Z   1
loop_
 _symmetry_equiv_pos_site_id
 _symmetry_equiv_pos_as_xyz
  1  'x, y, z'
loop_
 _atom_site_type_symbol
 _atom_site_label
 _atom_site_symmetry_multiplicity
 _atom_site_fract_x
 _atom_site_fract_y
 _atom_site_fract_z
 _atom_site_occupancy
  Ce  Ce0  1  0.666667  0.333333  0.437113  1
  Ce  Ce1  1  0.333333  0.666667  0.562887  1
  Th  Th2  1  0.333333  0.666667  0.930315  1
  Th  Th3  1  0.666667  0.333333  0.069685  1
  Al  Al4  1  0.000000  0.000000  0.000000  1
  Re  Re5  1  0.000000  0.000000  0.500000  1
  Re  Re6  1  0.660658  0.830329  0.250033  1
  Re  Re7  1  0.169671  0.830329  0.250033  1
  Re  Re8  1  0.169671  0.339342  0.250033  1
  Re  Re9  1  0.339342  0.169671  0.749967  1
  Re  Re10  1  0.830329  0.169671  0.749967  1
  Re  Re11  1  0.830329  0.660658  0.749967  1
