# generated using pymatgen
data_Y6Lu4BiPb5
_symmetry_space_group_name_H-M   'P 1'
_cell_length_a   9.02839507
_cell_length_b   9.03145237
_cell_length_c   6.52745100
_cell_angle_alpha   90.00000000
_cell_angle_beta   90.00000000
_cell_angle_gamma   119.93311024
_symmetry_Int_Tables_number   1
_chemical_formula_structural   Y6Lu4BiPb5
_chemical_formula_sum   'Y6 Lu4 Bi1 Pb5'
_cell_volume   461.24825287
_cell_formula_units_Z   1
loop_
 _symmetry_equiv_pos_site_id
 _symmetry_equiv_pos_as_xyz
  1  'x, y, z'
loop_
 _atom_site_type_symbol
 _atom_site_label
 _atom_site_symmetry_multiplicity
 _atom_site_fract_x
 _atom_site_fract_y
 _atom_site_fract_z
 _atom_site_occupancy
  Y  Y0  1  0.761995  0.761956  0.750000  1
  Y  Y1  1  0.237038  0.996074  0.750000  1
  Y  Y2  1  0.995952  0.237063  0.750000  1
  Y  Y3  1  0.240105  0.240071  0.250000  1
  Y  Y4  1  0.761598  0.000902  0.250000  1
  Y  Y5  1  0.000832  0.761577  0.250000  1
  Lu  Lu6  1  0.668722  0.332524  0.000540  1
  Lu  Lu7  1  0.332613  0.668656  0.000555  1
  Lu  Lu8  1  0.332613  0.668656  0.499445  1
  Lu  Lu9  1  0.668722  0.332524  0.499460  1
  Bi  Bi10  1  0.395234  0.395229  0.750000  1
  Pb  Pb11  1  0.602149  0.999078  0.750000  1
  Pb  Pb12  1  0.999221  0.602394  0.750000  1
  Pb  Pb13  1  0.604501  0.604498  0.250000  1
  Pb  Pb14  1  0.396951  0.001633  0.250000  1
  Pb  Pb15  1  0.001754  0.397163  0.250000  1
