# generated using pymatgen
data_Pr4TlPd3RhPb
_symmetry_space_group_name_H-M   'P 1'
_cell_length_a   8.00692942
_cell_length_b   7.99454305
_cell_length_c   3.86880000
_cell_angle_alpha   90.00000000
_cell_angle_beta   90.00000000
_cell_angle_gamma   90.07234948
_symmetry_Int_Tables_number   1
_chemical_formula_structural   Pr4TlPd3RhPb
_chemical_formula_sum   'Pr4 Tl1 Pd3 Rh1 Pb1'
_cell_volume   247.64842964
_cell_formula_units_Z   1
loop_
 _symmetry_equiv_pos_site_id
 _symmetry_equiv_pos_as_xyz
  1  'x, y, z'
loop_
 _atom_site_type_symbol
 _atom_site_label
 _atom_site_symmetry_multiplicity
 _atom_site_fract_x
 _atom_site_fract_y
 _atom_site_fract_z
 _atom_site_occupancy
  Pr  Pr0  1  0.327281  0.825746  0.500000  1
  Pr  Pr1  1  0.681799  0.183382  0.500000  1
  Pr  Pr2  1  0.822831  0.664139  0.500000  1
  Pr  Pr3  1  0.165994  0.324689  0.500000  1
  Tl  Tl4  1  0.500588  0.499042  0.000000  1
  Pd  Pd5  1  0.623977  0.876982  0.000000  1
  Pd  Pd6  1  0.377072  0.124446  0.000000  1
  Pd  Pd7  1  0.125204  0.625216  0.000000  1
  Rh  Rh8  1  0.876323  0.375895  0.000000  1
  Pb  Pb9  1  0.998932  0.000464  0.000000  1
