# generated using pymatgen
data_Yb2Er2PdPt3O14
_symmetry_space_group_name_H-M   'P 1'
_cell_length_a   7.24569563
_cell_length_b   7.22806191
_cell_length_c   7.24834990
_cell_angle_alpha   60.09255429
_cell_angle_beta   60.11558324
_cell_angle_gamma   60.08047003
_symmetry_Int_Tables_number   1
_chemical_formula_structural   Yb2Er2PdPt3O14
_chemical_formula_sum   'Yb2 Er2 Pd1 Pt3 O14'
_cell_volume   269.01201304
_cell_formula_units_Z   1
loop_
 _symmetry_equiv_pos_site_id
 _symmetry_equiv_pos_as_xyz
  1  'x, y, z'
loop_
 _atom_site_type_symbol
 _atom_site_label
 _atom_site_symmetry_multiplicity
 _atom_site_fract_x
 _atom_site_fract_y
 _atom_site_fract_z
 _atom_site_occupancy
  Yb  Yb0  1  0.625000  0.625000  0.125000  1
  Yb  Yb1  1  0.125000  0.625000  0.625000  1
  Er  Er2  1  0.625000  0.625000  0.625000  1
  Er  Er3  1  0.625000  0.125000  0.625000  1
  Pd  Pd4  1  0.125000  0.125000  0.625000  1
  Pt  Pt5  1  0.625000  0.125000  0.125000  1
  Pt  Pt6  1  0.125000  0.125000  0.125000  1
  Pt  Pt7  1  0.125000  0.625000  0.125000  1
  O  O8  1  0.032403  0.463511  0.460633  1
  O  O9  1  0.789376  0.790195  0.216347  1
  O  O10  1  0.789376  0.204081  0.216347  1
  O  O11  1  0.743374  0.755925  0.744775  1
  O  O12  1  0.037980  0.458113  0.045795  1
  O  O13  1  0.464311  0.036241  0.463208  1
  O  O14  1  0.032403  0.043454  0.460633  1
  O  O15  1  0.506626  0.494075  0.505225  1
  O  O16  1  0.217597  0.206546  0.789367  1
  O  O17  1  0.212020  0.791887  0.204205  1
  O  O18  1  0.785689  0.213759  0.786792  1
  O  O19  1  0.460624  0.045919  0.033653  1
  O  O20  1  0.460624  0.459805  0.033653  1
  O  O21  1  0.217597  0.786489  0.789367  1
