# generated using pymatgen
data_Sc12FeSi12RuRh2
_symmetry_space_group_name_H-M   'P 1'
_cell_length_a   4.02284800
_cell_length_b   10.20982086
_cell_length_c   11.70041895
_cell_angle_alpha   89.90924866
_cell_angle_beta   90.00000000
_cell_angle_gamma   90.00000000
_symmetry_Int_Tables_number   1
_chemical_formula_structural   Sc12FeSi12RuRh2
_chemical_formula_sum   'Sc12 Fe1 Si12 Ru1 Rh2'
_cell_volume   480.56552658
_cell_formula_units_Z   1
loop_
 _symmetry_equiv_pos_site_id
 _symmetry_equiv_pos_as_xyz
  1  'x, y, z'
loop_
 _atom_site_type_symbol
 _atom_site_label
 _atom_site_symmetry_multiplicity
 _atom_site_fract_x
 _atom_site_fract_y
 _atom_site_fract_z
 _atom_site_occupancy
  Sc  Sc0  1  0.250000  0.877545  0.018875  1
  Sc  Sc1  1  0.250000  0.618248  0.523923  1
  Sc  Sc2  1  0.750000  0.124148  0.978373  1
  Sc  Sc3  1  0.750000  0.377490  0.479014  1
  Sc  Sc4  1  0.250000  0.920470  0.603312  1
  Sc  Sc5  1  0.250000  0.580220  0.103267  1
  Sc  Sc6  1  0.750000  0.078990  0.398948  1
  Sc  Sc7  1  0.750000  0.421200  0.899574  1
  Sc  Sc8  1  0.250000  0.653222  0.797459  1
  Sc  Sc9  1  0.250000  0.840702  0.299380  1
  Sc  Sc10  1  0.750000  0.340846  0.200957  1
  Sc  Sc11  1  0.750000  0.164654  0.700263  1
  Fe  Fe12  1  0.250000  0.390767  0.676065  1
  Si  Si13  1  0.250000  0.018104  0.822378  1
  Si  Si14  1  0.250000  0.486191  0.322491  1
  Si  Si15  1  0.750000  0.985241  0.176502  1
  Si  Si16  1  0.750000  0.503312  0.679426  1
  Si  Si17  1  0.250000  0.257070  0.836800  1
  Si  Si18  1  0.250000  0.248666  0.343134  1
  Si  Si19  1  0.750000  0.749188  0.158147  1
  Si  Si20  1  0.750000  0.748122  0.658402  1
  Si  Si21  1  0.250000  0.199644  0.547774  1
  Si  Si22  1  0.250000  0.307274  0.043536  1
  Si  Si23  1  0.750000  0.803600  0.455874  1
  Si  Si24  1  0.750000  0.693450  0.954235  1
  Ru  Ru25  1  0.750000  0.609821  0.323399  1
  Rh  Rh26  1  0.250000  0.111155  0.176876  1
  Rh  Rh27  1  0.750000  0.890657  0.821614  1
