# generated using pymatgen
data_NdLu3(NiAs)4
_symmetry_space_group_name_H-M   'P 1'
_cell_length_a   4.03085900
_cell_length_b   4.03085850
_cell_length_c   15.47610500
_cell_angle_alpha   90.00000000
_cell_angle_beta   90.00000000
_cell_angle_gamma   119.99999593
_symmetry_Int_Tables_number   1
_chemical_formula_structural   NdLu3(NiAs)4
_chemical_formula_sum   'Nd1 Lu3 Ni4 As4'
_cell_volume   217.76469749
_cell_formula_units_Z   1
loop_
 _symmetry_equiv_pos_site_id
 _symmetry_equiv_pos_as_xyz
  1  'x, y, z'
loop_
 _atom_site_type_symbol
 _atom_site_label
 _atom_site_symmetry_multiplicity
 _atom_site_fract_x
 _atom_site_fract_y
 _atom_site_fract_z
 _atom_site_occupancy
  Nd  Nd0  1  0.000000  0.000000  0.500000  1
  Lu  Lu1  1  0.000000  0.000000  0.243209  1
  Lu  Lu2  1  0.000000  0.000000  0.756791  1
  Lu  Lu3  1  0.000000  0.000000  0.000000  1
  Ni  Ni4  1  0.333333  0.666667  0.133874  1
  Ni  Ni5  1  0.666667  0.333333  0.866126  1
  Ni  Ni6  1  0.666667  0.333333  0.646557  1
  Ni  Ni7  1  0.333333  0.666667  0.353443  1
  As  As8  1  0.333333  0.666667  0.629543  1
  As  As9  1  0.666667  0.333333  0.370457  1
  As  As10  1  0.666667  0.333333  0.115706  1
  As  As11  1  0.333333  0.666667  0.884294  1
