# generated using pymatgen
data_Eu2In4PdRh
_symmetry_space_group_name_H-M   'P 1'
_cell_length_a   5.78380300
_cell_length_b   5.78380275
_cell_length_c   8.23019600
_cell_angle_alpha   90.00000000
_cell_angle_beta   90.00000000
_cell_angle_gamma   135.41011737
_symmetry_Int_Tables_number   1
_chemical_formula_structural   Eu2In4PdRh
_chemical_formula_sum   'Eu2 In4 Pd1 Rh1'
_cell_volume   193.28188460
_cell_formula_units_Z   1
loop_
 _symmetry_equiv_pos_site_id
 _symmetry_equiv_pos_as_xyz
  1  'x, y, z'
loop_
 _atom_site_type_symbol
 _atom_site_label
 _atom_site_symmetry_multiplicity
 _atom_site_fract_x
 _atom_site_fract_y
 _atom_site_fract_z
 _atom_site_occupancy
  Eu  Eu0  1  0.062778  0.937222  0.250000  1
  Eu  Eu1  1  0.936768  0.063232  0.750000  1
  In  In2  1  0.648066  0.351934  0.548301  1
  In  In3  1  0.351330  0.648670  0.445639  1
  In  In4  1  0.648066  0.351934  0.951699  1
  In  In5  1  0.351330  0.648670  0.054361  1
  Pd  Pd6  1  0.221468  0.778532  0.750000  1
  Rh  Rh7  1  0.780195  0.219805  0.250000  1
