# generated using pymatgen
data_NpAuO5
_symmetry_space_group_name_H-M   'P 1'
_cell_length_a   6.14417127
_cell_length_b   6.14417144
_cell_length_c   7.44808628
_cell_angle_alpha   73.03857992
_cell_angle_beta   73.03857755
_cell_angle_gamma   64.51242197
_symmetry_Int_Tables_number   1
_chemical_formula_structural   NpAuO5
_chemical_formula_sum   'Np2 Au2 O10'
_cell_volume   238.22755234
_cell_formula_units_Z   2
loop_
 _symmetry_equiv_pos_site_id
 _symmetry_equiv_pos_as_xyz
  1  'x, y, z'
loop_
 _atom_site_type_symbol
 _atom_site_label
 _atom_site_symmetry_multiplicity
 _atom_site_fract_x
 _atom_site_fract_y
 _atom_site_fract_z
 _atom_site_occupancy
  Np  Np0  1  0.958706  0.041294  0.250000  1
  Np  Np1  1  0.041294  0.958706  0.750000  1
  Au  Au2  1  0.500000  0.500000  0.000000  1
  Au  Au3  1  0.500000  0.500000  0.500000  1
  O  O4  1  0.391627  0.608373  0.750000  1
  O  O5  1  0.229316  0.136357  0.662183  1
  O  O6  1  0.770684  0.863643  0.337817  1
  O  O7  1  0.136357  0.229316  0.162183  1
  O  O8  1  0.608373  0.391627  0.250000  1
  O  O9  1  0.863643  0.770684  0.837817  1
  O  O10  1  0.200601  0.802030  0.049544  1
  O  O11  1  0.802030  0.200601  0.549544  1
  O  O12  1  0.799399  0.197970  0.950456  1
  O  O13  1  0.197970  0.799399  0.450456  1
