# generated using pymatgen
data_Hf18FeRe2Mo6Pd
_symmetry_space_group_name_H-M   'P 1'
_cell_length_a   8.68877584
_cell_length_b   8.68877533
_cell_length_c   8.49162100
_cell_angle_alpha   90.00000000
_cell_angle_beta   90.00000000
_cell_angle_gamma   119.82605629
_symmetry_Int_Tables_number   1
_chemical_formula_structural   Hf18FeRe2Mo6Pd
_chemical_formula_sum   'Hf18 Fe1 Re2 Mo6 Pd1'
_cell_volume   556.15641216
_cell_formula_units_Z   1
loop_
 _symmetry_equiv_pos_site_id
 _symmetry_equiv_pos_as_xyz
  1  'x, y, z'
loop_
 _atom_site_type_symbol
 _atom_site_label
 _atom_site_symmetry_multiplicity
 _atom_site_fract_x
 _atom_site_fract_y
 _atom_site_fract_z
 _atom_site_occupancy
  Hf  Hf0  1  0.195890  0.804110  0.448316  1
  Hf  Hf1  1  0.195327  0.390688  0.449382  1
  Hf  Hf2  1  0.609312  0.804673  0.449382  1
  Hf  Hf3  1  0.798293  0.201707  0.561404  1
  Hf  Hf4  1  0.797738  0.595737  0.560099  1
  Hf  Hf5  1  0.404263  0.202262  0.560099  1
  Hf  Hf6  1  0.798293  0.201707  0.938596  1
  Hf  Hf7  1  0.797738  0.595737  0.939901  1
  Hf  Hf8  1  0.404263  0.202262  0.939901  1
  Hf  Hf9  1  0.195890  0.804110  0.051684  1
  Hf  Hf10  1  0.195327  0.390688  0.050618  1
  Hf  Hf11  1  0.609312  0.804673  0.050618  1
  Hf  Hf12  1  0.543416  0.456584  0.250000  1
  Hf  Hf13  1  0.543874  0.087007  0.250000  1
  Hf  Hf14  1  0.912993  0.456126  0.250000  1
  Hf  Hf15  1  0.458436  0.541564  0.750000  1
  Hf  Hf16  1  0.459226  0.916120  0.750000  1
  Hf  Hf17  1  0.083880  0.540774  0.750000  1
  Fe  Fe18  1  0.666301  0.333699  0.750000  1
  Re  Re19  1  0.110736  0.224005  0.750000  1
  Re  Re20  1  0.775995  0.889264  0.750000  1
  Mo  Mo21  1  0.887908  0.112092  0.250000  1
  Mo  Mo22  1  0.886965  0.774836  0.250000  1
  Mo  Mo23  1  0.225164  0.113035  0.250000  1
  Mo  Mo24  1  0.109963  0.890037  0.750000  1
  Mo  Mo25  1  0.999784  0.000216  0.500825  1
  Mo  Mo26  1  0.999784  0.000216  0.999175  1
  Pd  Pd27  1  0.333930  0.666070  0.250000  1
