# generated using pymatgen
data_CaGaAsRh2
_symmetry_space_group_name_H-M   'P 1'
_cell_length_a   6.01758879
_cell_length_b   6.01758938
_cell_length_c   6.01758937
_cell_angle_alpha   139.11640680
_cell_angle_beta   139.11641642
_cell_angle_gamma   59.19739689
_symmetry_Int_Tables_number   1
_chemical_formula_structural   CaGaAsRh2
_chemical_formula_sum   'Ca1 Ga1 As1 Rh2'
_cell_volume   92.44579024
_cell_formula_units_Z   1
loop_
 _symmetry_equiv_pos_site_id
 _symmetry_equiv_pos_as_xyz
  1  'x, y, z'
loop_
 _atom_site_type_symbol
 _atom_site_label
 _atom_site_symmetry_multiplicity
 _atom_site_fract_x
 _atom_site_fract_y
 _atom_site_fract_z
 _atom_site_occupancy
  Ca  Ca0  1  0.997164  0.997164  0.000000  1
  Ga  Ga1  1  0.625247  0.625247  0.000000  1
  As  As2  1  0.372613  0.372613  0.000000  1
  Rh  Rh3  1  0.752488  0.252488  0.500000  1
  Rh  Rh4  1  0.252488  0.752488  0.500000  1
