# generated using pymatgen
data_Nd3Dy5Ho4(Si2Ni)4
_symmetry_space_group_name_H-M   'P 1'
_cell_length_a   4.12477000
_cell_length_b   11.44521182
_cell_length_c   11.34130000
_cell_angle_alpha   89.95908917
_cell_angle_beta   90.00000000
_cell_angle_gamma   90.00000000
_symmetry_Int_Tables_number   1
_chemical_formula_structural   Nd3Dy5Ho4(Si2Ni)4
_chemical_formula_sum   'Nd3 Dy5 Ho4 Si8 Ni4'
_cell_volume   535.40977974
_cell_formula_units_Z   1
loop_
 _symmetry_equiv_pos_site_id
 _symmetry_equiv_pos_as_xyz
  1  'x, y, z'
loop_
 _atom_site_type_symbol
 _atom_site_label
 _atom_site_symmetry_multiplicity
 _atom_site_fract_x
 _atom_site_fract_y
 _atom_site_fract_z
 _atom_site_occupancy
  Nd  Nd0  1  0.250000  0.126721  0.558326  1
  Nd  Nd1  1  0.250000  0.376026  0.054752  1
  Nd  Nd2  1  0.750000  0.874014  0.443567  1
  Dy  Dy3  1  0.750000  0.627470  0.941361  1
  Dy  Dy4  1  0.250000  0.801308  0.718178  1
  Dy  Dy5  1  0.250000  0.694428  0.215376  1
  Dy  Dy6  1  0.750000  0.194304  0.282999  1
  Dy  Dy7  1  0.750000  0.308041  0.783955  1
  Ho  Ho8  1  0.250000  0.056046  0.884612  1
  Ho  Ho9  1  0.250000  0.442505  0.382880  1
  Ho  Ho10  1  0.750000  0.940710  0.115197  1
  Ho  Ho11  1  0.750000  0.559775  0.617243  1
  Si  Si12  1  0.250000  0.812759  0.976875  1
  Si  Si13  1  0.250000  0.681354  0.475490  1
  Si  Si14  1  0.750000  0.182288  0.023598  1
  Si  Si15  1  0.750000  0.319146  0.524155  1
  Si  Si16  1  0.250000  0.499880  0.800897  1
  Si  Si17  1  0.250000  0.006104  0.297791  1
  Si  Si18  1  0.750000  0.507686  0.199400  1
  Si  Si19  1  0.750000  0.990620  0.702625  1
  Ni  Ni20  1  0.250000  0.373118  0.628829  1
  Ni  Ni21  1  0.250000  0.129944  0.126533  1
  Ni  Ni22  1  0.750000  0.630730  0.372124  1
  Ni  Ni23  1  0.750000  0.865023  0.873236  1
