# generated using pymatgen
data_La4IrPd3Pb2
_symmetry_space_group_name_H-M   'P 1'
_cell_length_a   8.05411261
_cell_length_b   8.05411261
_cell_length_c   3.91481000
_cell_angle_alpha   90.00000000
_cell_angle_beta   90.00000000
_cell_angle_gamma   89.90779022
_symmetry_Int_Tables_number   1
_chemical_formula_structural   La4IrPd3Pb2
_chemical_formula_sum   'La4 Ir1 Pd3 Pb2'
_cell_volume   253.94842361
_cell_formula_units_Z   1
loop_
 _symmetry_equiv_pos_site_id
 _symmetry_equiv_pos_as_xyz
  1  'x, y, z'
loop_
 _atom_site_type_symbol
 _atom_site_label
 _atom_site_symmetry_multiplicity
 _atom_site_fract_x
 _atom_site_fract_y
 _atom_site_fract_z
 _atom_site_occupancy
  La  La0  1  0.664896  0.177626  0.500000  1
  La  La1  1  0.185659  0.314341  0.500000  1
  La  La2  1  0.824901  0.675099  0.500000  1
  La  La3  1  0.322374  0.835104  0.500000  1
  Ir  Ir4  1  0.376008  0.123992  0.000000  1
  Pd  Pd5  1  0.123993  0.625254  0.000000  1
  Pd  Pd6  1  0.628259  0.871741  0.000000  1
  Pd  Pd7  1  0.874746  0.376007  0.000000  1
  Pb  Pb8  1  0.999105  0.999941  0.000000  1
  Pb  Pb9  1  0.500059  0.500895  0.000000  1
