# generated using pymatgen
data_Y3BC2N
_symmetry_space_group_name_H-M   'P 1'
_cell_length_a   3.59067797
_cell_length_b   3.59067788
_cell_length_c   15.91979200
_cell_angle_alpha   90.00000000
_cell_angle_beta   90.00000000
_cell_angle_gamma   90.14822388
_symmetry_Int_Tables_number   1
_chemical_formula_structural   Y3BC2N
_chemical_formula_sum   'Y6 B2 C4 N2'
_cell_volume   205.25268170
_cell_formula_units_Z   2
loop_
 _symmetry_equiv_pos_site_id
 _symmetry_equiv_pos_as_xyz
  1  'x, y, z'
loop_
 _atom_site_type_symbol
 _atom_site_label
 _atom_site_symmetry_multiplicity
 _atom_site_fract_x
 _atom_site_fract_y
 _atom_site_fract_z
 _atom_site_occupancy
  Y  Y0  1  0.535641  0.464361  0.104850  1
  Y  Y1  1  0.036536  0.963465  0.250000  1
  Y  Y2  1  0.535641  0.464361  0.395150  1
  Y  Y3  1  0.464361  0.535641  0.604850  1
  Y  Y4  1  0.963465  0.036536  0.750000  1
  Y  Y5  1  0.464361  0.535641  0.895150  1
  B  B6  1  0.000000  0.000000  0.000000  1
  B  B7  1  0.000000  0.000000  0.500000  1
  C  C8  1  0.031708  0.968293  0.092961  1
  C  C9  1  0.031708  0.968293  0.407039  1
  C  C10  1  0.968293  0.031708  0.592961  1
  C  C11  1  0.968293  0.031708  0.907039  1
  N  N12  1  0.538919  0.461082  0.250000  1
  N  N13  1  0.461082  0.538919  0.750000  1
