# generated using pymatgen
data_Sm2Dy3Sn3Sb
_symmetry_space_group_name_H-M   'P 1'
_cell_length_a   8.17525000
_cell_length_b   8.19890700
_cell_length_c   15.45840100
_cell_angle_alpha   90.00000000
_cell_angle_beta   90.00000000
_cell_angle_gamma   90.00000000
_symmetry_Int_Tables_number   1
_chemical_formula_structural   Sm2Dy3Sn3Sb
_chemical_formula_sum   'Sm8 Dy12 Sn12 Sb4'
_cell_volume   1036.14747147
_cell_formula_units_Z   4
loop_
 _symmetry_equiv_pos_site_id
 _symmetry_equiv_pos_as_xyz
  1  'x, y, z'
loop_
 _atom_site_type_symbol
 _atom_site_label
 _atom_site_symmetry_multiplicity
 _atom_site_fract_x
 _atom_site_fract_y
 _atom_site_fract_z
 _atom_site_occupancy
  Sm  Sm0  1  0.526164  0.323094  0.900018  1
  Sm  Sm1  1  0.026164  0.176906  0.599982  1
  Sm  Sm2  1  0.473836  0.676906  0.400018  1
  Sm  Sm3  1  0.973836  0.823094  0.099982  1
  Sm  Sm4  1  0.479641  0.678680  0.098853  1
  Sm  Sm5  1  0.979641  0.821320  0.401147  1
  Sm  Sm6  1  0.520359  0.321320  0.598853  1
  Sm  Sm7  1  0.020359  0.178680  0.901147  1
  Dy  Dy8  1  0.368363  0.838157  0.877386  1
  Dy  Dy9  1  0.868363  0.661843  0.622614  1
  Dy  Dy10  1  0.631637  0.161843  0.377386  1
  Dy  Dy11  1  0.131637  0.338157  0.122614  1
  Dy  Dy12  1  0.634352  0.163115  0.122607  1
  Dy  Dy13  1  0.134352  0.336885  0.377393  1
  Dy  Dy14  1  0.365648  0.836885  0.622607  1
  Dy  Dy15  1  0.865648  0.663115  0.877393  1
  Dy  Dy16  1  0.195851  0.500692  0.748531  1
  Dy  Dy17  1  0.695851  0.999308  0.751469  1
  Dy  Dy18  1  0.804149  0.499308  0.248531  1
  Dy  Dy19  1  0.304149  0.000692  0.251469  1
  Sn  Sn20  1  0.708592  0.963473  0.957532  1
  Sn  Sn21  1  0.208592  0.536527  0.542468  1
  Sn  Sn22  1  0.291408  0.036527  0.457532  1
  Sn  Sn23  1  0.791408  0.463473  0.042468  1
  Sn  Sn24  1  0.563173  0.622226  0.749448  1
  Sn  Sn25  1  0.063173  0.877774  0.750552  1
  Sn  Sn26  1  0.436827  0.377774  0.249448  1
  Sn  Sn27  1  0.936827  0.122226  0.250552  1
  Sn  Sn28  1  0.329758  0.144880  0.750516  1
  Sn  Sn29  1  0.829758  0.355120  0.749484  1
  Sn  Sn30  1  0.670242  0.855120  0.250516  1
  Sn  Sn31  1  0.170242  0.644880  0.249484  1
  Sb  Sb32  1  0.290539  0.036846  0.042915  1
  Sb  Sb33  1  0.790539  0.463154  0.457085  1
  Sb  Sb34  1  0.709461  0.963154  0.542915  1
  Sb  Sb35  1  0.209461  0.536846  0.957085  1
