# generated using pymatgen
data_Y7Sn23(IrRh)3
_symmetry_space_group_name_H-M   'P 1'
_cell_length_a   9.89082800
_cell_length_b   9.89083046
_cell_length_c   10.07513400
_cell_angle_alpha   90.00000000
_cell_angle_beta   90.00000000
_cell_angle_gamma   120.00000515
_symmetry_Int_Tables_number   1
_chemical_formula_structural   Y7Sn23(IrRh)3
_chemical_formula_sum   'Y7 Sn23 Ir3 Rh3'
_cell_volume   853.58514315
_cell_formula_units_Z   1
loop_
 _symmetry_equiv_pos_site_id
 _symmetry_equiv_pos_as_xyz
  1  'x, y, z'
loop_
 _atom_site_type_symbol
 _atom_site_label
 _atom_site_symmetry_multiplicity
 _atom_site_fract_x
 _atom_site_fract_y
 _atom_site_fract_z
 _atom_site_occupancy
  Y  Y0  1  0.000000  0.000000  0.994889  1
  Y  Y1  1  0.042056  0.521028  0.308401  1
  Y  Y2  1  0.478972  0.957944  0.308401  1
  Y  Y3  1  0.478972  0.521028  0.308401  1
  Y  Y4  1  0.959941  0.479970  0.693700  1
  Y  Y5  1  0.520030  0.040059  0.693700  1
  Y  Y6  1  0.520030  0.479970  0.693700  1
  Sn  Sn7  1  0.000000  0.000000  0.498807  1
  Sn  Sn8  1  0.118903  0.881097  0.280085  1
  Sn  Sn9  1  0.762193  0.881097  0.280085  1
  Sn  Sn10  1  0.118903  0.237807  0.280085  1
  Sn  Sn11  1  0.881015  0.118985  0.716698  1
  Sn  Sn12  1  0.237970  0.118985  0.716698  1
  Sn  Sn13  1  0.881015  0.762030  0.716698  1
  Sn  Sn14  1  0.351959  0.000281  0.000972  1
  Sn  Sn15  1  0.648322  0.648041  0.000972  1
  Sn  Sn16  1  0.999719  0.351678  0.000972  1
  Sn  Sn17  1  0.351959  0.351678  0.000972  1
  Sn  Sn18  1  0.999719  0.648041  0.000972  1
  Sn  Sn19  1  0.648322  0.000281  0.000972  1
  Sn  Sn20  1  0.778065  0.556130  0.456330  1
  Sn  Sn21  1  0.778065  0.221935  0.456330  1
  Sn  Sn22  1  0.443870  0.221935  0.456330  1
  Sn  Sn23  1  0.221792  0.443583  0.543208  1
  Sn  Sn24  1  0.221792  0.778208  0.543208  1
  Sn  Sn25  1  0.556417  0.778208  0.543208  1
  Sn  Sn26  1  0.666667  0.333333  0.179662  1
  Sn  Sn27  1  0.333333  0.666667  0.824537  1
  Sn  Sn28  1  0.666667  0.333333  0.880299  1
  Sn  Sn29  1  0.333333  0.666667  0.120756  1
  Ir  Ir30  1  0.168701  0.831299  0.801617  1
  Ir  Ir31  1  0.662599  0.831299  0.801617  1
  Ir  Ir32  1  0.168701  0.337401  0.801617  1
  Rh  Rh33  1  0.831219  0.168781  0.198364  1
  Rh  Rh34  1  0.337562  0.168781  0.198364  1
  Rh  Rh35  1  0.831219  0.662438  0.198364  1
