# generated using pymatgen
data_Cs2ZrAs2
_symmetry_space_group_name_H-M   'P 1'
_cell_length_a   9.12786534
_cell_length_b   9.12786618
_cell_length_c   9.12786578
_cell_angle_alpha   134.54470976
_cell_angle_beta   127.78840385
_cell_angle_gamma   71.68670898
_symmetry_Int_Tables_number   1
_chemical_formula_structural   Cs2ZrAs2
_chemical_formula_sum   'Cs4 Zr2 As4'
_cell_volume   419.22778828
_cell_formula_units_Z   2
loop_
 _symmetry_equiv_pos_site_id
 _symmetry_equiv_pos_as_xyz
  1  'x, y, z'
loop_
 _atom_site_type_symbol
 _atom_site_label
 _atom_site_symmetry_multiplicity
 _atom_site_fract_x
 _atom_site_fract_y
 _atom_site_fract_z
 _atom_site_occupancy
  Cs  Cs0  1  0.697558  0.346472  0.351085  1
  Cs  Cs1  1  0.995387  0.846472  0.148915  1
  Cs  Cs2  1  0.004613  0.153528  0.851085  1
  Cs  Cs3  1  0.302442  0.653528  0.648915  1
  Zr  Zr4  1  0.500000  0.750000  0.250000  1
  Zr  Zr5  1  0.500000  0.250000  0.750000  1
  As  As6  1  0.232610  0.404933  0.827676  1
  As  As7  1  0.767390  0.595067  0.172324  1
  As  As8  1  0.422743  0.095067  0.327676  1
  As  As9  1  0.577257  0.904933  0.672324  1
