# generated using pymatgen
data_Ho10InGa2Bi3
_symmetry_space_group_name_H-M   'P 1'
_cell_length_a   8.89860320
_cell_length_b   8.89758623
_cell_length_c   6.51305600
_cell_angle_alpha   90.00000000
_cell_angle_beta   90.00000000
_cell_angle_gamma   119.97926792
_symmetry_Int_Tables_number   1
_chemical_formula_structural   Ho10InGa2Bi3
_chemical_formula_sum   'Ho10 In1 Ga2 Bi3'
_cell_volume   446.68377941
_cell_formula_units_Z   1
loop_
 _symmetry_equiv_pos_site_id
 _symmetry_equiv_pos_as_xyz
  1  'x, y, z'
loop_
 _atom_site_type_symbol
 _atom_site_label
 _atom_site_symmetry_multiplicity
 _atom_site_fract_x
 _atom_site_fract_y
 _atom_site_fract_z
 _atom_site_occupancy
  Ho  Ho0  1  0.761221  0.751775  0.250000  1
  Ho  Ho1  1  0.018429  0.246082  0.250000  1
  Ho  Ho2  1  0.329715  0.668261  0.002378  1
  Ho  Ho3  1  0.242913  0.227928  0.750000  1
  Ho  Ho4  1  0.755068  0.000678  0.750000  1
  Ho  Ho5  1  0.238192  0.006439  0.250000  1
  Ho  Ho6  1  0.650756  0.328262  0.002592  1
  Ho  Ho7  1  0.016013  0.773396  0.750000  1
  Ho  Ho8  1  0.329715  0.668261  0.497622  1
  Ho  Ho9  1  0.650756  0.328262  0.497408  1
  In  In10  1  0.996509  0.600094  0.250000  1
  Ga  Ga11  1  0.399086  0.999370  0.750000  1
  Ga  Ga12  1  0.396434  0.398852  0.250000  1
  Bi  Bi13  1  0.996142  0.391896  0.750000  1
  Bi  Bi14  1  0.612704  0.001566  0.250000  1
  Bi  Bi15  1  0.606345  0.608877  0.750000  1
