# generated using pymatgen
data_Zr16Co4ReRh3
_symmetry_space_group_name_H-M   'P 1'
_cell_length_a   8.69324576
_cell_length_b   8.69912504
_cell_length_c   8.69912600
_cell_angle_alpha   60.00000396
_cell_angle_beta   59.97762946
_cell_angle_gamma   59.97763094
_symmetry_Int_Tables_number   1
_chemical_formula_structural   Zr16Co4ReRh3
_chemical_formula_sum   'Zr16 Co4 Re1 Rh3'
_cell_volume   465.01958155
_cell_formula_units_Z   1
loop_
 _symmetry_equiv_pos_site_id
 _symmetry_equiv_pos_as_xyz
  1  'x, y, z'
loop_
 _atom_site_type_symbol
 _atom_site_label
 _atom_site_symmetry_multiplicity
 _atom_site_fract_x
 _atom_site_fract_y
 _atom_site_fract_z
 _atom_site_occupancy
  Zr  Zr0  1  0.060788  0.646404  0.646404  1
  Zr  Zr1  1  0.649707  0.053512  0.648391  1
  Zr  Zr2  1  0.649707  0.648391  0.053512  1
  Zr  Zr3  1  0.649707  0.648391  0.648391  1
  Zr  Zr4  1  0.803615  0.798720  0.198833  1
  Zr  Zr5  1  0.198496  0.198371  0.801567  1
  Zr  Zr6  1  0.803615  0.198833  0.798720  1
  Zr  Zr7  1  0.198496  0.801567  0.198371  1
  Zr  Zr8  1  0.198496  0.801567  0.801567  1
  Zr  Zr9  1  0.803615  0.198833  0.198833  1
  Zr  Zr10  1  0.434937  0.436498  0.064282  1
  Zr  Zr11  1  0.057669  0.070036  0.436147  1
  Zr  Zr12  1  0.434937  0.064282  0.436498  1
  Zr  Zr13  1  0.057669  0.436147  0.070036  1
  Zr  Zr14  1  0.057669  0.436147  0.436147  1
  Zr  Zr15  1  0.434937  0.064282  0.064282  1
  Co  Co16  1  0.420967  0.859677  0.859677  1
  Co  Co17  1  0.861174  0.423514  0.857655  1
  Co  Co18  1  0.861174  0.857655  0.423514  1
  Co  Co19  1  0.861174  0.857655  0.857655  1
  Re  Re20  1  0.743431  0.418857  0.418857  1
  Rh  Rh21  1  0.419340  0.749813  0.415424  1
  Rh  Rh22  1  0.419340  0.415424  0.749813  1
  Rh  Rh23  1  0.419340  0.415424  0.415424  1
