# generated using pymatgen
data_K2MgTi(ZnAs2)2
_symmetry_space_group_name_H-M   'P 1'
_cell_length_a   7.75057891
_cell_length_b   7.75057826
_cell_length_c   5.94298400
_cell_angle_alpha   90.00000000
_cell_angle_beta   90.00000000
_cell_angle_gamma   134.85364867
_symmetry_Int_Tables_number   1
_chemical_formula_structural   K2MgTi(ZnAs2)2
_chemical_formula_sum   'K2 Mg1 Ti1 Zn2 As4'
_cell_volume   253.08377639
_cell_formula_units_Z   1
loop_
 _symmetry_equiv_pos_site_id
 _symmetry_equiv_pos_as_xyz
  1  'x, y, z'
loop_
 _atom_site_type_symbol
 _atom_site_label
 _atom_site_symmetry_multiplicity
 _atom_site_fract_x
 _atom_site_fract_y
 _atom_site_fract_z
 _atom_site_occupancy
  K  K0  1  0.500000  0.000000  0.251471  1
  K  K1  1  0.000000  0.500000  0.748529  1
  Mg  Mg2  1  0.500000  0.500000  0.500000  1
  Ti  Ti3  1  0.000000  0.000000  0.000000  1
  Zn  Zn4  1  0.500000  0.500000  0.000000  1
  Zn  Zn5  1  0.000000  0.000000  0.500000  1
  As  As6  1  0.657697  0.867782  0.763007  1
  As  As7  1  0.132218  0.342303  0.236993  1
  As  As8  1  0.867782  0.657697  0.236993  1
  As  As9  1  0.342303  0.132218  0.763007  1
