# generated using pymatgen
data_Ac16Yb4Si15Ag
_symmetry_space_group_name_H-M   'P 1'
_cell_length_a   8.08189396
_cell_length_b   8.35842167
_cell_length_c   16.10356937
_cell_angle_alpha   90.08831073
_cell_angle_beta   90.49395934
_cell_angle_gamma   90.15954275
_symmetry_Int_Tables_number   1
_chemical_formula_structural   Ac16Yb4Si15Ag
_chemical_formula_sum   'Ac16 Yb4 Si15 Ag1'
_cell_volume   1087.78037104
_cell_formula_units_Z   1
loop_
 _symmetry_equiv_pos_site_id
 _symmetry_equiv_pos_as_xyz
  1  'x, y, z'
loop_
 _atom_site_type_symbol
 _atom_site_label
 _atom_site_symmetry_multiplicity
 _atom_site_fract_x
 _atom_site_fract_y
 _atom_site_fract_z
 _atom_site_occupancy
  Ac  Ac0  1  0.310646  0.182519  0.123239  1
  Ac  Ac1  1  0.816095  0.322136  0.376271  1
  Ac  Ac2  1  0.188505  0.684858  0.877473  1
  Ac  Ac3  1  0.683122  0.820761  0.624802  1
  Ac  Ac4  1  0.315320  0.181636  0.374789  1
  Ac  Ac5  1  0.811094  0.315668  0.123104  1
  Ac  Ac6  1  0.187932  0.678859  0.620604  1
  Ac  Ac7  1  0.689242  0.815801  0.877720  1
  Ac  Ac8  1  0.960395  0.814890  0.397830  1
  Ac  Ac9  1  0.456496  0.689141  0.102187  1
  Ac  Ac10  1  0.534285  0.311669  0.603357  1
  Ac  Ac11  1  0.043261  0.188700  0.898930  1
  Ac  Ac12  1  0.042624  0.186600  0.602715  1
  Ac  Ac13  1  0.542845  0.311570  0.898956  1
  Ac  Ac14  1  0.461804  0.686395  0.395877  1
  Ac  Ac15  1  0.955812  0.810086  0.102364  1
  Yb  Yb16  1  0.359814  0.019752  0.749771  1
  Yb  Yb17  1  0.857941  0.481088  0.750330  1
  Yb  Yb18  1  0.141005  0.518999  0.251297  1
  Yb  Yb19  1  0.640662  0.980366  0.251181  1
  Si  Si20  1  0.368792  0.976529  0.961702  1
  Si  Si21  1  0.633711  0.026253  0.460924  1
  Si  Si22  1  0.132208  0.475273  0.038094  1
  Si  Si23  1  0.146770  0.476245  0.456566  1
  Si  Si24  1  0.631544  0.023910  0.038184  1
  Si  Si25  1  0.366382  0.974122  0.535622  1
  Si  Si26  1  0.869380  0.523517  0.962027  1
  Si  Si27  1  0.981967  0.915407  0.751825  1
  Si  Si28  1  0.479683  0.585018  0.751899  1
  Si  Si29  1  0.519826  0.415304  0.248870  1
  Si  Si30  1  0.016622  0.084696  0.249042  1
  Si  Si31  1  0.253703  0.380104  0.752324  1
  Si  Si32  1  0.756271  0.120955  0.752106  1
  Si  Si33  1  0.243124  0.877879  0.248451  1
  Si  Si34  1  0.746534  0.620490  0.248008  1
  Ag  Ag35  1  0.854583  0.522803  0.541558  1
