# generated using pymatgen
data_Zr6Al16Fe(Cu2Ru)2
_symmetry_space_group_name_H-M   'P 1'
_cell_length_a   8.68690052
_cell_length_b   8.62676937
_cell_length_c   8.68690172
_cell_angle_alpha   60.22871917
_cell_angle_beta   59.43772672
_cell_angle_gamma   60.22871830
_symmetry_Int_Tables_number   1
_chemical_formula_structural   Zr6Al16Fe(Cu2Ru)2
_chemical_formula_sum   'Zr6 Al16 Fe1 Cu4 Ru2'
_cell_volume   459.90029975
_cell_formula_units_Z   1
loop_
 _symmetry_equiv_pos_site_id
 _symmetry_equiv_pos_as_xyz
  1  'x, y, z'
loop_
 _atom_site_type_symbol
 _atom_site_label
 _atom_site_symmetry_multiplicity
 _atom_site_fract_x
 _atom_site_fract_y
 _atom_site_fract_z
 _atom_site_occupancy
  Zr  Zr0  1  0.192186  0.810310  0.807814  1
  Zr  Zr1  1  0.807814  0.189690  0.192186  1
  Zr  Zr2  1  0.796688  0.203312  0.796688  1
  Zr  Zr3  1  0.807814  0.810310  0.192186  1
  Zr  Zr4  1  0.203312  0.796688  0.203312  1
  Zr  Zr5  1  0.192186  0.189690  0.807814  1
  Al  Al6  1  0.834046  0.835907  0.834046  1
  Al  Al7  1  0.830174  0.836563  0.496699  1
  Al  Al8  1  0.496699  0.836563  0.830174  1
  Al  Al9  1  0.834046  0.496000  0.834046  1
  Al  Al10  1  0.165954  0.164093  0.165954  1
  Al  Al11  1  0.169826  0.163437  0.503301  1
  Al  Al12  1  0.165954  0.504000  0.165954  1
  Al  Al13  1  0.503301  0.163437  0.169826  1
  Al  Al14  1  0.613129  0.631027  0.613129  1
  Al  Al15  1  0.626636  0.615145  0.143075  1
  Al  Al16  1  0.143075  0.615145  0.626636  1
  Al  Al17  1  0.613129  0.142716  0.613129  1
  Al  Al18  1  0.386871  0.368973  0.386871  1
  Al  Al19  1  0.373364  0.384855  0.856925  1
  Al  Al20  1  0.386871  0.857284  0.386871  1
  Al  Al21  1  0.856925  0.384855  0.373364  1
  Fe  Fe22  1  0.500000  0.000000  0.500000  1
  Cu  Cu23  1  0.000000  0.500000  0.500000  1
  Cu  Cu24  1  0.500000  0.000000  0.000000  1
  Cu  Cu25  1  0.500000  0.500000  0.000000  1
  Cu  Cu26  1  0.000000  0.000000  0.500000  1
  Ru  Ru27  1  0.000000  0.500000  0.000000  1
  Ru  Ru28  1  0.500000  0.500000  0.500000  1
