# generated using pymatgen
data_Ho3Tl4Cd
_symmetry_space_group_name_H-M   'P 1'
_cell_length_a   6.39148769
_cell_length_b   6.39148815
_cell_length_c   10.71529200
_cell_angle_alpha   90.00000000
_cell_angle_beta   90.00000000
_cell_angle_gamma   103.82654022
_symmetry_Int_Tables_number   1
_chemical_formula_structural   Ho3Tl4Cd
_chemical_formula_sum   'Ho6 Tl8 Cd2'
_cell_volume   425.04780528
_cell_formula_units_Z   2
loop_
 _symmetry_equiv_pos_site_id
 _symmetry_equiv_pos_as_xyz
  1  'x, y, z'
loop_
 _atom_site_type_symbol
 _atom_site_label
 _atom_site_symmetry_multiplicity
 _atom_site_fract_x
 _atom_site_fract_y
 _atom_site_fract_z
 _atom_site_occupancy
  Ho  Ho0  1  0.608524  0.608524  0.250000  1
  Ho  Ho1  1  0.391476  0.391476  0.750000  1
  Ho  Ho2  1  0.205960  0.794040  0.500000  1
  Ho  Ho3  1  0.205960  0.794040  0.000000  1
  Ho  Ho4  1  0.794040  0.205960  0.500000  1
  Ho  Ho5  1  0.794040  0.205960  0.000000  1
  Tl  Tl6  1  0.301119  0.301119  0.034986  1
  Tl  Tl7  1  0.698881  0.698881  0.965014  1
  Tl  Tl8  1  0.301119  0.301119  0.465014  1
  Tl  Tl9  1  0.698881  0.698881  0.534986  1
  Tl  Tl10  1  0.522878  0.069636  0.250000  1
  Tl  Tl11  1  0.930364  0.477122  0.750000  1
  Tl  Tl12  1  0.477122  0.930364  0.750000  1
  Tl  Tl13  1  0.069636  0.522878  0.250000  1
  Cd  Cd14  1  0.011873  0.011873  0.250000  1
  Cd  Cd15  1  0.988127  0.988127  0.750000  1
