# generated using pymatgen
data_Nd6MgCo17P12
_symmetry_space_group_name_H-M   'P 1'
_cell_length_a   3.79620400
_cell_length_b   10.73745900
_cell_length_c   12.48593400
_cell_angle_alpha   90.00000000
_cell_angle_beta   90.00000000
_cell_angle_gamma   90.00000000
_symmetry_Int_Tables_number   1
_chemical_formula_structural   Nd6MgCo17P12
_chemical_formula_sum   'Nd6 Mg1 Co17 P12'
_cell_volume   508.94645762
_cell_formula_units_Z   1
loop_
 _symmetry_equiv_pos_site_id
 _symmetry_equiv_pos_as_xyz
  1  'x, y, z'
loop_
 _atom_site_type_symbol
 _atom_site_label
 _atom_site_symmetry_multiplicity
 _atom_site_fract_x
 _atom_site_fract_y
 _atom_site_fract_z
 _atom_site_occupancy
  Nd  Nd0  1  0.000000  0.500000  0.525043  1
  Nd  Nd1  1  0.500000  0.000000  0.479293  1
  Nd  Nd2  1  0.500000  0.819906  0.207261  1
  Nd  Nd3  1  0.500000  0.180094  0.207261  1
  Nd  Nd4  1  0.000000  0.683440  0.794815  1
  Nd  Nd5  1  0.000000  0.316560  0.794815  1
  Mg  Mg6  1  0.500000  0.500000  0.151062  1
  Co  Co7  1  0.000000  0.000000  0.840560  1
  Co  Co8  1  0.500000  0.500000  0.705522  1
  Co  Co9  1  0.000000  0.000000  0.294671  1
  Co  Co10  1  0.000000  0.500000  0.986230  1
  Co  Co11  1  0.500000  0.000000  0.011243  1
  Co  Co12  1  0.500000  0.329192  0.993620  1
  Co  Co13  1  0.500000  0.670808  0.993620  1
  Co  Co14  1  0.000000  0.162570  0.000948  1
  Co  Co15  1  0.000000  0.837430  0.000948  1
  Co  Co16  1  0.500000  0.295851  0.432536  1
  Co  Co17  1  0.500000  0.704149  0.432536  1
  Co  Co18  1  0.000000  0.202215  0.570762  1
  Co  Co19  1  0.000000  0.797785  0.570762  1
  Co  Co20  1  0.500000  0.882310  0.710048  1
  Co  Co21  1  0.500000  0.117690  0.710048  1
  Co  Co22  1  0.000000  0.620471  0.294692  1
  Co  Co23  1  0.000000  0.379529  0.294692  1
  P  P24  1  0.500000  0.500000  0.886246  1
  P  P25  1  0.000000  0.000000  0.112972  1
  P  P26  1  0.500000  0.500000  0.349634  1
  P  P27  1  0.000000  0.000000  0.660015  1
  P  P28  1  0.500000  0.304398  0.615267  1
  P  P29  1  0.500000  0.695602  0.615267  1
  P  P30  1  0.000000  0.194113  0.387820  1
  P  P31  1  0.000000  0.805887  0.387820  1
  P  P32  1  0.500000  0.851314  0.892577  1
  P  P33  1  0.500000  0.148686  0.892577  1
  P  P34  1  0.000000  0.661404  0.098405  1
  P  P35  1  0.000000  0.338596  0.098405  1
