# generated using pymatgen
data_SmGdTcC2
_symmetry_space_group_name_H-M   'P 1'
_cell_length_a   5.20653200
_cell_length_b   6.62526800
_cell_length_c   10.05575900
_cell_angle_alpha   90.00000000
_cell_angle_beta   90.00000000
_cell_angle_gamma   90.00000000
_symmetry_Int_Tables_number   1
_chemical_formula_structural   SmGdTcC2
_chemical_formula_sum   'Sm4 Gd4 Tc4 C8'
_cell_volume   346.87008680
_cell_formula_units_Z   4
loop_
 _symmetry_equiv_pos_site_id
 _symmetry_equiv_pos_as_xyz
  1  'x, y, z'
loop_
 _atom_site_type_symbol
 _atom_site_label
 _atom_site_symmetry_multiplicity
 _atom_site_fract_x
 _atom_site_fract_y
 _atom_site_fract_z
 _atom_site_occupancy
  Sm  Sm0  1  0.750000  0.815037  0.054352  1
  Sm  Sm1  1  0.250000  0.184963  0.945648  1
  Sm  Sm2  1  0.750000  0.315037  0.445648  1
  Sm  Sm3  1  0.250000  0.684963  0.554352  1
  Gd  Gd4  1  0.750000  0.471398  0.783407  1
  Gd  Gd5  1  0.250000  0.028602  0.283407  1
  Gd  Gd6  1  0.750000  0.971398  0.716593  1
  Gd  Gd7  1  0.250000  0.528602  0.216593  1
  Tc  Tc8  1  0.750000  0.776423  0.362382  1
  Tc  Tc9  1  0.250000  0.723577  0.862382  1
  Tc  Tc10  1  0.250000  0.223577  0.637618  1
  Tc  Tc11  1  0.750000  0.276423  0.137618  1
  C  C12  1  0.250000  0.958820  0.742533  1
  C  C13  1  0.750000  0.541180  0.242533  1
  C  C14  1  0.250000  0.458820  0.757467  1
  C  C15  1  0.750000  0.041180  0.257467  1
  C  C16  1  0.250000  0.314044  0.455803  1
  C  C17  1  0.750000  0.185956  0.955803  1
  C  C18  1  0.250000  0.814044  0.044197  1
  C  C19  1  0.750000  0.685956  0.544197  1
