# generated using pymatgen
data_La3Nd7Tc2I15
_symmetry_space_group_name_H-M   'P 1'
_cell_length_a   10.22477452
_cell_length_b   11.08205805
_cell_length_c   11.80823069
_cell_angle_alpha   90.85249841
_cell_angle_beta   114.44403672
_cell_angle_gamma   110.51848837
_symmetry_Int_Tables_number   1
_chemical_formula_structural   La3Nd7Tc2I15
_chemical_formula_sum   'La3 Nd7 Tc2 I15'
_cell_volume   1120.55482854
_cell_formula_units_Z   1
loop_
 _symmetry_equiv_pos_site_id
 _symmetry_equiv_pos_as_xyz
  1  'x, y, z'
loop_
 _atom_site_type_symbol
 _atom_site_label
 _atom_site_symmetry_multiplicity
 _atom_site_fract_x
 _atom_site_fract_y
 _atom_site_fract_z
 _atom_site_occupancy
  La  La0  1  0.169263  0.248405  0.821605  1
  La  La1  1  0.978395  0.788592  0.919849  1
  La  La2  1  0.020568  0.210100  0.080717  1
  Nd  Nd3  1  0.245120  0.588022  0.057305  1
  Nd  Nd4  1  0.761407  0.414662  0.943939  1
  Nd  Nd5  1  0.296253  0.903617  0.274357  1
  Nd  Nd6  1  0.702236  0.093570  0.724863  1
  Nd  Nd7  1  0.085375  0.554414  0.321211  1
  Nd  Nd8  1  0.912973  0.447500  0.677905  1
  Nd  Nd9  1  0.831960  0.751853  0.178921  1
  Tc  Tc10  1  0.027850  0.678550  0.101977  1
  Tc  Tc11  1  0.976258  0.318805  0.896873  1
  I  I12  1  0.330885  0.447685  0.300787  1
  I  I13  1  0.666803  0.551014  0.698886  1
  I  I14  1  0.203972  0.727219  0.813990  1
  I  I15  1  0.795348  0.273431  0.184533  1
  I  I16  1  0.136165  0.388240  0.580081  1
  I  I17  1  0.859273  0.614859  0.415700  1
  I  I18  1  0.384683  0.798418  0.530278  1
  I  I19  1  0.614948  0.201888  0.470757  1
  I  I20  1  0.271144  0.088840  0.059048  1
  I  I21  1  0.728082  0.910198  0.944228  1
  I  I22  1  0.564780  0.848083  0.229136  1
  I  I23  1  0.438173  0.153802  0.772912  1
  I  I24  1  0.089817  0.035990  0.335321  1
  I  I25  1  0.903961  0.959833  0.662721  1
  I  I26  1  0.504307  0.502413  0.002099  1
