# generated using pymatgen
data_Rb8Li4Y3InSb8
_symmetry_space_group_name_H-M   'P 1'
_cell_length_a   11.17813217
_cell_length_b   11.17813106
_cell_length_c   7.19610513
_cell_angle_alpha   89.98112775
_cell_angle_beta   90.01887189
_cell_angle_gamma   100.06880909
_symmetry_Int_Tables_number   1
_chemical_formula_structural   Rb8Li4Y3InSb8
_chemical_formula_sum   'Rb8 Li4 Y3 In1 Sb8'
_cell_volume   885.30938250
_cell_formula_units_Z   1
loop_
 _symmetry_equiv_pos_site_id
 _symmetry_equiv_pos_as_xyz
  1  'x, y, z'
loop_
 _atom_site_type_symbol
 _atom_site_label
 _atom_site_symmetry_multiplicity
 _atom_site_fract_x
 _atom_site_fract_y
 _atom_site_fract_z
 _atom_site_occupancy
  Rb  Rb0  1  0.571131  0.928989  0.747208  1
  Rb  Rb1  1  0.928989  0.571131  0.252792  1
  Rb  Rb2  1  0.429413  0.078680  0.256488  1
  Rb  Rb3  1  0.078680  0.429413  0.743512  1
  Rb  Rb4  1  0.669858  0.322867  0.773088  1
  Rb  Rb5  1  0.824676  0.175474  0.280400  1
  Rb  Rb6  1  0.322867  0.669858  0.226912  1
  Rb  Rb7  1  0.175474  0.824676  0.719600  1
  Li  Li8  1  0.618236  0.618236  0.000000  1
  Li  Li9  1  0.879060  0.879060  0.500000  1
  Li  Li10  1  0.379141  0.379141  0.000000  1
  Li  Li11  1  0.123283  0.123283  0.500000  1
  Y  Y12  1  0.869017  0.869017  0.000000  1
  Y  Y13  1  0.625273  0.625273  0.500000  1
  Y  Y14  1  0.131524  0.131524  0.000000  1
  In  In15  1  0.373968  0.373968  0.500000  1
  Sb  Sb16  1  0.348864  0.158372  0.744658  1
  Sb  Sb17  1  0.158372  0.348864  0.255342  1
  Sb  Sb18  1  0.651098  0.845083  0.249865  1
  Sb  Sb19  1  0.845083  0.651098  0.750135  1
  Sb  Sb20  1  0.905602  0.096444  0.760585  1
  Sb  Sb21  1  0.592289  0.401657  0.260204  1
  Sb  Sb22  1  0.096444  0.905602  0.239415  1
  Sb  Sb23  1  0.401657  0.592289  0.739796  1
