# generated using pymatgen
data_SrEr2Ni2Ir7
_symmetry_space_group_name_H-M   'P 1'
_cell_length_a   8.99209102
_cell_length_b   8.99209152
_cell_length_c   8.99209100
_cell_angle_alpha   34.30120382
_cell_angle_beta   34.30119919
_cell_angle_gamma   34.30120684
_symmetry_Int_Tables_number   1
_chemical_formula_structural   SrEr2Ni2Ir7
_chemical_formula_sum   'Sr1 Er2 Ni2 Ir7'
_cell_volume   205.92848322
_cell_formula_units_Z   1
loop_
 _symmetry_equiv_pos_site_id
 _symmetry_equiv_pos_as_xyz
  1  'x, y, z'
loop_
 _atom_site_type_symbol
 _atom_site_label
 _atom_site_symmetry_multiplicity
 _atom_site_fract_x
 _atom_site_fract_y
 _atom_site_fract_z
 _atom_site_occupancy
  Sr  Sr0  1  0.000000  0.000000  0.000000  1
  Er  Er1  1  0.860339  0.860339  0.860339  1
  Er  Er2  1  0.139661  0.139661  0.139661  1
  Ni  Ni3  1  0.666756  0.666756  0.666756  1
  Ni  Ni4  1  0.333244  0.333244  0.333244  1
  Ir  Ir5  1  0.417382  0.921599  0.417382  1
  Ir  Ir6  1  0.417382  0.417382  0.921599  1
  Ir  Ir7  1  0.921599  0.417382  0.417382  1
  Ir  Ir8  1  0.582618  0.078401  0.582618  1
  Ir  Ir9  1  0.582618  0.582618  0.078401  1
  Ir  Ir10  1  0.078401  0.582618  0.582618  1
  Ir  Ir11  1  0.500000  0.500000  0.500000  1
