# generated using pymatgen
data_Ho16Er4(Ir3Rh)3
_symmetry_space_group_name_H-M   'P 1'
_cell_length_a   10.82803400
_cell_length_b   10.82803400
_cell_length_c   6.35490400
_cell_angle_alpha   90.00000000
_cell_angle_beta   90.00000000
_cell_angle_gamma   90.00000000
_symmetry_Int_Tables_number   1
_chemical_formula_structural   Ho16Er4(Ir3Rh)3
_chemical_formula_sum   'Ho16 Er4 Ir9 Rh3'
_cell_volume   745.08910989
_cell_formula_units_Z   1
loop_
 _symmetry_equiv_pos_site_id
 _symmetry_equiv_pos_as_xyz
  1  'x, y, z'
loop_
 _atom_site_type_symbol
 _atom_site_label
 _atom_site_symmetry_multiplicity
 _atom_site_fract_x
 _atom_site_fract_y
 _atom_site_fract_z
 _atom_site_occupancy
  Ho  Ho0  1  0.290258  0.088265  0.378174  1
  Ho  Ho1  1  0.290225  0.911616  0.878159  1
  Ho  Ho2  1  0.709775  0.088384  0.878159  1
  Ho  Ho3  1  0.709742  0.911735  0.378174  1
  Ho  Ho4  1  0.588384  0.790225  0.878159  1
  Ho  Ho5  1  0.588265  0.209742  0.378174  1
  Ho  Ho6  1  0.411735  0.790258  0.378174  1
  Ho  Ho7  1  0.411616  0.209775  0.878159  1
  Ho  Ho8  1  0.209209  0.411840  0.621244  1
  Ho  Ho9  1  0.209381  0.588292  0.122728  1
  Ho  Ho10  1  0.790619  0.411708  0.122728  1
  Ho  Ho11  1  0.790791  0.588160  0.621244  1
  Ho  Ho12  1  0.911708  0.709381  0.122728  1
  Ho  Ho13  1  0.911840  0.290791  0.621244  1
  Ho  Ho14  1  0.088160  0.709209  0.621244  1
  Ho  Ho15  1  0.088292  0.290619  0.122728  1
  Er  Er16  1  0.000000  0.000000  0.500091  1
  Er  Er17  1  0.000000  0.000000  0.000046  1
  Er  Er18  1  0.500000  0.500000  0.000046  1
  Er  Er19  1  0.500000  0.500000  0.500091  1
  Ir  Ir20  1  0.846373  0.153036  0.249768  1
  Ir  Ir21  1  0.846443  0.846867  0.749892  1
  Ir  Ir22  1  0.153557  0.153133  0.749892  1
  Ir  Ir23  1  0.153627  0.846964  0.249768  1
  Ir  Ir24  1  0.653133  0.346443  0.749892  1
  Ir  Ir25  1  0.653036  0.653627  0.249768  1
  Ir  Ir26  1  0.346964  0.346373  0.249768  1
  Ir  Ir27  1  0.346867  0.653557  0.749892  1
  Ir  Ir28  1  0.000000  0.500000  0.377411  1
  Rh  Rh29  1  0.500000  0.000000  0.122346  1
  Rh  Rh30  1  0.500000  0.000000  0.622348  1
  Rh  Rh31  1  0.000000  0.500000  0.877758  1
