# generated using pymatgen
data_Zr10Bi3Pb3Se
_symmetry_space_group_name_H-M   'P 1'
_cell_length_a   5.90882600
_cell_length_b   8.69787329
_cell_length_c   8.69789700
_cell_angle_alpha   119.99966043
_cell_angle_beta   90.00014545
_cell_angle_gamma   89.99978235
_symmetry_Int_Tables_number   1
_chemical_formula_structural   Zr10Bi3Pb3Se
_chemical_formula_sum   'Zr10 Bi3 Pb3 Se1'
_cell_volume   387.13341265
_cell_formula_units_Z   1
loop_
 _symmetry_equiv_pos_site_id
 _symmetry_equiv_pos_as_xyz
  1  'x, y, z'
loop_
 _atom_site_type_symbol
 _atom_site_label
 _atom_site_symmetry_multiplicity
 _atom_site_fract_x
 _atom_site_fract_y
 _atom_site_fract_z
 _atom_site_occupancy
  Zr  Zr0  1  0.498115  0.333343  0.666679  1
  Zr  Zr1  1  0.498105  0.666678  0.333324  1
  Zr  Zr2  1  0.002694  0.666673  0.333347  1
  Zr  Zr3  1  0.002676  0.333358  0.666676  1
  Zr  Zr4  1  0.768346  0.252746  0.000003  1
  Zr  Zr5  1  0.768380  0.747244  0.747251  1
  Zr  Zr6  1  0.768290  0.999990  0.252733  1
  Zr  Zr7  1  0.231080  0.744943  0.999984  1
  Zr  Zr8  1  0.231102  0.255051  0.255047  1
  Zr  Zr9  1  0.231079  0.000010  0.744959  1
  Bi  Bi10  1  0.747589  0.607117  0.999997  1
  Bi  Bi11  1  0.747613  0.392862  0.392854  1
  Bi  Bi12  1  0.747591  0.999988  0.607119  1
  Pb  Pb13  1  0.253320  0.389914  0.999993  1
  Pb  Pb14  1  0.253288  0.610105  0.610105  1
  Pb  Pb15  1  0.253330  0.999997  0.389934  1
  Se  Se16  1  0.497401  0.999984  0.999991  1
