# generated using pymatgen
data_Nd20Ru7Pt5
_symmetry_space_group_name_H-M   'P 1'
_cell_length_a   11.26499119
_cell_length_b   11.26499178
_cell_length_c   6.62200291
_cell_angle_alpha   90.09268455
_cell_angle_beta   90.09268939
_cell_angle_gamma   89.78931958
_symmetry_Int_Tables_number   1
_chemical_formula_structural   Nd20Ru7Pt5
_chemical_formula_sum   'Nd20 Ru7 Pt5'
_cell_volume   840.32451689
_cell_formula_units_Z   1
loop_
 _symmetry_equiv_pos_site_id
 _symmetry_equiv_pos_as_xyz
  1  'x, y, z'
loop_
 _atom_site_type_symbol
 _atom_site_label
 _atom_site_symmetry_multiplicity
 _atom_site_fract_x
 _atom_site_fract_y
 _atom_site_fract_z
 _atom_site_occupancy
  Nd  Nd0  1  0.295825  0.089765  0.374524  1
  Nd  Nd1  1  0.296528  0.908711  0.873428  1
  Nd  Nd2  1  0.702095  0.084334  0.872684  1
  Nd  Nd3  1  0.703101  0.909161  0.374785  1
  Nd  Nd4  1  0.585356  0.789014  0.881828  1
  Nd  Nd5  1  0.583597  0.206466  0.375661  1
  Nd  Nd6  1  0.413411  0.792467  0.381167  1
  Nd  Nd7  1  0.410782  0.207332  0.883365  1
  Nd  Nd8  1  0.210986  0.414644  0.618172  1
  Nd  Nd9  1  0.207533  0.586589  0.118833  1
  Nd  Nd10  1  0.793534  0.416403  0.124339  1
  Nd  Nd11  1  0.792668  0.589218  0.616635  1
  Nd  Nd12  1  0.910235  0.704175  0.125476  1
  Nd  Nd13  1  0.915666  0.297905  0.627316  1
  Nd  Nd14  1  0.091289  0.703472  0.626572  1
  Nd  Nd15  1  0.090839  0.296899  0.125215  1
  Nd  Nd16  1  0.999488  0.999487  0.498920  1
  Nd  Nd17  1  0.000513  0.000512  0.001080  1
  Nd  Nd18  1  0.497479  0.501386  0.001206  1
  Nd  Nd19  1  0.498614  0.502521  0.498794  1
  Ru  Ru20  1  0.653357  0.652205  0.249848  1
  Ru  Ru21  1  0.347795  0.346643  0.250152  1
  Ru  Ru22  1  0.346016  0.653984  0.750000  1
  Ru  Ru23  1  0.500091  0.000512  0.117767  1
  Ru  Ru24  1  0.500359  0.000507  0.619376  1
  Ru  Ru25  1  0.999493  0.499641  0.880624  1
  Ru  Ru26  1  0.999488  0.499909  0.382233  1
  Pt  Pt27  1  0.846738  0.153262  0.250000  1
  Pt  Pt28  1  0.848442  0.848744  0.750416  1
  Pt  Pt29  1  0.151256  0.151558  0.749584  1
  Pt  Pt30  1  0.152578  0.847422  0.250000  1
  Pt  Pt31  1  0.654844  0.345156  0.750000  1
