# generated using pymatgen
data_Cs4Rb2ErInAs4
_symmetry_space_group_name_H-M   'P 1'
_cell_length_a   10.00694566
_cell_length_b   10.00694507
_cell_length_c   10.00694612
_cell_angle_alpha   130.73266823
_cell_angle_beta   138.31023976
_cell_angle_gamma   66.46635116
_symmetry_Int_Tables_number   1
_chemical_formula_structural   Cs4Rb2ErInAs4
_chemical_formula_sum   'Cs4 Rb2 Er1 In1 As4'
_cell_volume   497.27896168
_cell_formula_units_Z   1
loop_
 _symmetry_equiv_pos_site_id
 _symmetry_equiv_pos_as_xyz
  1  'x, y, z'
loop_
 _atom_site_type_symbol
 _atom_site_label
 _atom_site_symmetry_multiplicity
 _atom_site_fract_x
 _atom_site_fract_y
 _atom_site_fract_z
 _atom_site_occupancy
  Cs  Cs0  1  0.684505  0.465089  0.789813  1
  Cs  Cs1  1  0.815495  0.105308  0.280585  1
  Cs  Cs2  1  0.175277  0.894692  0.710187  1
  Cs  Cs3  1  0.324723  0.534911  0.219415  1
  Rb  Rb4  1  0.750000  0.000000  0.750000  1
  Rb  Rb5  1  0.250000  0.000000  0.250000  1
  Er  Er6  1  0.250000  0.500000  0.750000  1
  In  In7  1  0.750000  0.500000  0.250000  1
  As  As8  1  0.412898  0.221472  0.817824  1
  As  As9  1  0.596353  0.778528  0.191427  1
  As  As10  1  0.087102  0.404926  0.308573  1
  As  As11  1  0.903647  0.595074  0.682176  1
