# generated using pymatgen
data_Li4Tm4Co9Ni7P12
_symmetry_space_group_name_H-M   'P 1'
_cell_length_a   3.69314700
_cell_length_b   10.27831350
_cell_length_c   11.92193244
_cell_angle_alpha   90.02379895
_cell_angle_beta   90.00000000
_cell_angle_gamma   90.00000000
_symmetry_Int_Tables_number   1
_chemical_formula_structural   Li4Tm4Co9Ni7P12
_chemical_formula_sum   'Li4 Tm4 Co9 Ni7 P12'
_cell_volume   452.54844142
_cell_formula_units_Z   1
loop_
 _symmetry_equiv_pos_site_id
 _symmetry_equiv_pos_as_xyz
  1  'x, y, z'
loop_
 _atom_site_type_symbol
 _atom_site_label
 _atom_site_symmetry_multiplicity
 _atom_site_fract_x
 _atom_site_fract_y
 _atom_site_fract_z
 _atom_site_occupancy
  Li  Li0  1  0.250000  0.703517  0.992137  1
  Li  Li1  1  0.250000  0.797807  0.491589  1
  Li  Li2  1  0.750000  0.296588  0.008477  1
  Li  Li3  1  0.750000  0.203485  0.508077  1
  Tm  Tm4  1  0.250000  0.580242  0.706787  1
  Tm  Tm5  1  0.250000  0.919129  0.206327  1
  Tm  Tm6  1  0.750000  0.420217  0.294916  1
  Tm  Tm7  1  0.750000  0.080370  0.793619  1
  Co  Co8  1  0.750000  0.720446  0.325416  1
  Co  Co9  1  0.250000  0.878833  0.700089  1
  Co  Co10  1  0.250000  0.620381  0.198925  1
  Co  Co11  1  0.750000  0.119503  0.300374  1
  Co  Co12  1  0.750000  0.379227  0.800049  1
  Co  Co13  1  0.250000  0.466523  0.932427  1
  Co  Co14  1  0.250000  0.033318  0.432285  1
  Co  Co15  1  0.750000  0.533420  0.068085  1
  Co  Co16  1  0.750000  0.966523  0.567650  1
  Ni  Ni17  1  0.250000  0.407871  0.486314  1
  Ni  Ni18  1  0.250000  0.093643  0.986717  1
  Ni  Ni19  1  0.750000  0.594038  0.514446  1
  Ni  Ni20  1  0.750000  0.906252  0.012803  1
  Ni  Ni21  1  0.250000  0.220799  0.173856  1
  Ni  Ni22  1  0.250000  0.278063  0.673941  1
  Ni  Ni23  1  0.750000  0.778544  0.825924  1
  P  P24  1  0.250000  0.426365  0.114815  1
  P  P25  1  0.250000  0.072835  0.614255  1
  P  P26  1  0.750000  0.573220  0.885871  1
  P  P27  1  0.750000  0.922493  0.385327  1
  P  P28  1  0.250000  0.271588  0.860993  1
  P  P29  1  0.250000  0.228099  0.360648  1
  P  P30  1  0.750000  0.728724  0.140550  1
  P  P31  1  0.750000  0.771759  0.639024  1
  P  P32  1  0.250000  0.604768  0.386871  1
  P  P33  1  0.250000  0.901500  0.889273  1
  P  P34  1  0.750000  0.402148  0.610159  1
  P  P35  1  0.750000  0.097765  0.110988  1
