# generated using pymatgen
data_Dy20Cd6NiOs
_symmetry_space_group_name_H-M   'P 1'
_cell_length_a   9.60835500
_cell_length_b   9.60835517
_cell_length_c   9.80037200
_cell_angle_alpha   90.00000000
_cell_angle_beta   90.00000000
_cell_angle_gamma   119.99999598
_symmetry_Int_Tables_number   1
_chemical_formula_structural   Dy20Cd6NiOs
_chemical_formula_sum   'Dy20 Cd6 Ni1 Os1'
_cell_volume   783.55827021
_cell_formula_units_Z   1
loop_
 _symmetry_equiv_pos_site_id
 _symmetry_equiv_pos_as_xyz
  1  'x, y, z'
loop_
 _atom_site_type_symbol
 _atom_site_label
 _atom_site_symmetry_multiplicity
 _atom_site_fract_x
 _atom_site_fract_y
 _atom_site_fract_z
 _atom_site_occupancy
  Dy  Dy0  1  0.000000  0.000000  0.499878  1
  Dy  Dy1  1  0.000000  0.000000  0.000122  1
  Dy  Dy2  1  0.540560  0.459440  0.250000  1
  Dy  Dy3  1  0.540560  0.081119  0.250000  1
  Dy  Dy4  1  0.918881  0.459440  0.250000  1
  Dy  Dy5  1  0.457042  0.542958  0.750000  1
  Dy  Dy6  1  0.457042  0.914085  0.750000  1
  Dy  Dy7  1  0.085915  0.542958  0.750000  1
  Dy  Dy8  1  0.209296  0.790704  0.440171  1
  Dy  Dy9  1  0.209296  0.418593  0.440171  1
  Dy  Dy10  1  0.581407  0.790704  0.440171  1
  Dy  Dy11  1  0.788809  0.211191  0.562759  1
  Dy  Dy12  1  0.788809  0.577618  0.562759  1
  Dy  Dy13  1  0.422382  0.211191  0.562759  1
  Dy  Dy14  1  0.788809  0.211191  0.937241  1
  Dy  Dy15  1  0.788809  0.577618  0.937241  1
  Dy  Dy16  1  0.422382  0.211191  0.937241  1
  Dy  Dy17  1  0.209296  0.790704  0.059829  1
  Dy  Dy18  1  0.209296  0.418593  0.059829  1
  Dy  Dy19  1  0.581407  0.790704  0.059829  1
  Cd  Cd20  1  0.884953  0.115047  0.250000  1
  Cd  Cd21  1  0.884953  0.769905  0.250000  1
  Cd  Cd22  1  0.230095  0.115047  0.250000  1
  Cd  Cd23  1  0.115105  0.884895  0.750000  1
  Cd  Cd24  1  0.115105  0.230210  0.750000  1
  Cd  Cd25  1  0.769790  0.884895  0.750000  1
  Ni  Ni26  1  0.666667  0.333333  0.750000  1
  Os  Os27  1  0.333333  0.666667  0.250000  1
