# generated using pymatgen
data_TmZn4Rh
_symmetry_space_group_name_H-M   'P 1'
_cell_length_a   5.09139500
_cell_length_b   5.09139439
_cell_length_c   8.38298900
_cell_angle_alpha   90.00000000
_cell_angle_beta   90.00000000
_cell_angle_gamma   119.99999744
_symmetry_Int_Tables_number   1
_chemical_formula_structural   TmZn4Rh
_chemical_formula_sum   'Tm2 Zn8 Rh2'
_cell_volume   188.19282907
_cell_formula_units_Z   2
loop_
 _symmetry_equiv_pos_site_id
 _symmetry_equiv_pos_as_xyz
  1  'x, y, z'
loop_
 _atom_site_type_symbol
 _atom_site_label
 _atom_site_symmetry_multiplicity
 _atom_site_fract_x
 _atom_site_fract_y
 _atom_site_fract_z
 _atom_site_occupancy
  Tm  Tm0  1  0.666667  0.333333  0.435104  1
  Tm  Tm1  1  0.333333  0.666667  0.935104  1
  Zn  Zn2  1  0.000000  0.000000  0.001188  1
  Zn  Zn3  1  0.000000  0.000000  0.501188  1
  Zn  Zn4  1  0.170038  0.340075  0.247494  1
  Zn  Zn5  1  0.829962  0.170038  0.747494  1
  Zn  Zn6  1  0.340075  0.170038  0.747494  1
  Zn  Zn7  1  0.659925  0.829962  0.247494  1
  Zn  Zn8  1  0.170038  0.829962  0.247494  1
  Zn  Zn9  1  0.829962  0.659925  0.747494  1
  Rh  Rh10  1  0.333333  0.666667  0.571226  1
  Rh  Rh11  1  0.666667  0.333333  0.071226  1
