# generated using pymatgen
data_Ho8Ga3Os
_symmetry_space_group_name_H-M   'P 1'
_cell_length_a   9.97587900
_cell_length_b   9.97587820
_cell_length_c   7.03590700
_cell_angle_alpha   90.00000000
_cell_angle_beta   90.00000000
_cell_angle_gamma   119.99999935
_symmetry_Int_Tables_number   1
_chemical_formula_structural   Ho8Ga3Os
_chemical_formula_sum   'Ho16 Ga6 Os2'
_cell_volume   606.39140307
_cell_formula_units_Z   2
loop_
 _symmetry_equiv_pos_site_id
 _symmetry_equiv_pos_as_xyz
  1  'x, y, z'
loop_
 _atom_site_type_symbol
 _atom_site_label
 _atom_site_symmetry_multiplicity
 _atom_site_fract_x
 _atom_site_fract_y
 _atom_site_fract_z
 _atom_site_occupancy
  Ho  Ho0  1  0.171523  0.828477  0.509808  1
  Ho  Ho1  1  0.656953  0.828477  0.509808  1
  Ho  Ho2  1  0.171523  0.343047  0.509808  1
  Ho  Ho3  1  0.828477  0.171523  0.009808  1
  Ho  Ho4  1  0.343047  0.171523  0.009808  1
  Ho  Ho5  1  0.828477  0.656953  0.009808  1
  Ho  Ho6  1  0.333333  0.666667  0.839646  1
  Ho  Ho7  1  0.666667  0.333333  0.339646  1
  Ho  Ho8  1  0.465508  0.534492  0.205008  1
  Ho  Ho9  1  0.068984  0.534492  0.205008  1
  Ho  Ho10  1  0.465508  0.931016  0.205008  1
  Ho  Ho11  1  0.534492  0.465508  0.705008  1
  Ho  Ho12  1  0.931016  0.465508  0.705008  1
  Ho  Ho13  1  0.534492  0.068984  0.705008  1
  Ho  Ho14  1  0.000000  0.000000  0.233806  1
  Ho  Ho15  1  0.000000  0.000000  0.733806  1
  Ga  Ga16  1  0.163756  0.836244  0.957988  1
  Ga  Ga17  1  0.672487  0.836244  0.957988  1
  Ga  Ga18  1  0.163756  0.327513  0.957988  1
  Ga  Ga19  1  0.836244  0.163756  0.457988  1
  Ga  Ga20  1  0.327513  0.163756  0.457988  1
  Ga  Ga21  1  0.836244  0.672487  0.457988  1
  Os  Os22  1  0.333333  0.666667  0.445158  1
  Os  Os23  1  0.666667  0.333333  0.945158  1
