# generated using pymatgen
data_TbNdAg2(Ir2O7)2
_symmetry_space_group_name_H-M   'P 1'
_cell_length_a   7.41492066
_cell_length_b   7.26071020
_cell_length_c   7.26070961
_cell_angle_alpha   59.36761112
_cell_angle_beta   59.34605232
_cell_angle_gamma   59.34605555
_symmetry_Int_Tables_number   1
_chemical_formula_structural   TbNdAg2(Ir2O7)2
_chemical_formula_sum   'Tb1 Nd1 Ag2 Ir4 O14'
_cell_volume   272.33808760
_cell_formula_units_Z   1
loop_
 _symmetry_equiv_pos_site_id
 _symmetry_equiv_pos_as_xyz
  1  'x, y, z'
loop_
 _atom_site_type_symbol
 _atom_site_label
 _atom_site_symmetry_multiplicity
 _atom_site_fract_x
 _atom_site_fract_y
 _atom_site_fract_z
 _atom_site_occupancy
  Tb  Tb0  1  0.625000  0.125000  0.125000  1
  Nd  Nd1  1  0.125000  0.125000  0.125000  1
  Ag  Ag2  1  0.125000  0.625000  0.125000  1
  Ag  Ag3  1  0.125000  0.125000  0.625000  1
  Ir  Ir4  1  0.125000  0.625000  0.625000  1
  Ir  Ir5  1  0.625000  0.125000  0.625000  1
  Ir  Ir6  1  0.625000  0.625000  0.125000  1
  Ir  Ir7  1  0.625000  0.625000  0.625000  1
  O  O8  1  0.693225  0.711671  0.295682  1
  O  O9  1  0.300813  0.295875  0.703754  1
  O  O10  1  0.693225  0.295682  0.711671  1
  O  O11  1  0.300813  0.703754  0.295875  1
  O  O12  1  0.310048  0.690635  0.690635  1
  O  O13  1  0.707136  0.287907  0.287907  1
  O  O14  1  0.556775  0.538329  0.954318  1
  O  O15  1  0.949187  0.954125  0.546246  1
  O  O16  1  0.556775  0.954318  0.538329  1
  O  O17  1  0.949187  0.546246  0.954125  1
  O  O18  1  0.939952  0.559365  0.559365  1
  O  O19  1  0.542864  0.962093  0.962093  1
  O  O20  1  0.247573  0.259919  0.259919  1
  O  O21  1  0.002427  0.990081  0.990081  1
