# generated using pymatgen
data_Tb2Dy3Bi2Rh
_symmetry_space_group_name_H-M   'P 1'
_cell_length_a   8.05706800
_cell_length_b   9.01844100
_cell_length_c   12.50371700
_cell_angle_alpha   90.00000000
_cell_angle_beta   90.00000000
_cell_angle_gamma   90.00000000
_symmetry_Int_Tables_number   1
_chemical_formula_structural   Tb2Dy3Bi2Rh
_chemical_formula_sum   'Tb8 Dy12 Bi8 Rh4'
_cell_volume   908.54749026
_cell_formula_units_Z   4
loop_
 _symmetry_equiv_pos_site_id
 _symmetry_equiv_pos_as_xyz
  1  'x, y, z'
loop_
 _atom_site_type_symbol
 _atom_site_label
 _atom_site_symmetry_multiplicity
 _atom_site_fract_x
 _atom_site_fract_y
 _atom_site_fract_z
 _atom_site_occupancy
  Tb  Tb0  1  0.841407  0.750000  0.793826  1
  Tb  Tb1  1  0.158593  0.250000  0.206174  1
  Tb  Tb2  1  0.341407  0.250000  0.706174  1
  Tb  Tb3  1  0.658593  0.750000  0.293826  1
  Tb  Tb4  1  0.375141  0.750000  0.694019  1
  Tb  Tb5  1  0.624859  0.250000  0.305981  1
  Tb  Tb6  1  0.875141  0.250000  0.805981  1
  Tb  Tb7  1  0.124859  0.750000  0.194019  1
  Dy  Dy8  1  0.953268  0.750000  0.501330  1
  Dy  Dy9  1  0.046732  0.250000  0.498670  1
  Dy  Dy10  1  0.453268  0.250000  0.998670  1
  Dy  Dy11  1  0.546732  0.750000  0.001330  1
  Dy  Dy12  1  0.677961  0.041280  0.565872  1
  Dy  Dy13  1  0.322039  0.958720  0.434128  1
  Dy  Dy14  1  0.177961  0.958720  0.934128  1
  Dy  Dy15  1  0.322039  0.541280  0.434128  1
  Dy  Dy16  1  0.822039  0.041280  0.065872  1
  Dy  Dy17  1  0.677961  0.458720  0.565872  1
  Dy  Dy18  1  0.822039  0.458720  0.065872  1
  Dy  Dy19  1  0.177961  0.541280  0.934128  1
  Bi  Bi20  1  0.568978  0.491593  0.826829  1
  Bi  Bi21  1  0.431022  0.508407  0.173171  1
  Bi  Bi22  1  0.068978  0.508407  0.673171  1
  Bi  Bi23  1  0.431022  0.991593  0.173171  1
  Bi  Bi24  1  0.931022  0.491593  0.326829  1
  Bi  Bi25  1  0.568978  0.008407  0.826829  1
  Bi  Bi26  1  0.931022  0.008407  0.326829  1
  Bi  Bi27  1  0.068978  0.991593  0.673171  1
  Rh  Rh28  1  0.570585  0.750000  0.510013  1
  Rh  Rh29  1  0.429415  0.250000  0.489987  1
  Rh  Rh30  1  0.070585  0.250000  0.989987  1
  Rh  Rh31  1  0.929415  0.750000  0.010013  1
