# generated using pymatgen
data_Yb2Ga9IrPt2
_symmetry_space_group_name_H-M   'P 1'
_cell_length_a   7.65248600
_cell_length_b   7.65248699
_cell_length_c   9.57881100
_cell_angle_alpha   90.00000000
_cell_angle_beta   90.00000000
_cell_angle_gamma   119.83149970
_symmetry_Int_Tables_number   1
_chemical_formula_structural   Yb2Ga9IrPt2
_chemical_formula_sum   'Yb4 Ga18 Ir2 Pt4'
_cell_volume   486.61139635
_cell_formula_units_Z   2
loop_
 _symmetry_equiv_pos_site_id
 _symmetry_equiv_pos_as_xyz
  1  'x, y, z'
loop_
 _atom_site_type_symbol
 _atom_site_label
 _atom_site_symmetry_multiplicity
 _atom_site_fract_x
 _atom_site_fract_y
 _atom_site_fract_z
 _atom_site_occupancy
  Yb  Yb0  1  0.998072  0.668717  0.250000  1
  Yb  Yb1  1  0.001928  0.331283  0.750000  1
  Yb  Yb2  1  0.668717  0.998072  0.250000  1
  Yb  Yb3  1  0.331283  0.001928  0.750000  1
  Ga  Ga4  1  0.124154  0.124154  0.250000  1
  Ga  Ga5  1  0.875846  0.875846  0.750000  1
  Ga  Ga6  1  0.997737  0.330908  0.080913  1
  Ga  Ga7  1  0.002263  0.669092  0.919087  1
  Ga  Ga8  1  0.002263  0.669092  0.580913  1
  Ga  Ga9  1  0.330908  0.997737  0.419087  1
  Ga  Ga10  1  0.997737  0.330908  0.419087  1
  Ga  Ga11  1  0.669092  0.002263  0.580913  1
  Ga  Ga12  1  0.669092  0.002263  0.919087  1
  Ga  Ga13  1  0.330908  0.997737  0.080913  1
  Ga  Ga14  1  0.327329  0.327329  0.566301  1
  Ga  Ga15  1  0.672671  0.672671  0.433699  1
  Ga  Ga16  1  0.672671  0.672671  0.066301  1
  Ga  Ga17  1  0.327329  0.327329  0.933699  1
  Ga  Ga18  1  0.339409  0.544331  0.250000  1
  Ga  Ga19  1  0.660591  0.455669  0.750000  1
  Ga  Ga20  1  0.544331  0.339409  0.250000  1
  Ga  Ga21  1  0.455669  0.660591  0.750000  1
  Ir  Ir22  1  0.000000  0.000000  0.000000  1
  Ir  Ir23  1  0.000000  0.000000  0.500000  1
  Pt  Pt24  1  0.670347  0.329653  0.000000  1
  Pt  Pt25  1  0.329653  0.670347  0.000000  1
  Pt  Pt26  1  0.329653  0.670347  0.500000  1
  Pt  Pt27  1  0.670347  0.329653  0.500000  1
