# generated using pymatgen
data_HoEr15(In3Ru)2
_symmetry_space_group_name_H-M   'P 1'
_cell_length_a   10.32535000
_cell_length_b   10.32464787
_cell_length_c   7.00575317
_cell_angle_alpha   89.97809739
_cell_angle_beta   90.00000000
_cell_angle_gamma   120.00224322
_symmetry_Int_Tables_number   1
_chemical_formula_structural   HoEr15(In3Ru)2
_chemical_formula_sum   'Ho1 Er15 In6 Ru2'
_cell_volume   646.77858894
_cell_formula_units_Z   1
loop_
 _symmetry_equiv_pos_site_id
 _symmetry_equiv_pos_as_xyz
  1  'x, y, z'
loop_
 _atom_site_type_symbol
 _atom_site_label
 _atom_site_symmetry_multiplicity
 _atom_site_fract_x
 _atom_site_fract_y
 _atom_site_fract_z
 _atom_site_occupancy
  Ho  Ho0  1  0.532621  0.065241  0.794314  1
  Er  Er1  1  0.934594  0.467340  0.794465  1
  Er  Er2  1  0.532746  0.467340  0.794465  1
  Er  Er3  1  0.467190  0.934380  0.294342  1
  Er  Er4  1  0.065535  0.532762  0.294408  1
  Er  Er5  1  0.467227  0.532762  0.294408  1
  Er  Er6  1  0.822743  0.645485  0.499046  1
  Er  Er7  1  0.354307  0.177229  0.498957  1
  Er  Er8  1  0.822923  0.177229  0.498957  1
  Er  Er9  1  0.177236  0.354472  0.999105  1
  Er  Er10  1  0.645570  0.822676  0.999147  1
  Er  Er11  1  0.177105  0.822676  0.999147  1
  Er  Er12  1  0.666737  0.333473  0.170971  1
  Er  Er13  1  0.333258  0.666516  0.670842  1
  Er  Er14  1  0.999986  0.999972  0.778669  1
  Er  Er15  1  0.999991  0.999982  0.278612  1
  In  In16  1  0.837267  0.674534  0.039700  1
  In  In17  1  0.325380  0.162797  0.039828  1
  In  In18  1  0.837416  0.162797  0.039828  1
  In  In19  1  0.162752  0.325502  0.539652  1
  In  In20  1  0.674521  0.837250  0.539726  1
  In  In21  1  0.162730  0.837250  0.539726  1
  Ru  Ru22  1  0.666805  0.333609  0.568728  1
  Ru  Ru23  1  0.333361  0.666722  0.068862  1
