# generated using pymatgen
data_YU9O20
_symmetry_space_group_name_H-M   'P 1'
_cell_length_a   6.62960440
_cell_length_b   7.65727297
_cell_length_c   8.55950326
_cell_angle_alpha   102.93320666
_cell_angle_beta   97.40261588
_cell_angle_gamma   106.77795469
_symmetry_Int_Tables_number   1
_chemical_formula_structural   YU9O20
_chemical_formula_sum   'Y1 U9 O20'
_cell_volume   396.66089193
_cell_formula_units_Z   1
loop_
 _symmetry_equiv_pos_site_id
 _symmetry_equiv_pos_as_xyz
  1  'x, y, z'
loop_
 _atom_site_type_symbol
 _atom_site_label
 _atom_site_symmetry_multiplicity
 _atom_site_fract_x
 _atom_site_fract_y
 _atom_site_fract_z
 _atom_site_occupancy
  Y  Y0  1  0.000000  0.000000  0.000000  1
  U  U1  1  0.000000  0.500000  0.000000  1
  U  U2  1  0.400874  0.801208  0.801823  1
  U  U3  1  0.397680  0.298630  0.800574  1
  U  U4  1  0.800041  0.099963  0.601510  1
  U  U5  1  0.800716  0.601028  0.601062  1
  U  U6  1  0.199284  0.398972  0.398938  1
  U  U7  1  0.199959  0.900037  0.398490  1
  U  U8  1  0.602320  0.701370  0.199426  1
  U  U9  1  0.599126  0.198792  0.198177  1
  O  O10  1  0.354761  0.076397  0.948375  1
  O  O11  1  0.351273  0.574832  0.950414  1
  O  O12  1  0.050791  0.228437  0.847982  1
  O  O13  1  0.051869  0.720821  0.847550  1
  O  O14  1  0.448077  0.523388  0.649773  1
  O  O15  1  0.449165  0.025470  0.648913  1
  O  O16  1  0.748407  0.374523  0.750659  1
  O  O17  1  0.745659  0.873435  0.746968  1
  O  O18  1  0.149901  0.675066  0.547881  1
  O  O19  1  0.149673  0.174381  0.549485  1
  O  O20  1  0.850099  0.324934  0.452119  1
  O  O21  1  0.551923  0.476612  0.350227  1
  O  O22  1  0.550835  0.974530  0.351087  1
  O  O23  1  0.850327  0.825619  0.450515  1
  O  O24  1  0.254341  0.126565  0.253032  1
  O  O25  1  0.251593  0.625477  0.249341  1
  O  O26  1  0.648727  0.425168  0.049586  1
  O  O27  1  0.645239  0.923603  0.051625  1
  O  O28  1  0.948131  0.279179  0.152450  1
  O  O29  1  0.949209  0.771563  0.152018  1
