# generated using pymatgen
data_Sm5Y(RuCl3)2
_symmetry_space_group_name_H-M   'P 1'
_cell_length_a   4.05268300
_cell_length_b   8.53652352
_cell_length_c   11.72770400
_cell_angle_alpha   87.90488870
_cell_angle_beta   90.00000000
_cell_angle_gamma   90.00000000
_symmetry_Int_Tables_number   1
_chemical_formula_structural   Sm5Y(RuCl3)2
_chemical_formula_sum   'Sm5 Y1 Ru2 Cl6'
_cell_volume   405.45835727
_cell_formula_units_Z   1
loop_
 _symmetry_equiv_pos_site_id
 _symmetry_equiv_pos_as_xyz
  1  'x, y, z'
loop_
 _atom_site_type_symbol
 _atom_site_label
 _atom_site_symmetry_multiplicity
 _atom_site_fract_x
 _atom_site_fract_y
 _atom_site_fract_z
 _atom_site_occupancy
  Sm  Sm0  1  0.250000  0.292496  0.390543  1
  Sm  Sm1  1  0.750000  0.708479  0.607045  1
  Sm  Sm2  1  0.250000  0.861194  0.362524  1
  Sm  Sm3  1  0.750000  0.141279  0.637525  1
  Sm  Sm4  1  0.250000  0.890024  0.838009  1
  Y  Y5  1  0.750000  0.108759  0.164507  1
  Ru  Ru6  1  0.250000  0.933524  0.601946  1
  Ru  Ru7  1  0.750000  0.068154  0.398619  1
  Cl  Cl8  1  0.250000  0.427313  0.624767  1
  Cl  Cl9  1  0.750000  0.574537  0.371760  1
  Cl  Cl10  1  0.250000  0.891874  0.102562  1
  Cl  Cl11  1  0.750000  0.112768  0.903826  1
  Cl  Cl12  1  0.250000  0.325134  0.139102  1
  Cl  Cl13  1  0.750000  0.664464  0.857271  1
