# generated using pymatgen
data_KGa9CoRh
_symmetry_space_group_name_H-M   'P 1'
_cell_length_a   8.13287000
_cell_length_b   8.13287048
_cell_length_c   3.90887400
_cell_angle_alpha   90.00000000
_cell_angle_beta   90.00000000
_cell_angle_gamma   120.00000619
_symmetry_Int_Tables_number   1
_chemical_formula_structural   KGa9CoRh
_chemical_formula_sum   'K1 Ga9 Co1 Rh1'
_cell_volume   223.90818125
_cell_formula_units_Z   1
loop_
 _symmetry_equiv_pos_site_id
 _symmetry_equiv_pos_as_xyz
  1  'x, y, z'
loop_
 _atom_site_type_symbol
 _atom_site_label
 _atom_site_symmetry_multiplicity
 _atom_site_fract_x
 _atom_site_fract_y
 _atom_site_fract_z
 _atom_site_occupancy
  K  K0  1  0.000000  0.000000  0.000000  1
  Ga  Ga1  1  0.796126  0.592250  0.500000  1
  Ga  Ga2  1  0.494991  0.505009  0.000000  1
  Ga  Ga3  1  0.494991  0.989982  0.000000  1
  Ga  Ga4  1  0.407750  0.203874  0.500000  1
  Ga  Ga5  1  0.209268  0.418538  0.500000  1
  Ga  Ga6  1  0.209268  0.790732  0.500000  1
  Ga  Ga7  1  0.581462  0.790732  0.500000  1
  Ga  Ga8  1  0.010018  0.505009  0.000000  1
  Ga  Ga9  1  0.796126  0.203874  0.500000  1
  Co  Co10  1  0.333333  0.666667  0.000000  1
  Rh  Rh11  1  0.666667  0.333333  0.000000  1
