# generated using pymatgen
data_Sr6Ca2MnCoO12
_symmetry_space_group_name_H-M   'P 1'
_cell_length_a   6.76615355
_cell_length_b   6.78467346
_cell_length_c   6.78897587
_cell_angle_alpha   91.45852688
_cell_angle_beta   91.38721935
_cell_angle_gamma   91.46645460
_symmetry_Int_Tables_number   1
_chemical_formula_structural   Sr6Ca2MnCoO12
_chemical_formula_sum   'Sr6 Ca2 Mn1 Co1 O12'
_cell_volume   311.35629306
_cell_formula_units_Z   1
loop_
 _symmetry_equiv_pos_site_id
 _symmetry_equiv_pos_as_xyz
  1  'x, y, z'
loop_
 _atom_site_type_symbol
 _atom_site_label
 _atom_site_symmetry_multiplicity
 _atom_site_fract_x
 _atom_site_fract_y
 _atom_site_fract_z
 _atom_site_occupancy
  Sr  Sr0  1  0.883010  0.249997  0.614933  1
  Sr  Sr1  1  0.251042  0.615219  0.883048  1
  Sr  Sr2  1  0.614605  0.883429  0.250557  1
  Sr  Sr3  1  0.748869  0.385080  0.116601  1
  Sr  Sr4  1  0.385269  0.116529  0.749334  1
  Sr  Sr5  1  0.117286  0.750079  0.384759  1
  Ca  Ca6  1  0.747361  0.746743  0.749857  1
  Ca  Ca7  1  0.252794  0.253520  0.249830  1
  Mn  Mn8  1  0.999763  0.000173  0.000098  1
  Co  Co9  1  0.500230  0.499713  0.500077  1
  O  O10  1  0.227191  0.422390  0.549448  1
  O  O11  1  0.420985  0.551696  0.224333  1
  O  O12  1  0.550282  0.225969  0.420731  1
  O  O13  1  0.919524  0.723572  0.051881  1
  O  O14  1  0.722277  0.049529  0.921209  1
  O  O15  1  0.049431  0.919376  0.723320  1
  O  O16  1  0.773441  0.577028  0.450682  1
  O  O17  1  0.579486  0.448150  0.775543  1
  O  O18  1  0.449684  0.773303  0.579576  1
  O  O19  1  0.079928  0.276971  0.948226  1
  O  O20  1  0.277099  0.950525  0.079185  1
  O  O21  1  0.950446  0.081009  0.276773  1
