# generated using pymatgen
data_TbAlGaCu3
_symmetry_space_group_name_H-M   'P 1'
_cell_length_a   5.15753510
_cell_length_b   5.05452236
_cell_length_c   4.16216600
_cell_angle_alpha   90.00000000
_cell_angle_beta   90.00000000
_cell_angle_gamma   118.06315985
_symmetry_Int_Tables_number   1
_chemical_formula_structural   TbAlGaCu3
_chemical_formula_sum   'Tb1 Al1 Ga1 Cu3'
_cell_volume   95.74624420
_cell_formula_units_Z   1
loop_
 _symmetry_equiv_pos_site_id
 _symmetry_equiv_pos_as_xyz
  1  'x, y, z'
loop_
 _atom_site_type_symbol
 _atom_site_label
 _atom_site_symmetry_multiplicity
 _atom_site_fract_x
 _atom_site_fract_y
 _atom_site_fract_z
 _atom_site_occupancy
  Tb  Tb0  1  0.500000  0.500000  0.000000  1
  Al  Al1  1  0.000000  0.500000  0.500000  1
  Ga  Ga2  1  0.500000  0.000000  0.500000  1
  Cu  Cu3  1  0.156035  0.830467  0.000000  1
  Cu  Cu4  1  0.843965  0.169533  0.000000  1
  Cu  Cu5  1  0.000000  0.000000  0.500000  1
