# generated using pymatgen
data_Tb5Si12Ir19
_symmetry_space_group_name_H-M   'P 1'
_cell_length_a   12.85252900
_cell_length_b   12.85252958
_cell_length_c   3.99236400
_cell_angle_alpha   90.00000000
_cell_angle_beta   90.00000000
_cell_angle_gamma   120.00000108
_symmetry_Int_Tables_number   1
_chemical_formula_structural   Tb5Si12Ir19
_chemical_formula_sum   'Tb5 Si12 Ir19'
_cell_volume   571.13393109
_cell_formula_units_Z   1
loop_
 _symmetry_equiv_pos_site_id
 _symmetry_equiv_pos_as_xyz
  1  'x, y, z'
loop_
 _atom_site_type_symbol
 _atom_site_label
 _atom_site_symmetry_multiplicity
 _atom_site_fract_x
 _atom_site_fract_y
 _atom_site_fract_z
 _atom_site_occupancy
  Tb  Tb0  1  0.000000  0.815058  0.500000  1
  Tb  Tb1  1  0.184942  0.184942  0.500000  1
  Tb  Tb2  1  0.815058  0.000000  0.500000  1
  Tb  Tb3  1  0.333333  0.666667  0.000000  1
  Tb  Tb4  1  0.666667  0.333333  0.000000  1
  Si  Si5  1  0.000000  0.181672  0.000000  1
  Si  Si6  1  0.818328  0.818328  0.000000  1
  Si  Si7  1  0.181672  0.000000  0.000000  1
  Si  Si8  1  0.519210  0.687927  0.500000  1
  Si  Si9  1  0.312073  0.831283  0.500000  1
  Si  Si10  1  0.168717  0.480790  0.500000  1
  Si  Si11  1  0.480790  0.168717  0.500000  1
  Si  Si12  1  0.687927  0.519210  0.500000  1
  Si  Si13  1  0.831283  0.312073  0.500000  1
  Si  Si14  1  0.000000  0.631532  0.000000  1
  Si  Si15  1  0.368468  0.368468  0.000000  1
  Si  Si16  1  0.631532  0.000000  0.000000  1
  Ir  Ir17  1  0.000000  0.282924  0.500000  1
  Ir  Ir18  1  0.717076  0.717076  0.500000  1
  Ir  Ir19  1  0.282924  0.000000  0.500000  1
  Ir  Ir20  1  0.622904  0.805632  0.000000  1
  Ir  Ir21  1  0.194368  0.817272  0.000000  1
  Ir  Ir22  1  0.182728  0.377096  0.000000  1
  Ir  Ir23  1  0.377096  0.182728  0.000000  1
  Ir  Ir24  1  0.805632  0.622904  0.000000  1
  Ir  Ir25  1  0.817272  0.194368  0.000000  1
  Ir  Ir26  1  0.512211  0.873798  0.500000  1
  Ir  Ir27  1  0.126202  0.638412  0.500000  1
  Ir  Ir28  1  0.361588  0.487789  0.500000  1
  Ir  Ir29  1  0.487789  0.361588  0.500000  1
  Ir  Ir30  1  0.873798  0.512211  0.500000  1
  Ir  Ir31  1  0.638412  0.126202  0.500000  1
  Ir  Ir32  1  0.000000  0.000000  0.000000  1
  Ir  Ir33  1  0.000000  0.446913  0.000000  1
  Ir  Ir34  1  0.553087  0.553087  0.000000  1
  Ir  Ir35  1  0.446913  0.000000  0.000000  1
