# generated using pymatgen
data_TbHo6Tm(Sc3Si4)4
_symmetry_space_group_name_H-M   'P 1'
_cell_length_a   7.07599027
_cell_length_b   7.36941095
_cell_length_c   13.96027727
_cell_angle_alpha   90.00223744
_cell_angle_beta   90.01673711
_cell_angle_gamma   90.03561922
_symmetry_Int_Tables_number   1
_chemical_formula_structural   TbHo6Tm(Sc3Si4)4
_chemical_formula_sum   'Tb1 Ho6 Tm1 Sc12 Si16'
_cell_volume   727.97077297
_cell_formula_units_Z   1
loop_
 _symmetry_equiv_pos_site_id
 _symmetry_equiv_pos_as_xyz
  1  'x, y, z'
loop_
 _atom_site_type_symbol
 _atom_site_label
 _atom_site_symmetry_multiplicity
 _atom_site_fract_x
 _atom_site_fract_y
 _atom_site_fract_z
 _atom_site_occupancy
  Tb  Tb0  1  0.011879  0.175545  0.096561  1
  Ho  Ho1  1  0.987967  0.824096  0.902976  1
  Ho  Ho2  1  0.488025  0.675774  0.903309  1
  Ho  Ho3  1  0.987948  0.823928  0.596790  1
  Ho  Ho4  1  0.511972  0.324315  0.096699  1
  Ho  Ho5  1  0.012171  0.175800  0.403333  1
  Ho  Ho6  1  0.511926  0.324283  0.403534  1
  Tm  Tm7  1  0.487946  0.676201  0.597007  1
  Sc  Sc8  1  0.160715  0.503052  0.749864  1
  Sc  Sc9  1  0.839336  0.497267  0.250103  1
  Sc  Sc10  1  0.339445  0.002848  0.250110  1
  Sc  Sc11  1  0.660561  0.996907  0.749856  1
  Sc  Sc12  1  0.331084  0.176973  0.625295  1
  Sc  Sc13  1  0.668854  0.822929  0.374877  1
  Sc  Sc14  1  0.169216  0.676726  0.374880  1
  Sc  Sc15  1  0.668937  0.823061  0.125284  1
  Sc  Sc16  1  0.830670  0.323520  0.625248  1
  Sc  Sc17  1  0.331014  0.176782  0.874508  1
  Sc  Sc18  1  0.830685  0.323413  0.874531  1
  Sc  Sc19  1  0.169228  0.676650  0.125275  1
  Si  Si20  1  0.033030  0.116014  0.749913  1
  Si  Si21  1  0.966858  0.883694  0.250203  1
  Si  Si22  1  0.466919  0.615871  0.250052  1
  Si  Si23  1  0.532913  0.384569  0.749799  1
  Si  Si24  1  0.285531  0.872199  0.749679  1
  Si  Si25  1  0.714465  0.127196  0.250262  1
  Si  Si26  1  0.215156  0.372956  0.250240  1
  Si  Si27  1  0.784660  0.627586  0.749670  1
  Si  Si28  1  0.159317  0.465367  0.539591  1
  Si  Si29  1  0.841409  0.535111  0.460656  1
  Si  Si30  1  0.341780  0.964451  0.460796  1
  Si  Si31  1  0.841418  0.535507  0.039278  1
  Si  Si32  1  0.658088  0.034423  0.539645  1
  Si  Si33  1  0.158416  0.465289  0.960383  1
  Si  Si34  1  0.658201  0.035000  0.960489  1
  Si  Si35  1  0.342261  0.964693  0.039301  1
