# generated using pymatgen
data_SmHo2Cu3(Ni5B)2
_symmetry_space_group_name_H-M   'P 1'
_cell_length_a   5.00130900
_cell_length_b   5.00130992
_cell_length_c   10.93067400
_cell_angle_alpha   90.00000000
_cell_angle_beta   90.00000000
_cell_angle_gamma   119.99996437
_symmetry_Int_Tables_number   1
_chemical_formula_structural   SmHo2Cu3(Ni5B)2
_chemical_formula_sum   'Sm1 Ho2 Cu3 Ni10 B2'
_cell_volume   236.78009211
_cell_formula_units_Z   1
loop_
 _symmetry_equiv_pos_site_id
 _symmetry_equiv_pos_as_xyz
  1  'x, y, z'
loop_
 _atom_site_type_symbol
 _atom_site_label
 _atom_site_symmetry_multiplicity
 _atom_site_fract_x
 _atom_site_fract_y
 _atom_site_fract_z
 _atom_site_occupancy
  Sm  Sm0  1  0.000000  0.000000  0.330161  1
  Ho  Ho1  1  0.000000  0.000000  0.999314  1
  Ho  Ho2  1  0.000000  0.000000  0.666613  1
  Cu  Cu3  1  0.666668  0.333332  0.683185  1
  Cu  Cu4  1  0.333333  0.666667  0.683498  1
  Cu  Cu5  1  0.333332  0.666668  0.316582  1
  Ni  Ni6  1  0.500419  0.499581  0.500358  1
  Ni  Ni7  1  0.500419  0.000839  0.500358  1
  Ni  Ni8  1  0.999161  0.499581  0.500358  1
  Ni  Ni9  1  0.666668  0.333332  0.318473  1
  Ni  Ni10  1  0.499946  0.500054  0.870356  1
  Ni  Ni11  1  0.499945  0.999889  0.870356  1
  Ni  Ni12  1  0.000111  0.500055  0.870356  1
  Ni  Ni13  1  0.501040  0.498960  0.129796  1
  Ni  Ni14  1  0.501040  0.002082  0.129798  1
  Ni  Ni15  1  0.997918  0.498960  0.129798  1
  B  B16  1  0.666667  0.333333  0.999915  1
  B  B17  1  0.333333  0.666667  0.000720  1
