# generated using pymatgen
data_Ca6GaGe5Rh12
_symmetry_space_group_name_H-M   'P 1'
_cell_length_a   5.67571500
_cell_length_b   5.67571306
_cell_length_c   15.44401800
_cell_angle_alpha   90.00000000
_cell_angle_beta   90.00000000
_cell_angle_gamma   119.99999382
_symmetry_Int_Tables_number   1
_chemical_formula_structural   Ca6GaGe5Rh12
_chemical_formula_sum   'Ca6 Ga1 Ge5 Rh12'
_cell_volume   430.85582494
_cell_formula_units_Z   1
loop_
 _symmetry_equiv_pos_site_id
 _symmetry_equiv_pos_as_xyz
  1  'x, y, z'
loop_
 _atom_site_type_symbol
 _atom_site_label
 _atom_site_symmetry_multiplicity
 _atom_site_fract_x
 _atom_site_fract_y
 _atom_site_fract_z
 _atom_site_occupancy
  Ca  Ca0  1  0.666667  0.333333  0.958630  1
  Ca  Ca1  1  0.666667  0.333333  0.540885  1
  Ca  Ca2  1  0.333333  0.666667  0.041370  1
  Ca  Ca3  1  0.666667  0.333333  0.749937  1
  Ca  Ca4  1  0.333333  0.666667  0.459115  1
  Ca  Ca5  1  0.333333  0.666667  0.250063  1
  Ga  Ga6  1  0.000000  0.000000  0.500000  1
  Ge  Ge7  1  0.666667  0.333333  0.248871  1
  Ge  Ge8  1  0.000000  0.000000  0.248608  1
  Ge  Ge9  1  0.000000  0.000000  0.751392  1
  Ge  Ge10  1  0.333333  0.666667  0.751129  1
  Ge  Ge11  1  0.000000  0.000000  0.000000  1
  Rh  Rh12  1  0.167510  0.335021  0.871743  1
  Rh  Rh13  1  0.167230  0.334460  0.631142  1
  Rh  Rh14  1  0.664979  0.832490  0.871743  1
  Rh  Rh15  1  0.334460  0.167230  0.368858  1
  Rh  Rh16  1  0.832770  0.665540  0.368858  1
  Rh  Rh17  1  0.832770  0.167230  0.368858  1
  Rh  Rh18  1  0.832490  0.167510  0.128257  1
  Rh  Rh19  1  0.335021  0.167510  0.128257  1
  Rh  Rh20  1  0.665540  0.832770  0.631142  1
  Rh  Rh21  1  0.167230  0.832770  0.631142  1
  Rh  Rh22  1  0.832490  0.664979  0.128257  1
  Rh  Rh23  1  0.167510  0.832490  0.871743  1
