# generated using pymatgen
data_LiCeReH6
_symmetry_space_group_name_H-M   'P 1'
_cell_length_a   4.94507494
_cell_length_b   4.94511752
_cell_length_c   4.94514500
_cell_angle_alpha   59.99835942
_cell_angle_beta   59.99882923
_cell_angle_gamma   59.99967040
_symmetry_Int_Tables_number   1
_chemical_formula_structural   LiCeReH6
_chemical_formula_sum   'Li1 Ce1 Re1 H6'
_cell_volume   85.50730478
_cell_formula_units_Z   1
loop_
 _symmetry_equiv_pos_site_id
 _symmetry_equiv_pos_as_xyz
  1  'x, y, z'
loop_
 _atom_site_type_symbol
 _atom_site_label
 _atom_site_symmetry_multiplicity
 _atom_site_fract_x
 _atom_site_fract_y
 _atom_site_fract_z
 _atom_site_occupancy
  Li  Li0  1  0.749996  0.750007  0.749994  1
  Ce  Ce1  1  0.250012  0.249979  0.250008  1
  Re  Re2  1  0.999983  0.000018  0.000022  1
  H  H3  1  0.746772  0.746774  0.253222  1
  H  H4  1  0.746777  0.253225  0.253212  1
  H  H5  1  0.253230  0.746775  0.253224  1
  H  H6  1  0.253221  0.746780  0.746771  1
  H  H7  1  0.746781  0.253215  0.746781  1
  H  H8  1  0.253223  0.253229  0.746772  1
