# generated using pymatgen
data_Ho7Tm(AlRh)2
_symmetry_space_group_name_H-M   'P 1'
_cell_length_a   9.48064275
_cell_length_b   9.48064347
_cell_length_c   9.48477900
_cell_angle_alpha   59.98557282
_cell_angle_beta   59.98557028
_cell_angle_gamma   59.96227738
_symmetry_Int_Tables_number   1
_chemical_formula_structural   Ho7Tm(AlRh)2
_chemical_formula_sum   'Ho14 Tm2 Al4 Rh4'
_cell_volume   602.51679251
_cell_formula_units_Z   2
loop_
 _symmetry_equiv_pos_site_id
 _symmetry_equiv_pos_as_xyz
  1  'x, y, z'
loop_
 _atom_site_type_symbol
 _atom_site_label
 _atom_site_symmetry_multiplicity
 _atom_site_fract_x
 _atom_site_fract_y
 _atom_site_fract_z
 _atom_site_occupancy
  Ho  Ho0  1  0.063373  0.063373  0.436627  1
  Ho  Ho1  1  0.436525  0.062991  0.437215  1
  Ho  Ho2  1  0.062991  0.436525  0.063268  1
  Ho  Ho3  1  0.058665  0.645976  0.647680  1
  Ho  Ho4  1  0.437054  0.437054  0.062946  1
  Ho  Ho5  1  0.645976  0.058665  0.647680  1
  Ho  Ho6  1  0.193745  0.807300  0.192040  1
  Ho  Ho7  1  0.192534  0.192534  0.807466  1
  Ho  Ho8  1  0.806786  0.806786  0.193214  1
  Ho  Ho9  1  0.436525  0.062991  0.063268  1
  Ho  Ho10  1  0.807300  0.193745  0.192040  1
  Ho  Ho11  1  0.062991  0.436525  0.437215  1
  Ho  Ho12  1  0.807300  0.193745  0.806915  1
  Ho  Ho13  1  0.193745  0.807300  0.806915  1
  Tm  Tm14  1  0.647327  0.647327  0.056438  1
  Tm  Tm15  1  0.647327  0.647327  0.648910  1
  Al  Al16  1  0.422359  0.422359  0.421813  1
  Al  Al17  1  0.733188  0.422555  0.422129  1
  Al  Al18  1  0.422555  0.733188  0.422129  1
  Al  Al19  1  0.422359  0.422359  0.733469  1
  Rh  Rh20  1  0.856867  0.856867  0.428543  1
  Rh  Rh21  1  0.856867  0.856867  0.857722  1
  Rh  Rh22  1  0.429223  0.856417  0.857180  1
  Rh  Rh23  1  0.856417  0.429223  0.857180  1
