# generated using pymatgen
data_Rb4Ag6S5
_symmetry_space_group_name_H-M   'P 1'
_cell_length_a   10.32473600
_cell_length_b   10.32473579
_cell_length_c   10.37655800
_cell_angle_alpha   90.00000000
_cell_angle_beta   90.00000000
_cell_angle_gamma   119.99999426
_symmetry_Int_Tables_number   1
_chemical_formula_structural   Rb4Ag6S5
_chemical_formula_sum   'Rb8 Ag12 S10'
_cell_volume   957.94787280
_cell_formula_units_Z   2
loop_
 _symmetry_equiv_pos_site_id
 _symmetry_equiv_pos_as_xyz
  1  'x, y, z'
loop_
 _atom_site_type_symbol
 _atom_site_label
 _atom_site_symmetry_multiplicity
 _atom_site_fract_x
 _atom_site_fract_y
 _atom_site_fract_z
 _atom_site_occupancy
  Rb  Rb0  1  0.587437  0.912745  0.750000  1
  Rb  Rb1  1  0.087255  0.674691  0.750000  1
  Rb  Rb2  1  0.325309  0.412563  0.750000  1
  Rb  Rb3  1  0.412563  0.325309  0.250000  1
  Rb  Rb4  1  0.674691  0.087255  0.250000  1
  Rb  Rb5  1  0.000000  0.000000  0.000000  1
  Rb  Rb6  1  0.000000  0.000000  0.500000  1
  Rb  Rb7  1  0.912745  0.587437  0.250000  1
  Ag  Ag8  1  0.176953  0.465882  0.400094  1
  Ag  Ag9  1  0.288929  0.823047  0.400094  1
  Ag  Ag10  1  0.534118  0.711071  0.400094  1
  Ag  Ag11  1  0.711071  0.534118  0.599906  1
  Ag  Ag12  1  0.288929  0.823047  0.099906  1
  Ag  Ag13  1  0.176953  0.465882  0.099906  1
  Ag  Ag14  1  0.823047  0.288929  0.900094  1
  Ag  Ag15  1  0.465882  0.176953  0.900094  1
  Ag  Ag16  1  0.465882  0.176953  0.599906  1
  Ag  Ag17  1  0.823047  0.288929  0.599906  1
  Ag  Ag18  1  0.711071  0.534118  0.900094  1
  Ag  Ag19  1  0.534118  0.711071  0.099906  1
  S  S20  1  0.268858  0.046603  0.750000  1
  S  S21  1  0.333333  0.666667  0.542588  1
  S  S22  1  0.333333  0.666667  0.957412  1
  S  S23  1  0.666667  0.333333  0.042588  1
  S  S24  1  0.666667  0.333333  0.457412  1
  S  S25  1  0.046603  0.268858  0.250000  1
  S  S26  1  0.222255  0.953397  0.250000  1
  S  S27  1  0.731142  0.777745  0.250000  1
  S  S28  1  0.953397  0.222255  0.750000  1
  S  S29  1  0.777745  0.731142  0.750000  1
