# generated using pymatgen
data_Nd3Sn4RuPb2
_symmetry_space_group_name_H-M   'P 1'
_cell_length_a   8.80959362
_cell_length_b   8.80959392
_cell_length_c   13.57650000
_cell_angle_alpha   90.00000000
_cell_angle_beta   90.00000000
_cell_angle_gamma   148.81810132
_symmetry_Int_Tables_number   1
_chemical_formula_structural   Nd3Sn4RuPb2
_chemical_formula_sum   'Nd6 Sn8 Ru2 Pb4'
_cell_volume   545.53844164
_cell_formula_units_Z   2
loop_
 _symmetry_equiv_pos_site_id
 _symmetry_equiv_pos_as_xyz
  1  'x, y, z'
loop_
 _atom_site_type_symbol
 _atom_site_label
 _atom_site_symmetry_multiplicity
 _atom_site_fract_x
 _atom_site_fract_y
 _atom_site_fract_z
 _atom_site_occupancy
  Nd  Nd0  1  0.601945  0.398055  0.250000  1
  Nd  Nd1  1  0.398055  0.601945  0.750000  1
  Nd  Nd2  1  0.396762  0.603238  0.401557  1
  Nd  Nd3  1  0.603238  0.396762  0.598443  1
  Nd  Nd4  1  0.396762  0.603238  0.098443  1
  Nd  Nd5  1  0.603238  0.396762  0.901557  1
  Sn  Sn6  1  0.957898  0.042102  0.250000  1
  Sn  Sn7  1  0.042102  0.957898  0.750000  1
  Sn  Sn8  1  0.745045  0.254956  0.432446  1
  Sn  Sn9  1  0.254956  0.745044  0.567554  1
  Sn  Sn10  1  0.745045  0.254956  0.067554  1
  Sn  Sn11  1  0.254956  0.745044  0.932446  1
  Sn  Sn12  1  0.234046  0.765954  0.250000  1
  Sn  Sn13  1  0.765954  0.234046  0.750000  1
  Ru  Ru14  1  0.800907  0.199093  0.250000  1
  Ru  Ru15  1  0.199093  0.800907  0.750000  1
  Pb  Pb16  1  0.925385  0.074615  0.924668  1
  Pb  Pb17  1  0.074615  0.925385  0.075332  1
  Pb  Pb18  1  0.925385  0.074615  0.575332  1
  Pb  Pb19  1  0.074615  0.925385  0.424668  1
