# generated using pymatgen
data_La4Cd2CuPd3
_symmetry_space_group_name_H-M   'P 1'
_cell_length_a   7.91316422
_cell_length_b   7.91316422
_cell_length_c   3.99238800
_cell_angle_alpha   90.00000000
_cell_angle_beta   90.00000000
_cell_angle_gamma   90.51276404
_symmetry_Int_Tables_number   1
_chemical_formula_structural   La4Cd2CuPd3
_chemical_formula_sum   'La4 Cd2 Cu1 Pd3'
_cell_volume   249.98601127
_cell_formula_units_Z   1
loop_
 _symmetry_equiv_pos_site_id
 _symmetry_equiv_pos_as_xyz
  1  'x, y, z'
loop_
 _atom_site_type_symbol
 _atom_site_label
 _atom_site_symmetry_multiplicity
 _atom_site_fract_x
 _atom_site_fract_y
 _atom_site_fract_z
 _atom_site_occupancy
  La  La0  1  0.676455  0.176455  0.500000  1
  La  La1  1  0.327097  0.827097  0.500000  1
  La  La2  1  0.174525  0.322083  0.500000  1
  La  La3  1  0.822083  0.674525  0.500000  1
  Cd  Cd4  1  0.001064  0.998662  0.000000  1
  Cd  Cd5  1  0.498662  0.501064  0.000000  1
  Cu  Cu6  1  0.120943  0.620943  0.000000  1
  Pd  Pd7  1  0.879228  0.379228  0.000000  1
  Pd  Pd8  1  0.627477  0.872466  0.000000  1
  Pd  Pd9  1  0.372466  0.127477  0.000000  1
