# generated using pymatgen
data_Nd4Sm2Cd23P
_symmetry_space_group_name_H-M   'P 1'
_cell_length_a   10.03991856
_cell_length_b   10.03991775
_cell_length_c   10.03191000
_cell_angle_alpha   60.02638059
_cell_angle_beta   60.02638326
_cell_angle_gamma   60.06605493
_symmetry_Int_Tables_number   1
_chemical_formula_structural   Nd4Sm2Cd23P
_chemical_formula_sum   'Nd4 Sm2 Cd23 P1'
_cell_volume   715.67945111
_cell_formula_units_Z   1
loop_
 _symmetry_equiv_pos_site_id
 _symmetry_equiv_pos_as_xyz
  1  'x, y, z'
loop_
 _atom_site_type_symbol
 _atom_site_label
 _atom_site_symmetry_multiplicity
 _atom_site_fract_x
 _atom_site_fract_y
 _atom_site_fract_z
 _atom_site_occupancy
  Nd  Nd0  1  0.798194  0.798194  0.201563  1
  Nd  Nd1  1  0.201367  0.798633  0.201281  1
  Nd  Nd2  1  0.798633  0.201367  0.201281  1
  Nd  Nd3  1  0.201806  0.201806  0.797950  1
  Sm  Sm4  1  0.799654  0.200346  0.798982  1
  Sm  Sm5  1  0.200346  0.799654  0.798982  1
  Cd  Cd6  1  0.833944  0.833944  0.497549  1
  Cd  Cd7  1  0.833204  0.498008  0.833910  1
  Cd  Cd8  1  0.498008  0.833204  0.833910  1
  Cd  Cd9  1  0.834937  0.834937  0.834659  1
  Cd  Cd10  1  0.165063  0.165063  0.504534  1
  Cd  Cd11  1  0.166796  0.501992  0.165123  1
  Cd  Cd12  1  0.501992  0.166796  0.165123  1
  Cd  Cd13  1  0.166056  0.166056  0.165439  1
  Cd  Cd14  1  0.621918  0.621918  0.134810  1
  Cd  Cd15  1  0.622166  0.135208  0.622103  1
  Cd  Cd16  1  0.135208  0.622166  0.622103  1
  Cd  Cd17  1  0.620999  0.620999  0.622059  1
  Cd  Cd18  1  0.379001  0.379001  0.864055  1
  Cd  Cd19  1  0.377834  0.864792  0.379477  1
  Cd  Cd20  1  0.864792  0.377834  0.379477  1
  Cd  Cd21  1  0.378082  0.378082  0.378645  1
  Cd  Cd22  1  0.000000  0.000000  0.500491  1
  Cd  Cd23  1  0.499552  0.000059  0.499955  1
  Cd  Cd24  1  0.000059  0.499552  0.499955  1
  Cd  Cd25  1  0.500000  0.500000  0.999534  1
  Cd  Cd26  1  0.999941  0.500448  0.999565  1
  Cd  Cd27  1  0.500448  0.999941  0.999565  1
  Cd  Cd28  1  0.500000  0.500000  0.499724  1
  P  P29  1  0.000000  0.000000  0.998193  1
