# generated using pymatgen
data_Zr8In4Cu7Pd
_symmetry_space_group_name_H-M   'P 1'
_cell_length_a   7.31404505
_cell_length_b   7.31404505
_cell_length_c   6.86902729
_cell_angle_alpha   89.95039344
_cell_angle_beta   89.95039344
_cell_angle_gamma   89.96359405
_symmetry_Int_Tables_number   1
_chemical_formula_structural   Zr8In4Cu7Pd
_chemical_formula_sum   'Zr8 In4 Cu7 Pd1'
_cell_volume   367.46001722
_cell_formula_units_Z   1
loop_
 _symmetry_equiv_pos_site_id
 _symmetry_equiv_pos_as_xyz
  1  'x, y, z'
loop_
 _atom_site_type_symbol
 _atom_site_label
 _atom_site_symmetry_multiplicity
 _atom_site_fract_x
 _atom_site_fract_y
 _atom_site_fract_z
 _atom_site_occupancy
  Zr  Zr0  1  0.651695  0.651695  0.497548  1
  Zr  Zr1  1  0.804692  0.193684  0.500275  1
  Zr  Zr2  1  0.694021  0.694021  0.000786  1
  Zr  Zr3  1  0.846239  0.151757  0.999933  1
  Zr  Zr4  1  0.193684  0.804692  0.500275  1
  Zr  Zr5  1  0.306848  0.306848  0.001059  1
  Zr  Zr6  1  0.151757  0.846239  0.999933  1
  Zr  Zr7  1  0.350386  0.350386  0.499416  1
  In  In8  1  0.999414  0.500087  0.248990  1
  In  In9  1  0.502928  0.997940  0.749926  1
  In  In10  1  0.500087  0.999414  0.248990  1
  In  In11  1  0.997940  0.502928  0.749926  1
  Cu  Cu12  1  0.622376  0.377702  0.202324  1
  Cu  Cu13  1  0.378289  0.622533  0.797570  1
  Cu  Cu14  1  0.872803  0.872803  0.702090  1
  Cu  Cu15  1  0.622533  0.378289  0.797570  1
  Cu  Cu16  1  0.377702  0.622376  0.202324  1
  Cu  Cu17  1  0.122892  0.122892  0.295090  1
  Cu  Cu18  1  0.878856  0.878856  0.296929  1
  Pd  Pd19  1  0.124857  0.124857  0.709045  1
