# generated using pymatgen
data_DyTm19(Cd3Ru)2
_symmetry_space_group_name_H-M   'P 1'
_cell_length_a   9.44985705
_cell_length_b   9.44985816
_cell_length_c   9.73045200
_cell_angle_alpha   90.00000000
_cell_angle_beta   90.00000000
_cell_angle_gamma   120.01198902
_symmetry_Int_Tables_number   1
_chemical_formula_structural   DyTm19(Cd3Ru)2
_chemical_formula_sum   'Dy1 Tm19 Cd6 Ru2'
_cell_volume   752.42236419
_cell_formula_units_Z   1
loop_
 _symmetry_equiv_pos_site_id
 _symmetry_equiv_pos_as_xyz
  1  'x, y, z'
loop_
 _atom_site_type_symbol
 _atom_site_label
 _atom_site_symmetry_multiplicity
 _atom_site_fract_x
 _atom_site_fract_y
 _atom_site_fract_z
 _atom_site_occupancy
  Dy  Dy0  1  0.541024  0.458976  0.250000  1
  Tm  Tm1  1  0.000007  0.999993  0.499979  1
  Tm  Tm2  1  0.000007  0.999993  0.000021  1
  Tm  Tm3  1  0.210013  0.789987  0.440894  1
  Tm  Tm4  1  0.209620  0.420065  0.441044  1
  Tm  Tm5  1  0.579935  0.790380  0.441044  1
  Tm  Tm6  1  0.790033  0.209967  0.559135  1
  Tm  Tm7  1  0.790247  0.580021  0.559343  1
  Tm  Tm8  1  0.419979  0.209753  0.559343  1
  Tm  Tm9  1  0.790033  0.209967  0.940865  1
  Tm  Tm10  1  0.790247  0.580021  0.940657  1
  Tm  Tm11  1  0.419979  0.209753  0.940657  1
  Tm  Tm12  1  0.210013  0.789987  0.059106  1
  Tm  Tm13  1  0.209620  0.420065  0.058956  1
  Tm  Tm14  1  0.579935  0.790380  0.058956  1
  Tm  Tm15  1  0.540986  0.081495  0.250000  1
  Tm  Tm16  1  0.918505  0.459014  0.250000  1
  Tm  Tm17  1  0.459079  0.540921  0.750000  1
  Tm  Tm18  1  0.459031  0.918064  0.750000  1
  Tm  Tm19  1  0.081936  0.540969  0.750000  1
  Cd  Cd20  1  0.885537  0.114463  0.250000  1
  Cd  Cd21  1  0.886170  0.771637  0.250000  1
  Cd  Cd22  1  0.228363  0.113830  0.250000  1
  Cd  Cd23  1  0.114462  0.885538  0.750000  1
  Cd  Cd24  1  0.114317  0.228840  0.750000  1
  Cd  Cd25  1  0.771160  0.885683  0.750000  1
  Ru  Ru26  1  0.333220  0.666780  0.250000  1
  Ru  Ru27  1  0.666541  0.333459  0.750000  1
