# generated using pymatgen
data_Cs12NbV(WS8)2
_symmetry_space_group_name_H-M   'P 1'
_cell_length_a   9.98213161
_cell_length_b   10.05356264
_cell_length_c   11.84188000
_cell_angle_alpha   90.00000000
_cell_angle_beta   90.00000000
_cell_angle_gamma   89.88986203
_symmetry_Int_Tables_number   1
_chemical_formula_structural   Cs12NbV(WS8)2
_chemical_formula_sum   'Cs12 Nb1 V1 W2 S16'
_cell_volume   1188.40134151
_cell_formula_units_Z   1
loop_
 _symmetry_equiv_pos_site_id
 _symmetry_equiv_pos_as_xyz
  1  'x, y, z'
loop_
 _atom_site_type_symbol
 _atom_site_label
 _atom_site_symmetry_multiplicity
 _atom_site_fract_x
 _atom_site_fract_y
 _atom_site_fract_z
 _atom_site_occupancy
  Cs  Cs0  1  0.550268  0.214079  0.046901  1
  Cs  Cs1  1  0.042961  0.292309  0.452827  1
  Cs  Cs2  1  0.454946  0.788910  0.537817  1
  Cs  Cs3  1  0.951220  0.706493  0.963942  1
  Cs  Cs4  1  0.454946  0.788910  0.962183  1
  Cs  Cs5  1  0.951220  0.706493  0.536058  1
  Cs  Cs6  1  0.550268  0.214079  0.453099  1
  Cs  Cs7  1  0.042961  0.292309  0.047173  1
  Cs  Cs8  1  0.648954  0.415855  0.750000  1
  Cs  Cs9  1  0.148655  0.084383  0.750000  1
  Cs  Cs10  1  0.355101  0.583861  0.250000  1
  Cs  Cs11  1  0.850803  0.914106  0.250000  1
  Nb  Nb12  1  0.276481  0.015999  0.250000  1
  V  V13  1  0.776923  0.483395  0.250000  1
  W  W14  1  0.722792  0.983408  0.750000  1
  W  W15  1  0.222842  0.516678  0.750000  1
  S  S16  1  0.830780  0.048659  0.593770  1
  S  S17  1  0.330680  0.451318  0.906375  1
  S  S18  1  0.166492  0.950969  0.088956  1
  S  S19  1  0.671336  0.546164  0.403343  1
  S  S20  1  0.166492  0.950969  0.411044  1
  S  S21  1  0.671336  0.546164  0.096657  1
  S  S22  1  0.830780  0.048659  0.906230  1
  S  S23  1  0.330680  0.451318  0.593625  1
  S  S24  1  0.514732  0.069212  0.750000  1
  S  S25  1  0.015133  0.430585  0.750000  1
  S  S26  1  0.489594  0.928911  0.250000  1
  S  S27  1  0.980108  0.566821  0.250000  1
  S  S28  1  0.709046  0.760438  0.750000  1
  S  S29  1  0.209116  0.739499  0.750000  1
  S  S30  1  0.291366  0.243900  0.250000  1
  S  S31  1  0.790988  0.265147  0.250000  1
