# generated using pymatgen
data_Ho3Tm9Co4BiRh
_symmetry_space_group_name_H-M   'P 1'
_cell_length_a   8.23120701
_cell_length_b   8.23103229
_cell_length_c   8.22736480
_cell_angle_alpha   110.86450191
_cell_angle_beta   110.96935399
_cell_angle_gamma   106.63769745
_symmetry_Int_Tables_number   1
_chemical_formula_structural   Ho3Tm9Co4BiRh
_chemical_formula_sum   'Ho3 Tm9 Co4 Bi1 Rh1'
_cell_volume   428.20022939
_cell_formula_units_Z   1
loop_
 _symmetry_equiv_pos_site_id
 _symmetry_equiv_pos_as_xyz
  1  'x, y, z'
loop_
 _atom_site_type_symbol
 _atom_site_label
 _atom_site_symmetry_multiplicity
 _atom_site_fract_x
 _atom_site_fract_y
 _atom_site_fract_z
 _atom_site_occupancy
  Ho  Ho0  1  0.287779  0.185039  0.472848  1
  Ho  Ho1  1  0.712777  0.815441  0.528252  1
  Ho  Ho2  1  0.287764  0.814824  0.102614  1
  Tm  Tm3  1  0.712965  0.184529  0.897431  1
  Tm  Tm4  1  0.620781  0.311165  0.309012  1
  Tm  Tm5  1  0.379646  0.689232  0.690600  1
  Tm  Tm6  1  0.001442  0.310982  0.690608  1
  Tm  Tm7  1  0.997907  0.688284  0.309049  1
  Tm  Tm8  1  0.210449  0.408223  0.197031  1
  Tm  Tm9  1  0.788772  0.590592  0.802446  1
  Tm  Tm10  1  0.211875  0.013709  0.802483  1
  Tm  Tm11  1  0.788842  0.986625  0.197057  1
  Co  Co12  1  0.999218  0.375811  0.374999  1
  Co  Co13  1  0.000032  0.623980  0.624028  1
  Co  Co14  1  0.388770  0.889165  0.501417  1
  Co  Co15  1  0.612109  0.112478  0.501380  1
  Bi  Bi16  1  0.499946  0.500155  0.000047  1
  Rh  Rh17  1  0.998926  0.999765  0.998698  1
