# generated using pymatgen
data_SrLa6TcBr12
_symmetry_space_group_name_H-M   'P 1'
_cell_length_a   9.75189594
_cell_length_b   9.75732932
_cell_length_c   9.71553600
_cell_angle_alpha   105.68582324
_cell_angle_beta   106.44099437
_cell_angle_gamma   106.80490589
_symmetry_Int_Tables_number   1
_chemical_formula_structural   SrLa6TcBr12
_chemical_formula_sum   'Sr1 La6 Tc1 Br12'
_cell_volume   783.86487414
_cell_formula_units_Z   1
loop_
 _symmetry_equiv_pos_site_id
 _symmetry_equiv_pos_as_xyz
  1  'x, y, z'
loop_
 _atom_site_type_symbol
 _atom_site_label
 _atom_site_symmetry_multiplicity
 _atom_site_fract_x
 _atom_site_fract_y
 _atom_site_fract_z
 _atom_site_occupancy
  Sr  Sr0  1  0.500000  0.500000  0.500000  1
  La  La1  1  0.107092  0.310840  0.017352  1
  La  La2  1  0.312321  0.021072  0.107343  1
  La  La3  1  0.020201  0.104842  0.310589  1
  La  La4  1  0.979798  0.895158  0.689411  1
  La  La5  1  0.687679  0.978927  0.892656  1
  La  La6  1  0.892908  0.689160  0.982648  1
  Tc  Tc7  1  0.000000  0.000000  0.000000  1
  Br  Br8  1  0.215183  0.680883  0.072194  1
  Br  Br9  1  0.453168  0.367861  0.154520  1
  Br  Br10  1  0.680580  0.070685  0.215318  1
  Br  Br11  1  0.929820  0.783616  0.322915  1
  Br  Br12  1  0.156511  0.449581  0.364717  1
  Br  Br13  1  0.368782  0.157072  0.453164  1
  Br  Br14  1  0.631218  0.842928  0.546836  1
  Br  Br15  1  0.843488  0.550419  0.635283  1
  Br  Br16  1  0.070181  0.216385  0.677086  1
  Br  Br17  1  0.319421  0.929316  0.784682  1
  Br  Br18  1  0.546831  0.632138  0.845480  1
  Br  Br19  1  0.784817  0.319118  0.927806  1
