# generated using pymatgen
data_ReSe23
_symmetry_space_group_name_H-M   'P 1'
_cell_length_a   6.12113826
_cell_length_b   10.09588829
_cell_length_c   16.23841400
_cell_angle_alpha   89.63401781
_cell_angle_beta   90.46346231
_cell_angle_gamma   87.71809494
_symmetry_Int_Tables_number   1
_chemical_formula_structural   ReSe23
_chemical_formula_sum   'Re1 Se23'
_cell_volume   1002.65566271
_cell_formula_units_Z   1
loop_
 _symmetry_equiv_pos_site_id
 _symmetry_equiv_pos_as_xyz
  1  'x, y, z'
loop_
 _atom_site_type_symbol
 _atom_site_label
 _atom_site_symmetry_multiplicity
 _atom_site_fract_x
 _atom_site_fract_y
 _atom_site_fract_z
 _atom_site_occupancy
  Re  Re0  1  0.512355  0.287956  0.423720  1
  Se  Se1  1  0.610873  0.832785  0.388400  1
  Se  Se2  1  0.006656  0.312026  0.124604  1
  Se  Se3  1  0.813829  0.148804  0.419086  1
  Se  Se4  1  0.331661  0.814085  0.488610  1
  Se  Se5  1  0.212235  0.261224  0.005484  1
  Se  Se6  1  0.772527  0.728291  0.995237  1
  Se  Se7  1  0.243038  0.218280  0.339979  1
  Se  Se8  1  0.829943  0.640318  0.409733  1
  Se  Se9  1  0.788898  0.127799  0.150091  1
  Se  Se10  1  0.203246  0.836468  0.144289  1
  Se  Se11  1  0.658255  0.622780  0.647100  1
  Se  Se12  1  0.164675  0.427384  0.618541  1
  Se  Se13  1  0.204928  0.860936  0.856373  1
  Se  Se14  1  0.787415  0.144702  0.852713  1
  Se  Se15  1  0.979600  0.658978  0.111986  1
  Se  Se16  1  0.510380  0.837277  0.616137  1
  Se  Se17  1  0.419434  0.260442  0.564110  1
  Se  Se18  1  0.987902  0.675905  0.879099  1
  Se  Se19  1  0.000044  0.326328  0.888888  1
  Se  Se20  1  0.569202  0.489126  0.353936  1
  Se  Se21  1  0.993638  0.974341  0.233313  1
  Se  Se22  1  0.394487  0.507324  0.721626  1
  Se  Se23  1  0.004776  0.006441  0.766944  1
