# generated using pymatgen
data_RbHBr2
_symmetry_space_group_name_H-M   'P 1'
_cell_length_a   6.99343760
_cell_length_b   6.99343611
_cell_length_c   6.99343751
_cell_angle_alpha   113.38069766
_cell_angle_beta   113.38068702
_cell_angle_gamma   101.90694843
_symmetry_Int_Tables_number   1
_chemical_formula_structural   RbHBr2
_chemical_formula_sum   'Rb2 H2 Br4'
_cell_volume   259.92167144
_cell_formula_units_Z   2
loop_
 _symmetry_equiv_pos_site_id
 _symmetry_equiv_pos_as_xyz
  1  'x, y, z'
loop_
 _atom_site_type_symbol
 _atom_site_label
 _atom_site_symmetry_multiplicity
 _atom_site_fract_x
 _atom_site_fract_y
 _atom_site_fract_z
 _atom_site_occupancy
  Rb  Rb0  1  0.250000  0.250000  0.000000  1
  Rb  Rb1  1  0.750000  0.750000  0.000000  1
  H  H2  1  0.500000  0.000000  0.500000  1
  H  H3  1  0.000000  0.500000  0.500000  1
  Br  Br4  1  0.841992  0.341992  0.183984  1
  Br  Br5  1  0.341992  0.158008  0.500000  1
  Br  Br6  1  0.658009  0.841992  0.500000  1
  Br  Br7  1  0.158008  0.658007  0.816016  1
