# generated using pymatgen
data_Er12GaNi4Pd
_symmetry_space_group_name_H-M   'P 1'
_cell_length_a   8.22254164
_cell_length_b   8.21813415
_cell_length_c   8.22254217
_cell_angle_alpha   111.57309861
_cell_angle_beta   110.05929107
_cell_angle_gamma   106.83832176
_symmetry_Int_Tables_number   1
_chemical_formula_structural   Er12GaNi4Pd
_chemical_formula_sum   'Er12 Ga1 Ni4 Pd1'
_cell_volume   426.85537667
_cell_formula_units_Z   1
loop_
 _symmetry_equiv_pos_site_id
 _symmetry_equiv_pos_as_xyz
  1  'x, y, z'
loop_
 _atom_site_type_symbol
 _atom_site_label
 _atom_site_symmetry_multiplicity
 _atom_site_fract_x
 _atom_site_fract_y
 _atom_site_fract_z
 _atom_site_occupancy
  Er  Er0  1  0.417037  0.224543  0.192478  1
  Er  Er1  1  0.582963  0.775457  0.807522  1
  Er  Er2  1  0.032065  0.224543  0.807506  1
  Er  Er3  1  0.967935  0.775457  0.192494  1
  Er  Er4  1  0.183277  0.292914  0.476057  1
  Er  Er5  1  0.816723  0.707086  0.523943  1
  Er  Er6  1  0.183145  0.707086  0.890364  1
  Er  Er7  1  0.816855  0.292914  0.109636  1
  Er  Er8  1  0.324690  0.628732  0.304044  1
  Er  Er9  1  0.675310  0.371268  0.695956  1
  Er  Er10  1  0.324568  0.020439  0.695871  1
  Er  Er11  1  0.675432  0.979561  0.304129  1
  Ga  Ga12  1  0.500000  0.500000  0.000000  1
  Ni  Ni13  1  0.357086  0.000000  0.357086  1
  Ni  Ni14  1  0.642914  0.000000  0.642914  1
  Ni  Ni15  1  0.126067  0.626383  0.500317  1
  Ni  Ni16  1  0.873933  0.373617  0.499683  1
  Pd  Pd17  1  0.000000  0.000000  0.000000  1
