# generated using pymatgen
data_Pr6Al2SiS14
_symmetry_space_group_name_H-M   'P 1'
_cell_length_a   10.11575100
_cell_length_b   10.11575145
_cell_length_c   6.01012200
_cell_angle_alpha   90.00000000
_cell_angle_beta   90.00000000
_cell_angle_gamma   120.00000833
_symmetry_Int_Tables_number   1
_chemical_formula_structural   Pr6Al2SiS14
_chemical_formula_sum   'Pr6 Al2 Si1 S14'
_cell_volume   532.61103931
_cell_formula_units_Z   1
loop_
 _symmetry_equiv_pos_site_id
 _symmetry_equiv_pos_as_xyz
  1  'x, y, z'
loop_
 _atom_site_type_symbol
 _atom_site_label
 _atom_site_symmetry_multiplicity
 _atom_site_fract_x
 _atom_site_fract_y
 _atom_site_fract_z
 _atom_site_occupancy
  Pr  Pr0  1  0.799284  0.698337  0.522510  1
  Pr  Pr1  1  0.899054  0.200716  0.522510  1
  Pr  Pr2  1  0.301663  0.100946  0.522510  1
  Pr  Pr3  1  0.526703  0.965918  0.039051  1
  Pr  Pr4  1  0.439215  0.473297  0.039051  1
  Pr  Pr5  1  0.034082  0.560785  0.039051  1
  Al  Al6  1  0.666667  0.333333  0.314842  1
  Al  Al7  1  0.333333  0.666667  0.453987  1
  Si  Si8  1  0.000000  0.000000  0.945613  1
  S  S9  1  0.000000  0.000000  0.299541  1
  S  S10  1  0.333333  0.666667  0.823571  1
  S  S11  1  0.078409  0.856092  0.806776  1
  S  S12  1  0.777682  0.921591  0.806776  1
  S  S13  1  0.143908  0.222318  0.806776  1
  S  S14  1  0.244733  0.813013  0.304716  1
  S  S15  1  0.568280  0.755267  0.304716  1
  S  S16  1  0.186987  0.431720  0.304716  1
  S  S17  1  0.903639  0.484265  0.542298  1
  S  S18  1  0.580626  0.096361  0.542298  1
  S  S19  1  0.515735  0.419374  0.542298  1
  S  S20  1  0.434145  0.190959  0.086134  1
  S  S21  1  0.756815  0.565855  0.086134  1
  S  S22  1  0.809041  0.243185  0.086134  1
