# generated using pymatgen
data_Dy4As5Ir7Pt
_symmetry_space_group_name_H-M   'P 1'
_cell_length_a   7.30932371
_cell_length_b   7.30932489
_cell_length_c   7.30932542
_cell_angle_alpha   107.03984978
_cell_angle_beta   110.70038633
_cell_angle_gamma   110.70037405
_symmetry_Int_Tables_number   1
_chemical_formula_structural   Dy4As5Ir7Pt
_chemical_formula_sum   'Dy4 As5 Ir7 Pt1'
_cell_volume   300.21088451
_cell_formula_units_Z   1
loop_
 _symmetry_equiv_pos_site_id
 _symmetry_equiv_pos_as_xyz
  1  'x, y, z'
loop_
 _atom_site_type_symbol
 _atom_site_label
 _atom_site_symmetry_multiplicity
 _atom_site_fract_x
 _atom_site_fract_y
 _atom_site_fract_z
 _atom_site_occupancy
  Dy  Dy0  1  0.000000  0.986301  0.499930  1
  Dy  Dy1  1  0.000000  0.499930  0.986301  1
  Dy  Dy2  1  0.486371  0.986299  0.986299  1
  Dy  Dy3  1  0.513628  0.499929  0.499929  1
  As  As4  1  0.684347  0.684775  0.000428  1
  As  As5  1  0.315654  0.000429  0.316082  1
  As  As6  1  0.000000  0.328184  0.328184  1
  As  As7  1  0.315654  0.316082  0.000429  1
  As  As8  1  0.684347  0.000428  0.684775  1
  Ir  Ir9  1  0.748645  0.239187  0.490542  1
  Ir  Ir10  1  0.748645  0.490542  0.239187  1
  Ir  Ir11  1  0.500000  0.245489  0.745488  1
  Ir  Ir12  1  0.251355  0.490542  0.741897  1
  Ir  Ir13  1  0.251355  0.741897  0.490542  1
  Ir  Ir14  1  0.500000  0.745488  0.245489  1
  Ir  Ir15  1  0.000001  0.033413  0.033413  1
  Pt  Pt16  1  0.999998  0.711083  0.711083  1
