# generated using pymatgen
data_Er9Tm(RuRh)2
_symmetry_space_group_name_H-M   'P 1'
_cell_length_a   6.32056850
_cell_length_b   7.22048231
_cell_length_c   8.41914519
_cell_angle_alpha   96.76857320
_cell_angle_beta   112.04711288
_cell_angle_gamma   89.99999977
_symmetry_Int_Tables_number   1
_chemical_formula_structural   Er9Tm(RuRh)2
_chemical_formula_sum   'Er9 Tm1 Ru2 Rh2'
_cell_volume   353.24172304
_cell_formula_units_Z   1
loop_
 _symmetry_equiv_pos_site_id
 _symmetry_equiv_pos_as_xyz
  1  'x, y, z'
loop_
 _atom_site_type_symbol
 _atom_site_label
 _atom_site_symmetry_multiplicity
 _atom_site_fract_x
 _atom_site_fract_y
 _atom_site_fract_z
 _atom_site_occupancy
  Er  Er0  1  0.792104  0.082027  0.812275  1
  Er  Er1  1  0.979829  0.417973  0.187725  1
  Er  Er2  1  0.209532  0.914606  0.184800  1
  Er  Er3  1  0.024731  0.585394  0.815200  1
  Er  Er4  1  0.207655  0.183435  0.564942  1
  Er  Er5  1  0.642713  0.316565  0.435058  1
  Er  Er6  1  0.792087  0.813022  0.437091  1
  Er  Er7  1  0.354994  0.686978  0.562909  1
  Er  Er8  1  0.419086  0.250000  0.000000  1
  Tm  Tm9  1  0.577868  0.750000  0.000000  1
  Ru  Ru10  1  0.396786  0.575357  0.220046  1
  Ru  Ru11  1  0.176741  0.924643  0.779954  1
  Rh  Rh12  1  0.602576  0.423845  0.779280  1
  Rh  Rh13  1  0.823295  0.076155  0.220720  1
