# generated using pymatgen
data_TbTm2Pa(ZnRh)4
_symmetry_space_group_name_H-M   'P 1'
_cell_length_a   3.85077000
_cell_length_b   7.08328290
_cell_length_c   8.31125305
_cell_angle_alpha   90.88388014
_cell_angle_beta   90.00000000
_cell_angle_gamma   90.00000000
_symmetry_Int_Tables_number   1
_chemical_formula_structural   TbTm2Pa(ZnRh)4
_chemical_formula_sum   'Tb1 Tm2 Pa1 Zn4 Rh4'
_cell_volume   226.67153896
_cell_formula_units_Z   1
loop_
 _symmetry_equiv_pos_site_id
 _symmetry_equiv_pos_as_xyz
  1  'x, y, z'
loop_
 _atom_site_type_symbol
 _atom_site_label
 _atom_site_symmetry_multiplicity
 _atom_site_fract_x
 _atom_site_fract_y
 _atom_site_fract_z
 _atom_site_occupancy
  Tb  Tb0  1  0.250000  0.052941  0.322601  1
  Tm  Tm1  1  0.750000  0.442087  0.808643  1
  Tm  Tm2  1  0.750000  0.940225  0.687283  1
  Pa  Pa3  1  0.250000  0.553762  0.177580  1
  Zn  Zn4  1  0.250000  0.620517  0.564676  1
  Zn  Zn5  1  0.750000  0.370680  0.443674  1
  Zn  Zn6  1  0.750000  0.894441  0.061759  1
  Zn  Zn7  1  0.250000  0.126997  0.933629  1
  Rh  Rh8  1  0.250000  0.738671  0.887524  1
  Rh  Rh9  1  0.750000  0.283401  0.127746  1
  Rh  Rh10  1  0.750000  0.741075  0.356809  1
  Rh  Rh11  1  0.250000  0.235204  0.628075  1
