# generated using pymatgen
data_YHo2(BPt2)3
_symmetry_space_group_name_H-M   'P 1'
_cell_length_a   5.35109496
_cell_length_b   5.35665808
_cell_length_c   7.96415400
_cell_angle_alpha   90.00000000
_cell_angle_beta   90.00000000
_cell_angle_gamma   120.03439135
_symmetry_Int_Tables_number   1
_chemical_formula_structural   YHo2(BPt2)3
_chemical_formula_sum   'Y1 Ho2 B3 Pt6'
_cell_volume   197.63154055
_cell_formula_units_Z   1
loop_
 _symmetry_equiv_pos_site_id
 _symmetry_equiv_pos_as_xyz
  1  'x, y, z'
loop_
 _atom_site_type_symbol
 _atom_site_label
 _atom_site_symmetry_multiplicity
 _atom_site_fract_x
 _atom_site_fract_y
 _atom_site_fract_z
 _atom_site_occupancy
  Y  Y0  1  0.000000  0.500000  0.666667  1
  Ho  Ho1  1  0.500000  0.500000  0.333203  1
  Ho  Ho2  1  0.500000  0.000000  0.000130  1
  B  B3  1  0.000000  0.500000  0.166667  1
  B  B4  1  0.500000  0.500000  0.833438  1
  B  B5  1  0.500000  0.000000  0.499895  1
  Pt  Pt6  1  0.304513  0.152257  0.666667  1
  Pt  Pt7  1  0.152296  0.848496  0.332906  1
  Pt  Pt8  1  0.847704  0.696201  0.000427  1
  Pt  Pt9  1  0.847704  0.151504  0.332906  1
  Pt  Pt10  1  0.152296  0.303799  0.000427  1
  Pt  Pt11  1  0.695487  0.847743  0.666667  1
