# generated using pymatgen
data_Cs3RbCaBr6
_symmetry_space_group_name_H-M   'P 1'
_cell_length_a   9.82143068
_cell_length_b   9.82143078
_cell_length_c   9.82143104
_cell_angle_alpha   90.36552645
_cell_angle_beta   90.36552163
_cell_angle_gamma   90.36552440
_symmetry_Int_Tables_number   1
_chemical_formula_structural   Cs3RbCaBr6
_chemical_formula_sum   'Cs6 Rb2 Ca2 Br12'
_cell_volume   947.32208125
_cell_formula_units_Z   2
loop_
 _symmetry_equiv_pos_site_id
 _symmetry_equiv_pos_as_xyz
  1  'x, y, z'
loop_
 _atom_site_type_symbol
 _atom_site_label
 _atom_site_symmetry_multiplicity
 _atom_site_fract_x
 _atom_site_fract_y
 _atom_site_fract_z
 _atom_site_occupancy
  Cs  Cs0  1  0.871106  0.628894  0.250000  1
  Cs  Cs1  1  0.628894  0.250000  0.871106  1
  Cs  Cs2  1  0.250000  0.871106  0.628894  1
  Cs  Cs3  1  0.128894  0.371106  0.750000  1
  Cs  Cs4  1  0.371106  0.750000  0.128894  1
  Cs  Cs5  1  0.750000  0.128894  0.371106  1
  Rb  Rb6  1  0.250000  0.250000  0.250000  1
  Rb  Rb7  1  0.750000  0.750000  0.750000  1
  Ca  Ca8  1  0.000000  0.000000  0.000000  1
  Ca  Ca9  1  0.500000  0.500000  0.500000  1
  Br  Br10  1  0.214210  0.552379  0.428131  1
  Br  Br11  1  0.052379  0.714210  0.928131  1
  Br  Br12  1  0.928131  0.052379  0.714210  1
  Br  Br13  1  0.785790  0.447621  0.571869  1
  Br  Br14  1  0.714210  0.928131  0.052379  1
  Br  Br15  1  0.447621  0.571869  0.785790  1
  Br  Br16  1  0.571869  0.785790  0.447621  1
  Br  Br17  1  0.552379  0.428131  0.214210  1
  Br  Br18  1  0.071869  0.947621  0.285790  1
  Br  Br19  1  0.947621  0.285790  0.071869  1
  Br  Br20  1  0.285790  0.071869  0.947621  1
  Br  Br21  1  0.428131  0.214210  0.552379  1
