# generated using pymatgen
data_Na4Nb5MoSe12
_symmetry_space_group_name_H-M   'P 1'
_cell_length_a   15.82489559
_cell_length_b   15.82489581
_cell_length_c   15.82489543
_cell_angle_alpha   22.14770276
_cell_angle_beta   22.14769988
_cell_angle_gamma   22.14770263
_symmetry_Int_Tables_number   1
_chemical_formula_structural   Na4Nb5MoSe12
_chemical_formula_sum   'Na4 Nb5 Mo1 Se12'
_cell_volume   493.85296250
_cell_formula_units_Z   1
loop_
 _symmetry_equiv_pos_site_id
 _symmetry_equiv_pos_as_xyz
  1  'x, y, z'
loop_
 _atom_site_type_symbol
 _atom_site_label
 _atom_site_symmetry_multiplicity
 _atom_site_fract_x
 _atom_site_fract_y
 _atom_site_fract_z
 _atom_site_occupancy
  Na  Na0  1  0.916405  0.916405  0.916405  1
  Na  Na1  1  0.583062  0.583062  0.583062  1
  Na  Na2  1  0.417221  0.417221  0.417221  1
  Na  Na3  1  0.083594  0.083594  0.083594  1
  Nb  Nb4  1  0.666679  0.666679  0.666679  1
  Nb  Nb5  1  0.999997  0.999997  0.999997  1
  Nb  Nb6  1  0.833704  0.166300  0.500031  1
  Nb  Nb7  1  0.500031  0.833704  0.166300  1
  Nb  Nb8  1  0.166300  0.500031  0.833704  1
  Mo  Mo9  1  0.333201  0.333201  0.333201  1
  Se  Se10  1  0.971165  0.624099  0.297765  1
  Se  Se11  1  0.297765  0.971165  0.624099  1
  Se  Se12  1  0.624099  0.297765  0.971165  1
  Se  Se13  1  0.695993  0.370433  0.040280  1
  Se  Se14  1  0.040280  0.695993  0.370433  1
  Se  Se15  1  0.370433  0.040280  0.695993  1
  Se  Se16  1  0.870472  0.535061  0.202735  1
  Se  Se17  1  0.202735  0.870472  0.535061  1
  Se  Se18  1  0.535061  0.202735  0.870472  1
  Se  Se19  1  0.797429  0.465003  0.129371  1
  Se  Se20  1  0.129371  0.797429  0.465003  1
  Se  Se21  1  0.465003  0.129371  0.797429  1
