# generated using pymatgen
data_Y3ErOs7W
_symmetry_space_group_name_H-M   'P 1'
_cell_length_a   5.30293569
_cell_length_b   5.30284932
_cell_length_c   8.88858201
_cell_angle_alpha   90.00479941
_cell_angle_beta   89.99466416
_cell_angle_gamma   118.06120861
_symmetry_Int_Tables_number   1
_chemical_formula_structural   Y3ErOs7W
_chemical_formula_sum   'Y3 Er1 Os7 W1'
_cell_volume   220.56980004
_cell_formula_units_Z   1
loop_
 _symmetry_equiv_pos_site_id
 _symmetry_equiv_pos_as_xyz
  1  'x, y, z'
loop_
 _atom_site_type_symbol
 _atom_site_label
 _atom_site_symmetry_multiplicity
 _atom_site_fract_x
 _atom_site_fract_y
 _atom_site_fract_z
 _atom_site_occupancy
  Y  Y0  1  0.328825  0.671179  0.437246  1
  Y  Y1  1  0.666469  0.333532  0.566414  1
  Y  Y2  1  0.666420  0.333573  0.933854  1
  Er  Er3  1  0.328557  0.671424  0.062493  1
  Os  Os4  1  0.992384  0.007625  0.502658  1
  Os  Os5  1  0.992556  0.007450  0.997636  1
  Os  Os6  1  0.825043  0.649819  0.249270  1
  Os  Os7  1  0.350185  0.174955  0.249266  1
  Os  Os8  1  0.177993  0.822003  0.750710  1
  Os  Os9  1  0.173013  0.338229  0.750455  1
  Os  Os10  1  0.661776  0.826993  0.750455  1
  W  W11  1  0.836777  0.163220  0.249541  1
