# generated using pymatgen
data_La2Tb2ErSi4
_symmetry_space_group_name_H-M   'P 1'
_cell_length_a   7.81481800
_cell_length_b   7.81481800
_cell_length_c   14.59907800
_cell_angle_alpha   90.00000000
_cell_angle_beta   90.00000000
_cell_angle_gamma   90.00000000
_symmetry_Int_Tables_number   1
_chemical_formula_structural   La2Tb2ErSi4
_chemical_formula_sum   'La8 Tb8 Er4 Si16'
_cell_volume   891.58584563
_cell_formula_units_Z   4
loop_
 _symmetry_equiv_pos_site_id
 _symmetry_equiv_pos_as_xyz
  1  'x, y, z'
loop_
 _atom_site_type_symbol
 _atom_site_label
 _atom_site_symmetry_multiplicity
 _atom_site_fract_x
 _atom_site_fract_y
 _atom_site_fract_z
 _atom_site_occupancy
  La  La0  1  0.988247  0.635685  0.044218  1
  La  La1  1  0.011753  0.364315  0.544218  1
  La  La2  1  0.635685  0.988247  0.955782  1
  La  La3  1  0.135685  0.511753  0.794218  1
  La  La4  1  0.864315  0.488247  0.294218  1
  La  La5  1  0.511753  0.135685  0.205782  1
  La  La6  1  0.488247  0.864315  0.705782  1
  La  La7  1  0.364315  0.011753  0.455782  1
  Tb  Tb8  1  0.364753  0.489209  0.374307  1
  Tb  Tb9  1  0.864753  0.010791  0.375693  1
  Tb  Tb10  1  0.989209  0.135247  0.124307  1
  Tb  Tb11  1  0.010791  0.864753  0.624307  1
  Tb  Tb12  1  0.635247  0.510791  0.874307  1
  Tb  Tb13  1  0.489209  0.364753  0.625693  1
  Tb  Tb14  1  0.510791  0.635247  0.125693  1
  Tb  Tb15  1  0.135247  0.989209  0.875693  1
  Er  Er16  1  0.685350  0.685350  0.500000  1
  Er  Er17  1  0.814650  0.185350  0.750000  1
  Er  Er18  1  0.185350  0.814650  0.250000  1
  Er  Er19  1  0.314650  0.314650  0.000000  1
  Si  Si20  1  0.069634  0.714212  0.437351  1
  Si  Si21  1  0.930366  0.285788  0.937351  1
  Si  Si22  1  0.714212  0.069634  0.562649  1
  Si  Si23  1  0.214213  0.430366  0.187351  1
  Si  Si24  1  0.785788  0.569634  0.687351  1
  Si  Si25  1  0.430366  0.214213  0.812649  1
  Si  Si26  1  0.569634  0.785788  0.312649  1
  Si  Si27  1  0.285788  0.930366  0.062649  1
  Si  Si28  1  0.841326  0.800805  0.805136  1
  Si  Si29  1  0.158674  0.199195  0.305136  1
  Si  Si30  1  0.800805  0.841326  0.194864  1
  Si  Si31  1  0.300805  0.658674  0.555136  1
  Si  Si32  1  0.699195  0.341326  0.055136  1
  Si  Si33  1  0.658674  0.300805  0.444864  1
  Si  Si34  1  0.341326  0.699195  0.944864  1
  Si  Si35  1  0.199195  0.158674  0.694864  1
