# generated using pymatgen
data_Mg4Si4IrOs3
_symmetry_space_group_name_H-M   'P 1'
_cell_length_a   6.70206420
_cell_length_b   4.03673100
_cell_length_c   6.96875621
_cell_angle_alpha   90.00000000
_cell_angle_beta   90.02797044
_cell_angle_gamma   90.00000000
_symmetry_Int_Tables_number   1
_chemical_formula_structural   Mg4Si4IrOs3
_chemical_formula_sum   'Mg4 Si4 Ir1 Os3'
_cell_volume   188.53570676
_cell_formula_units_Z   1
loop_
 _symmetry_equiv_pos_site_id
 _symmetry_equiv_pos_as_xyz
  1  'x, y, z'
loop_
 _atom_site_type_symbol
 _atom_site_label
 _atom_site_symmetry_multiplicity
 _atom_site_fract_x
 _atom_site_fract_y
 _atom_site_fract_z
 _atom_site_occupancy
  Mg  Mg0  1  0.512875  0.249999  0.164123  1
  Mg  Mg1  1  0.011956  0.249999  0.337611  1
  Mg  Mg2  1  0.987447  0.749999  0.661562  1
  Mg  Mg3  1  0.487228  0.749999  0.836327  1
  Si  Si4  1  0.201697  0.749999  0.132838  1
  Si  Si5  1  0.700363  0.749999  0.370443  1
  Si  Si6  1  0.299603  0.249999  0.632693  1
  Si  Si7  1  0.802094  0.249999  0.864391  1
  Ir  Ir8  1  0.841931  0.749999  0.048708  1
  Os  Os9  1  0.343773  0.749999  0.449769  1
  Os  Os10  1  0.655077  0.249999  0.550276  1
  Os  Os11  1  0.155963  0.249999  0.951263  1
