# generated using pymatgen
data_Sm3Tm(Sc3Sn4)2
_symmetry_space_group_name_H-M   'P 1'
_cell_length_a   7.76828189
_cell_length_b   7.98356025
_cell_length_c   14.93578193
_cell_angle_alpha   89.97548388
_cell_angle_beta   89.89255933
_cell_angle_gamma   90.21427917
_symmetry_Int_Tables_number   1
_chemical_formula_structural   Sm3Tm(Sc3Sn4)2
_chemical_formula_sum   'Sm6 Tm2 Sc12 Sn16'
_cell_volume   926.28729180
_cell_formula_units_Z   2
loop_
 _symmetry_equiv_pos_site_id
 _symmetry_equiv_pos_as_xyz
  1  'x, y, z'
loop_
 _atom_site_type_symbol
 _atom_site_label
 _atom_site_symmetry_multiplicity
 _atom_site_fract_x
 _atom_site_fract_y
 _atom_site_fract_z
 _atom_site_occupancy
  Sm  Sm0  1  0.993697  0.175360  0.095934  1
  Sm  Sm1  1  0.006303  0.824640  0.904066  1
  Sm  Sm2  1  0.504999  0.675140  0.906302  1
  Sm  Sm3  1  0.005122  0.823408  0.593194  1
  Sm  Sm4  1  0.495001  0.324860  0.093698  1
  Sm  Sm5  1  0.994878  0.176592  0.406806  1
  Tm  Tm6  1  0.491097  0.323456  0.405937  1
  Tm  Tm7  1  0.508903  0.676544  0.594063  1
  Sc  Sc8  1  0.167108  0.495993  0.749143  1
  Sc  Sc9  1  0.832892  0.504007  0.250857  1
  Sc  Sc10  1  0.333091  0.995095  0.250667  1
  Sc  Sc11  1  0.666909  0.004905  0.749333  1
  Sc  Sc12  1  0.338081  0.162226  0.627239  1
  Sc  Sc13  1  0.661919  0.837774  0.372761  1
  Sc  Sc14  1  0.162259  0.659988  0.373679  1
  Sc  Sc15  1  0.662474  0.839646  0.128269  1
  Sc  Sc16  1  0.837741  0.340012  0.626321  1
  Sc  Sc17  1  0.337526  0.160354  0.871731  1
  Sc  Sc18  1  0.837129  0.338774  0.872140  1
  Sc  Sc19  1  0.162871  0.661226  0.127860  1
  Sn  Sn20  1  0.029558  0.126609  0.749075  1
  Sn  Sn21  1  0.970442  0.873391  0.250925  1
  Sn  Sn22  1  0.470069  0.624793  0.250257  1
  Sn  Sn23  1  0.529931  0.375207  0.749743  1
  Sn  Sn24  1  0.311226  0.850093  0.747909  1
  Sn  Sn25  1  0.688774  0.149907  0.252091  1
  Sn  Sn26  1  0.193185  0.352266  0.251190  1
  Sn  Sn27  1  0.806815  0.647734  0.748810  1
  Sn  Sn28  1  0.186874  0.457954  0.542558  1
  Sn  Sn29  1  0.813126  0.542046  0.457442  1
  Sn  Sn30  1  0.324031  0.957223  0.457068  1
  Sn  Sn31  1  0.822878  0.544548  0.043088  1
  Sn  Sn32  1  0.675969  0.042777  0.542932  1
  Sn  Sn33  1  0.177122  0.455452  0.956912  1
  Sn  Sn34  1  0.678561  0.043326  0.957109  1
  Sn  Sn35  1  0.321439  0.956674  0.042891  1
