# generated using pymatgen
data_Er4Lu4Tc3B24Os
_symmetry_space_group_name_H-M   'P 1'
_cell_length_a   3.62690500
_cell_length_b   9.07272382
_cell_length_c   11.44762700
_cell_angle_alpha   89.94763250
_cell_angle_beta   90.00000000
_cell_angle_gamma   90.00000000
_symmetry_Int_Tables_number   1
_chemical_formula_structural   Er4Lu4Tc3B24Os
_chemical_formula_sum   'Er4 Lu4 Tc3 B24 Os1'
_cell_volume   376.69439661
_cell_formula_units_Z   1
loop_
 _symmetry_equiv_pos_site_id
 _symmetry_equiv_pos_as_xyz
  1  'x, y, z'
loop_
 _atom_site_type_symbol
 _atom_site_label
 _atom_site_symmetry_multiplicity
 _atom_site_fract_x
 _atom_site_fract_y
 _atom_site_fract_z
 _atom_site_occupancy
  Er  Er0  1  0.000000  0.323009  0.413846  1
  Er  Er1  1  0.000000  0.675966  0.584395  1
  Er  Er2  1  0.000000  0.822377  0.087342  1
  Er  Er3  1  0.000000  0.178601  0.914447  1
  Lu  Lu4  1  0.000000  0.942883  0.370379  1
  Lu  Lu5  1  0.000000  0.057867  0.629593  1
  Lu  Lu6  1  0.000000  0.443262  0.129840  1
  Lu  Lu7  1  0.000000  0.556613  0.869885  1
  Tc  Tc8  1  0.000000  0.638958  0.320031  1
  Tc  Tc9  1  0.000000  0.361081  0.680530  1
  Tc  Tc10  1  0.000000  0.138481  0.178904  1
  B  B11  1  0.500000  0.553168  0.433052  1
  B  B12  1  0.500000  0.446776  0.566800  1
  B  B13  1  0.500000  0.053107  0.066748  1
  B  B14  1  0.500000  0.946216  0.933012  1
  B  B15  1  0.500000  0.750083  0.419014  1
  B  B16  1  0.500000  0.249628  0.581068  1
  B  B17  1  0.500000  0.250661  0.081039  1
  B  B18  1  0.500000  0.749850  0.918681  1
  B  B19  1  0.500000  0.792823  0.265362  1
  B  B20  1  0.500000  0.207339  0.735218  1
  B  B21  1  0.500000  0.292737  0.234916  1
  B  B22  1  0.500000  0.707970  0.765011  1
  B  B23  1  0.500000  0.630414  0.184722  1
  B  B24  1  0.500000  0.369489  0.815865  1
  B  B25  1  0.500000  0.129962  0.315009  1
  B  B26  1  0.500000  0.869546  0.684738  1
  B  B27  1  0.500000  0.981043  0.212295  1
  B  B28  1  0.500000  0.017795  0.787654  1
  B  B29  1  0.500000  0.481266  0.287556  1
  B  B30  1  0.500000  0.518574  0.712347  1
  B  B31  1  0.500000  0.600388  0.027558  1
  B  B32  1  0.500000  0.400764  0.972315  1
  B  B33  1  0.500000  0.100046  0.472352  1
  B  B34  1  0.500000  0.900053  0.528064  1
  Os  Os35  1  0.000000  0.861204  0.820409  1
