# generated using pymatgen
data_Li2Dy2BiPb
_symmetry_space_group_name_H-M   'P 1'
_cell_length_a   9.60922300
_cell_length_b   9.60633737
_cell_length_c   7.23746175
_cell_angle_alpha   89.89971822
_cell_angle_beta   90.00000000
_cell_angle_gamma   120.00993381
_symmetry_Int_Tables_number   1
_chemical_formula_structural   Li2Dy2BiPb
_chemical_formula_sum   'Li8 Dy8 Bi4 Pb4'
_cell_volume   578.52036501
_cell_formula_units_Z   4
loop_
 _symmetry_equiv_pos_site_id
 _symmetry_equiv_pos_as_xyz
  1  'x, y, z'
loop_
 _atom_site_type_symbol
 _atom_site_label
 _atom_site_symmetry_multiplicity
 _atom_site_fract_x
 _atom_site_fract_y
 _atom_site_fract_z
 _atom_site_occupancy
  Li  Li0  1  0.167068  0.334136  0.267535  1
  Li  Li1  1  0.170192  0.833842  0.277369  1
  Li  Li2  1  0.663650  0.833842  0.277369  1
  Li  Li3  1  0.831992  0.663983  0.777424  1
  Li  Li4  1  0.830759  0.168145  0.784964  1
  Li  Li5  1  0.337386  0.168145  0.784964  1
  Li  Li6  1  0.334028  0.668056  0.679065  1
  Li  Li7  1  0.665020  0.330041  0.186033  1
  Dy  Dy8  1  0.513010  0.026020  0.491933  1
  Dy  Dy9  1  0.506248  0.484844  0.491812  1
  Dy  Dy10  1  0.978597  0.484844  0.491812  1
  Dy  Dy11  1  0.491448  0.982896  0.998458  1
  Dy  Dy12  1  0.489476  0.506663  0.996121  1
  Dy  Dy13  1  0.017186  0.506663  0.996121  1
  Dy  Dy14  1  0.002667  0.005332  0.498077  1
  Dy  Dy15  1  0.001407  0.002814  0.004984  1
  Bi  Bi16  1  0.166598  0.333196  0.738307  1
  Bi  Bi17  1  0.166081  0.833372  0.736453  1
  Bi  Bi18  1  0.667291  0.833372  0.736453  1
  Bi  Bi19  1  0.833395  0.666791  0.238240  1
  Pb  Pb20  1  0.833841  0.166334  0.236054  1
  Pb  Pb21  1  0.332493  0.166334  0.236054  1
  Pb  Pb22  1  0.332816  0.665634  0.257329  1
  Pb  Pb23  1  0.667350  0.334701  0.759064  1
