# generated using pymatgen
data_Nd16In4Os3Pt
_symmetry_space_group_name_H-M   'P 1'
_cell_length_a   9.97418345
_cell_length_b   10.01634287
_cell_length_c   10.01623725
_cell_angle_alpha   59.94991844
_cell_angle_beta   59.93805331
_cell_angle_gamma   59.93833155
_symmetry_Int_Tables_number   1
_chemical_formula_structural   Nd16In4Os3Pt
_chemical_formula_sum   'Nd16 In4 Os3 Pt1'
_cell_volume   706.65175389
_cell_formula_units_Z   1
loop_
 _symmetry_equiv_pos_site_id
 _symmetry_equiv_pos_as_xyz
  1  'x, y, z'
loop_
 _atom_site_type_symbol
 _atom_site_label
 _atom_site_symmetry_multiplicity
 _atom_site_fract_x
 _atom_site_fract_y
 _atom_site_fract_z
 _atom_site_occupancy
  Nd  Nd0  1  0.343814  0.349843  0.349818  1
  Nd  Nd1  1  0.345770  0.350876  0.956188  1
  Nd  Nd2  1  0.345778  0.956195  0.350852  1
  Nd  Nd3  1  0.959033  0.347687  0.347723  1
  Nd  Nd4  1  0.814237  0.190654  0.190655  1
  Nd  Nd5  1  0.187372  0.807459  0.807459  1
  Nd  Nd6  1  0.191103  0.807624  0.192724  1
  Nd  Nd7  1  0.812059  0.191797  0.799595  1
  Nd  Nd8  1  0.191090  0.192728  0.807640  1
  Nd  Nd9  1  0.812043  0.799613  0.191822  1
  Nd  Nd10  1  0.939768  0.559304  0.559311  1
  Nd  Nd11  1  0.554430  0.942499  0.942505  1
  Nd  Nd12  1  0.553812  0.941268  0.564544  1
  Nd  Nd13  1  0.943420  0.555172  0.944209  1
  Nd  Nd14  1  0.553829  0.564533  0.941266  1
  Nd  Nd15  1  0.943454  0.944174  0.555152  1
  In  In16  1  0.581528  0.580433  0.580406  1
  In  In17  1  0.581431  0.580330  0.256372  1
  In  In18  1  0.581444  0.256344  0.580344  1
  In  In19  1  0.254141  0.581401  0.581400  1
  Os  Os20  1  0.143650  0.137955  0.137935  1
  Os  Os21  1  0.143753  0.138827  0.582161  1
  Os  Os22  1  0.143730  0.582161  0.138830  1
  Pt  Pt23  1  0.579312  0.141125  0.141091  1
