# generated using pymatgen
data_LaPr3(Lu4Bi3)4
_symmetry_space_group_name_H-M   'P 1'
_cell_length_a   8.22967501
_cell_length_b   9.41657201
_cell_length_c   11.98151800
_cell_angle_alpha   90.00025555
_cell_angle_beta   90.00274307
_cell_angle_gamma   90.00307269
_symmetry_Int_Tables_number   1
_chemical_formula_structural   LaPr3(Lu4Bi3)4
_chemical_formula_sum   'La1 Pr3 Lu16 Bi12'
_cell_volume   928.51165745
_cell_formula_units_Z   1
loop_
 _symmetry_equiv_pos_site_id
 _symmetry_equiv_pos_as_xyz
  1  'x, y, z'
loop_
 _atom_site_type_symbol
 _atom_site_label
 _atom_site_symmetry_multiplicity
 _atom_site_fract_x
 _atom_site_fract_y
 _atom_site_fract_z
 _atom_site_occupancy
  La  La0  1  0.181003  0.750046  0.719572  1
  Pr  Pr1  1  0.319138  0.250020  0.218611  1
  Pr  Pr2  1  0.819059  0.249972  0.281312  1
  Pr  Pr3  1  0.680957  0.750000  0.781488  1
  Lu  Lu4  1  0.352615  0.749795  0.220768  1
  Lu  Lu5  1  0.852034  0.750129  0.279010  1
  Lu  Lu6  1  0.647827  0.250163  0.779388  1
  Lu  Lu7  1  0.148545  0.249995  0.720779  1
  Lu  Lu8  1  0.689054  0.567271  0.062979  1
  Lu  Lu9  1  0.189647  0.932787  0.436694  1
  Lu  Lu10  1  0.310602  0.067556  0.937700  1
  Lu  Lu11  1  0.810493  0.432918  0.562734  1
  Lu  Lu12  1  0.310624  0.432444  0.937700  1
  Lu  Lu13  1  0.810479  0.067054  0.562721  1
  Lu  Lu14  1  0.689077  0.932676  0.062995  1
  Lu  Lu15  1  0.189631  0.567185  0.436665  1
  Lu  Lu16  1  0.480685  0.249983  0.488738  1
  Lu  Lu17  1  0.980522  0.249976  0.010975  1
  Lu  Lu18  1  0.519739  0.749996  0.510981  1
  Lu  Lu19  1  0.018224  0.749992  0.988948  1
  Bi  Bi20  1  0.398404  0.750013  0.966119  1
  Bi  Bi21  1  0.898556  0.750003  0.533451  1
  Bi  Bi22  1  0.601251  0.249971  0.034354  1
  Bi  Bi23  1  0.100715  0.249989  0.465947  1
  Bi  Bi24  1  0.566655  0.989717  0.329412  1
  Bi  Bi25  1  0.066526  0.510301  0.170552  1
  Bi  Bi26  1  0.434500  0.489113  0.670387  1
  Bi  Bi27  1  0.932778  0.011193  0.829301  1
  Bi  Bi28  1  0.434550  0.010948  0.670414  1
  Bi  Bi29  1  0.932806  0.488844  0.829309  1
  Bi  Bi30  1  0.566723  0.510249  0.329446  1
  Bi  Bi31  1  0.066581  0.989704  0.170550  1
