# generated using pymatgen
data_Dy3Y2Sn3S
_symmetry_space_group_name_H-M   'P 1'
_cell_length_a   9.08026500
_cell_length_b   9.08026411
_cell_length_c   6.67808900
_cell_angle_alpha   90.00000000
_cell_angle_beta   90.00000000
_cell_angle_gamma   119.99999232
_symmetry_Int_Tables_number   1
_chemical_formula_structural   Dy3Y2Sn3S
_chemical_formula_sum   'Dy6 Y4 Sn6 S2'
_cell_volume   476.84789719
_cell_formula_units_Z   2
loop_
 _symmetry_equiv_pos_site_id
 _symmetry_equiv_pos_as_xyz
  1  'x, y, z'
loop_
 _atom_site_type_symbol
 _atom_site_label
 _atom_site_symmetry_multiplicity
 _atom_site_fract_x
 _atom_site_fract_y
 _atom_site_fract_z
 _atom_site_occupancy
  Dy  Dy0  1  0.755044  0.755044  0.750000  1
  Dy  Dy1  1  0.244956  0.000000  0.750000  1
  Dy  Dy2  1  0.000000  0.244956  0.750000  1
  Dy  Dy3  1  0.244956  0.244956  0.250000  1
  Dy  Dy4  1  0.755044  0.000000  0.250000  1
  Dy  Dy5  1  0.000000  0.755044  0.250000  1
  Y  Y6  1  0.666667  0.333333  0.000000  1
  Y  Y7  1  0.333333  0.666667  0.000000  1
  Y  Y8  1  0.333333  0.666667  0.500000  1
  Y  Y9  1  0.666667  0.333333  0.500000  1
  Sn  Sn10  1  0.397897  0.397897  0.750000  1
  Sn  Sn11  1  0.602103  0.000000  0.750000  1
  Sn  Sn12  1  0.000000  0.602103  0.750000  1
  Sn  Sn13  1  0.602103  0.602103  0.250000  1
  Sn  Sn14  1  0.397897  0.000000  0.250000  1
  Sn  Sn15  1  0.000000  0.397897  0.250000  1
  S  S16  1  0.000000  0.000000  0.000000  1
  S  S17  1  0.000000  0.000000  0.500000  1
