# generated using pymatgen
data_TbYb2Dy(ReB4)4
_symmetry_space_group_name_H-M   'P 1'
_cell_length_a   3.60352100
_cell_length_b   5.97686709
_cell_length_c   11.57188143
_cell_angle_alpha   90.02573420
_cell_angle_beta   90.00000000
_cell_angle_gamma   90.00000000
_symmetry_Int_Tables_number   1
_chemical_formula_structural   TbYb2Dy(ReB4)4
_chemical_formula_sum   'Tb1 Yb2 Dy1 Re4 B16'
_cell_volume   249.23245025
_cell_formula_units_Z   1
loop_
 _symmetry_equiv_pos_site_id
 _symmetry_equiv_pos_as_xyz
  1  'x, y, z'
loop_
 _atom_site_type_symbol
 _atom_site_label
 _atom_site_symmetry_multiplicity
 _atom_site_fract_x
 _atom_site_fract_y
 _atom_site_fract_z
 _atom_site_occupancy
  Tb  Tb0  1  0.000000  0.872911  0.849452  1
  Yb  Yb1  1  0.000000  0.372461  0.649801  1
  Yb  Yb2  1  0.000000  0.127770  0.150266  1
  Dy  Dy3  1  0.000000  0.627110  0.349563  1
  Re  Re4  1  0.000000  0.631573  0.084985  1
  Re  Re5  1  0.000000  0.368744  0.915044  1
  Re  Re6  1  0.000000  0.131373  0.414937  1
  Re  Re7  1  0.000000  0.868316  0.584475  1
  B  B8  1  0.500000  0.785832  0.184897  1
  B  B9  1  0.500000  0.215293  0.815138  1
  B  B10  1  0.500000  0.285013  0.315213  1
  B  B11  1  0.500000  0.714166  0.684350  1
  B  B12  1  0.500000  0.864174  0.032629  1
  B  B13  1  0.500000  0.136287  0.968519  1
  B  B14  1  0.500000  0.363785  0.468202  1
  B  B15  1  0.500000  0.635629  0.532056  1
  B  B16  1  0.500000  0.887034  0.452875  1
  B  B17  1  0.500000  0.115267  0.547686  1
  B  B18  1  0.500000  0.384753  0.048055  1
  B  B19  1  0.500000  0.612578  0.953245  1
  B  B20  1  0.500000  0.977296  0.307477  1
  B  B21  1  0.500000  0.023676  0.691564  1
  B  B22  1  0.500000  0.476529  0.192113  1
  B  B23  1  0.500000  0.522432  0.807458  1
