# generated using pymatgen
data_Y7Sn22Ru6Au
_symmetry_space_group_name_H-M   'P 1'
_cell_length_a   9.84889300
_cell_length_b   9.84889415
_cell_length_c   10.05228000
_cell_angle_alpha   90.00000000
_cell_angle_beta   90.00000000
_cell_angle_gamma   120.00000621
_symmetry_Int_Tables_number   1
_chemical_formula_structural   Y7Sn22Ru6Au
_chemical_formula_sum   'Y7 Sn22 Ru6 Au1'
_cell_volume   844.44247665
_cell_formula_units_Z   1
loop_
 _symmetry_equiv_pos_site_id
 _symmetry_equiv_pos_as_xyz
  1  'x, y, z'
loop_
 _atom_site_type_symbol
 _atom_site_label
 _atom_site_symmetry_multiplicity
 _atom_site_fract_x
 _atom_site_fract_y
 _atom_site_fract_z
 _atom_site_occupancy
  Y  Y0  1  0.000000  0.000000  0.000000  1
  Y  Y1  1  0.033945  0.516972  0.304932  1
  Y  Y2  1  0.483028  0.966055  0.304932  1
  Y  Y3  1  0.483028  0.516972  0.304932  1
  Y  Y4  1  0.966055  0.483028  0.695068  1
  Y  Y5  1  0.516972  0.033945  0.695068  1
  Y  Y6  1  0.516972  0.483028  0.695068  1
  Sn  Sn7  1  0.118122  0.881878  0.276300  1
  Sn  Sn8  1  0.763755  0.881878  0.276300  1
  Sn  Sn9  1  0.118122  0.236245  0.276300  1
  Sn  Sn10  1  0.881878  0.118122  0.723700  1
  Sn  Sn11  1  0.236245  0.118122  0.723700  1
  Sn  Sn12  1  0.881878  0.763755  0.723700  1
  Sn  Sn13  1  0.348955  0.000000  0.000000  1
  Sn  Sn14  1  0.651045  0.651045  0.000000  1
  Sn  Sn15  1  0.000000  0.348955  0.000000  1
  Sn  Sn16  1  0.348955  0.348955  0.000000  1
  Sn  Sn17  1  0.000000  0.651045  0.000000  1
  Sn  Sn18  1  0.651045  0.000000  0.000000  1
  Sn  Sn19  1  0.779984  0.559969  0.462119  1
  Sn  Sn20  1  0.779984  0.220016  0.462119  1
  Sn  Sn21  1  0.440031  0.220016  0.462119  1
  Sn  Sn22  1  0.220016  0.440031  0.537881  1
  Sn  Sn23  1  0.220016  0.779984  0.537881  1
  Sn  Sn24  1  0.559969  0.779984  0.537881  1
  Sn  Sn25  1  0.666667  0.333333  0.176069  1
  Sn  Sn26  1  0.333333  0.666667  0.823931  1
  Sn  Sn27  1  0.666667  0.333333  0.874588  1
  Sn  Sn28  1  0.333333  0.666667  0.125412  1
  Ru  Ru29  1  0.168420  0.831580  0.795783  1
  Ru  Ru30  1  0.663159  0.831580  0.795783  1
  Ru  Ru31  1  0.168420  0.336841  0.795783  1
  Ru  Ru32  1  0.831580  0.168420  0.204217  1
  Ru  Ru33  1  0.336841  0.168420  0.204217  1
  Ru  Ru34  1  0.831580  0.663159  0.204217  1
  Au  Au35  1  0.000000  0.000000  0.500000  1
