# generated using pymatgen
data_DyHo2Al12Ir3Ru
_symmetry_space_group_name_H-M   'P 1'
_cell_length_a   8.81751058
_cell_length_b   8.81750993
_cell_length_c   9.47870100
_cell_angle_alpha   90.00000000
_cell_angle_beta   90.00000000
_cell_angle_gamma   120.04140622
_symmetry_Int_Tables_number   1
_chemical_formula_structural   DyHo2Al12Ir3Ru
_chemical_formula_sum   'Dy2 Ho4 Al24 Ir6 Ru2'
_cell_volume   637.95500260
_cell_formula_units_Z   2
loop_
 _symmetry_equiv_pos_site_id
 _symmetry_equiv_pos_as_xyz
  1  'x, y, z'
loop_
 _atom_site_type_symbol
 _atom_site_label
 _atom_site_symmetry_multiplicity
 _atom_site_fract_x
 _atom_site_fract_y
 _atom_site_fract_z
 _atom_site_occupancy
  Dy  Dy0  1  0.807450  0.614903  0.750000  1
  Dy  Dy1  1  0.385097  0.192550  0.750000  1
  Ho  Ho2  1  0.192934  0.807066  0.250000  1
  Ho  Ho3  1  0.192990  0.385880  0.250000  1
  Ho  Ho4  1  0.614120  0.807010  0.250000  1
  Ho  Ho5  1  0.807277  0.192723  0.750000  1
  Al  Al6  1  0.562148  0.437852  0.250000  1
  Al  Al7  1  0.562119  0.124271  0.250000  1
  Al  Al8  1  0.875729  0.437881  0.250000  1
  Al  Al9  1  0.437735  0.562265  0.750000  1
  Al  Al10  1  0.437957  0.875647  0.750000  1
  Al  Al11  1  0.124353  0.562043  0.750000  1
  Al  Al12  1  0.326031  0.163004  0.423792  1
  Al  Al13  1  0.837037  0.162963  0.423844  1
  Al  Al14  1  0.836996  0.673969  0.423792  1
  Al  Al15  1  0.673921  0.837062  0.575971  1
  Al  Al16  1  0.163014  0.836986  0.576005  1
  Al  Al17  1  0.162938  0.326079  0.575971  1
  Al  Al18  1  0.673921  0.837062  0.924029  1
  Al  Al19  1  0.163014  0.836986  0.923995  1
  Al  Al20  1  0.162938  0.326079  0.924029  1
  Al  Al21  1  0.326031  0.163004  0.076208  1
  Al  Al22  1  0.837037  0.162963  0.076156  1
  Al  Al23  1  0.836996  0.673969  0.076208  1
  Al  Al24  1  0.666681  0.333319  0.529004  1
  Al  Al25  1  0.333409  0.666591  0.470792  1
  Al  Al26  1  0.333409  0.666591  0.029208  1
  Al  Al27  1  0.666681  0.333319  0.970996  1
  Al  Al28  1  0.999966  0.000034  0.250000  1
  Al  Al29  1  0.999914  0.000086  0.750000  1
  Ir  Ir30  1  0.499913  0.500087  0.499763  1
  Ir  Ir31  1  0.500004  0.999819  0.499818  1
  Ir  Ir32  1  0.000181  0.499996  0.499818  1
  Ir  Ir33  1  0.499913  0.500087  0.000237  1
  Ir  Ir34  1  0.500004  0.999819  0.000182  1
  Ir  Ir35  1  0.000181  0.499996  0.000182  1
  Ru  Ru36  1  0.999982  0.000018  0.499819  1
  Ru  Ru37  1  0.999982  0.000018  0.000181  1
