# generated using pymatgen
data_Ba7Mn7F34
_symmetry_space_group_name_H-M   'P 1'
_cell_length_a   10.42693836
_cell_length_b   10.42693814
_cell_length_c   7.84667800
_cell_angle_alpha   79.89298404
_cell_angle_beta   79.89298426
_cell_angle_gamma   67.54131914
_symmetry_Int_Tables_number   1
_chemical_formula_structural   Ba7Mn7F34
_chemical_formula_sum   'Ba7 Mn7 F34'
_cell_volume   770.62771668
_cell_formula_units_Z   1
loop_
 _symmetry_equiv_pos_site_id
 _symmetry_equiv_pos_as_xyz
  1  'x, y, z'
loop_
 _atom_site_type_symbol
 _atom_site_label
 _atom_site_symmetry_multiplicity
 _atom_site_fract_x
 _atom_site_fract_y
 _atom_site_fract_z
 _atom_site_occupancy
  Ba  Ba0  1  0.161833  0.558917  0.300850  1
  Ba  Ba1  1  0.441083  0.838167  0.699150  1
  Ba  Ba2  1  0.838167  0.441083  0.699150  1
  Ba  Ba3  1  0.558917  0.161833  0.300850  1
  Ba  Ba4  1  0.265918  0.265918  0.858004  1
  Ba  Ba5  1  0.734082  0.734082  0.141996  1
  Ba  Ba6  1  0.000000  0.000000  0.000000  1
  Mn  Mn7  1  0.500000  0.500000  0.500000  1
  Mn  Mn8  1  0.351771  0.871393  0.196852  1
  Mn  Mn9  1  0.871393  0.351771  0.196852  1
  Mn  Mn10  1  0.648229  0.128607  0.803148  1
  Mn  Mn11  1  0.171940  0.171940  0.457721  1
  Mn  Mn12  1  0.828060  0.828060  0.542279  1
  Mn  Mn13  1  0.128607  0.648229  0.803148  1
  F  F14  1  0.432690  0.432690  0.304670  1
  F  F15  1  0.567310  0.567310  0.695330  1
  F  F16  1  0.104159  0.104159  0.673955  1
  F  F17  1  0.895841  0.895841  0.326045  1
  F  F18  1  0.246497  0.246497  0.246683  1
  F  F19  1  0.753503  0.753503  0.753317  1
  F  F20  1  0.883168  0.644701  0.449925  1
  F  F21  1  0.355299  0.116832  0.550075  1
  F  F22  1  0.116832  0.355299  0.550075  1
  F  F23  1  0.644701  0.883168  0.449925  1
  F  F24  1  0.019505  0.769772  0.619961  1
  F  F25  1  0.230228  0.980495  0.380039  1
  F  F26  1  0.980495  0.230228  0.380039  1
  F  F27  1  0.769772  0.019505  0.619961  1
  F  F28  1  0.487619  0.757445  0.031073  1
  F  F29  1  0.242555  0.512381  0.968927  1
  F  F30  1  0.512381  0.242555  0.968927  1
  F  F31  1  0.757445  0.487619  0.031073  1
  F  F32  1  0.737993  0.992296  0.018914  1
  F  F33  1  0.007704  0.262007  0.981086  1
  F  F34  1  0.262007  0.007704  0.981086  1
  F  F35  1  0.992296  0.737993  0.018914  1
  F  F36  1  0.475765  0.961623  0.194571  1
  F  F37  1  0.038377  0.524235  0.805429  1
  F  F38  1  0.524235  0.038377  0.805429  1
  F  F39  1  0.961623  0.475765  0.194571  1
  F  F40  1  0.783436  0.206797  0.803125  1
  F  F41  1  0.793203  0.216564  0.196875  1
  F  F42  1  0.216564  0.793203  0.196875  1
  F  F43  1  0.206797  0.783436  0.803125  1
  F  F44  1  0.455401  0.719953  0.394530  1
  F  F45  1  0.280047  0.544599  0.605470  1
  F  F46  1  0.544599  0.280047  0.605470  1
  F  F47  1  0.719953  0.455401  0.394530  1
