# generated using pymatgen
data_Tb2Y5Ho(Sc3Si4)4
_symmetry_space_group_name_H-M   'P 1'
_cell_length_a   7.10538500
_cell_length_b   7.39551854
_cell_length_c   14.01649529
_cell_angle_alpha   89.98981020
_cell_angle_beta   89.98965053
_cell_angle_gamma   90.01531201
_symmetry_Int_Tables_number   1
_chemical_formula_structural   Tb2Y5Ho(Sc3Si4)4
_chemical_formula_sum   'Tb2 Y5 Ho1 Sc12 Si16'
_cell_volume   736.53883551
_cell_formula_units_Z   1
loop_
 _symmetry_equiv_pos_site_id
 _symmetry_equiv_pos_as_xyz
  1  'x, y, z'
loop_
 _atom_site_type_symbol
 _atom_site_label
 _atom_site_symmetry_multiplicity
 _atom_site_fract_x
 _atom_site_fract_y
 _atom_site_fract_z
 _atom_site_occupancy
  Tb  Tb0  1  0.012040  0.175035  0.403132  1
  Tb  Tb1  1  0.511895  0.325047  0.403195  1
  Y  Y2  1  0.011903  0.175073  0.096992  1
  Y  Y3  1  0.988098  0.824904  0.902917  1
  Y  Y4  1  0.488093  0.675061  0.903091  1
  Y  Y5  1  0.988019  0.824774  0.597011  1
  Y  Y6  1  0.511916  0.324947  0.096979  1
  Ho  Ho7  1  0.487957  0.675425  0.597187  1
  Sc  Sc8  1  0.160609  0.502300  0.749895  1
  Sc  Sc9  1  0.839541  0.497863  0.250002  1
  Sc  Sc10  1  0.339480  0.002180  0.250023  1
  Sc  Sc11  1  0.660379  0.997688  0.749867  1
  Sc  Sc12  1  0.330819  0.176748  0.625225  1
  Sc  Sc13  1  0.669176  0.823120  0.374849  1
  Sc  Sc14  1  0.169429  0.676657  0.374842  1
  Sc  Sc15  1  0.669275  0.823358  0.125214  1
  Sc  Sc16  1  0.830552  0.323574  0.625197  1
  Sc  Sc17  1  0.330690  0.176692  0.874668  1
  Sc  Sc18  1  0.830653  0.323310  0.874671  1
  Sc  Sc19  1  0.169310  0.676652  0.125212  1
  Si  Si20  1  0.033358  0.117881  0.749981  1
  Si  Si21  1  0.966612  0.882116  0.250028  1
  Si  Si22  1  0.466602  0.617856  0.250018  1
  Si  Si23  1  0.533279  0.382561  0.749845  1
  Si  Si24  1  0.285824  0.873979  0.749713  1
  Si  Si25  1  0.714511  0.125545  0.249965  1
  Si  Si26  1  0.214513  0.374406  0.249962  1
  Si  Si27  1  0.784991  0.625773  0.749718  1
  Si  Si28  1  0.158097  0.464936  0.539576  1
  Si  Si29  1  0.842486  0.535584  0.460683  1
  Si  Si30  1  0.342890  0.964036  0.460793  1
  Si  Si31  1  0.842666  0.535524  0.039415  1
  Si  Si32  1  0.657056  0.034907  0.539586  1
  Si  Si33  1  0.157255  0.464454  0.960552  1
  Si  Si34  1  0.657373  0.035518  0.960570  1
  Si  Si35  1  0.342650  0.964516  0.039424  1
