# generated using pymatgen
data_Ho8Ti5Ge16Mo7
_symmetry_space_group_name_H-M   'P 1'
_cell_length_a   6.90691279
_cell_length_b   7.07324070
_cell_length_c   13.32809915
_cell_angle_alpha   89.95319885
_cell_angle_beta   90.10572717
_cell_angle_gamma   90.01459161
_symmetry_Int_Tables_number   1
_chemical_formula_structural   Ho8Ti5Ge16Mo7
_chemical_formula_sum   'Ho8 Ti5 Ge16 Mo7'
_cell_volume   651.13303036
_cell_formula_units_Z   1
loop_
 _symmetry_equiv_pos_site_id
 _symmetry_equiv_pos_as_xyz
  1  'x, y, z'
loop_
 _atom_site_type_symbol
 _atom_site_label
 _atom_site_symmetry_multiplicity
 _atom_site_fract_x
 _atom_site_fract_y
 _atom_site_fract_z
 _atom_site_occupancy
  Ho  Ho0  1  0.004907  0.176358  0.405812  1
  Ho  Ho1  1  0.504399  0.324046  0.094296  1
  Ho  Ho2  1  0.495001  0.676766  0.594621  1
  Ho  Ho3  1  0.994688  0.826813  0.905772  1
  Ho  Ho4  1  0.993810  0.828773  0.593934  1
  Ho  Ho5  1  0.495541  0.673639  0.905764  1
  Ho  Ho6  1  0.507000  0.329990  0.406513  1
  Ho  Ho7  1  0.006505  0.169372  0.095588  1
  Ti  Ti8  1  0.162893  0.332008  0.872286  1
  Ti  Ti9  1  0.158579  0.333079  0.626776  1
  Ti  Ti10  1  0.663919  0.165622  0.872112  1
  Ti  Ti11  1  0.840246  0.666173  0.128003  1
  Ti  Ti12  1  0.340415  0.834553  0.372262  1
  Ge  Ge13  1  0.328135  0.044542  0.544080  1
  Ge  Ge14  1  0.825220  0.456158  0.956505  1
  Ge  Ge15  1  0.671302  0.954928  0.045002  1
  Ge  Ge16  1  0.172016  0.545154  0.455833  1
  Ge  Ge17  1  0.173547  0.541505  0.043850  1
  Ge  Ge18  1  0.673940  0.956092  0.455675  1
  Ge  Ge19  1  0.825249  0.457973  0.544318  1
  Ge  Ge20  1  0.326628  0.043871  0.956727  1
  Ge  Ge21  1  0.807579  0.362924  0.248582  1
  Ge  Ge22  1  0.308595  0.137985  0.251444  1
  Ge  Ge23  1  0.691879  0.862525  0.750571  1
  Ge  Ge24  1  0.194369  0.638233  0.749846  1
  Ge  Ge25  1  0.034713  0.872286  0.252480  1
  Ge  Ge26  1  0.535081  0.627582  0.248582  1
  Ge  Ge27  1  0.465780  0.371306  0.748542  1
  Ge  Ge28  1  0.963150  0.125744  0.750361  1
  Mo  Mo29  1  0.331992  0.834369  0.126603  1
  Mo  Mo30  1  0.833811  0.663269  0.374450  1
  Mo  Mo31  1  0.667211  0.164975  0.624460  1
  Mo  Mo32  1  0.334077  0.011250  0.748802  1
  Mo  Mo33  1  0.665488  0.988391  0.250028  1
  Mo  Mo34  1  0.165690  0.512688  0.250384  1
  Mo  Mo35  1  0.836645  0.489060  0.749136  1
