# generated using pymatgen
data_Ti4VSi2GeN
_symmetry_space_group_name_H-M   'P 1'
_cell_length_a   7.41663929
_cell_length_b   7.40484922
_cell_length_c   5.11930590
_cell_angle_alpha   89.96604147
_cell_angle_beta   90.06780911
_cell_angle_gamma   120.05267493
_symmetry_Int_Tables_number   1
_chemical_formula_structural   Ti4VSi2GeN
_chemical_formula_sum   'Ti8 V2 Si4 Ge2 N2'
_cell_volume   243.35149767
_cell_formula_units_Z   2
loop_
 _symmetry_equiv_pos_site_id
 _symmetry_equiv_pos_as_xyz
  1  'x, y, z'
loop_
 _atom_site_type_symbol
 _atom_site_label
 _atom_site_symmetry_multiplicity
 _atom_site_fract_x
 _atom_site_fract_y
 _atom_site_fract_z
 _atom_site_occupancy
  Ti  Ti0  1  0.226347  0.000000  0.750056  1
  Ti  Ti1  1  0.773653  0.000000  0.249944  1
  Ti  Ti2  1  0.003173  0.232050  0.749634  1
  Ti  Ti3  1  0.996827  0.767950  0.250366  1
  Ti  Ti4  1  0.771124  0.767950  0.749634  1
  Ti  Ti5  1  0.228876  0.232050  0.250366  1
  Ti  Ti6  1  0.329981  0.659963  0.500000  1
  Ti  Ti7  1  0.670019  0.340037  0.500000  1
  V  V8  1  0.669392  0.338783  0.000000  1
  V  V9  1  0.330608  0.661217  0.000000  1
  Si  Si10  1  0.001501  0.589372  0.764663  1
  Si  Si11  1  0.998499  0.410628  0.235337  1
  Si  Si12  1  0.412130  0.410628  0.764663  1
  Si  Si13  1  0.587870  0.589372  0.235337  1
  Ge  Ge14  1  0.591537  0.000000  0.757101  1
  Ge  Ge15  1  0.408463  0.000000  0.242899  1
  N  N16  1  0.000000  0.000000  0.500000  1
  N  N17  1  0.000000  0.000000  0.000000  1
