# generated using pymatgen
data_SmYCo4(B2Ru)4
_symmetry_space_group_name_H-M   'P 1'
_cell_length_a   7.21706627
_cell_length_b   7.23285627
_cell_length_c   3.91568200
_cell_angle_alpha   90.00000000
_cell_angle_beta   90.00000000
_cell_angle_gamma   89.96850888
_symmetry_Int_Tables_number   1
_chemical_formula_structural   SmYCo4(B2Ru)4
_chemical_formula_sum   'Sm1 Y1 Co4 B8 Ru4'
_cell_volume   204.39858152
_cell_formula_units_Z   1
loop_
 _symmetry_equiv_pos_site_id
 _symmetry_equiv_pos_as_xyz
  1  'x, y, z'
loop_
 _atom_site_type_symbol
 _atom_site_label
 _atom_site_symmetry_multiplicity
 _atom_site_fract_x
 _atom_site_fract_y
 _atom_site_fract_z
 _atom_site_occupancy
  Sm  Sm0  1  0.500000  0.500000  0.414428  1
  Y  Y1  1  0.000000  0.000000  0.908059  1
  Co  Co2  1  0.117704  0.378196  0.623827  1
  Co  Co3  1  0.882296  0.621804  0.623827  1
  Co  Co4  1  0.121198  0.618372  0.123585  1
  Co  Co5  1  0.878802  0.381628  0.123585  1
  B  B6  1  0.820619  0.659124  0.119510  1
  B  B7  1  0.179381  0.340876  0.119510  1
  B  B8  1  0.842623  0.318095  0.620757  1
  B  B9  1  0.157377  0.681905  0.620757  1
  B  B10  1  0.730750  0.826973  0.402112  1
  B  B11  1  0.269250  0.173027  0.402112  1
  B  B12  1  0.674829  0.226482  0.902374  1
  B  B13  1  0.325171  0.773518  0.902374  1
  Ru  Ru14  1  0.388799  0.158142  0.898216  1
  Ru  Ru15  1  0.611201  0.841858  0.898216  1
  Ru  Ru16  1  0.338955  0.889947  0.398377  1
  Ru  Ru17  1  0.661045  0.110053  0.398377  1
