# generated using pymatgen
data_LiMg3(AsPd5)2
_symmetry_space_group_name_H-M   'P 1'
_cell_length_a   4.17508500
_cell_length_b   5.48615581
_cell_length_c   10.70059337
_cell_angle_alpha   90.52208513
_cell_angle_beta   90.00000000
_cell_angle_gamma   90.00000000
_symmetry_Int_Tables_number   1
_chemical_formula_structural   LiMg3(AsPd5)2
_chemical_formula_sum   'Li1 Mg3 As2 Pd10'
_cell_volume   245.08870116
_cell_formula_units_Z   1
loop_
 _symmetry_equiv_pos_site_id
 _symmetry_equiv_pos_as_xyz
  1  'x, y, z'
loop_
 _atom_site_type_symbol
 _atom_site_label
 _atom_site_symmetry_multiplicity
 _atom_site_fract_x
 _atom_site_fract_y
 _atom_site_fract_z
 _atom_site_occupancy
  Li  Li0  1  0.500000  0.164539  0.143099  1
  Mg  Mg1  1  0.500000  0.839648  0.859287  1
  Mg  Mg2  1  0.500000  0.336728  0.642974  1
  Mg  Mg3  1  0.500000  0.661100  0.353661  1
  As  As4  1  0.000000  0.001148  0.498357  1
  As  As5  1  0.000000  0.491078  0.004263  1
  Pd  Pd6  1  0.500000  0.180839  0.392050  1
  Pd  Pd7  1  0.500000  0.817825  0.604887  1
  Pd  Pd8  1  0.500000  0.320087  0.895973  1
  Pd  Pd9  1  0.500000  0.688034  0.103582  1
  Pd  Pd10  1  0.000000  0.412987  0.235377  1
  Pd  Pd11  1  0.000000  0.580643  0.765113  1
  Pd  Pd12  1  0.000000  0.079686  0.737691  1
  Pd  Pd13  1  0.000000  0.917624  0.261190  1
  Pd  Pd14  1  0.000000  0.008490  0.003494  1
  Pd  Pd15  1  0.000000  0.499543  0.499001  1
