# generated using pymatgen
data_Y2Ho8In3Ru
_symmetry_space_group_name_H-M   'P 1'
_cell_length_a   9.69743871
_cell_length_b   9.69100567
_cell_length_c   9.73080000
_cell_angle_alpha   90.00000000
_cell_angle_beta   90.00000000
_cell_angle_gamma   119.97806346
_symmetry_Int_Tables_number   1
_chemical_formula_structural   Y2Ho8In3Ru
_chemical_formula_sum   'Y4 Ho16 In6 Ru2'
_cell_volume   792.13832605
_cell_formula_units_Z   2
loop_
 _symmetry_equiv_pos_site_id
 _symmetry_equiv_pos_as_xyz
  1  'x, y, z'
loop_
 _atom_site_type_symbol
 _atom_site_label
 _atom_site_symmetry_multiplicity
 _atom_site_fract_x
 _atom_site_fract_y
 _atom_site_fract_z
 _atom_site_occupancy
  Y  Y0  1  0.920858  0.460429  0.250000  1
  Y  Y1  1  0.460874  0.539498  0.750000  1
  Y  Y2  1  0.460874  0.921375  0.750000  1
  Y  Y3  1  0.078479  0.539239  0.750000  1
  Ho  Ho4  1  0.999996  0.999998  0.499928  1
  Ho  Ho5  1  0.999996  0.999998  0.000072  1
  Ho  Ho6  1  0.209993  0.790354  0.438298  1
  Ho  Ho7  1  0.209993  0.419640  0.438298  1
  Ho  Ho8  1  0.580408  0.790204  0.438336  1
  Ho  Ho9  1  0.790017  0.209749  0.561300  1
  Ho  Ho10  1  0.790017  0.580268  0.561300  1
  Ho  Ho11  1  0.419861  0.209930  0.560983  1
  Ho  Ho12  1  0.790017  0.209749  0.938700  1
  Ho  Ho13  1  0.790017  0.580268  0.938700  1
  Ho  Ho14  1  0.419861  0.209930  0.939017  1
  Ho  Ho15  1  0.209993  0.790354  0.061702  1
  Ho  Ho16  1  0.209993  0.419640  0.061702  1
  Ho  Ho17  1  0.580408  0.790204  0.061664  1
  Ho  Ho18  1  0.539167  0.460474  0.250000  1
  Ho  Ho19  1  0.539167  0.078694  0.250000  1
  In  In20  1  0.884145  0.115574  0.250000  1
  In  In21  1  0.884145  0.768572  0.250000  1
  In  In22  1  0.231691  0.115846  0.250000  1
  In  In23  1  0.115581  0.884391  0.750000  1
  In  In24  1  0.115581  0.231189  0.750000  1
  In  In25  1  0.768646  0.884322  0.750000  1
  Ru  Ru26  1  0.333519  0.666760  0.250000  1
  Ru  Ru27  1  0.666704  0.333351  0.750000  1
