# generated using pymatgen
data_HfSc3Ir2O
_symmetry_space_group_name_H-M   'P 1'
_cell_length_a   8.71415959
_cell_length_b   8.71415708
_cell_length_c   8.71417300
_cell_angle_alpha   59.99994337
_cell_angle_beta   59.99995291
_cell_angle_gamma   59.99992074
_symmetry_Int_Tables_number   1
_chemical_formula_structural   HfSc3Ir2O
_chemical_formula_sum   'Hf4 Sc12 Ir8 O4'
_cell_volume   467.90908001
_cell_formula_units_Z   4
loop_
 _symmetry_equiv_pos_site_id
 _symmetry_equiv_pos_as_xyz
  1  'x, y, z'
loop_
 _atom_site_type_symbol
 _atom_site_label
 _atom_site_symmetry_multiplicity
 _atom_site_fract_x
 _atom_site_fract_y
 _atom_site_fract_z
 _atom_site_occupancy
  Hf  Hf0  1  0.125000  0.625000  0.625000  1
  Hf  Hf1  1  0.625000  0.125000  0.625000  1
  Hf  Hf2  1  0.625000  0.625000  0.125000  1
  Hf  Hf3  1  0.625000  0.625000  0.625000  1
  Sc  Sc4  1  0.816765  0.816763  0.183236  1
  Sc  Sc5  1  0.183236  0.183236  0.816764  1
  Sc  Sc6  1  0.816764  0.183237  0.816764  1
  Sc  Sc7  1  0.183236  0.816763  0.183235  1
  Sc  Sc8  1  0.183236  0.816763  0.816765  1
  Sc  Sc9  1  0.816764  0.183237  0.183235  1
  Sc  Sc10  1  0.433235  0.433237  0.066764  1
  Sc  Sc11  1  0.066764  0.066764  0.433236  1
  Sc  Sc12  1  0.433236  0.066763  0.433236  1
  Sc  Sc13  1  0.066764  0.433237  0.066765  1
  Sc  Sc14  1  0.066764  0.433237  0.433235  1
  Sc  Sc15  1  0.433236  0.066763  0.066765  1
  Ir  Ir16  1  0.762883  0.412372  0.412372  1
  Ir  Ir17  1  0.412372  0.762883  0.412372  1
  Ir  Ir18  1  0.412372  0.412372  0.762883  1
  Ir  Ir19  1  0.412372  0.412372  0.412372  1
  Ir  Ir20  1  0.487117  0.837628  0.837628  1
  Ir  Ir21  1  0.837628  0.487117  0.837628  1
  Ir  Ir22  1  0.837628  0.837628  0.487117  1
  Ir  Ir23  1  0.837628  0.837628  0.837628  1
  O  O24  1  0.625000  0.125000  0.125000  1
  O  O25  1  0.125000  0.625000  0.125000  1
  O  O26  1  0.125000  0.125000  0.625000  1
  O  O27  1  0.125000  0.125000  0.125000  1
