# generated using pymatgen
data_Dy2In(PRh2)6
_symmetry_space_group_name_H-M   'P 1'
_cell_length_a   9.76403100
_cell_length_b   9.76403048
_cell_length_c   3.88278900
_cell_angle_alpha   90.00000000
_cell_angle_beta   90.00000000
_cell_angle_gamma   120.00000515
_symmetry_Int_Tables_number   1
_chemical_formula_structural   Dy2In(PRh2)6
_chemical_formula_sum   'Dy2 In1 P6 Rh12'
_cell_volume   320.57723282
_cell_formula_units_Z   1
loop_
 _symmetry_equiv_pos_site_id
 _symmetry_equiv_pos_as_xyz
  1  'x, y, z'
loop_
 _atom_site_type_symbol
 _atom_site_label
 _atom_site_symmetry_multiplicity
 _atom_site_fract_x
 _atom_site_fract_y
 _atom_site_fract_z
 _atom_site_occupancy
  Dy  Dy0  1  0.333333  0.666667  0.753975  1
  Dy  Dy1  1  0.666667  0.333333  0.246025  1
  In  In2  1  0.000000  0.000000  0.500000  1
  P  P3  1  0.404251  0.287185  0.746261  1
  P  P4  1  0.712815  0.117067  0.746261  1
  P  P5  1  0.882933  0.595749  0.746261  1
  P  P6  1  0.595749  0.712815  0.253739  1
  P  P7  1  0.287185  0.882933  0.253739  1
  P  P8  1  0.117067  0.404251  0.253739  1
  Rh  Rh9  1  0.453981  0.066921  0.747597  1
  Rh  Rh10  1  0.933079  0.387060  0.747597  1
  Rh  Rh11  1  0.612940  0.546019  0.747597  1
  Rh  Rh12  1  0.546019  0.933079  0.252403  1
  Rh  Rh13  1  0.066921  0.612940  0.252403  1
  Rh  Rh14  1  0.387060  0.453981  0.252403  1
  Rh  Rh15  1  0.162950  0.291360  0.758253  1
  Rh  Rh16  1  0.708640  0.871590  0.758253  1
  Rh  Rh17  1  0.128410  0.837050  0.758253  1
  Rh  Rh18  1  0.837050  0.708640  0.241747  1
  Rh  Rh19  1  0.291360  0.128410  0.241747  1
  Rh  Rh20  1  0.871590  0.162950  0.241747  1
