# generated using pymatgen
data_Dy3Y9CoTc3
_symmetry_space_group_name_H-M   'P 1'
_cell_length_a   6.30749078
_cell_length_b   7.36312422
_cell_length_c   9.23144544
_cell_angle_alpha   90.00730901
_cell_angle_beta   89.91700359
_cell_angle_gamma   90.25603188
_symmetry_Int_Tables_number   1
_chemical_formula_structural   Dy3Y9CoTc3
_chemical_formula_sum   'Dy3 Y9 Co1 Tc3'
_cell_volume   428.72979229
_cell_formula_units_Z   1
loop_
 _symmetry_equiv_pos_site_id
 _symmetry_equiv_pos_as_xyz
  1  'x, y, z'
loop_
 _atom_site_type_symbol
 _atom_site_label
 _atom_site_symmetry_multiplicity
 _atom_site_fract_x
 _atom_site_fract_y
 _atom_site_fract_z
 _atom_site_occupancy
  Dy  Dy0  1  0.331792  0.676460  0.065233  1
  Dy  Dy1  1  0.162487  0.176282  0.437668  1
  Dy  Dy2  1  0.871718  0.542608  0.249995  1
  Y  Y3  1  0.664840  0.327309  0.564318  1
  Y  Y4  1  0.833606  0.821636  0.936628  1
  Y  Y5  1  0.664895  0.327318  0.935535  1
  Y  Y6  1  0.833663  0.821668  0.563462  1
  Y  Y7  1  0.331803  0.676878  0.435011  1
  Y  Y8  1  0.162379  0.176620  0.062143  1
  Y  Y9  1  0.626787  0.041845  0.250095  1
  Y  Y10  1  0.142238  0.455531  0.749955  1
  Y  Y11  1  0.372706  0.951350  0.750106  1
  Co  Co12  1  0.538599  0.616243  0.750145  1
  Tc  Tc13  1  0.038961  0.885757  0.250134  1
  Tc  Tc14  1  0.460696  0.389166  0.249844  1
  Tc  Tc15  1  0.962829  0.113330  0.749726  1
