# generated using pymatgen
data_NdPa(CoGe)2
_symmetry_space_group_name_H-M   'P 1'
_cell_length_a   4.31509500
_cell_length_b   7.55110688
_cell_length_c   6.96697022
_cell_angle_alpha   92.96594101
_cell_angle_beta   90.00000000
_cell_angle_gamma   90.00000000
_symmetry_Int_Tables_number   1
_chemical_formula_structural   NdPa(CoGe)2
_chemical_formula_sum   'Nd2 Pa2 Co4 Ge4'
_cell_volume   226.70588414
_cell_formula_units_Z   2
loop_
 _symmetry_equiv_pos_site_id
 _symmetry_equiv_pos_as_xyz
  1  'x, y, z'
loop_
 _atom_site_type_symbol
 _atom_site_label
 _atom_site_symmetry_multiplicity
 _atom_site_fract_x
 _atom_site_fract_y
 _atom_site_fract_z
 _atom_site_occupancy
  Nd  Nd0  1  0.250000  0.980007  0.765604  1
  Nd  Nd1  1  0.750000  0.019993  0.234396  1
  Pa  Pa2  1  0.250000  0.490969  0.698576  1
  Pa  Pa3  1  0.750000  0.509031  0.301424  1
  Co  Co4  1  0.750000  0.381729  0.962305  1
  Co  Co5  1  0.250000  0.272757  0.451885  1
  Co  Co6  1  0.750000  0.727243  0.548115  1
  Co  Co7  1  0.250000  0.618271  0.037695  1
  Ge  Ge8  1  0.250000  0.785343  0.383632  1
  Ge  Ge9  1  0.750000  0.711117  0.905140  1
  Ge  Ge10  1  0.250000  0.288883  0.094860  1
  Ge  Ge11  1  0.750000  0.214657  0.616368  1
