# generated using pymatgen
data_Ba(BIr)4
_symmetry_space_group_name_H-M   'P 1'
_cell_length_a   7.89985200
_cell_length_b   7.89985200
_cell_length_c   3.95548600
_cell_angle_alpha   90.00000000
_cell_angle_beta   90.00000000
_cell_angle_gamma   90.00000000
_symmetry_Int_Tables_number   1
_chemical_formula_structural   Ba(BIr)4
_chemical_formula_sum   'Ba2 B8 Ir8'
_cell_volume   246.85263184
_cell_formula_units_Z   2
loop_
 _symmetry_equiv_pos_site_id
 _symmetry_equiv_pos_as_xyz
  1  'x, y, z'
loop_
 _atom_site_type_symbol
 _atom_site_label
 _atom_site_symmetry_multiplicity
 _atom_site_fract_x
 _atom_site_fract_y
 _atom_site_fract_z
 _atom_site_occupancy
  Ba  Ba0  1  0.500000  0.500000  0.000000  1
  Ba  Ba1  1  0.000000  0.000000  0.500000  1
  B  B2  1  0.659414  0.780978  0.602274  1
  B  B3  1  0.159414  0.280978  0.897726  1
  B  B4  1  0.280978  0.840586  0.102274  1
  B  B5  1  0.719022  0.159414  0.102274  1
  B  B6  1  0.340586  0.219022  0.602274  1
  B  B7  1  0.840586  0.719022  0.897726  1
  B  B8  1  0.219022  0.659414  0.397726  1
  B  B9  1  0.780978  0.340586  0.397726  1
  Ir  Ir10  1  0.346389  0.109916  0.100242  1
  Ir  Ir11  1  0.653611  0.890084  0.100242  1
  Ir  Ir12  1  0.609916  0.153611  0.600242  1
  Ir  Ir13  1  0.109916  0.653611  0.899758  1
  Ir  Ir14  1  0.153611  0.390084  0.399758  1
  Ir  Ir15  1  0.846389  0.609916  0.399758  1
  Ir  Ir16  1  0.890084  0.346389  0.899758  1
  Ir  Ir17  1  0.390084  0.846389  0.600242  1
