# generated using pymatgen
data_TbDy19(Ir2Rh)4
_symmetry_space_group_name_H-M   'P 1'
_cell_length_a   10.88273500
_cell_length_b   10.88283000
_cell_length_c   6.38944200
_cell_angle_alpha   89.99707473
_cell_angle_beta   90.00240726
_cell_angle_gamma   89.99966308
_symmetry_Int_Tables_number   1
_chemical_formula_structural   TbDy19(Ir2Rh)4
_chemical_formula_sum   'Tb1 Dy19 Ir8 Rh4'
_cell_volume   756.73327453
_cell_formula_units_Z   1
loop_
 _symmetry_equiv_pos_site_id
 _symmetry_equiv_pos_as_xyz
  1  'x, y, z'
loop_
 _atom_site_type_symbol
 _atom_site_label
 _atom_site_symmetry_multiplicity
 _atom_site_fract_x
 _atom_site_fract_y
 _atom_site_fract_z
 _atom_site_occupancy
  Tb  Tb0  1  0.290547  0.089048  0.379102  1
  Dy  Dy1  1  0.290602  0.910925  0.879166  1
  Dy  Dy2  1  0.709390  0.089043  0.879175  1
  Dy  Dy3  1  0.709405  0.910954  0.379173  1
  Dy  Dy4  1  0.589044  0.790603  0.879167  1
  Dy  Dy5  1  0.589094  0.209421  0.379162  1
  Dy  Dy6  1  0.410970  0.790557  0.379176  1
  Dy  Dy7  1  0.410987  0.209421  0.879168  1
  Dy  Dy8  1  0.209397  0.410972  0.620842  1
  Dy  Dy9  1  0.209404  0.589046  0.120833  1
  Dy  Dy10  1  0.790597  0.410957  0.120828  1
  Dy  Dy11  1  0.790600  0.589043  0.620827  1
  Dy  Dy12  1  0.910955  0.709402  0.120833  1
  Dy  Dy13  1  0.910953  0.290598  0.620828  1
  Dy  Dy14  1  0.089042  0.709396  0.620829  1
  Dy  Dy15  1  0.089012  0.290619  0.120793  1
  Dy  Dy16  1  0.999950  0.999980  0.500032  1
  Dy  Dy17  1  0.999992  0.000000  0.999991  1
  Dy  Dy18  1  0.499999  0.499997  0.000001  1
  Dy  Dy19  1  0.500007  0.500004  0.500011  1
  Ir  Ir20  1  0.846097  0.153902  0.250002  1
  Ir  Ir21  1  0.846096  0.846103  0.749996  1
  Ir  Ir22  1  0.153858  0.153934  0.750153  1
  Ir  Ir23  1  0.153879  0.846038  0.249956  1
  Ir  Ir24  1  0.653899  0.346099  0.750004  1
  Ir  Ir25  1  0.653899  0.653905  0.249993  1
  Ir  Ir26  1  0.346123  0.346176  0.249957  1
  Ir  Ir27  1  0.346095  0.653907  0.749995  1
  Rh  Rh28  1  0.500045  0.999976  0.123876  1
  Rh  Rh29  1  0.500055  0.999976  0.624003  1
  Rh  Rh30  1  0.000005  0.499995  0.876066  1
  Rh  Rh31  1  0.000001  0.500003  0.376062  1
