# generated using pymatgen
data_Ho17Tm3(Bi2Ir)4
_symmetry_space_group_name_H-M   'P 1'
_cell_length_a   7.95185951
_cell_length_b   8.98096748
_cell_length_c   12.46150232
_cell_angle_alpha   89.96462783
_cell_angle_beta   90.03893994
_cell_angle_gamma   89.98695792
_symmetry_Int_Tables_number   1
_chemical_formula_structural   Ho17Tm3(Bi2Ir)4
_chemical_formula_sum   'Ho17 Tm3 Bi8 Ir4'
_cell_volume   889.94267086
_cell_formula_units_Z   1
loop_
 _symmetry_equiv_pos_site_id
 _symmetry_equiv_pos_as_xyz
  1  'x, y, z'
loop_
 _atom_site_type_symbol
 _atom_site_label
 _atom_site_symmetry_multiplicity
 _atom_site_fract_x
 _atom_site_fract_y
 _atom_site_fract_z
 _atom_site_occupancy
  Ho  Ho0  1  0.839204  0.750270  0.793696  1
  Ho  Ho1  1  0.161038  0.249831  0.206185  1
  Ho  Ho2  1  0.339301  0.249650  0.706182  1
  Ho  Ho3  1  0.660655  0.750278  0.293953  1
  Ho  Ho4  1  0.376022  0.750498  0.691153  1
  Ho  Ho5  1  0.624021  0.249498  0.308879  1
  Ho  Ho6  1  0.876277  0.249806  0.808617  1
  Ho  Ho7  1  0.124413  0.750324  0.191333  1
  Ho  Ho8  1  0.946624  0.750758  0.501619  1
  Ho  Ho9  1  0.053518  0.249287  0.498363  1
  Ho  Ho10  1  0.446387  0.249516  0.998396  1
  Ho  Ho11  1  0.552779  0.750381  0.001513  1
  Ho  Ho12  1  0.324211  0.541939  0.433996  1
  Ho  Ho13  1  0.824479  0.042027  0.066035  1
  Ho  Ho14  1  0.675871  0.458103  0.566025  1
  Ho  Ho15  1  0.824178  0.458098  0.065975  1
  Ho  Ho16  1  0.175885  0.542140  0.933874  1
  Tm  Tm17  1  0.673609  0.042131  0.565722  1
  Tm  Tm18  1  0.326461  0.957950  0.434269  1
  Tm  Tm19  1  0.173820  0.957784  0.934110  1
  Bi  Bi20  1  0.566910  0.491267  0.826928  1
  Bi  Bi21  1  0.433266  0.508743  0.173074  1
  Bi  Bi22  1  0.066901  0.508773  0.672970  1
  Bi  Bi23  1  0.433316  0.991182  0.173342  1
  Bi  Bi24  1  0.933276  0.491300  0.326908  1
  Bi  Bi25  1  0.566265  0.008633  0.826949  1
  Bi  Bi26  1  0.934296  0.008578  0.327049  1
  Bi  Bi27  1  0.065968  0.991316  0.673125  1
  Ir  Ir28  1  0.571335  0.750790  0.508609  1
  Ir  Ir29  1  0.428724  0.249244  0.491425  1
  Ir  Ir30  1  0.071965  0.249564  0.991184  1
  Ir  Ir31  1  0.929025  0.750343  0.008542  1
