# generated using pymatgen
data_LaCeIr4
_symmetry_space_group_name_H-M   'P 1'
_cell_length_a   5.43910329
_cell_length_b   5.43910252
_cell_length_c   5.43910300
_cell_angle_alpha   60.00000316
_cell_angle_beta   60.00000787
_cell_angle_gamma   60.00001107
_symmetry_Int_Tables_number   1
_chemical_formula_structural   LaCeIr4
_chemical_formula_sum   'La1 Ce1 Ir4'
_cell_volume   113.78025667
_cell_formula_units_Z   1
loop_
 _symmetry_equiv_pos_site_id
 _symmetry_equiv_pos_as_xyz
  1  'x, y, z'
loop_
 _atom_site_type_symbol
 _atom_site_label
 _atom_site_symmetry_multiplicity
 _atom_site_fract_x
 _atom_site_fract_y
 _atom_site_fract_z
 _atom_site_occupancy
  La  La0  1  0.000000  0.000000  0.000000  1
  Ce  Ce1  1  0.250000  0.250000  0.250000  1
  Ir  Ir2  1  0.624930  0.624930  0.125210  1
  Ir  Ir3  1  0.624930  0.125210  0.624930  1
  Ir  Ir4  1  0.125210  0.624930  0.624930  1
  Ir  Ir5  1  0.624930  0.624930  0.624930  1
