# generated using pymatgen
data_Sc10OsAu3
_symmetry_space_group_name_H-M   'P 1'
_cell_length_a   8.77980700
_cell_length_b   8.77980770
_cell_length_c   8.85262100
_cell_angle_alpha   90.00000000
_cell_angle_beta   90.00000000
_cell_angle_gamma   119.99999359
_symmetry_Int_Tables_number   1
_chemical_formula_structural   Sc10OsAu3
_chemical_formula_sum   'Sc20 Os2 Au6'
_cell_volume   590.97961993
_cell_formula_units_Z   2
loop_
 _symmetry_equiv_pos_site_id
 _symmetry_equiv_pos_as_xyz
  1  'x, y, z'
loop_
 _atom_site_type_symbol
 _atom_site_label
 _atom_site_symmetry_multiplicity
 _atom_site_fract_x
 _atom_site_fract_y
 _atom_site_fract_z
 _atom_site_occupancy
  Sc  Sc0  1  0.000000  0.000000  0.500000  1
  Sc  Sc1  1  0.000000  0.000000  0.000000  1
  Sc  Sc2  1  0.541032  0.458968  0.250000  1
  Sc  Sc3  1  0.541032  0.082062  0.250000  1
  Sc  Sc4  1  0.917938  0.458968  0.250000  1
  Sc  Sc5  1  0.458968  0.541032  0.750000  1
  Sc  Sc6  1  0.458968  0.917938  0.750000  1
  Sc  Sc7  1  0.082062  0.541032  0.750000  1
  Sc  Sc8  1  0.205968  0.794032  0.443133  1
  Sc  Sc9  1  0.205968  0.411936  0.443133  1
  Sc  Sc10  1  0.588064  0.794032  0.443133  1
  Sc  Sc11  1  0.794032  0.205968  0.556867  1
  Sc  Sc12  1  0.794032  0.588064  0.556867  1
  Sc  Sc13  1  0.411936  0.205968  0.556867  1
  Sc  Sc14  1  0.794032  0.205968  0.943133  1
  Sc  Sc15  1  0.794032  0.588064  0.943133  1
  Sc  Sc16  1  0.411936  0.205968  0.943133  1
  Sc  Sc17  1  0.205968  0.794032  0.056867  1
  Sc  Sc18  1  0.205968  0.411936  0.056867  1
  Sc  Sc19  1  0.588064  0.794032  0.056867  1
  Os  Os20  1  0.333333  0.666667  0.250000  1
  Os  Os21  1  0.666667  0.333333  0.750000  1
  Au  Au22  1  0.881163  0.118837  0.250000  1
  Au  Au23  1  0.881163  0.762328  0.250000  1
  Au  Au24  1  0.237672  0.118837  0.250000  1
  Au  Au25  1  0.118837  0.881163  0.750000  1
  Au  Au26  1  0.118837  0.237672  0.750000  1
  Au  Au27  1  0.762328  0.881163  0.750000  1
