# generated using pymatgen
data_Zn3GeAs(PN2)6
_symmetry_space_group_name_H-M   'P 1'
_cell_length_a   7.22487171
_cell_length_b   7.24136464
_cell_length_c   7.22487235
_cell_angle_alpha   109.51746412
_cell_angle_beta   109.42493499
_cell_angle_gamma   109.51747233
_symmetry_Int_Tables_number   1
_chemical_formula_structural   Zn3GeAs(PN2)6
_chemical_formula_sum   'Zn3 Ge1 As1 P6 N12'
_cell_volume   290.81087410
_cell_formula_units_Z   1
loop_
 _symmetry_equiv_pos_site_id
 _symmetry_equiv_pos_as_xyz
  1  'x, y, z'
loop_
 _atom_site_type_symbol
 _atom_site_label
 _atom_site_symmetry_multiplicity
 _atom_site_fract_x
 _atom_site_fract_y
 _atom_site_fract_z
 _atom_site_occupancy
  Zn  Zn0  1  0.658761  0.660683  0.658761  1
  Zn  Zn1  1  0.341239  0.001922  0.000000  1
  Zn  Zn2  1  0.000000  0.001922  0.341239  1
  Ge  Ge3  1  0.000000  0.334872  0.000000  1
  As  As4  1  0.000000  0.971477  0.000000  1
  P  P5  1  0.749756  0.251565  0.497716  1
  P  P6  1  0.252040  0.753850  0.502284  1
  P  P7  1  0.502284  0.753850  0.252040  1
  P  P8  1  0.497716  0.251565  0.749756  1
  P  P9  1  0.747960  0.501809  0.250244  1
  P  P10  1  0.250244  0.501809  0.747960  1
  N  N11  1  0.562217  0.274301  0.000000  1
  N  N12  1  0.441091  0.442711  0.716024  1
  N  N13  1  0.000000  0.274301  0.562217  1
  N  N14  1  0.274933  0.001620  0.558909  1
  N  N15  1  0.716024  0.442711  0.441091  1
  N  N16  1  0.000000  0.562145  0.274482  1
  N  N17  1  0.558909  0.001620  0.274933  1
  N  N18  1  0.437783  0.712084  0.437783  1
  N  N19  1  0.274482  0.562145  0.000000  1
  N  N20  1  0.725518  0.287662  0.725518  1
  N  N21  1  0.725067  0.726687  0.283976  1
  N  N22  1  0.283976  0.726687  0.725067  1
