# generated using pymatgen
data_LiY4Ho2Co14(NiP4)3
_symmetry_space_group_name_H-M   'P 1'
_cell_length_a   3.70999900
_cell_length_b   10.54000800
_cell_length_c   12.18436000
_cell_angle_alpha   90.00000000
_cell_angle_beta   90.00000000
_cell_angle_gamma   90.00000000
_symmetry_Int_Tables_number   1
_chemical_formula_structural   LiY4Ho2Co14(NiP4)3
_chemical_formula_sum   'Li1 Y4 Ho2 Co14 Ni3 P12'
_cell_volume   476.45013603
_cell_formula_units_Z   1
loop_
 _symmetry_equiv_pos_site_id
 _symmetry_equiv_pos_as_xyz
  1  'x, y, z'
loop_
 _atom_site_type_symbol
 _atom_site_label
 _atom_site_symmetry_multiplicity
 _atom_site_fract_x
 _atom_site_fract_y
 _atom_site_fract_z
 _atom_site_occupancy
  Li  Li0  1  0.500000  0.500000  0.151796  1
  Y  Y1  1  0.000000  0.500000  0.520672  1
  Y  Y2  1  0.500000  0.000000  0.479028  1
  Y  Y3  1  0.500000  0.816588  0.205884  1
  Y  Y4  1  0.500000  0.183412  0.205884  1
  Ho  Ho5  1  0.000000  0.683528  0.795185  1
  Ho  Ho6  1  0.000000  0.316472  0.795185  1
  Co  Co7  1  0.000000  0.500000  0.986046  1
  Co  Co8  1  0.500000  0.000000  0.013584  1
  Co  Co9  1  0.500000  0.296756  0.432663  1
  Co  Co10  1  0.500000  0.703244  0.432663  1
  Co  Co11  1  0.000000  0.201747  0.571063  1
  Co  Co12  1  0.000000  0.798253  0.571063  1
  Co  Co13  1  0.500000  0.879317  0.710179  1
  Co  Co14  1  0.500000  0.120683  0.710179  1
  Co  Co15  1  0.000000  0.622314  0.292055  1
  Co  Co16  1  0.000000  0.377686  0.292055  1
  Co  Co17  1  0.500000  0.331763  0.994797  1
  Co  Co18  1  0.500000  0.668237  0.994797  1
  Co  Co19  1  0.000000  0.164997  0.002544  1
  Co  Co20  1  0.000000  0.835003  0.002544  1
  Ni  Ni21  1  0.000000  0.000000  0.838356  1
  Ni  Ni22  1  0.500000  0.500000  0.704138  1
  Ni  Ni23  1  0.000000  0.000000  0.297157  1
  P  P24  1  0.500000  0.309640  0.616449  1
  P  P25  1  0.500000  0.690360  0.616449  1
  P  P26  1  0.000000  0.191134  0.385801  1
  P  P27  1  0.000000  0.808866  0.385801  1
  P  P28  1  0.500000  0.500000  0.884768  1
  P  P29  1  0.000000  0.000000  0.115981  1
  P  P30  1  0.500000  0.846632  0.893224  1
  P  P31  1  0.500000  0.153368  0.893224  1
  P  P32  1  0.000000  0.656597  0.104807  1
  P  P33  1  0.000000  0.343403  0.104807  1
  P  P34  1  0.500000  0.500000  0.344624  1
  P  P35  1  0.000000  0.000000  0.654545  1
