# generated using pymatgen
data_BaZnSnSe4
_symmetry_space_group_name_H-M   'P 1'
_cell_length_a   13.20046197
_cell_length_b   13.20046118
_cell_length_c   13.44954200
_cell_angle_alpha   104.77694910
_cell_angle_beta   104.77694820
_cell_angle_gamma   118.70245932
_symmetry_Int_Tables_number   1
_chemical_formula_structural   BaZnSnSe4
_chemical_formula_sum   'Ba8 Zn8 Sn8 Se32'
_cell_volume   1779.84270548
_cell_formula_units_Z   8
loop_
 _symmetry_equiv_pos_site_id
 _symmetry_equiv_pos_as_xyz
  1  'x, y, z'
loop_
 _atom_site_type_symbol
 _atom_site_label
 _atom_site_symmetry_multiplicity
 _atom_site_fract_x
 _atom_site_fract_y
 _atom_site_fract_z
 _atom_site_occupancy
  Ba  Ba0  1  0.499685  0.499685  0.000000  1
  Ba  Ba1  1  0.997883  0.997883  0.000000  1
  Ba  Ba2  1  0.499946  0.000615  0.003460  1
  Ba  Ba3  1  0.246486  0.247155  0.496540  1
  Ba  Ba4  1  0.747883  0.247884  0.500000  1
  Ba  Ba5  1  0.249685  0.749685  0.500000  1
  Ba  Ba6  1  0.750616  0.749946  0.503460  1
  Ba  Ba7  1  0.997155  0.496485  0.996540  1
  Zn  Zn8  1  0.336836  0.984046  0.248933  1
  Zn  Zn9  1  0.266045  0.487718  0.249568  1
  Zn  Zn10  1  0.766476  0.488151  0.250432  1
  Zn  Zn11  1  0.837903  0.985113  0.251067  1
  Zn  Zn12  1  0.734046  0.586837  0.748933  1
  Zn  Zn13  1  0.237718  0.516044  0.749568  1
  Zn  Zn14  1  0.238151  0.016477  0.750433  1
  Zn  Zn15  1  0.735113  0.087903  0.751067  1
  Sn  Sn16  1  0.984150  0.759385  0.248637  1
  Sn  Sn17  1  0.903719  0.263048  0.249838  1
  Sn  Sn18  1  0.403879  0.263208  0.250162  1
  Sn  Sn19  1  0.485513  0.760749  0.251363  1
  Sn  Sn20  1  0.509386  0.234150  0.748638  1
  Sn  Sn21  1  0.013047  0.153718  0.749838  1
  Sn  Sn22  1  0.013209  0.653880  0.750163  1
  Sn  Sn23  1  0.510749  0.735512  0.751363  1
  Se  Se24  1  0.288915  0.039577  0.083228  1
  Se  Se25  1  0.788719  0.536992  0.084084  1
  Se  Se26  1  0.787764  0.037560  0.084602  1
  Se  Se27  1  0.290849  0.540258  0.084657  1
  Se  Se28  1  0.188532  0.779111  0.247497  1
  Se  Se29  1  0.019935  0.967072  0.248184  1
  Se  Se30  1  0.066184  0.470742  0.248237  1
  Se  Se31  1  0.218200  0.283322  0.248485  1
  Se  Se32  1  0.719714  0.284836  0.251514  1
  Se  Se33  1  0.567948  0.472506  0.251764  1
  Se  Se34  1  0.521751  0.968888  0.251816  1
  Se  Se35  1  0.691036  0.781614  0.252503  1
  Se  Se36  1  0.956192  0.705601  0.415342  1
  Se  Se37  1  0.453162  0.202958  0.415399  1
  Se  Se38  1  0.454637  0.702909  0.415916  1
  Se  Se39  1  0.955688  0.206349  0.416772  1
  Se  Se40  1  0.789577  0.538916  0.583228  1
  Se  Se41  1  0.286992  0.038720  0.584083  1
  Se  Se42  1  0.787560  0.037763  0.584601  1
  Se  Se43  1  0.290259  0.540849  0.584658  1
  Se  Se44  1  0.529111  0.438533  0.747497  1
  Se  Se45  1  0.717072  0.269935  0.748184  1
  Se  Se46  1  0.220741  0.316183  0.748236  1
  Se  Se47  1  0.033321  0.468200  0.748486  1
  Se  Se48  1  0.034837  0.969715  0.751515  1
  Se  Se49  1  0.222506  0.817948  0.751763  1
  Se  Se50  1  0.718887  0.771750  0.751816  1
  Se  Se51  1  0.531614  0.941036  0.752503  1
  Se  Se52  1  0.455601  0.206192  0.915343  1
  Se  Se53  1  0.952959  0.703162  0.915399  1
  Se  Se54  1  0.452908  0.704636  0.915916  1
  Se  Se55  1  0.956349  0.205687  0.916772  1
