# generated using pymatgen
data_Pr4Dy2CoBr10
_symmetry_space_group_name_H-M   'P 1'
_cell_length_a   7.55849267
_cell_length_b   9.40590389
_cell_length_c   9.46233636
_cell_angle_alpha   108.39742846
_cell_angle_beta   106.69816136
_cell_angle_gamma   96.15023934
_symmetry_Int_Tables_number   1
_chemical_formula_structural   Pr4Dy2CoBr10
_chemical_formula_sum   'Pr4 Dy2 Co1 Br10'
_cell_volume   596.76157010
_cell_formula_units_Z   1
loop_
 _symmetry_equiv_pos_site_id
 _symmetry_equiv_pos_as_xyz
  1  'x, y, z'
loop_
 _atom_site_type_symbol
 _atom_site_label
 _atom_site_symmetry_multiplicity
 _atom_site_fract_x
 _atom_site_fract_y
 _atom_site_fract_z
 _atom_site_occupancy
  Pr  Pr0  1  0.126176  0.762719  0.049443  1
  Pr  Pr1  1  0.633576  0.815177  0.856490  1
  Pr  Pr2  1  0.876809  0.237978  0.956331  1
  Pr  Pr3  1  0.981063  0.102834  0.307556  1
  Dy  Dy4  1  0.355555  0.174195  0.129764  1
  Dy  Dy5  1  0.027859  0.907073  0.707928  1
  Co  Co6  1  0.000298  0.999124  0.001358  1
  Br  Br7  1  0.440304  0.083672  0.821654  1
  Br  Br8  1  0.746485  0.542211  0.918576  1
  Br  Br9  1  0.260242  0.449271  0.084870  1
  Br  Br10  1  0.916367  0.167631  0.635510  1
  Br  Br11  1  0.657728  0.731093  0.538057  1
  Br  Br12  1  0.549244  0.921851  0.176736  1
  Br  Br13  1  0.089830  0.830449  0.379983  1
  Br  Br14  1  0.769696  0.345058  0.253745  1
  Br  Br15  1  0.193749  0.650347  0.734054  1
  Br  Br16  1  0.375018  0.279317  0.447943  1
