# generated using pymatgen
data_EuSiAu3
_symmetry_space_group_name_H-M   'P 1'
_cell_length_a   6.14995444
_cell_length_b   6.14995431
_cell_length_c   6.14995432
_cell_angle_alpha   137.20954383
_cell_angle_beta   137.21054151
_cell_angle_gamma   62.11503216
_symmetry_Int_Tables_number   1
_chemical_formula_structural   EuSiAu3
_chemical_formula_sum   'Eu1 Si1 Au3'
_cell_volume   106.06624899
_cell_formula_units_Z   1
loop_
 _symmetry_equiv_pos_site_id
 _symmetry_equiv_pos_as_xyz
  1  'x, y, z'
loop_
 _atom_site_type_symbol
 _atom_site_label
 _atom_site_symmetry_multiplicity
 _atom_site_fract_x
 _atom_site_fract_y
 _atom_site_fract_z
 _atom_site_occupancy
  Eu  Eu0  1  0.005063  0.005063  0.000000  1
  Si  Si1  1  0.367322  0.367322  0.000000  1
  Au  Au2  1  0.766734  0.266734  0.500000  1
  Au  Au3  1  0.266741  0.766741  0.500000  1
  Au  Au4  1  0.594140  0.594140  0.000000  1
