# generated using pymatgen
data_Pm5Os2
_symmetry_space_group_name_H-M   'P 1'
_cell_length_a   6.44508413
_cell_length_b   6.45086925
_cell_length_c   8.62608132
_cell_angle_alpha   111.68630528
_cell_angle_beta   111.71805741
_cell_angle_gamma   36.69670357
_symmetry_Int_Tables_number   1
_chemical_formula_structural   Pm5Os2
_chemical_formula_sum   'Pm5 Os2'
_cell_volume   197.38309631
_cell_formula_units_Z   1
loop_
 _symmetry_equiv_pos_site_id
 _symmetry_equiv_pos_as_xyz
  1  'x, y, z'
loop_
 _atom_site_type_symbol
 _atom_site_label
 _atom_site_symmetry_multiplicity
 _atom_site_fract_x
 _atom_site_fract_y
 _atom_site_fract_z
 _atom_site_occupancy
  Pm  Pm0  1  0.840409  0.461986  0.858802  1
  Pm  Pm1  1  0.175654  0.794476  0.480204  1
  Pm  Pm2  1  0.508311  0.128021  0.669452  1
  Pm  Pm3  1  0.386438  0.004166  0.244362  1
  Pm  Pm4  1  0.629441  0.252178  0.094608  1
  Os  Os5  1  0.187510  0.809558  0.890802  1
  Os  Os6  1  0.828391  0.446858  0.448032  1
