# generated using pymatgen
data_Li3Dy2HoCdP2
_symmetry_space_group_name_H-M   'P 1'
_cell_length_a   7.02366883
_cell_length_b   7.02366954
_cell_length_c   4.12769900
_cell_angle_alpha   90.00000000
_cell_angle_beta   90.00000000
_cell_angle_gamma   119.94415404
_symmetry_Int_Tables_number   1
_chemical_formula_structural   Li3Dy2HoCdP2
_chemical_formula_sum   'Li3 Dy2 Ho1 Cd1 P2'
_cell_volume   176.44561459
_cell_formula_units_Z   1
loop_
 _symmetry_equiv_pos_site_id
 _symmetry_equiv_pos_as_xyz
  1  'x, y, z'
loop_
 _atom_site_type_symbol
 _atom_site_label
 _atom_site_symmetry_multiplicity
 _atom_site_fract_x
 _atom_site_fract_y
 _atom_site_fract_z
 _atom_site_occupancy
  Li  Li0  1  0.743681  0.743681  0.500000  1
  Li  Li1  1  0.256290  0.000022  0.500000  1
  Li  Li2  1  0.000022  0.256290  0.500000  1
  Dy  Dy3  1  0.563187  0.999966  0.000000  1
  Dy  Dy4  1  0.999966  0.563187  0.000000  1
  Ho  Ho5  1  0.436932  0.436932  0.000000  1
  Cd  Cd6  1  0.000222  0.000222  0.000000  1
  P  P7  1  0.666339  0.333362  0.500000  1
  P  P8  1  0.333362  0.666339  0.500000  1
