# generated using pymatgen
data_La9Pr7Cd3Hg(OsPt)2
_symmetry_space_group_name_H-M   'P 1'
_cell_length_a   10.09218151
_cell_length_b   10.09218134
_cell_length_c   10.18269600
_cell_angle_alpha   59.70286208
_cell_angle_beta   59.70286264
_cell_angle_gamma   60.14530324
_symmetry_Int_Tables_number   1
_chemical_formula_structural   La9Pr7Cd3Hg(OsPt)2
_chemical_formula_sum   'La9 Pr7 Cd3 Hg1 Os2 Pt2'
_cell_volume   730.84113675
_cell_formula_units_Z   1
loop_
 _symmetry_equiv_pos_site_id
 _symmetry_equiv_pos_as_xyz
  1  'x, y, z'
loop_
 _atom_site_type_symbol
 _atom_site_label
 _atom_site_symmetry_multiplicity
 _atom_site_fract_x
 _atom_site_fract_y
 _atom_site_fract_z
 _atom_site_occupancy
  La  La0  1  0.346139  0.346139  0.353775  1
  La  La1  1  0.346584  0.346584  0.952895  1
  La  La2  1  0.343858  0.960623  0.347764  1
  La  La3  1  0.960623  0.343858  0.347764  1
  La  La4  1  0.815115  0.188050  0.192209  1
  La  La5  1  0.188540  0.814562  0.803923  1
  La  La6  1  0.188050  0.815115  0.192209  1
  La  La7  1  0.814562  0.188540  0.803923  1
  La  La8  1  0.189197  0.189197  0.810730  1
  Pr  Pr9  1  0.800997  0.800997  0.198928  1
  Pr  Pr10  1  0.935813  0.559972  0.566246  1
  Pr  Pr11  1  0.560262  0.936164  0.936574  1
  Pr  Pr12  1  0.559972  0.935813  0.566246  1
  Pr  Pr13  1  0.936164  0.560262  0.936574  1
  Pr  Pr14  1  0.562996  0.562996  0.936114  1
  Pr  Pr15  1  0.937400  0.937400  0.562307  1
  Cd  Cd16  1  0.580033  0.580033  0.260238  1
  Cd  Cd17  1  0.580885  0.259103  0.579710  1
  Cd  Cd18  1  0.259103  0.580885  0.579710  1
  Hg  Hg19  1  0.584014  0.584014  0.582239  1
  Os  Os20  1  0.142036  0.142036  0.136437  1
  Os  Os21  1  0.142470  0.142470  0.579008  1
  Pt  Pt22  1  0.148390  0.576795  0.137237  1
  Pt  Pt23  1  0.576795  0.148390  0.137237  1
