# generated using pymatgen
data_La8FeRu
_symmetry_space_group_name_H-M   'P 1'
_cell_length_a   7.53729296
_cell_length_b   7.53729453
_cell_length_c   7.53729400
_cell_angle_alpha   107.96606487
_cell_angle_beta   107.96606077
_cell_angle_gamma   112.52538697
_symmetry_Int_Tables_number   1
_chemical_formula_structural   La8FeRu
_chemical_formula_sum   'La8 Fe1 Ru1'
_cell_volume   328.92174632
_cell_formula_units_Z   1
loop_
 _symmetry_equiv_pos_site_id
 _symmetry_equiv_pos_as_xyz
  1  'x, y, z'
loop_
 _atom_site_type_symbol
 _atom_site_label
 _atom_site_symmetry_multiplicity
 _atom_site_fract_x
 _atom_site_fract_y
 _atom_site_fract_z
 _atom_site_occupancy
  La  La0  1  0.842352  0.050803  0.208448  1
  La  La1  1  0.410620  0.128387  0.717768  1
  La  La2  1  0.871613  0.589380  0.282232  1
  La  La3  1  0.842352  0.633905  0.791552  1
  La  La4  1  0.366095  0.157648  0.208448  1
  La  La5  1  0.410620  0.692851  0.282232  1
  La  La6  1  0.307149  0.589380  0.717768  1
  La  La7  1  0.949197  0.157648  0.791552  1
  Fe  Fe8  1  0.500000  0.500000  0.000000  1
  Ru  Ru9  1  0.750000  0.250000  0.500000  1
