# generated using pymatgen
data_Zr4Nb3ReSi4
_symmetry_space_group_name_H-M   'P 1'
_cell_length_a   3.60267000
_cell_length_b   7.02684163
_cell_length_c   8.39801538
_cell_angle_alpha   90.16572857
_cell_angle_beta   90.00000000
_cell_angle_gamma   90.00000000
_symmetry_Int_Tables_number   1
_chemical_formula_structural   Zr4Nb3ReSi4
_chemical_formula_sum   'Zr4 Nb3 Re1 Si4'
_cell_volume   212.59815811
_cell_formula_units_Z   1
loop_
 _symmetry_equiv_pos_site_id
 _symmetry_equiv_pos_as_xyz
  1  'x, y, z'
loop_
 _atom_site_type_symbol
 _atom_site_label
 _atom_site_symmetry_multiplicity
 _atom_site_fract_x
 _atom_site_fract_y
 _atom_site_fract_z
 _atom_site_occupancy
  Zr  Zr0  1  0.250000  0.544720  0.164933  1
  Zr  Zr1  1  0.250000  0.040694  0.330246  1
  Zr  Zr2  1  0.750000  0.459048  0.834413  1
  Zr  Zr3  1  0.750000  0.957750  0.670098  1
  Nb  Nb4  1  0.250000  0.636168  0.560152  1
  Nb  Nb5  1  0.250000  0.126605  0.940820  1
  Nb  Nb6  1  0.750000  0.369521  0.438173  1
  Re  Re7  1  0.750000  0.866247  0.060089  1
  Si  Si8  1  0.250000  0.755776  0.866190  1
  Si  Si9  1  0.250000  0.255243  0.639749  1
  Si  Si10  1  0.750000  0.241286  0.139613  1
  Si  Si11  1  0.750000  0.746941  0.355527  1
