# generated using pymatgen
data_Er10GaBi5C2
_symmetry_space_group_name_H-M   'P 1'
_cell_length_a   8.98961823
_cell_length_b   8.98961827
_cell_length_c   6.45749600
_cell_angle_alpha   90.00000000
_cell_angle_beta   90.00000000
_cell_angle_gamma   120.49605935
_symmetry_Int_Tables_number   1
_chemical_formula_structural   Er10GaBi5C2
_chemical_formula_sum   'Er10 Ga1 Bi5 C2'
_cell_volume   449.66038365
_cell_formula_units_Z   1
loop_
 _symmetry_equiv_pos_site_id
 _symmetry_equiv_pos_as_xyz
  1  'x, y, z'
loop_
 _atom_site_type_symbol
 _atom_site_label
 _atom_site_symmetry_multiplicity
 _atom_site_fract_x
 _atom_site_fract_y
 _atom_site_fract_z
 _atom_site_occupancy
  Er  Er0  1  0.655719  0.335617  0.994553  1
  Er  Er1  1  0.335617  0.655719  0.994553  1
  Er  Er2  1  0.335617  0.655719  0.505447  1
  Er  Er3  1  0.655719  0.335617  0.505447  1
  Er  Er4  1  0.791769  0.791769  0.750000  1
  Er  Er5  1  0.215802  0.012119  0.750000  1
  Er  Er6  1  0.012119  0.215802  0.750000  1
  Er  Er7  1  0.209277  0.209277  0.250000  1
  Er  Er8  1  0.791817  0.999665  0.250000  1
  Er  Er9  1  0.999665  0.791817  0.250000  1
  Ga  Ga10  1  0.404489  0.404489  0.750000  1
  Bi  Bi11  1  0.600877  0.001356  0.750000  1
  Bi  Bi12  1  0.001356  0.600877  0.750000  1
  Bi  Bi13  1  0.595019  0.595019  0.250000  1
  Bi  Bi14  1  0.400868  0.995028  0.250000  1
  Bi  Bi15  1  0.995028  0.400868  0.250000  1
  C  C16  1  0.999621  0.999621  0.001329  1
  C  C17  1  0.999621  0.999621  0.498671  1
