# generated using pymatgen
data_Tb7(YIn4)5
_symmetry_space_group_name_H-M   'P 1'
_cell_length_a   6.51184708
_cell_length_b   10.45790911
_cell_length_c   12.33777414
_cell_angle_alpha   89.98857261
_cell_angle_beta   90.01311189
_cell_angle_gamma   90.01229689
_symmetry_Int_Tables_number   1
_chemical_formula_structural   Tb7(YIn4)5
_chemical_formula_sum   'Tb7 Y5 In20'
_cell_volume   840.20612301
_cell_formula_units_Z   1
loop_
 _symmetry_equiv_pos_site_id
 _symmetry_equiv_pos_as_xyz
  1  'x, y, z'
loop_
 _atom_site_type_symbol
 _atom_site_label
 _atom_site_symmetry_multiplicity
 _atom_site_fract_x
 _atom_site_fract_y
 _atom_site_fract_z
 _atom_site_occupancy
  Tb  Tb0  1  0.890712  0.494544  0.142551  1
  Tb  Tb1  1  0.609192  0.005445  0.642591  1
  Tb  Tb2  1  0.109205  0.994543  0.857412  1
  Tb  Tb3  1  0.390736  0.505499  0.357396  1
  Tb  Tb4  1  0.109194  0.505467  0.857378  1
  Tb  Tb5  1  0.390838  0.994500  0.357456  1
  Tb  Tb6  1  0.890742  0.005402  0.142535  1
  Y  Y7  1  0.349418  0.749919  0.057004  1
  Y  Y8  1  0.150693  0.750093  0.557005  1
  Y  Y9  1  0.650558  0.250029  0.942940  1
  Y  Y10  1  0.849403  0.250019  0.443029  1
  Y  Y11  1  0.609253  0.494562  0.642720  1
  In  In12  1  0.617764  0.749882  0.504629  1
  In  In13  1  0.882138  0.749992  0.004400  1
  In  In14  1  0.382207  0.249993  0.495428  1
  In  In15  1  0.117842  0.249981  0.995567  1
  In  In16  1  0.650574  0.749958  0.246751  1
  In  In17  1  0.849395  0.750031  0.746655  1
  In  In18  1  0.349260  0.249983  0.753294  1
  In  In19  1  0.150550  0.249981  0.253329  1
  In  In20  1  0.125795  0.750067  0.286072  1
  In  In21  1  0.374222  0.750106  0.786130  1
  In  In22  1  0.874281  0.249989  0.713897  1
  In  In23  1  0.625764  0.250000  0.213914  1
  In  In24  1  0.875679  0.544213  0.401368  1
  In  In25  1  0.624217  0.955768  0.901438  1
  In  In26  1  0.124250  0.044292  0.598623  1
  In  In27  1  0.375768  0.455762  0.098554  1
  In  In28  1  0.124516  0.455769  0.598593  1
  In  In29  1  0.375798  0.044228  0.098568  1
  In  In30  1  0.875763  0.955754  0.401391  1
  In  In31  1  0.624272  0.544228  0.901380  1
