# generated using pymatgen
data_Tb7Yb(ScIr3)2
_symmetry_space_group_name_H-M   'P 1'
_cell_length_a   10.82451679
_cell_length_b   10.83132600
_cell_length_c   6.28482130
_cell_angle_alpha   90.00000000
_cell_angle_beta   90.23546130
_cell_angle_gamma   90.00000000
_symmetry_Int_Tables_number   1
_chemical_formula_structural   Tb7Yb(ScIr3)2
_chemical_formula_sum   'Tb14 Yb2 Sc4 Ir12'
_cell_volume   736.85055055
_cell_formula_units_Z   2
loop_
 _symmetry_equiv_pos_site_id
 _symmetry_equiv_pos_as_xyz
  1  'x, y, z'
loop_
 _atom_site_type_symbol
 _atom_site_label
 _atom_site_symmetry_multiplicity
 _atom_site_fract_x
 _atom_site_fract_y
 _atom_site_fract_z
 _atom_site_occupancy
  Tb  Tb0  1  0.711820  0.085319  0.879149  1
  Tb  Tb1  1  0.711820  0.914681  0.379149  1
  Tb  Tb2  1  0.584873  0.788668  0.878077  1
  Tb  Tb3  1  0.584873  0.211332  0.378077  1
  Tb  Tb4  1  0.413200  0.789514  0.378353  1
  Tb  Tb5  1  0.413200  0.210486  0.878353  1
  Tb  Tb6  1  0.213108  0.414291  0.622693  1
  Tb  Tb7  1  0.213108  0.585709  0.122693  1
  Tb  Tb8  1  0.787375  0.413809  0.120996  1
  Tb  Tb9  1  0.787375  0.586191  0.620996  1
  Tb  Tb10  1  0.914052  0.713199  0.123077  1
  Tb  Tb11  1  0.914052  0.286801  0.623077  1
  Tb  Tb12  1  0.086894  0.713202  0.621448  1
  Tb  Tb13  1  0.086894  0.286798  0.121448  1
  Yb  Yb14  1  0.286780  0.086038  0.376007  1
  Yb  Yb15  1  0.286780  0.913962  0.876007  1
  Sc  Sc16  1  0.000959  0.999632  0.498454  1
  Sc  Sc17  1  0.000959  0.000368  0.998454  1
  Sc  Sc18  1  0.499505  0.499834  0.999591  1
  Sc  Sc19  1  0.499505  0.500166  0.499591  1
  Ir  Ir20  1  0.854970  0.146887  0.250021  1
  Ir  Ir21  1  0.854970  0.853113  0.750021  1
  Ir  Ir22  1  0.142950  0.150364  0.752213  1
  Ir  Ir23  1  0.142950  0.849636  0.252213  1
  Ir  Ir24  1  0.645548  0.352789  0.750299  1
  Ir  Ir25  1  0.645548  0.647211  0.250299  1
  Ir  Ir26  1  0.354208  0.356032  0.247469  1
  Ir  Ir27  1  0.354208  0.643968  0.747469  1
  Ir  Ir28  1  0.503347  0.000479  0.122805  1
  Ir  Ir29  1  0.503347  0.999521  0.622805  1
  Ir  Ir30  1  0.000410  0.500291  0.879347  1
  Ir  Ir31  1  0.000410  0.499709  0.379347  1
