# generated using pymatgen
data_Y4SiB4Ir9
_symmetry_space_group_name_H-M   'P 1'
_cell_length_a   10.71965536
_cell_length_b   10.71965498
_cell_length_c   10.71965496
_cell_angle_alpha   29.84865839
_cell_angle_beta   29.84865950
_cell_angle_gamma   29.84866346
_symmetry_Int_Tables_number   1
_chemical_formula_structural   Y4SiB4Ir9
_chemical_formula_sum   'Y4 Si1 B4 Ir9'
_cell_volume   270.22537636
_cell_formula_units_Z   1
loop_
 _symmetry_equiv_pos_site_id
 _symmetry_equiv_pos_as_xyz
  1  'x, y, z'
loop_
 _atom_site_type_symbol
 _atom_site_label
 _atom_site_symmetry_multiplicity
 _atom_site_fract_x
 _atom_site_fract_y
 _atom_site_fract_z
 _atom_site_occupancy
  Y  Y0  1  0.150286  0.150286  0.150286  1
  Y  Y1  1  0.950078  0.950078  0.950078  1
  Y  Y2  1  0.849714  0.849714  0.849714  1
  Y  Y3  1  0.049922  0.049922  0.049922  1
  Si  Si4  1  0.500000  0.500000  0.500000  1
  B  B5  1  0.615763  0.615763  0.615763  1
  B  B6  1  0.718379  0.718379  0.718379  1
  B  B7  1  0.384237  0.384237  0.384237  1
  B  B8  1  0.281621  0.281621  0.281621  1
  Ir  Ir9  1  0.402081  0.898826  0.402081  1
  Ir  Ir10  1  0.898826  0.402081  0.402081  1
  Ir  Ir11  1  0.500000  0.500000  0.000000  1
  Ir  Ir12  1  0.500000  0.000000  0.500000  1
  Ir  Ir13  1  0.000000  0.500000  0.500000  1
  Ir  Ir14  1  0.597919  0.101174  0.597919  1
  Ir  Ir15  1  0.597919  0.597919  0.101174  1
  Ir  Ir16  1  0.101174  0.597919  0.597919  1
  Ir  Ir17  1  0.402081  0.402081  0.898826  1
