# generated using pymatgen
data_SmSb5(ClO4)2
_symmetry_space_group_name_H-M   'P 1'
_cell_length_a   5.70106400
_cell_length_b   5.67611837
_cell_length_c   9.05504954
_cell_angle_alpha   87.66578604
_cell_angle_beta   90.00000000
_cell_angle_gamma   90.00000000
_symmetry_Int_Tables_number   1
_chemical_formula_structural   SmSb5(ClO4)2
_chemical_formula_sum   'Sm1 Sb5 Cl2 O8'
_cell_volume   292.77749215
_cell_formula_units_Z   1
loop_
 _symmetry_equiv_pos_site_id
 _symmetry_equiv_pos_as_xyz
  1  'x, y, z'
loop_
 _atom_site_type_symbol
 _atom_site_label
 _atom_site_symmetry_multiplicity
 _atom_site_fract_x
 _atom_site_fract_y
 _atom_site_fract_z
 _atom_site_occupancy
  Sm  Sm0  1  0.767358  0.750000  0.500000  1
  Sb  Sb1  1  0.691073  0.299538  0.790562  1
  Sb  Sb2  1  0.164901  0.250000  0.500000  1
  Sb  Sb3  1  0.691073  0.200462  0.209438  1
  Sb  Sb4  1  0.308435  0.691677  0.211079  1
  Sb  Sb5  1  0.308435  0.808323  0.788921  1
  Cl  Cl6  1  0.755481  0.750000  0.000000  1
  Cl  Cl7  1  0.258375  0.250000  0.000000  1
  O  O8  1  0.078854  0.915216  0.633445  1
  O  O9  1  0.078854  0.584784  0.366555  1
  O  O10  1  0.914329  0.097905  0.373040  1
  O  O11  1  0.914329  0.402095  0.626960  1
  O  O12  1  0.483461  0.548355  0.679116  1
  O  O13  1  0.550791  0.475014  0.317296  1
  O  O14  1  0.483461  0.951645  0.320884  1
  O  O15  1  0.550791  0.024986  0.682704  1
