# generated using pymatgen
data_Rb3Ga2F9
_symmetry_space_group_name_H-M   'P 1'
_cell_length_a   6.15963100
_cell_length_b   6.15963659
_cell_length_c   14.91360000
_cell_angle_alpha   89.99969886
_cell_angle_beta   89.99983379
_cell_angle_gamma   120.00083273
_symmetry_Int_Tables_number   1
_chemical_formula_structural   Rb3Ga2F9
_chemical_formula_sum   'Rb6 Ga4 F18'
_cell_volume   490.02615848
_cell_formula_units_Z   2
loop_
 _symmetry_equiv_pos_site_id
 _symmetry_equiv_pos_as_xyz
  1  'x, y, z'
loop_
 _atom_site_type_symbol
 _atom_site_label
 _atom_site_symmetry_multiplicity
 _atom_site_fract_x
 _atom_site_fract_y
 _atom_site_fract_z
 _atom_site_occupancy
  Rb  Rb0  1  0.333309  0.666663  0.249997  1
  Rb  Rb1  1  0.666643  0.333338  0.750001  1
  Rb  Rb2  1  0.333313  0.666673  0.563288  1
  Rb  Rb3  1  0.333298  0.666664  0.936708  1
  Rb  Rb4  1  0.666648  0.333335  0.063289  1
  Rb  Rb5  1  0.666641  0.333338  0.436707  1
  Ga  Ga6  1  0.999989  0.999994  0.152978  1
  Ga  Ga7  1  0.999991  0.999998  0.347025  1
  Ga  Ga8  1  0.999993  0.000001  0.652975  1
  Ga  Ga9  1  0.999995  0.000004  0.847022  1
  F  F10  1  0.271864  0.141542  0.250001  1
  F  F11  1  0.869659  0.728125  0.250003  1
  F  F12  1  0.858452  0.130331  0.250003  1
  F  F13  1  0.130322  0.858453  0.749999  1
  F  F14  1  0.141540  0.271873  0.749998  1
  F  F15  1  0.728122  0.869670  0.749999  1
  F  F16  1  0.309400  0.144577  0.596059  1
  F  F17  1  0.835161  0.690598  0.596058  1
  F  F18  1  0.855428  0.164840  0.596057  1
  F  F19  1  0.309399  0.144568  0.903939  1
  F  F20  1  0.835152  0.690598  0.903941  1
  F  F21  1  0.855430  0.164841  0.903939  1
  F  F22  1  0.164839  0.855437  0.096061  1
  F  F23  1  0.144556  0.309395  0.096060  1
  F  F24  1  0.690579  0.835158  0.096065  1
  F  F25  1  0.164825  0.855430  0.403942  1
  F  F26  1  0.144565  0.309397  0.403943  1
  F  F27  1  0.690586  0.835159  0.403943  1
