# generated using pymatgen
data_CaGe3AsRh6
_symmetry_space_group_name_H-M   'P 1'
_cell_length_a   7.24071700
_cell_length_b   7.28882977
_cell_length_c   3.83810100
_cell_angle_alpha   90.00000000
_cell_angle_beta   90.00000000
_cell_angle_gamma   119.78187895
_symmetry_Int_Tables_number   1
_chemical_formula_structural   CaGe3AsRh6
_chemical_formula_sum   'Ca1 Ge3 As1 Rh6'
_cell_volume   175.80724626
_cell_formula_units_Z   1
loop_
 _symmetry_equiv_pos_site_id
 _symmetry_equiv_pos_as_xyz
  1  'x, y, z'
loop_
 _atom_site_type_symbol
 _atom_site_label
 _atom_site_symmetry_multiplicity
 _atom_site_fract_x
 _atom_site_fract_y
 _atom_site_fract_z
 _atom_site_occupancy
  Ca  Ca0  1  0.000238  0.000475  0.000000  1
  Ge  Ge1  1  0.803644  0.193831  0.500000  1
  Ge  Ge2  1  0.390187  0.193831  0.500000  1
  Ge  Ge3  1  0.333644  0.667288  0.000000  1
  As  As4  1  0.805744  0.611487  0.500000  1
  Rh  Rh5  1  0.197941  0.799888  0.500000  1
  Rh  Rh6  1  0.199768  0.399536  0.500000  1
  Rh  Rh7  1  0.534517  0.069035  0.000000  1
  Rh  Rh8  1  0.930877  0.465704  0.000000  1
  Rh  Rh9  1  0.534827  0.465704  0.000000  1
  Rh  Rh10  1  0.601947  0.799888  0.500000  1
