# generated using pymatgen
data_Sc11TcRh3
_symmetry_space_group_name_H-M   'P 1'
_cell_length_a   9.51093274
_cell_length_b   9.51093359
_cell_length_c   9.51093400
_cell_angle_alpha   59.99999858
_cell_angle_beta   59.99999561
_cell_angle_gamma   60.00000406
_symmetry_Int_Tables_number   1
_chemical_formula_structural   Sc11TcRh3
_chemical_formula_sum   'Sc22 Tc2 Rh6'
_cell_volume   608.35127695
_cell_formula_units_Z   2
loop_
 _symmetry_equiv_pos_site_id
 _symmetry_equiv_pos_as_xyz
  1  'x, y, z'
loop_
 _atom_site_type_symbol
 _atom_site_label
 _atom_site_symmetry_multiplicity
 _atom_site_fract_x
 _atom_site_fract_y
 _atom_site_fract_z
 _atom_site_occupancy
  Sc  Sc0  1  0.803343  0.803343  0.196657  1
  Sc  Sc1  1  0.196657  0.803343  0.196657  1
  Sc  Sc2  1  0.803343  0.196657  0.196657  1
  Sc  Sc3  1  0.196657  0.196657  0.803343  1
  Sc  Sc4  1  0.803343  0.196657  0.803343  1
  Sc  Sc5  1  0.196657  0.803343  0.803343  1
  Sc  Sc6  1  0.616142  0.616142  0.151573  1
  Sc  Sc7  1  0.616142  0.151573  0.616142  1
  Sc  Sc8  1  0.151573  0.616142  0.616142  1
  Sc  Sc9  1  0.616142  0.616142  0.616142  1
  Sc  Sc10  1  0.383858  0.383858  0.848427  1
  Sc  Sc11  1  0.383858  0.848427  0.383858  1
  Sc  Sc12  1  0.848427  0.383858  0.383858  1
  Sc  Sc13  1  0.383858  0.383858  0.383858  1
  Sc  Sc14  1  0.842837  0.842837  0.471488  1
  Sc  Sc15  1  0.842837  0.471488  0.842837  1
  Sc  Sc16  1  0.471488  0.842837  0.842837  1
  Sc  Sc17  1  0.842837  0.842837  0.842837  1
  Sc  Sc18  1  0.157163  0.157163  0.528512  1
  Sc  Sc19  1  0.157163  0.528512  0.157163  1
  Sc  Sc20  1  0.528512  0.157163  0.157163  1
  Sc  Sc21  1  0.157163  0.157163  0.157163  1
  Tc  Tc22  1  0.000000  0.000000  0.000000  1
  Tc  Tc23  1  0.500000  0.500000  0.500000  1
  Rh  Rh24  1  0.000000  0.000000  0.500000  1
  Rh  Rh25  1  0.500000  0.000000  0.500000  1
  Rh  Rh26  1  0.000000  0.500000  0.500000  1
  Rh  Rh27  1  0.500000  0.500000  0.000000  1
  Rh  Rh28  1  0.000000  0.500000  0.000000  1
  Rh  Rh29  1  0.500000  0.000000  0.000000  1
