# generated using pymatgen
data_Pr2Sm4OsI10
_symmetry_space_group_name_H-M   'P 1'
_cell_length_a   7.95203146
_cell_length_b   9.96094979
_cell_length_c   10.00988420
_cell_angle_alpha   107.44803164
_cell_angle_beta   96.84562108
_cell_angle_gamma   105.39027969
_symmetry_Int_Tables_number   1
_chemical_formula_structural   Pr2Sm4OsI10
_chemical_formula_sum   'Pr2 Sm4 Os1 I10'
_cell_volume   712.04275360
_cell_formula_units_Z   1
loop_
 _symmetry_equiv_pos_site_id
 _symmetry_equiv_pos_as_xyz
  1  'x, y, z'
loop_
 _atom_site_type_symbol
 _atom_site_label
 _atom_site_symmetry_multiplicity
 _atom_site_fract_x
 _atom_site_fract_y
 _atom_site_fract_z
 _atom_site_occupancy
  Pr  Pr0  1  0.616740  0.542357  0.258795  1
  Pr  Pr1  1  0.383260  0.457643  0.741205  1
  Sm  Sm2  1  0.529764  0.218486  0.416415  1
  Sm  Sm3  1  0.470236  0.781514  0.583585  1
  Sm  Sm4  1  0.143409  0.368925  0.329134  1
  Sm  Sm5  1  0.856591  0.631075  0.670866  1
  Os  Os6  1  0.500000  0.500000  0.500000  1
  I  I7  1  0.147780  0.047181  0.227478  1
  I  I8  1  0.852220  0.952819  0.772522  1
  I  I9  1  0.232143  0.408909  0.040504  1
  I  I10  1  0.767857  0.591091  0.959496  1
  I  I11  1  0.709547  0.235639  0.151514  1
  I  I12  1  0.290453  0.764361  0.848486  1
  I  I13  1  0.051017  0.682684  0.411503  1
  I  I14  1  0.948983  0.317316  0.588497  1
  I  I15  1  0.414262  0.127607  0.677231  1
  I  I16  1  0.585738  0.872393  0.322769  1
