# generated using pymatgen
data_Ac2Mo2P7Rh9W
_symmetry_space_group_name_H-M   'P 1'
_cell_length_a   4.00295302
_cell_length_b   9.70657406
_cell_length_c   9.71296455
_cell_angle_alpha   120.03139649
_cell_angle_beta   90.01029436
_cell_angle_gamma   89.99610300
_symmetry_Int_Tables_number   1
_chemical_formula_structural   Ac2Mo2P7Rh9W
_chemical_formula_sum   'Ac2 Mo2 P7 Rh9 W1'
_cell_volume   326.73180209
_cell_formula_units_Z   1
loop_
 _symmetry_equiv_pos_site_id
 _symmetry_equiv_pos_as_xyz
  1  'x, y, z'
loop_
 _atom_site_type_symbol
 _atom_site_label
 _atom_site_symmetry_multiplicity
 _atom_site_fract_x
 _atom_site_fract_y
 _atom_site_fract_z
 _atom_site_occupancy
  Ac  Ac0  1  0.261874  0.666549  0.333321  1
  Ac  Ac1  1  0.761914  0.333081  0.666478  1
  Mo  Mo2  1  0.761909  0.090802  0.875258  1
  Mo  Mo3  1  0.761905  0.124410  0.216047  1
  P  P4  1  0.262013  0.999917  0.000195  1
  P  P5  1  0.761894  0.894043  0.602718  1
  P  P6  1  0.761869  0.396557  0.290088  1
  P  P7  1  0.761865  0.709538  0.106358  1
  P  P8  1  0.261945  0.109314  0.404059  1
  P  P9  1  0.261970  0.596029  0.705879  1
  P  P10  1  0.261946  0.295085  0.890991  1
  Rh  Rh11  1  0.261886  0.885371  0.155067  1
  Rh  Rh12  1  0.261883  0.844438  0.730380  1
  Rh  Rh13  1  0.261885  0.269837  0.114705  1
  Rh  Rh14  1  0.761896  0.614959  0.566568  1
  Rh  Rh15  1  0.761848  0.433188  0.047564  1
  Rh  Rh16  1  0.761877  0.952078  0.385745  1
  Rh  Rh17  1  0.261920  0.368692  0.433221  1
  Rh  Rh18  1  0.261900  0.567672  0.935218  1
  Rh  Rh19  1  0.261897  0.064119  0.631775  1
  W  W20  1  0.761903  0.784320  0.908368  1
