# generated using pymatgen
data_Hf3BeSiAsRu3
_symmetry_space_group_name_H-M   'P 1'
_cell_length_a   6.70280700
_cell_length_b   6.70280713
_cell_length_c   3.56533000
_cell_angle_alpha   90.00000000
_cell_angle_beta   90.00000000
_cell_angle_gamma   120.00000429
_symmetry_Int_Tables_number   1
_chemical_formula_structural   Hf3BeSiAsRu3
_chemical_formula_sum   'Hf3 Be1 Si1 As1 Ru3'
_cell_volume   138.72150246
_cell_formula_units_Z   1
loop_
 _symmetry_equiv_pos_site_id
 _symmetry_equiv_pos_as_xyz
  1  'x, y, z'
loop_
 _atom_site_type_symbol
 _atom_site_label
 _atom_site_symmetry_multiplicity
 _atom_site_fract_x
 _atom_site_fract_y
 _atom_site_fract_z
 _atom_site_occupancy
  Hf  Hf0  1  0.992982  0.391907  0.500000  1
  Hf  Hf1  1  0.608093  0.601075  0.500000  1
  Hf  Hf2  1  0.398925  0.007018  0.500000  1
  Be  Be3  1  0.000000  0.000000  0.500000  1
  Si  Si4  1  0.666667  0.333333  0.000000  1
  As  As5  1  0.333333  0.666667  0.000000  1
  Ru  Ru6  1  0.994297  0.756663  0.000000  1
  Ru  Ru7  1  0.243337  0.237634  0.000000  1
  Ru  Ru8  1  0.762366  0.005703  0.000000  1
