# generated using pymatgen
data_Tm10Os3Rh
_symmetry_space_group_name_H-M   'P 1'
_cell_length_a   6.30448152
_cell_length_b   7.28517244
_cell_length_c   8.28112661
_cell_angle_alpha   96.77921478
_cell_angle_beta   112.25512714
_cell_angle_gamma   89.94373770
_symmetry_Int_Tables_number   1
_chemical_formula_structural   Tm10Os3Rh
_chemical_formula_sum   'Tm10 Os3 Rh1'
_cell_volume   349.15559150
_cell_formula_units_Z   1
loop_
 _symmetry_equiv_pos_site_id
 _symmetry_equiv_pos_as_xyz
  1  'x, y, z'
loop_
 _atom_site_type_symbol
 _atom_site_label
 _atom_site_symmetry_multiplicity
 _atom_site_fract_x
 _atom_site_fract_y
 _atom_site_fract_z
 _atom_site_occupancy
  Tm  Tm0  1  0.970004  0.915214  0.179374  1
  Tm  Tm1  1  0.789906  0.582106  0.818245  1
  Tm  Tm2  1  0.024783  0.083396  0.814011  1
  Tm  Tm3  1  0.208155  0.419355  0.179714  1
  Tm  Tm4  1  0.649670  0.816485  0.439729  1
  Tm  Tm5  1  0.210257  0.681846  0.561873  1
  Tm  Tm6  1  0.350806  0.182039  0.564194  1
  Tm  Tm7  1  0.794416  0.320257  0.439955  1
  Tm  Tm8  1  0.421967  0.748341  0.998983  1
  Tm  Tm9  1  0.578609  0.250907  0.998951  1
  Os  Os10  1  0.823473  0.576421  0.218219  1
  Os  Os11  1  0.607311  0.924298  0.781964  1
  Os  Os12  1  0.175982  0.422869  0.783426  1
  Rh  Rh13  1  0.394662  0.076466  0.221361  1
