# generated using pymatgen
data_K6Fe2O7
_symmetry_space_group_name_H-M   'P 1'
_cell_length_a   9.22267200
_cell_length_b   6.63139813
_cell_length_c   11.11282743
_cell_angle_alpha   57.02497269
_cell_angle_beta   90.00000000
_cell_angle_gamma   90.00000000
_symmetry_Int_Tables_number   1
_chemical_formula_structural   K6Fe2O7
_chemical_formula_sum   'K12 Fe4 O14'
_cell_volume   570.16519947
_cell_formula_units_Z   2
loop_
 _symmetry_equiv_pos_site_id
 _symmetry_equiv_pos_as_xyz
  1  'x, y, z'
loop_
 _atom_site_type_symbol
 _atom_site_label
 _atom_site_symmetry_multiplicity
 _atom_site_fract_x
 _atom_site_fract_y
 _atom_site_fract_z
 _atom_site_occupancy
  K  K0  1  0.793148  0.414287  0.210978  1
  K  K1  1  0.293148  0.585713  0.289022  1
  K  K2  1  0.351976  0.930905  0.441547  1
  K  K3  1  0.851976  0.069095  0.058453  1
  K  K4  1  0.648024  0.069095  0.558453  1
  K  K5  1  0.148024  0.930905  0.941547  1
  K  K6  1  0.483465  0.199688  0.062971  1
  K  K7  1  0.983465  0.800312  0.437029  1
  K  K8  1  0.516535  0.800312  0.937029  1
  K  K9  1  0.016535  0.199688  0.562971  1
  K  K10  1  0.206852  0.585713  0.789022  1
  K  K11  1  0.706852  0.414287  0.710978  1
  Fe  Fe12  1  0.358710  0.303245  0.642502  1
  Fe  Fe13  1  0.858710  0.696755  0.857498  1
  Fe  Fe14  1  0.641290  0.696755  0.357498  1
  Fe  Fe15  1  0.141290  0.303245  0.142502  1
  O  O16  1  0.500000  0.500000  0.500000  1
  O  O17  1  0.000000  0.500000  0.000000  1
  O  O18  1  0.635210  0.985405  0.338872  1
  O  O19  1  0.135210  0.014595  0.161128  1
  O  O20  1  0.295768  0.502789  0.076418  1
  O  O21  1  0.795768  0.497211  0.423582  1
  O  O22  1  0.704232  0.497211  0.923582  1
  O  O23  1  0.204232  0.502789  0.576418  1
  O  O24  1  0.389111  0.234121  0.820696  1
  O  O25  1  0.889111  0.765879  0.679304  1
  O  O26  1  0.610889  0.765879  0.179304  1
  O  O27  1  0.110889  0.234121  0.320696  1
  O  O28  1  0.864790  0.985405  0.838872  1
  O  O29  1  0.364790  0.014595  0.661128  1
