# generated using pymatgen
data_Sc14Al8IrOs7
_symmetry_space_group_name_H-M   'P 1'
_cell_length_a   9.15640064
_cell_length_b   9.20144987
_cell_length_c   9.15640000
_cell_angle_alpha   59.83711023
_cell_angle_beta   60.20173565
_cell_angle_gamma   59.83711767
_symmetry_Int_Tables_number   1
_chemical_formula_structural   Sc14Al8IrOs7
_chemical_formula_sum   'Sc14 Al8 Ir1 Os7'
_cell_volume   544.96879409
_cell_formula_units_Z   1
loop_
 _symmetry_equiv_pos_site_id
 _symmetry_equiv_pos_as_xyz
  1  'x, y, z'
loop_
 _atom_site_type_symbol
 _atom_site_label
 _atom_site_symmetry_multiplicity
 _atom_site_fract_x
 _atom_site_fract_y
 _atom_site_fract_z
 _atom_site_occupancy
  Sc  Sc0  1  0.195200  0.804800  0.195200  1
  Sc  Sc1  1  0.195859  0.797716  0.804141  1
  Sc  Sc2  1  0.804141  0.202284  0.195859  1
  Sc  Sc3  1  0.804141  0.797716  0.195859  1
  Sc  Sc4  1  0.195859  0.202284  0.804141  1
  Sc  Sc5  1  0.804800  0.195200  0.804800  1
  Sc  Sc6  1  0.374546  0.379737  0.374546  1
  Sc  Sc7  1  0.127440  0.625012  0.622535  1
  Sc  Sc8  1  0.625454  0.128833  0.625454  1
  Sc  Sc9  1  0.622535  0.625012  0.127440  1
  Sc  Sc10  1  0.374546  0.871167  0.374546  1
  Sc  Sc11  1  0.377465  0.374988  0.872560  1
  Sc  Sc12  1  0.872560  0.374988  0.377465  1
  Sc  Sc13  1  0.625454  0.620263  0.625454  1
  Al  Al14  1  0.836054  0.835304  0.836054  1
  Al  Al15  1  0.515405  0.160582  0.163428  1
  Al  Al16  1  0.163428  0.160582  0.515405  1
  Al  Al17  1  0.163946  0.507411  0.163946  1
  Al  Al18  1  0.836572  0.839418  0.484595  1
  Al  Al19  1  0.836054  0.492589  0.836054  1
  Al  Al20  1  0.484595  0.839418  0.836572  1
  Al  Al21  1  0.163946  0.164696  0.163946  1
  Ir  Ir22  1  0.500000  0.000000  0.500000  1
  Os  Os23  1  0.500000  0.500000  0.000000  1
  Os  Os24  1  0.000000  0.000000  0.500000  1
  Os  Os25  1  0.000000  0.500000  0.500000  1
  Os  Os26  1  0.500000  0.000000  0.000000  1
  Os  Os27  1  0.000000  0.500000  0.000000  1
  Os  Os28  1  0.500000  0.500000  0.500000  1
  Os  Os29  1  0.000000  0.000000  0.000000  1
