# generated using pymatgen
data_Nb12Ga8NiPd(RhC2)2
_symmetry_space_group_name_H-M   'P 1'
_cell_length_a   8.30297124
_cell_length_b   8.32129768
_cell_length_c   8.30326600
_cell_angle_alpha   59.92848098
_cell_angle_beta   59.93647828
_cell_angle_gamma   59.92717623
_symmetry_Int_Tables_number   1
_chemical_formula_structural   Nb12Ga8NiPd(RhC2)2
_chemical_formula_sum   'Nb12 Ga8 Ni1 Pd1 Rh2 C4'
_cell_volume   405.01905486
_cell_formula_units_Z   1
loop_
 _symmetry_equiv_pos_site_id
 _symmetry_equiv_pos_as_xyz
  1  'x, y, z'
loop_
 _atom_site_type_symbol
 _atom_site_label
 _atom_site_symmetry_multiplicity
 _atom_site_fract_x
 _atom_site_fract_y
 _atom_site_fract_z
 _atom_site_occupancy
  Nb  Nb0  1  0.814664  0.815433  0.188252  1
  Nb  Nb1  1  0.188399  0.184483  0.812833  1
  Nb  Nb2  1  0.813938  0.186159  0.813754  1
  Nb  Nb3  1  0.183429  0.815568  0.185433  1
  Nb  Nb4  1  0.188410  0.814279  0.812829  1
  Nb  Nb5  1  0.814668  0.181652  0.188242  1
  Nb  Nb6  1  0.435336  0.434567  0.061748  1
  Nb  Nb7  1  0.061601  0.065517  0.437167  1
  Nb  Nb8  1  0.436062  0.063841  0.436246  1
  Nb  Nb9  1  0.066571  0.434432  0.064567  1
  Nb  Nb10  1  0.061590  0.435721  0.437171  1
  Nb  Nb11  1  0.435332  0.068348  0.061758  1
  Ga  Ga12  1  0.754657  0.414652  0.416028  1
  Ga  Ga13  1  0.407155  0.756600  0.418524  1
  Ga  Ga14  1  0.409158  0.420244  0.750343  1
  Ga  Ga15  1  0.407158  0.417708  0.418524  1
  Ga  Ga16  1  0.495343  0.835348  0.833972  1
  Ga  Ga17  1  0.842845  0.493400  0.831476  1
  Ga  Ga18  1  0.840842  0.829756  0.499657  1
  Ga  Ga19  1  0.842842  0.832292  0.831476  1
  Ni  Ni20  1  0.125000  0.625000  0.625000  1
  Pd  Pd21  1  0.625000  0.625000  0.125000  1
  Rh  Rh22  1  0.625000  0.125000  0.625000  1
  Rh  Rh23  1  0.625000  0.625000  0.625000  1
  C  C24  1  0.625000  0.125000  0.125000  1
  C  C25  1  0.125000  0.625000  0.125000  1
  C  C26  1  0.125000  0.125000  0.625000  1
  C  C27  1  0.125000  0.125000  0.125000  1
