# generated using pymatgen
data_Lu2Zn13GaCu3
_symmetry_space_group_name_H-M   'P 1'
_cell_length_a   8.89872800
_cell_length_b   8.89872806
_cell_length_c   8.60707200
_cell_angle_alpha   90.00000000
_cell_angle_beta   90.00000000
_cell_angle_gamma   120.00000722
_symmetry_Int_Tables_number   1
_chemical_formula_structural   Lu2Zn13GaCu3
_chemical_formula_sum   'Lu4 Zn26 Ga2 Cu6'
_cell_volume   590.25802921
_cell_formula_units_Z   2
loop_
 _symmetry_equiv_pos_site_id
 _symmetry_equiv_pos_as_xyz
  1  'x, y, z'
loop_
 _atom_site_type_symbol
 _atom_site_label
 _atom_site_symmetry_multiplicity
 _atom_site_fract_x
 _atom_site_fract_y
 _atom_site_fract_z
 _atom_site_occupancy
  Lu  Lu0  1  0.000000  0.000000  0.248532  1
  Lu  Lu1  1  0.000000  0.000000  0.751468  1
  Lu  Lu2  1  0.333333  0.666667  0.749296  1
  Lu  Lu3  1  0.666667  0.333333  0.250704  1
  Zn  Zn4  1  0.666667  0.333333  0.904155  1
  Zn  Zn5  1  0.333333  0.666667  0.095845  1
  Zn  Zn6  1  0.332485  0.366499  0.249486  1
  Zn  Zn7  1  0.633501  0.965987  0.249486  1
  Zn  Zn8  1  0.034013  0.667515  0.249486  1
  Zn  Zn9  1  0.633501  0.667515  0.249486  1
  Zn  Zn10  1  0.034013  0.366499  0.249486  1
  Zn  Zn11  1  0.332485  0.965987  0.249486  1
  Zn  Zn12  1  0.667515  0.633501  0.750514  1
  Zn  Zn13  1  0.366499  0.034013  0.750514  1
  Zn  Zn14  1  0.965987  0.332485  0.750514  1
  Zn  Zn15  1  0.366499  0.332485  0.750514  1
  Zn  Zn16  1  0.965987  0.633501  0.750514  1
  Zn  Zn17  1  0.667515  0.034013  0.750514  1
  Zn  Zn18  1  0.163168  0.836832  0.521033  1
  Zn  Zn19  1  0.163168  0.326338  0.521033  1
  Zn  Zn20  1  0.673662  0.836832  0.521033  1
  Zn  Zn21  1  0.836832  0.163168  0.478967  1
  Zn  Zn22  1  0.836832  0.673662  0.478967  1
  Zn  Zn23  1  0.326338  0.163168  0.478967  1
  Zn  Zn24  1  0.835155  0.164845  0.019298  1
  Zn  Zn25  1  0.835155  0.670308  0.019298  1
  Zn  Zn26  1  0.329692  0.164845  0.019298  1
  Zn  Zn27  1  0.164845  0.835155  0.980702  1
  Zn  Zn28  1  0.164845  0.329692  0.980702  1
  Zn  Zn29  1  0.670308  0.835155  0.980702  1
  Ga  Ga30  1  0.333333  0.666667  0.405766  1
  Ga  Ga31  1  0.666667  0.333333  0.594234  1
  Cu  Cu32  1  0.500000  0.500000  0.500000  1
  Cu  Cu33  1  0.500000  0.000000  0.500000  1
  Cu  Cu34  1  0.000000  0.500000  0.500000  1
  Cu  Cu35  1  0.500000  0.500000  0.000000  1
  Cu  Cu36  1  0.500000  0.000000  0.000000  1
  Cu  Cu37  1  0.000000  0.500000  0.000000  1
