# generated using pymatgen
data_Yb2MnGaO5
_symmetry_space_group_name_H-M   'P 1'
_cell_length_a   5.33215266
_cell_length_b   5.59717543
_cell_length_c   8.31537414
_cell_angle_alpha   109.66391729
_cell_angle_beta   108.68235399
_cell_angle_gamma   89.99994764
_symmetry_Int_Tables_number   1
_chemical_formula_structural   Yb2MnGaO5
_chemical_formula_sum   'Yb4 Mn2 Ga2 O10'
_cell_volume   219.76363270
_cell_formula_units_Z   2
loop_
 _symmetry_equiv_pos_site_id
 _symmetry_equiv_pos_as_xyz
  1  'x, y, z'
loop_
 _atom_site_type_symbol
 _atom_site_label
 _atom_site_symmetry_multiplicity
 _atom_site_fract_x
 _atom_site_fract_y
 _atom_site_fract_z
 _atom_site_occupancy
  Yb  Yb0  1  0.607704  0.136366  0.215028  1
  Yb  Yb1  1  0.392439  0.863543  0.784738  1
  Yb  Yb2  1  0.107736  0.578674  0.215020  1
  Yb  Yb3  1  0.892411  0.421187  0.784717  1
  Mn  Mn4  1  0.987092  0.999235  0.000666  1
  Mn  Mn5  1  0.487081  0.501380  0.000625  1
  Ga  Ga6  1  0.279004  0.182160  0.499977  1
  Ga  Ga7  1  0.779051  0.817804  0.499949  1
  O  O8  1  0.635463  0.131188  0.499820  1
  O  O9  1  0.135493  0.868617  0.499801  1
  O  O10  1  0.297159  0.434361  0.712951  1
  O  O11  1  0.585649  0.564828  0.286782  1
  O  O12  1  0.797248  0.778614  0.712950  1
  O  O13  1  0.085671  0.221997  0.286788  1
  O  O14  1  0.259127  0.765597  0.030086  1
  O  O15  1  0.222310  0.223523  0.970047  1
  O  O16  1  0.722294  0.246455  0.969995  1
  O  O17  1  0.759069  0.764477  0.030066  1
