# generated using pymatgen
data_Pr4Ho6Ga5Ge3
_symmetry_space_group_name_H-M   'P 1'
_cell_length_a   7.63109466
_cell_length_b   7.99862177
_cell_length_c   15.17233100
_cell_angle_alpha   89.95804510
_cell_angle_beta   90.11971082
_cell_angle_gamma   90.16119520
_symmetry_Int_Tables_number   1
_chemical_formula_structural   Pr4Ho6Ga5Ge3
_chemical_formula_sum   'Pr8 Ho12 Ga10 Ge6'
_cell_volume   926.08644731
_cell_formula_units_Z   2
loop_
 _symmetry_equiv_pos_site_id
 _symmetry_equiv_pos_as_xyz
  1  'x, y, z'
loop_
 _atom_site_type_symbol
 _atom_site_label
 _atom_site_symmetry_multiplicity
 _atom_site_fract_x
 _atom_site_fract_y
 _atom_site_fract_z
 _atom_site_occupancy
  Pr  Pr0  1  0.021534  0.177945  0.405031  1
  Pr  Pr1  1  0.520996  0.321807  0.405634  1
  Pr  Pr2  1  0.479433  0.677282  0.906321  1
  Pr  Pr3  1  0.478437  0.681758  0.593570  1
  Pr  Pr4  1  0.979229  0.817699  0.593441  1
  Pr  Pr5  1  0.980261  0.822320  0.906300  1
  Pr  Pr6  1  0.520076  0.319389  0.096235  1
  Pr  Pr7  1  0.021252  0.181923  0.096103  1
  Ho  Ho8  1  0.322152  0.175131  0.621316  1
  Ho  Ho9  1  0.679974  0.823317  0.378125  1
  Ho  Ho10  1  0.656685  0.983303  0.750535  1
  Ho  Ho11  1  0.179590  0.676989  0.377758  1
  Ho  Ho12  1  0.819548  0.324299  0.877885  1
  Ho  Ho13  1  0.820703  0.325338  0.621544  1
  Ho  Ho14  1  0.843925  0.485547  0.249568  1
  Ho  Ho15  1  0.345302  0.013813  0.250162  1
  Ho  Ho16  1  0.321907  0.177191  0.877213  1
  Ho  Ho17  1  0.177634  0.673192  0.123042  1
  Ho  Ho18  1  0.677957  0.825491  0.122561  1
  Ho  Ho19  1  0.155535  0.513512  0.750604  1
  Ga  Ga20  1  0.269686  0.879566  0.749139  1
  Ga  Ga21  1  0.475929  0.611728  0.251762  1
  Ga  Ga22  1  0.024523  0.113848  0.748529  1
  Ga  Ga23  1  0.523601  0.389894  0.748945  1
  Ga  Ga24  1  0.153612  0.467793  0.540671  1
  Ga  Ga25  1  0.976118  0.888874  0.250765  1
  Ga  Ga26  1  0.847190  0.531318  0.042445  1
  Ga  Ga27  1  0.345313  0.967471  0.042241  1
  Ga  Ga28  1  0.151051  0.468705  0.958092  1
  Ga  Ga29  1  0.655236  0.032908  0.540712  1
  Ge  Ge30  1  0.726775  0.119942  0.251074  1
  Ge  Ge31  1  0.348956  0.969096  0.456819  1
  Ge  Ge32  1  0.849557  0.530477  0.456241  1
  Ge  Ge33  1  0.772143  0.619592  0.749041  1
  Ge  Ge34  1  0.226983  0.379372  0.251603  1
  Ge  Ge35  1  0.651196  0.032170  0.958972  1
