# generated using pymatgen
data_Dy5(Cd2Pd)2
_symmetry_space_group_name_H-M   'P 1'
_cell_length_a   3.66056300
_cell_length_b   7.98931200
_cell_length_c   18.40303500
_cell_angle_alpha   90.00000000
_cell_angle_beta   90.00000000
_cell_angle_gamma   90.00000000
_symmetry_Int_Tables_number   1
_chemical_formula_structural   Dy5(Cd2Pd)2
_chemical_formula_sum   'Dy10 Cd8 Pd4'
_cell_volume   538.20374994
_cell_formula_units_Z   2
loop_
 _symmetry_equiv_pos_site_id
 _symmetry_equiv_pos_as_xyz
  1  'x, y, z'
loop_
 _atom_site_type_symbol
 _atom_site_label
 _atom_site_symmetry_multiplicity
 _atom_site_fract_x
 _atom_site_fract_y
 _atom_site_fract_z
 _atom_site_occupancy
  Dy  Dy0  1  0.000000  0.500000  0.500000  1
  Dy  Dy1  1  0.000000  0.000000  0.000000  1
  Dy  Dy2  1  0.000000  0.742069  0.280959  1
  Dy  Dy3  1  0.000000  0.257931  0.719041  1
  Dy  Dy4  1  0.000000  0.757931  0.780959  1
  Dy  Dy5  1  0.000000  0.242069  0.219041  1
  Dy  Dy6  1  0.000000  0.614999  0.083870  1
  Dy  Dy7  1  0.000000  0.385001  0.916130  1
  Dy  Dy8  1  0.000000  0.885001  0.583870  1
  Dy  Dy9  1  0.000000  0.114999  0.416130  1
  Cd  Cd10  1  0.500000  0.714379  0.931782  1
  Cd  Cd11  1  0.500000  0.285621  0.068218  1
  Cd  Cd12  1  0.500000  0.785621  0.431782  1
  Cd  Cd13  1  0.500000  0.214379  0.568218  1
  Cd  Cd14  1  0.500000  0.574236  0.648224  1
  Cd  Cd15  1  0.500000  0.425764  0.351776  1
  Cd  Cd16  1  0.500000  0.925764  0.148224  1
  Cd  Cd17  1  0.500000  0.074236  0.851776  1
  Pd  Pd18  1  0.500000  0.527340  0.195265  1
  Pd  Pd19  1  0.500000  0.472660  0.804735  1
  Pd  Pd20  1  0.500000  0.972660  0.695265  1
  Pd  Pd21  1  0.500000  0.027340  0.304735  1
