# generated using pymatgen
data_DyMnP3Rh4
_symmetry_space_group_name_H-M   'P 1'
_cell_length_a   3.87862100
_cell_length_b   10.76882700
_cell_length_c   12.43850100
_cell_angle_alpha   90.00000000
_cell_angle_beta   90.00000000
_cell_angle_gamma   90.00000000
_symmetry_Int_Tables_number   1
_chemical_formula_structural   DyMnP3Rh4
_chemical_formula_sum   'Dy4 Mn4 P12 Rh16'
_cell_volume   519.53377940
_cell_formula_units_Z   4
loop_
 _symmetry_equiv_pos_site_id
 _symmetry_equiv_pos_as_xyz
  1  'x, y, z'
loop_
 _atom_site_type_symbol
 _atom_site_label
 _atom_site_symmetry_multiplicity
 _atom_site_fract_x
 _atom_site_fract_y
 _atom_site_fract_z
 _atom_site_occupancy
  Dy  Dy0  1  0.250000  0.582540  0.709020  1
  Dy  Dy1  1  0.250000  0.917460  0.209020  1
  Dy  Dy2  1  0.750000  0.417460  0.290980  1
  Dy  Dy3  1  0.750000  0.082540  0.790980  1
  Mn  Mn4  1  0.250000  0.462358  0.935403  1
  Mn  Mn5  1  0.250000  0.037642  0.435403  1
  Mn  Mn6  1  0.750000  0.537642  0.064597  1
  Mn  Mn7  1  0.750000  0.962358  0.564597  1
  P  P8  1  0.250000  0.429050  0.108974  1
  P  P9  1  0.250000  0.070950  0.608974  1
  P  P10  1  0.750000  0.570950  0.891026  1
  P  P11  1  0.750000  0.929050  0.391026  1
  P  P12  1  0.250000  0.268986  0.868483  1
  P  P13  1  0.250000  0.231014  0.368483  1
  P  P14  1  0.750000  0.731014  0.131517  1
  P  P15  1  0.750000  0.768986  0.631517  1
  P  P16  1  0.250000  0.600600  0.389273  1
  P  P17  1  0.250000  0.899400  0.889273  1
  P  P18  1  0.750000  0.399400  0.610727  1
  P  P19  1  0.750000  0.100600  0.110727  1
  Rh  Rh20  1  0.250000  0.715059  0.989938  1
  Rh  Rh21  1  0.250000  0.784941  0.489938  1
  Rh  Rh22  1  0.750000  0.284941  0.010062  1
  Rh  Rh23  1  0.750000  0.215059  0.510062  1
  Rh  Rh24  1  0.250000  0.408550  0.480018  1
  Rh  Rh25  1  0.250000  0.091450  0.980018  1
  Rh  Rh26  1  0.750000  0.591450  0.519982  1
  Rh  Rh27  1  0.750000  0.908550  0.019982  1
  Rh  Rh28  1  0.250000  0.229976  0.175022  1
  Rh  Rh29  1  0.250000  0.270024  0.675022  1
  Rh  Rh30  1  0.750000  0.770024  0.824978  1
  Rh  Rh31  1  0.750000  0.729976  0.324978  1
  Rh  Rh32  1  0.250000  0.881845  0.701415  1
  Rh  Rh33  1  0.250000  0.618155  0.201415  1
  Rh  Rh34  1  0.750000  0.118155  0.298585  1
  Rh  Rh35  1  0.750000  0.381845  0.798585  1
