# generated using pymatgen
data_Mg5Zn(CuPd2)6
_symmetry_space_group_name_H-M   'P 1'
_cell_length_a   4.36802300
_cell_length_b   6.13539400
_cell_length_c   13.10907500
_cell_angle_alpha   90.00003616
_cell_angle_beta   89.99816396
_cell_angle_gamma   90.00000000
_symmetry_Int_Tables_number   1
_chemical_formula_structural   Mg5Zn(CuPd2)6
_chemical_formula_sum   'Mg5 Zn1 Cu6 Pd12'
_cell_volume   351.31720734
_cell_formula_units_Z   1
loop_
 _symmetry_equiv_pos_site_id
 _symmetry_equiv_pos_as_xyz
  1  'x, y, z'
loop_
 _atom_site_type_symbol
 _atom_site_label
 _atom_site_symmetry_multiplicity
 _atom_site_fract_x
 _atom_site_fract_y
 _atom_site_fract_z
 _atom_site_occupancy
  Mg  Mg0  1  0.499728  0.500000  0.165572  1
  Mg  Mg1  1  0.999709  0.000000  0.332480  1
  Mg  Mg2  1  0.500000  0.500000  0.499999  1
  Mg  Mg3  1  0.000290  0.000000  0.667519  1
  Mg  Mg4  1  0.500273  0.500000  0.834428  1
  Zn  Zn5  1  0.999999  0.000000  0.000000  1
  Cu  Cu6  1  0.999999  0.500000  0.000000  1
  Cu  Cu7  1  0.499710  0.000000  0.168380  1
  Cu  Cu8  1  0.999719  0.500000  0.330974  1
  Cu  Cu9  1  0.500000  0.000000  0.499999  1
  Cu  Cu10  1  0.000280  0.500000  0.669025  1
  Cu  Cu11  1  0.500292  0.000000  0.831621  1
  Pd  Pd12  1  0.500000  0.243251  0.000000  1
  Pd  Pd13  1  0.499999  0.756749  0.000000  1
  Pd  Pd14  1  0.999733  0.246580  0.163915  1
  Pd  Pd15  1  0.999733  0.753420  0.163915  1
  Pd  Pd16  1  0.499730  0.249340  0.333267  1
  Pd  Pd17  1  0.499730  0.750660  0.333268  1
  Pd  Pd18  1  0.999999  0.250173  0.500000  1
  Pd  Pd19  1  0.999999  0.749827  0.500000  1
  Pd  Pd20  1  0.500269  0.249340  0.666730  1
  Pd  Pd21  1  0.500269  0.750661  0.666731  1
  Pd  Pd22  1  0.000267  0.246580  0.836085  1
  Pd  Pd23  1  0.000267  0.753420  0.836085  1
