# generated using pymatgen
data_Ca5ZnHgPd
_symmetry_space_group_name_H-M   'P 1'
_cell_length_a   9.32259268
_cell_length_b   9.32259259
_cell_length_c   9.32259358
_cell_angle_alpha   129.72432741
_cell_angle_beta   129.66319527
_cell_angle_gamma   73.89682529
_symmetry_Int_Tables_number   1
_chemical_formula_structural   Ca5ZnHgPd
_chemical_formula_sum   'Ca10 Zn2 Hg2 Pd2'
_cell_volume   467.91841737
_cell_formula_units_Z   2
loop_
 _symmetry_equiv_pos_site_id
 _symmetry_equiv_pos_as_xyz
  1  'x, y, z'
loop_
 _atom_site_type_symbol
 _atom_site_label
 _atom_site_symmetry_multiplicity
 _atom_site_fract_x
 _atom_site_fract_y
 _atom_site_fract_z
 _atom_site_occupancy
  Ca  Ca0  1  0.005332  0.009111  0.014443  1
  Ca  Ca1  1  0.505332  0.490889  0.996220  1
  Ca  Ca2  1  0.810369  0.315220  0.843321  1
  Ca  Ca3  1  0.310369  0.467048  0.495148  1
  Ca  Ca4  1  0.972109  0.808014  0.494820  1
  Ca  Ca5  1  0.686806  0.522710  0.494820  1
  Ca  Ca6  1  0.028100  0.184780  0.495148  1
  Ca  Ca7  1  0.528100  0.032952  0.843321  1
  Ca  Ca8  1  0.186806  0.691986  0.164095  1
  Ca  Ca9  1  0.472109  0.977290  0.164095  1
  Zn  Zn10  1  0.616050  0.882402  0.498452  1
  Zn  Zn11  1  0.116050  0.617598  0.733646  1
  Hg  Hg12  1  0.248850  0.250000  0.998850  1
  Hg  Hg13  1  0.748850  0.750000  0.998850  1
  Pd  Pd14  1  0.882385  0.381612  0.263998  1
  Pd  Pd15  1  0.382385  0.118388  0.500773  1
