# generated using pymatgen
data_Yb4ScGa(RuO6)2
_symmetry_space_group_name_H-M   'P 1'
_cell_length_a   5.35770033
_cell_length_b   5.59066863
_cell_length_c   7.68033925
_cell_angle_alpha   89.62808009
_cell_angle_beta   89.79189528
_cell_angle_gamma   89.94344924
_symmetry_Int_Tables_number   1
_chemical_formula_structural   Yb4ScGa(RuO6)2
_chemical_formula_sum   'Yb4 Sc1 Ga1 Ru2 O12'
_cell_volume   230.04370758
_cell_formula_units_Z   1
loop_
 _symmetry_equiv_pos_site_id
 _symmetry_equiv_pos_as_xyz
  1  'x, y, z'
loop_
 _atom_site_type_symbol
 _atom_site_label
 _atom_site_symmetry_multiplicity
 _atom_site_fract_x
 _atom_site_fract_y
 _atom_site_fract_z
 _atom_site_occupancy
  Yb  Yb0  1  0.018166  0.437677  0.254046  1
  Yb  Yb1  1  0.981834  0.562323  0.745954  1
  Yb  Yb2  1  0.516545  0.066953  0.744442  1
  Yb  Yb3  1  0.483455  0.933047  0.255558  1
  Sc  Sc4  1  0.000000  0.000000  0.000000  1
  Ga  Ga5  1  0.500000  0.500000  0.500000  1
  Ru  Ru6  1  0.500000  0.500000  0.000000  1
  Ru  Ru7  1  0.000000  0.000000  0.500000  1
  O  O8  1  0.314052  0.205318  0.053816  1
  O  O9  1  0.685948  0.794682  0.946184  1
  O  O10  1  0.797258  0.309258  0.948162  1
  O  O11  1  0.701215  0.799575  0.549998  1
  O  O12  1  0.202742  0.690742  0.051838  1
  O  O13  1  0.298785  0.200425  0.450002  1
  O  O14  1  0.196306  0.704509  0.447133  1
  O  O15  1  0.803694  0.295491  0.552867  1
  O  O16  1  0.599934  0.530290  0.249749  1
  O  O17  1  0.400066  0.469710  0.750251  1
  O  O18  1  0.100373  0.968600  0.742088  1
  O  O19  1  0.899627  0.031400  0.257912  1
