# generated using pymatgen
data_K3Eu(USe3)2
_symmetry_space_group_name_H-M   'P 1'
_cell_length_a   7.47078227
_cell_length_b   7.47078363
_cell_length_c   7.98798100
_cell_angle_alpha   81.19433530
_cell_angle_beta   81.19433368
_cell_angle_gamma   120.15481117
_symmetry_Int_Tables_number   1
_chemical_formula_structural   K3Eu(USe3)2
_chemical_formula_sum   'K3 Eu1 U2 Se6'
_cell_volume   366.89479404
_cell_formula_units_Z   1
loop_
 _symmetry_equiv_pos_site_id
 _symmetry_equiv_pos_as_xyz
  1  'x, y, z'
loop_
 _atom_site_type_symbol
 _atom_site_label
 _atom_site_symmetry_multiplicity
 _atom_site_fract_x
 _atom_site_fract_y
 _atom_site_fract_z
 _atom_site_occupancy
  K  K0  1  0.336000  0.664000  0.500000  1
  K  K1  1  0.664000  0.336000  0.500000  1
  K  K2  1  0.000000  0.000000  0.500000  1
  Eu  Eu3  1  0.500000  0.500000  0.000000  1
  U  U4  1  0.167014  0.832986  0.000000  1
  U  U5  1  0.832986  0.167014  0.000000  1
  Se  Se6  1  0.776953  0.776953  0.207554  1
  Se  Se7  1  0.431438  0.083674  0.209446  1
  Se  Se8  1  0.083674  0.431438  0.209446  1
  Se  Se9  1  0.568562  0.916326  0.790554  1
  Se  Se10  1  0.916326  0.568562  0.790554  1
  Se  Se11  1  0.223047  0.223047  0.792446  1
