# generated using pymatgen
data_Tb4Dy5Tm11Bi12
_symmetry_space_group_name_H-M   'P 1'
_cell_length_a   8.23186030
_cell_length_b   9.45757655
_cell_length_c   12.04157400
_cell_angle_alpha   89.99207589
_cell_angle_beta   90.07090405
_cell_angle_gamma   89.98221086
_symmetry_Int_Tables_number   1
_chemical_formula_structural   Tb4Dy5Tm11Bi12
_chemical_formula_sum   'Tb4 Dy5 Tm11 Bi12'
_cell_volume   937.47729453
_cell_formula_units_Z   1
loop_
 _symmetry_equiv_pos_site_id
 _symmetry_equiv_pos_as_xyz
  1  'x, y, z'
loop_
 _atom_site_type_symbol
 _atom_site_label
 _atom_site_symmetry_multiplicity
 _atom_site_fract_x
 _atom_site_fract_y
 _atom_site_fract_z
 _atom_site_occupancy
  Tb  Tb0  1  0.185981  0.749986  0.718564  1
  Tb  Tb1  1  0.686240  0.750015  0.781527  1
  Tb  Tb2  1  0.813840  0.249458  0.281137  1
  Tb  Tb3  1  0.313724  0.249758  0.218298  1
  Dy  Dy4  1  0.807842  0.437077  0.559362  1
  Dy  Dy5  1  0.353892  0.749795  0.216294  1
  Dy  Dy6  1  0.853405  0.749390  0.283572  1
  Dy  Dy7  1  0.645176  0.248923  0.784104  1
  Dy  Dy8  1  0.146970  0.249183  0.716613  1
  Tm  Tm9  1  0.024635  0.749796  0.988968  1
  Tm  Tm10  1  0.524460  0.749940  0.511168  1
  Tm  Tm11  1  0.975376  0.249823  0.011151  1
  Tm  Tm12  1  0.474620  0.249494  0.488781  1
  Tm  Tm13  1  0.307580  0.434094  0.940799  1
  Tm  Tm14  1  0.807444  0.066233  0.559564  1
  Tm  Tm15  1  0.692436  0.934168  0.059191  1
  Tm  Tm16  1  0.192213  0.566064  0.440628  1
  Tm  Tm17  1  0.692286  0.565931  0.059258  1
  Tm  Tm18  1  0.193218  0.934523  0.440242  1
  Tm  Tm19  1  0.307590  0.065728  0.940991  1
  Bi  Bi20  1  0.433849  0.003789  0.672358  1
  Bi  Bi21  1  0.934173  0.495405  0.827974  1
  Bi  Bi22  1  0.566090  0.503865  0.327558  1
  Bi  Bi23  1  0.066139  0.995400  0.172179  1
  Bi  Bi24  1  0.566052  0.995541  0.327770  1
  Bi  Bi25  1  0.066376  0.504141  0.172031  1
  Bi  Bi26  1  0.433353  0.495473  0.672421  1
  Bi  Bi27  1  0.933938  0.004117  0.827972  1
  Bi  Bi28  1  0.405363  0.749951  0.957686  1
  Bi  Bi29  1  0.906581  0.753205  0.541697  1
  Bi  Bi30  1  0.594664  0.250131  0.042549  1
  Bi  Bi31  1  0.094498  0.249601  0.457592  1
