# generated using pymatgen
data_MgTc3P4W3
_symmetry_space_group_name_H-M   'P 1'
_cell_length_a   7.59478200
_cell_length_b   7.59478274
_cell_length_c   3.17602800
_cell_angle_alpha   90.00000000
_cell_angle_beta   90.00000000
_cell_angle_gamma   119.99999679
_symmetry_Int_Tables_number   1
_chemical_formula_structural   MgTc3P4W3
_chemical_formula_sum   'Mg1 Tc3 P4 W3'
_cell_volume   158.65203070
_cell_formula_units_Z   1
loop_
 _symmetry_equiv_pos_site_id
 _symmetry_equiv_pos_as_xyz
  1  'x, y, z'
loop_
 _atom_site_type_symbol
 _atom_site_label
 _atom_site_symmetry_multiplicity
 _atom_site_fract_x
 _atom_site_fract_y
 _atom_site_fract_z
 _atom_site_occupancy
  Mg  Mg0  1  0.000000  0.000000  0.000000  1
  Tc  Tc1  1  0.193838  0.806162  0.500000  1
  Tc  Tc2  1  0.193838  0.387676  0.500000  1
  Tc  Tc3  1  0.612324  0.806162  0.500000  1
  P  P4  1  0.825853  0.174147  0.500000  1
  P  P5  1  0.348293  0.174147  0.500000  1
  P  P6  1  0.333333  0.666667  0.000000  1
  P  P7  1  0.825853  0.651707  0.500000  1
  W  W8  1  0.541814  0.083628  0.000000  1
  W  W9  1  0.916372  0.458186  0.000000  1
  W  W10  1  0.541814  0.458186  0.000000  1
