# generated using pymatgen
data_Tl2ZnIr4PbO14
_symmetry_space_group_name_H-M   'P 1'
_cell_length_a   7.28943125
_cell_length_b   7.23968434
_cell_length_c   7.31675004
_cell_angle_alpha   59.81130510
_cell_angle_beta   60.12343581
_cell_angle_gamma   59.77244369
_symmetry_Int_Tables_number   1
_chemical_formula_structural   Tl2ZnIr4PbO14
_chemical_formula_sum   'Tl2 Zn1 Ir4 Pb1 O14'
_cell_volume   272.42309468
_cell_formula_units_Z   1
loop_
 _symmetry_equiv_pos_site_id
 _symmetry_equiv_pos_as_xyz
  1  'x, y, z'
loop_
 _atom_site_type_symbol
 _atom_site_label
 _atom_site_symmetry_multiplicity
 _atom_site_fract_x
 _atom_site_fract_y
 _atom_site_fract_z
 _atom_site_occupancy
  Tl  Tl0  1  0.625000  0.125000  0.125000  1
  Tl  Tl1  1  0.125000  0.125000  0.125000  1
  Zn  Zn2  1  0.125000  0.625000  0.125000  1
  Ir  Ir3  1  0.125000  0.625000  0.625000  1
  Ir  Ir4  1  0.625000  0.125000  0.625000  1
  Ir  Ir5  1  0.625000  0.625000  0.125000  1
  Ir  Ir6  1  0.625000  0.625000  0.625000  1
  Pb  Pb7  1  0.125000  0.125000  0.625000  1
  O  O8  1  0.691513  0.703919  0.302893  1
  O  O9  1  0.296028  0.293461  0.703595  1
  O  O10  1  0.706916  0.293461  0.703595  1
  O  O11  1  0.301673  0.703919  0.302893  1
  O  O12  1  0.301023  0.706840  0.691112  1
  O  O13  1  0.702850  0.295355  0.298945  1
  O  O14  1  0.558487  0.546081  0.947107  1
  O  O15  1  0.953972  0.956539  0.546405  1
  O  O16  1  0.543084  0.956539  0.546405  1
  O  O17  1  0.948327  0.546081  0.947107  1
  O  O18  1  0.948977  0.543160  0.558888  1
  O  O19  1  0.547150  0.954645  0.951055  1
  O  O20  1  0.233859  0.300853  0.231430  1
  O  O21  1  0.016141  0.949147  0.018570  1
