# generated using pymatgen
data_Y7Er3(LuGa10)2
_symmetry_space_group_name_H-M   'P 1'
_cell_length_a   6.07727436
_cell_length_b   9.60429637
_cell_length_c   11.47896801
_cell_angle_alpha   90.01849817
_cell_angle_beta   89.96184835
_cell_angle_gamma   89.98178850
_symmetry_Int_Tables_number   1
_chemical_formula_structural   Y7Er3(LuGa10)2
_chemical_formula_sum   'Y7 Er3 Lu2 Ga20'
_cell_volume   670.00354643
_cell_formula_units_Z   1
loop_
 _symmetry_equiv_pos_site_id
 _symmetry_equiv_pos_as_xyz
  1  'x, y, z'
loop_
 _atom_site_type_symbol
 _atom_site_label
 _atom_site_symmetry_multiplicity
 _atom_site_fract_x
 _atom_site_fract_y
 _atom_site_fract_z
 _atom_site_occupancy
  Y  Y0  1  0.890350  0.509798  0.351320  1
  Y  Y1  1  0.609733  0.990065  0.851304  1
  Y  Y2  1  0.109211  0.009445  0.648951  1
  Y  Y3  1  0.390872  0.490561  0.148265  1
  Y  Y4  1  0.109088  0.490581  0.648999  1
  Y  Y5  1  0.390844  0.009483  0.148584  1
  Y  Y6  1  0.890396  0.990299  0.351370  1
  Er  Er7  1  0.151792  0.249928  0.925083  1
  Er  Er8  1  0.348857  0.250095  0.425274  1
  Er  Er9  1  0.609256  0.509931  0.851347  1
  Lu  Lu10  1  0.848492  0.749841  0.074834  1
  Lu  Lu11  1  0.651374  0.749944  0.575232  1
  Ga  Ga12  1  0.875443  0.053100  0.089511  1
  Ga  Ga13  1  0.624178  0.447329  0.590539  1
  Ga  Ga14  1  0.125233  0.553090  0.910129  1
  Ga  Ga15  1  0.375675  0.946559  0.410431  1
  Ga  Ga16  1  0.124337  0.946279  0.910297  1
  Ga  Ga17  1  0.375790  0.553494  0.410388  1
  Ga  Ga18  1  0.875575  0.447142  0.089129  1
  Ga  Ga19  1  0.624289  0.052985  0.589610  1
  Ga  Ga20  1  0.171142  0.749974  0.251511  1
  Ga  Ga21  1  0.329136  0.749256  0.752121  1
  Ga  Ga22  1  0.827212  0.250935  0.748974  1
  Ga  Ga23  1  0.672132  0.250044  0.248015  1
  Ga  Ga24  1  0.375033  0.749703  0.003878  1
  Ga  Ga25  1  0.125852  0.749991  0.504345  1
  Ga  Ga26  1  0.626730  0.250897  0.994695  1
  Ga  Ga27  1  0.873171  0.250149  0.495876  1
  Ga  Ga28  1  0.601523  0.750001  0.299120  1
  Ga  Ga29  1  0.897097  0.748841  0.799477  1
  Ga  Ga30  1  0.398859  0.250192  0.700774  1
  Ga  Ga31  1  0.101329  0.250070  0.200615  1
