# generated using pymatgen
data_Np2Al9CoPt2
_symmetry_space_group_name_H-M   'P 1'
_cell_length_a   7.56284914
_cell_length_b   7.56284870
_cell_length_c   9.39713400
_cell_angle_alpha   90.00000000
_cell_angle_beta   90.00000000
_cell_angle_gamma   119.41270208
_symmetry_Int_Tables_number   1
_chemical_formula_structural   Np2Al9CoPt2
_chemical_formula_sum   'Np4 Al18 Co2 Pt4'
_cell_volume   468.20576376
_cell_formula_units_Z   2
loop_
 _symmetry_equiv_pos_site_id
 _symmetry_equiv_pos_as_xyz
  1  'x, y, z'
loop_
 _atom_site_type_symbol
 _atom_site_label
 _atom_site_symmetry_multiplicity
 _atom_site_fract_x
 _atom_site_fract_y
 _atom_site_fract_z
 _atom_site_occupancy
  Np  Np0  1  0.995262  0.673693  0.252445  1
  Np  Np1  1  0.004738  0.326307  0.752445  1
  Np  Np2  1  0.673693  0.995262  0.247555  1
  Np  Np3  1  0.326307  0.004738  0.747555  1
  Al  Al4  1  0.136080  0.136080  0.250000  1
  Al  Al5  1  0.863920  0.863920  0.750000  1
  Al  Al6  1  0.339770  0.334333  0.554472  1
  Al  Al7  1  0.660230  0.665667  0.054472  1
  Al  Al8  1  0.334333  0.339770  0.945528  1
  Al  Al9  1  0.665667  0.660230  0.445528  1
  Al  Al10  1  0.341070  0.554347  0.243246  1
  Al  Al11  1  0.658930  0.445653  0.743246  1
  Al  Al12  1  0.554347  0.341070  0.256754  1
  Al  Al13  1  0.445653  0.658930  0.756754  1
  Al  Al14  1  0.009333  0.347156  0.075193  1
  Al  Al15  1  0.990667  0.652844  0.575193  1
  Al  Al16  1  0.347156  0.009333  0.424807  1
  Al  Al17  1  0.652844  0.990667  0.924807  1
  Al  Al18  1  0.011840  0.664719  0.925653  1
  Al  Al19  1  0.988160  0.335281  0.425653  1
  Al  Al20  1  0.664719  0.011840  0.574347  1
  Al  Al21  1  0.335281  0.988160  0.074347  1
  Co  Co22  1  0.330738  0.669262  0.000000  1
  Co  Co23  1  0.669262  0.330738  0.500000  1
  Pt  Pt24  1  0.999626  0.000374  0.000000  1
  Pt  Pt25  1  0.000374  0.999626  0.500000  1
  Pt  Pt26  1  0.671209  0.328791  0.000000  1
  Pt  Pt27  1  0.328791  0.671209  0.500000  1
