# generated using pymatgen
data_Sc4Be4FeRh10W
_symmetry_space_group_name_H-M   'P 1'
_cell_length_a   9.46159400
_cell_length_b   9.46159400
_cell_length_c   3.15577400
_cell_angle_alpha   90.00000000
_cell_angle_beta   90.00000000
_cell_angle_gamma   90.00000000
_symmetry_Int_Tables_number   1
_chemical_formula_structural   Sc4Be4FeRh10W
_chemical_formula_sum   'Sc4 Be4 Fe1 Rh10 W1'
_cell_volume   282.51044586
_cell_formula_units_Z   1
loop_
 _symmetry_equiv_pos_site_id
 _symmetry_equiv_pos_as_xyz
  1  'x, y, z'
loop_
 _atom_site_type_symbol
 _atom_site_label
 _atom_site_symmetry_multiplicity
 _atom_site_fract_x
 _atom_site_fract_y
 _atom_site_fract_z
 _atom_site_occupancy
  Sc  Sc0  1  0.820835  0.329982  0.000000  1
  Sc  Sc1  1  0.329982  0.179165  0.000000  1
  Sc  Sc2  1  0.670018  0.820835  0.000000  1
  Sc  Sc3  1  0.179165  0.670018  0.000000  1
  Be  Be4  1  0.618820  0.126474  0.000000  1
  Be  Be5  1  0.126474  0.381180  0.000000  1
  Be  Be6  1  0.873526  0.618820  0.000000  1
  Be  Be7  1  0.381180  0.873526  0.000000  1
  Fe  Fe8  1  0.500000  0.500000  0.000000  1
  Rh  Rh9  1  0.069337  0.209383  0.500000  1
  Rh  Rh10  1  0.209383  0.930663  0.500000  1
  Rh  Rh11  1  0.790617  0.069337  0.500000  1
  Rh  Rh12  1  0.930663  0.790617  0.500000  1
  Rh  Rh13  1  0.428030  0.708043  0.500000  1
  Rh  Rh14  1  0.571970  0.291957  0.500000  1
  Rh  Rh15  1  0.708043  0.571970  0.500000  1
  Rh  Rh16  1  0.291957  0.428030  0.500000  1
  Rh  Rh17  1  0.500000  0.000000  0.500000  1
  Rh  Rh18  1  0.000000  0.500000  0.500000  1
  W  W19  1  0.000000  0.000000  0.000000  1
