# generated using pymatgen
data_La9PrAl(ZnRu2)3
_symmetry_space_group_name_H-M   'P 1'
_cell_length_a   8.54637842
_cell_length_b   8.68402520
_cell_length_c   8.60535951
_cell_angle_alpha   110.07377839
_cell_angle_beta   109.11150111
_cell_angle_gamma   109.66171547
_symmetry_Int_Tables_number   1
_chemical_formula_structural   La9PrAl(ZnRu2)3
_chemical_formula_sum   'La9 Pr1 Al1 Zn3 Ru6'
_cell_volume   488.97060912
_cell_formula_units_Z   1
loop_
 _symmetry_equiv_pos_site_id
 _symmetry_equiv_pos_as_xyz
  1  'x, y, z'
loop_
 _atom_site_type_symbol
 _atom_site_label
 _atom_site_symmetry_multiplicity
 _atom_site_fract_x
 _atom_site_fract_y
 _atom_site_fract_z
 _atom_site_occupancy
  La  La0  1  0.748477  0.809247  0.058018  1
  La  La1  1  0.441422  0.250491  0.689769  1
  La  La2  1  0.691485  0.438286  0.249198  1
  La  La3  1  0.058679  0.747277  0.808792  1
  La  La4  1  0.808836  0.060483  0.750887  1
  La  La5  1  0.216354  0.217959  0.216648  1
  La  La6  1  0.499673  0.000914  0.283526  1
  La  La7  1  0.283182  0.500828  0.999152  1
  La  La8  1  0.000894  0.284531  0.500519  1
  Pr  Pr9  1  0.250692  0.685484  0.437284  1
  Al  Al10  1  0.000731  0.911294  0.499510  1
  Zn  Zn11  1  0.497020  0.997810  0.911294  1
  Zn  Zn12  1  0.584994  0.586064  0.583957  1
  Zn  Zn13  1  0.917284  0.502538  0.003911  1
  Ru  Ru14  1  0.243248  0.121190  0.866070  1
  Ru  Ru15  1  0.747173  0.372049  0.621734  1
  Ru  Ru16  1  0.880136  0.252472  0.126857  1
  Ru  Ru17  1  0.119356  0.882318  0.253494  1
  Ru  Ru18  1  0.632464  0.754439  0.377760  1
  Ru  Ru19  1  0.377902  0.624328  0.761623  1
