# generated using pymatgen
data_Ca5BiHPb2
_symmetry_space_group_name_H-M   'P 1'
_cell_length_a   9.53152390
_cell_length_b   9.53152372
_cell_length_c   9.53152444
_cell_angle_alpha   128.35682543
_cell_angle_beta   128.35682887
_cell_angle_gamma   76.04768774
_symmetry_Int_Tables_number   1
_chemical_formula_structural   Ca5BiHPb2
_chemical_formula_sum   'Ca10 Bi2 H2 Pb4'
_cell_volume   517.67162848
_cell_formula_units_Z   2
loop_
 _symmetry_equiv_pos_site_id
 _symmetry_equiv_pos_as_xyz
  1  'x, y, z'
loop_
 _atom_site_type_symbol
 _atom_site_label
 _atom_site_symmetry_multiplicity
 _atom_site_fract_x
 _atom_site_fract_y
 _atom_site_fract_z
 _atom_site_occupancy
  Ca  Ca0  1  0.500000  0.500000  0.000000  1
  Ca  Ca1  1  0.000000  0.000000  0.000000  1
  Ca  Ca2  1  0.510297  0.010297  0.817369  1
  Ca  Ca3  1  0.192928  0.692928  0.182631  1
  Ca  Ca4  1  0.010297  0.192928  0.500000  1
  Ca  Ca5  1  0.692928  0.510297  0.500000  1
  Ca  Ca6  1  0.489703  0.989703  0.182631  1
  Ca  Ca7  1  0.807072  0.307072  0.817369  1
  Ca  Ca8  1  0.989703  0.807072  0.500000  1
  Ca  Ca9  1  0.307072  0.489703  0.500000  1
  Bi  Bi10  1  0.250000  0.250000  0.000000  1
  Bi  Bi11  1  0.750000  0.750000  0.000000  1
  H  H12  1  0.250000  0.750000  0.500000  1
  H  H13  1  0.750000  0.250000  0.500000  1
  Pb  Pb14  1  0.866012  0.366012  0.232025  1
  Pb  Pb15  1  0.133988  0.633988  0.767975  1
  Pb  Pb16  1  0.366012  0.133988  0.500000  1
  Pb  Pb17  1  0.633988  0.866012  0.500000  1
