# generated using pymatgen
data_Th2Fe3Co9P7
_symmetry_space_group_name_H-M   'P 1'
_cell_length_a   9.05211100
_cell_length_b   9.05211118
_cell_length_c   3.70413200
_cell_angle_alpha   90.00000000
_cell_angle_beta   90.00000000
_cell_angle_gamma   120.00000301
_symmetry_Int_Tables_number   1
_chemical_formula_structural   Th2Fe3Co9P7
_chemical_formula_sum   'Th2 Fe3 Co9 P7'
_cell_volume   262.85535154
_cell_formula_units_Z   1
loop_
 _symmetry_equiv_pos_site_id
 _symmetry_equiv_pos_as_xyz
  1  'x, y, z'
loop_
 _atom_site_type_symbol
 _atom_site_label
 _atom_site_symmetry_multiplicity
 _atom_site_fract_x
 _atom_site_fract_y
 _atom_site_fract_z
 _atom_site_occupancy
  Th  Th0  1  0.333333  0.666667  0.000000  1
  Th  Th1  1  0.666667  0.333333  0.500000  1
  Fe  Fe2  1  0.214579  0.119398  0.500000  1
  Fe  Fe3  1  0.880602  0.095182  0.500000  1
  Fe  Fe4  1  0.904818  0.785421  0.500000  1
  Co  Co5  1  0.432693  0.370794  0.000000  1
  Co  Co6  1  0.629206  0.061898  0.000000  1
  Co  Co7  1  0.938102  0.567307  0.000000  1
  Co  Co8  1  0.151976  0.879681  0.000000  1
  Co  Co9  1  0.120319  0.272295  0.000000  1
  Co  Co10  1  0.727705  0.848024  0.000000  1
  Co  Co11  1  0.380850  0.948888  0.500000  1
  Co  Co12  1  0.051112  0.431963  0.500000  1
  Co  Co13  1  0.568037  0.619150  0.500000  1
  P  P14  1  0.401891  0.104504  0.000000  1
  P  P15  1  0.895496  0.297387  0.000000  1
  P  P16  1  0.702613  0.598109  0.000000  1
  P  P17  1  0.103238  0.708458  0.500000  1
  P  P18  1  0.291542  0.394781  0.500000  1
  P  P19  1  0.605219  0.896762  0.500000  1
  P  P20  1  0.000000  0.000000  0.000000  1
