# generated using pymatgen
data_Li4Ce3Si3Ge
_symmetry_space_group_name_H-M   'P 1'
_cell_length_a   4.41359320
_cell_length_b   6.67455698
_cell_length_c   8.25780108
_cell_angle_alpha   113.83701471
_cell_angle_beta   105.49997582
_cell_angle_gamma   90.00000388
_symmetry_Int_Tables_number   1
_chemical_formula_structural   Li4Ce3Si3Ge
_chemical_formula_sum   'Li4 Ce3 Si3 Ge1'
_cell_volume   212.80558351
_cell_formula_units_Z   1
loop_
 _symmetry_equiv_pos_site_id
 _symmetry_equiv_pos_as_xyz
  1  'x, y, z'
loop_
 _atom_site_type_symbol
 _atom_site_label
 _atom_site_symmetry_multiplicity
 _atom_site_fract_x
 _atom_site_fract_y
 _atom_site_fract_z
 _atom_site_occupancy
  Li  Li0  1  0.669802  0.979632  0.339605  1
  Li  Li1  1  0.330412  0.018811  0.660823  1
  Li  Li2  1  0.330412  0.642013  0.660823  1
  Li  Li3  1  0.669802  0.359972  0.339605  1
  Ce  Ce4  1  0.999069  0.999069  0.998139  1
  Ce  Ce5  1  0.130187  0.630187  0.260374  1
  Ce  Ce6  1  0.870446  0.370446  0.740891  1
  Si  Si7  1  0.499890  0.679253  0.999780  1
  Si  Si8  1  0.499890  0.320527  0.999780  1
  Si  Si9  1  0.786697  0.786697  0.573394  1
  Ge  Ge10  1  0.213393  0.213393  0.426786  1
