# generated using pymatgen
data_Tb10RhPb6Br
_symmetry_space_group_name_H-M   'P 1'
_cell_length_a   9.23363100
_cell_length_b   9.23362761
_cell_length_c   6.81767500
_cell_angle_alpha   90.00012407
_cell_angle_beta   89.99974520
_cell_angle_gamma   119.99986450
_symmetry_Int_Tables_number   1
_chemical_formula_structural   Tb10RhPb6Br
_chemical_formula_sum   'Tb10 Rh1 Pb6 Br1'
_cell_volume   503.39904797
_cell_formula_units_Z   1
loop_
 _symmetry_equiv_pos_site_id
 _symmetry_equiv_pos_as_xyz
  1  'x, y, z'
loop_
 _atom_site_type_symbol
 _atom_site_label
 _atom_site_symmetry_multiplicity
 _atom_site_fract_x
 _atom_site_fract_y
 _atom_site_fract_z
 _atom_site_occupancy
  Tb  Tb0  1  0.250019  0.000002  0.266492  1
  Tb  Tb1  1  0.749981  0.999998  0.733508  1
  Tb  Tb2  1  0.000001  0.250019  0.266491  1
  Tb  Tb3  1  0.999999  0.749981  0.733509  1
  Tb  Tb4  1  0.749980  0.749981  0.266491  1
  Tb  Tb5  1  0.250020  0.250019  0.733509  1
  Tb  Tb6  1  0.333333  0.666666  0.000000  1
  Tb  Tb7  1  0.666667  0.333334  0.000000  1
  Tb  Tb8  1  0.666666  0.333334  0.500000  1
  Tb  Tb9  1  0.333334  0.666666  0.500000  1
  Rh  Rh10  1  0.000000  0.000000  0.500000  1
  Pb  Pb11  1  0.605164  0.000004  0.248547  1
  Pb  Pb12  1  0.394836  0.999996  0.751453  1
  Pb  Pb13  1  0.000004  0.605164  0.248551  1
  Pb  Pb14  1  0.999996  0.394836  0.751449  1
  Pb  Pb15  1  0.394827  0.394827  0.248545  1
  Pb  Pb16  1  0.605173  0.605173  0.751455  1
  Br  Br17  1  0.000000  0.000000  0.000000  1
