# generated using pymatgen
data_AcSi3Pd
_symmetry_space_group_name_H-M   'P 1'
_cell_length_a   5.82991629
_cell_length_b   5.82991646
_cell_length_c   5.82991598
_cell_angle_alpha   135.11591851
_cell_angle_beta   135.11592285
_cell_angle_gamma   65.35013904
_symmetry_Int_Tables_number   1
_chemical_formula_structural   AcSi3Pd
_chemical_formula_sum   'Ac1 Si3 Pd1'
_cell_volume   97.22610346
_cell_formula_units_Z   1
loop_
 _symmetry_equiv_pos_site_id
 _symmetry_equiv_pos_as_xyz
  1  'x, y, z'
loop_
 _atom_site_type_symbol
 _atom_site_label
 _atom_site_symmetry_multiplicity
 _atom_site_fract_x
 _atom_site_fract_y
 _atom_site_fract_z
 _atom_site_occupancy
  Ac  Ac0  1  0.009416  0.009416  0.000000  1
  Si  Si1  1  0.396835  0.396835  0.000000  1
  Si  Si2  1  0.767440  0.267439  0.500001  1
  Si  Si3  1  0.267439  0.767440  0.500001  1
  Pd  Pd4  1  0.655492  0.655492  0.000000  1
