# generated using pymatgen
data_Dy2TmBCl3
_symmetry_space_group_name_H-M   'P 1'
_cell_length_a   9.42657950
_cell_length_b   9.42658015
_cell_length_c   9.42658000
_cell_angle_alpha   109.48381571
_cell_angle_beta   109.48382357
_cell_angle_gamma   109.44602714
_symmetry_Int_Tables_number   1
_chemical_formula_structural   Dy2TmBCl3
_chemical_formula_sum   'Dy8 Tm4 B4 Cl12'
_cell_volume   644.82296244
_cell_formula_units_Z   4
loop_
 _symmetry_equiv_pos_site_id
 _symmetry_equiv_pos_as_xyz
  1  'x, y, z'
loop_
 _atom_site_type_symbol
 _atom_site_label
 _atom_site_symmetry_multiplicity
 _atom_site_fract_x
 _atom_site_fract_y
 _atom_site_fract_z
 _atom_site_occupancy
  Dy  Dy0  1  0.469564  0.484711  0.234208  1
  Dy  Dy1  1  0.750504  0.235357  0.265792  1
  Dy  Dy2  1  0.749496  0.015289  0.484853  1
  Dy  Dy3  1  0.235357  0.469564  0.484853  1
  Dy  Dy4  1  0.264643  0.749496  0.234208  1
  Dy  Dy5  1  0.030436  0.264643  0.015147  1
  Dy  Dy6  1  0.015289  0.030436  0.265792  1
  Dy  Dy7  1  0.484711  0.750504  0.015147  1
  Tm  Tm8  1  0.482788  0.232788  0.465574  1
  Tm  Tm9  1  0.017212  0.482788  0.750000  1
  Tm  Tm10  1  0.267212  0.017212  0.034426  1
  Tm  Tm11  1  0.232788  0.267212  0.750000  1
  B  B12  1  0.251000  0.249000  0.250000  1
  B  B13  1  0.499000  0.001000  0.250000  1
  B  B14  1  0.001000  0.251000  0.502001  1
  B  B15  1  0.249000  0.499000  0.997999  1
  Cl  Cl16  1  0.246003  0.755111  0.746746  1
  Cl  Cl17  1  0.508367  0.499259  0.753254  1
  Cl  Cl18  1  0.991633  0.744889  0.990893  1
  Cl  Cl19  1  0.744889  0.253997  0.753254  1
  Cl  Cl20  1  0.000741  0.991633  0.746746  1
  Cl  Cl21  1  0.253997  0.000741  0.509107  1
  Cl  Cl22  1  0.755111  0.508367  0.509107  1
  Cl  Cl23  1  0.499259  0.246003  0.990893  1
  Cl  Cl24  1  0.755443  0.744557  0.250000  1
  Cl  Cl25  1  0.744557  0.994557  0.989112  1
  Cl  Cl26  1  0.994557  0.505443  0.250000  1
  Cl  Cl27  1  0.505443  0.755443  0.510888  1
