# generated using pymatgen
data_Pr3Lu(Ga5Pd3)2
_symmetry_space_group_name_H-M   'P 1'
_cell_length_a   8.74645057
_cell_length_b   8.74471273
_cell_length_c   8.74471300
_cell_angle_alpha   140.64524371
_cell_angle_beta   107.86880139
_cell_angle_gamma   85.40464651
_symmetry_Int_Tables_number   1
_chemical_formula_structural   Pr3Lu(Ga5Pd3)2
_chemical_formula_sum   'Pr3 Lu1 Ga10 Pd6'
_cell_volume   389.74383882
_cell_formula_units_Z   1
loop_
 _symmetry_equiv_pos_site_id
 _symmetry_equiv_pos_as_xyz
  1  'x, y, z'
loop_
 _atom_site_type_symbol
 _atom_site_label
 _atom_site_symmetry_multiplicity
 _atom_site_fract_x
 _atom_site_fract_y
 _atom_site_fract_z
 _atom_site_occupancy
  Pr  Pr0  1  0.636129  0.862154  0.773974  1
  Pr  Pr1  1  0.363077  0.136991  0.226085  1
  Pr  Pr2  1  0.088217  0.362309  0.725908  1
  Lu  Lu3  1  0.915563  0.639729  0.275833  1
  Ga  Ga4  1  0.288269  0.040397  0.750487  1
  Ga  Ga5  1  0.711316  0.957510  0.249836  1
  Ga  Ga6  1  0.711316  0.461480  0.753806  1
  Ga  Ga7  1  0.288269  0.537782  0.247871  1
  Ga  Ga8  1  0.431382  0.597040  0.834341  1
  Ga  Ga9  1  0.571579  0.405183  0.166396  1
  Ga  Ga10  1  0.763125  0.097148  0.665976  1
  Ga  Ga11  1  0.239299  0.902490  0.336809  1
  Ga  Ga12  1  0.997996  0.749921  0.746773  1
  Ga  Ga13  1  0.997996  0.251223  0.248076  1
  Pd  Pd14  1  0.237447  0.643644  0.593804  1
  Pd  Pd15  1  0.759216  0.354966  0.404249  1
  Pd  Pd16  1  0.043780  0.143616  0.900164  1
  Pd  Pd17  1  0.953617  0.855525  0.098093  1
  Pd  Pd18  1  0.501203  0.749993  0.250305  1
  Pd  Pd19  1  0.501203  0.250898  0.751210  1
