# generated using pymatgen
data_Ce2Th(CuSi)4
_symmetry_space_group_name_H-M   'P 1'
_cell_length_a   4.11193072
_cell_length_b   4.12085976
_cell_length_c   12.30277182
_cell_angle_alpha   99.64113575
_cell_angle_beta   99.62006605
_cell_angle_gamma   90.00001665
_symmetry_Int_Tables_number   1
_chemical_formula_structural   Ce2Th(CuSi)4
_chemical_formula_sum   'Ce2 Th1 Cu4 Si4'
_cell_volume   202.54812031
_cell_formula_units_Z   1
loop_
 _symmetry_equiv_pos_site_id
 _symmetry_equiv_pos_as_xyz
  1  'x, y, z'
loop_
 _atom_site_type_symbol
 _atom_site_label
 _atom_site_symmetry_multiplicity
 _atom_site_fract_x
 _atom_site_fract_y
 _atom_site_fract_z
 _atom_site_occupancy
  Ce  Ce0  1  0.850482  0.350482  0.700966  1
  Ce  Ce1  1  0.149518  0.649518  0.299034  1
  Th  Th2  1  0.000000  0.000000  0.000000  1
  Cu  Cu3  1  0.249646  0.249646  0.499291  1
  Cu  Cu4  1  0.750354  0.750354  0.500709  1
  Cu  Cu5  1  0.597149  0.097149  0.194298  1
  Cu  Cu6  1  0.402851  0.902851  0.805702  1
  Si  Si7  1  0.449817  0.449817  0.899635  1
  Si  Si8  1  0.550183  0.550183  0.100365  1
  Si  Si9  1  0.695440  0.195440  0.390880  1
  Si  Si10  1  0.304560  0.804560  0.609120  1
