# generated using pymatgen
data_Ca18DyCd8N7
_symmetry_space_group_name_H-M   'P 1'
_cell_length_a   10.41648111
_cell_length_b   10.41648224
_cell_length_c   10.41648200
_cell_angle_alpha   60.00000076
_cell_angle_beta   59.99999717
_cell_angle_gamma   59.99999621
_symmetry_Int_Tables_number   1
_chemical_formula_structural   Ca18DyCd8N7
_chemical_formula_sum   'Ca18 Dy1 Cd8 N7'
_cell_volume   799.18653641
_cell_formula_units_Z   1
loop_
 _symmetry_equiv_pos_site_id
 _symmetry_equiv_pos_as_xyz
  1  'x, y, z'
loop_
 _atom_site_type_symbol
 _atom_site_label
 _atom_site_symmetry_multiplicity
 _atom_site_fract_x
 _atom_site_fract_y
 _atom_site_fract_z
 _atom_site_occupancy
  Ca  Ca0  1  0.171504  0.500000  0.828496  1
  Ca  Ca1  1  0.500000  0.828496  0.171504  1
  Ca  Ca2  1  0.828496  0.171504  0.500000  1
  Ca  Ca3  1  0.165717  0.834283  0.165717  1
  Ca  Ca4  1  0.828496  0.500000  0.171504  1
  Ca  Ca5  1  0.171504  0.828496  0.500000  1
  Ca  Ca6  1  0.165717  0.165717  0.834283  1
  Ca  Ca7  1  0.171504  0.500000  0.500000  1
  Ca  Ca8  1  0.834283  0.834283  0.165717  1
  Ca  Ca9  1  0.834283  0.165717  0.834283  1
  Ca  Ca10  1  0.500000  0.828496  0.500000  1
  Ca  Ca11  1  0.500000  0.500000  0.171504  1
  Ca  Ca12  1  0.165717  0.834283  0.834283  1
  Ca  Ca13  1  0.500000  0.171504  0.828496  1
  Ca  Ca14  1  0.500000  0.171504  0.500000  1
  Ca  Ca15  1  0.828496  0.500000  0.500000  1
  Ca  Ca16  1  0.834283  0.165717  0.165717  1
  Ca  Ca17  1  0.500000  0.500000  0.828496  1
  Dy  Dy18  1  0.500000  0.500000  0.500000  1
  Cd  Cd19  1  0.174454  0.174454  0.476636  1
  Cd  Cd20  1  0.825546  0.523364  0.825546  1
  Cd  Cd21  1  0.476636  0.174454  0.174454  1
  Cd  Cd22  1  0.174454  0.476636  0.174454  1
  Cd  Cd23  1  0.523364  0.825546  0.825546  1
  Cd  Cd24  1  0.174454  0.174454  0.174454  1
  Cd  Cd25  1  0.825546  0.825546  0.825546  1
  Cd  Cd26  1  0.825546  0.825546  0.523364  1
  N  N27  1  0.668140  0.331860  0.668140  1
  N  N28  1  0.668140  0.331860  0.331860  1
  N  N29  1  0.331860  0.668140  0.668140  1
  N  N30  1  0.331860  0.668140  0.331860  1
  N  N31  1  0.331860  0.331860  0.668140  1
  N  N32  1  0.668140  0.668140  0.331860  1
  N  N33  1  0.000000  0.000000  0.000000  1
