# generated using pymatgen
data_Yb3(TmSi2)2
_symmetry_space_group_name_H-M   'P 1'
_cell_length_a   7.34994700
_cell_length_b   7.76018400
_cell_length_c   14.99860800
_cell_angle_alpha   90.00000000
_cell_angle_beta   90.00000000
_cell_angle_gamma   90.00000000
_symmetry_Int_Tables_number   1
_chemical_formula_structural   Yb3(TmSi2)2
_chemical_formula_sum   'Yb12 Tm8 Si16'
_cell_volume   855.47472123
_cell_formula_units_Z   4
loop_
 _symmetry_equiv_pos_site_id
 _symmetry_equiv_pos_as_xyz
  1  'x, y, z'
loop_
 _atom_site_type_symbol
 _atom_site_label
 _atom_site_symmetry_multiplicity
 _atom_site_fract_x
 _atom_site_fract_y
 _atom_site_fract_z
 _atom_site_occupancy
  Yb  Yb0  1  0.972455  0.816359  0.403591  1
  Yb  Yb1  1  0.472455  0.683641  0.096409  1
  Yb  Yb2  1  0.527545  0.316359  0.596409  1
  Yb  Yb3  1  0.027545  0.183641  0.903591  1
  Yb  Yb4  1  0.027545  0.183641  0.596409  1
  Yb  Yb5  1  0.527545  0.316359  0.903591  1
  Yb  Yb6  1  0.472455  0.683641  0.403591  1
  Yb  Yb7  1  0.972455  0.816359  0.096409  1
  Yb  Yb8  1  0.352546  0.019490  0.750000  1
  Yb  Yb9  1  0.852546  0.480510  0.750000  1
  Yb  Yb10  1  0.147454  0.519490  0.250000  1
  Yb  Yb11  1  0.647454  0.980510  0.250000  1
  Tm  Tm12  1  0.314256  0.176574  0.121144  1
  Tm  Tm13  1  0.814256  0.323426  0.378856  1
  Tm  Tm14  1  0.185744  0.676574  0.878856  1
  Tm  Tm15  1  0.685744  0.823426  0.621144  1
  Tm  Tm16  1  0.314256  0.176574  0.378856  1
  Tm  Tm17  1  0.814256  0.323426  0.121144  1
  Tm  Tm18  1  0.185744  0.676574  0.621144  1
  Tm  Tm19  1  0.685744  0.823426  0.878856  1
  Si  Si20  1  0.857218  0.533828  0.538428  1
  Si  Si21  1  0.357218  0.966172  0.961572  1
  Si  Si22  1  0.642782  0.033828  0.461572  1
  Si  Si23  1  0.142782  0.466172  0.038428  1
  Si  Si24  1  0.142782  0.466172  0.461572  1
  Si  Si25  1  0.642782  0.033828  0.038428  1
  Si  Si26  1  0.357218  0.966172  0.538428  1
  Si  Si27  1  0.857218  0.533828  0.961572  1
  Si  Si28  1  0.978048  0.880249  0.750000  1
  Si  Si29  1  0.478048  0.619751  0.750000  1
  Si  Si30  1  0.521952  0.380249  0.250000  1
  Si  Si31  1  0.021952  0.119751  0.250000  1
  Si  Si32  1  0.249172  0.396116  0.750000  1
  Si  Si33  1  0.749172  0.103884  0.750000  1
  Si  Si34  1  0.250828  0.896116  0.250000  1
  Si  Si35  1  0.750828  0.603884  0.250000  1
