# generated using pymatgen
data_Hf9CuRe4
_symmetry_space_group_name_H-M   'P 1'
_cell_length_a   8.53898300
_cell_length_b   8.59789867
_cell_length_c   8.59789805
_cell_angle_alpha   119.99982853
_cell_angle_beta   90.00000000
_cell_angle_gamma   90.00000000
_symmetry_Int_Tables_number   1
_chemical_formula_structural   Hf9CuRe4
_chemical_formula_sum   'Hf18 Cu2 Re8'
_cell_volume   546.66610184
_cell_formula_units_Z   2
loop_
 _symmetry_equiv_pos_site_id
 _symmetry_equiv_pos_as_xyz
  1  'x, y, z'
loop_
 _atom_site_type_symbol
 _atom_site_label
 _atom_site_symmetry_multiplicity
 _atom_site_fract_x
 _atom_site_fract_y
 _atom_site_fract_z
 _atom_site_occupancy
  Hf  Hf0  1  0.552747  0.804292  0.608586  1
  Hf  Hf1  1  0.552730  0.804286  0.195714  1
  Hf  Hf2  1  0.552747  0.391414  0.195708  1
  Hf  Hf3  1  0.447253  0.195708  0.391414  1
  Hf  Hf4  1  0.447270  0.195714  0.804286  1
  Hf  Hf5  1  0.447253  0.608586  0.804292  1
  Hf  Hf6  1  0.052747  0.195708  0.391414  1
  Hf  Hf7  1  0.052730  0.195714  0.804286  1
  Hf  Hf8  1  0.052747  0.608586  0.804292  1
  Hf  Hf9  1  0.947253  0.804292  0.608586  1
  Hf  Hf10  1  0.947270  0.804286  0.195714  1
  Hf  Hf11  1  0.947253  0.391414  0.195708  1
  Hf  Hf12  1  0.750000  0.458817  0.917613  1
  Hf  Hf13  1  0.750000  0.458798  0.541202  1
  Hf  Hf14  1  0.750000  0.082387  0.541183  1
  Hf  Hf15  1  0.250000  0.541183  0.082387  1
  Hf  Hf16  1  0.250000  0.541202  0.458798  1
  Hf  Hf17  1  0.250000  0.917613  0.458817  1
  Cu  Cu18  1  0.750000  0.666694  0.333306  1
  Cu  Cu19  1  0.250000  0.333306  0.666694  1
  Re  Re20  1  0.750000  0.111021  0.222031  1
  Re  Re21  1  0.750000  0.111018  0.888982  1
  Re  Re22  1  0.750000  0.777969  0.888979  1
  Re  Re23  1  0.250000  0.888979  0.777969  1
  Re  Re24  1  0.250000  0.888982  0.111018  1
  Re  Re25  1  0.250000  0.222031  0.111021  1
  Re  Re26  1  0.500000  0.000000  0.000000  1
  Re  Re27  1  0.000000  0.000000  0.000000  1
