# generated using pymatgen
data_Ca5Bi3Br
_symmetry_space_group_name_H-M   'P 1'
_cell_length_a   9.40371800
_cell_length_b   9.40371878
_cell_length_c   7.26085700
_cell_angle_alpha   90.00000000
_cell_angle_beta   90.00000000
_cell_angle_gamma   120.00000430
_symmetry_Int_Tables_number   1
_chemical_formula_structural   Ca5Bi3Br
_chemical_formula_sum   'Ca10 Bi6 Br2'
_cell_volume   556.05496942
_cell_formula_units_Z   2
loop_
 _symmetry_equiv_pos_site_id
 _symmetry_equiv_pos_as_xyz
  1  'x, y, z'
loop_
 _atom_site_type_symbol
 _atom_site_label
 _atom_site_symmetry_multiplicity
 _atom_site_fract_x
 _atom_site_fract_y
 _atom_site_fract_z
 _atom_site_occupancy
  Ca  Ca0  1  0.738226  0.000000  0.750000  1
  Ca  Ca1  1  0.000000  0.261774  0.250000  1
  Ca  Ca2  1  0.738226  0.738226  0.250000  1
  Ca  Ca3  1  0.333333  0.666667  0.500000  1
  Ca  Ca4  1  0.333333  0.666667  0.000000  1
  Ca  Ca5  1  0.666667  0.333333  0.500000  1
  Ca  Ca6  1  0.666667  0.333333  0.000000  1
  Ca  Ca7  1  0.261774  0.000000  0.250000  1
  Ca  Ca8  1  0.261774  0.261774  0.750000  1
  Ca  Ca9  1  0.000000  0.738226  0.750000  1
  Bi  Bi10  1  0.392375  0.000000  0.750000  1
  Bi  Bi11  1  0.607625  0.000000  0.250000  1
  Bi  Bi12  1  0.000000  0.607625  0.250000  1
  Bi  Bi13  1  0.607625  0.607625  0.750000  1
  Bi  Bi14  1  0.000000  0.392375  0.750000  1
  Bi  Bi15  1  0.392375  0.392375  0.250000  1
  Br  Br16  1  0.000000  0.000000  0.500000  1
  Br  Br17  1  0.000000  0.000000  0.000000  1
