# generated using pymatgen
data_NdDyCu10
_symmetry_space_group_name_H-M   'P 1'
_cell_length_a   4.12653800
_cell_length_b   5.05893200
_cell_length_c   8.72816000
_cell_angle_alpha   90.00000000
_cell_angle_beta   90.00000000
_cell_angle_gamma   90.00000000
_symmetry_Int_Tables_number   1
_chemical_formula_structural   NdDyCu10
_chemical_formula_sum   'Nd1 Dy1 Cu10'
_cell_volume   182.20797834
_cell_formula_units_Z   1
loop_
 _symmetry_equiv_pos_site_id
 _symmetry_equiv_pos_as_xyz
  1  'x, y, z'
loop_
 _atom_site_type_symbol
 _atom_site_label
 _atom_site_symmetry_multiplicity
 _atom_site_fract_x
 _atom_site_fract_y
 _atom_site_fract_z
 _atom_site_occupancy
  Nd  Nd0  1  0.000000  0.500000  0.000000  1
  Dy  Dy1  1  0.000000  0.000000  0.500000  1
  Cu  Cu2  1  0.000000  0.500000  0.336499  1
  Cu  Cu3  1  0.000000  0.000000  0.829126  1
  Cu  Cu4  1  0.000000  0.000000  0.170874  1
  Cu  Cu5  1  0.000000  0.500000  0.663501  1
  Cu  Cu6  1  0.500000  0.500000  0.500000  1
  Cu  Cu7  1  0.500000  0.000000  0.000000  1
  Cu  Cu8  1  0.500000  0.752236  0.254220  1
  Cu  Cu9  1  0.500000  0.247764  0.745780  1
  Cu  Cu10  1  0.500000  0.247764  0.254220  1
  Cu  Cu11  1  0.500000  0.752236  0.745780  1
