# generated using pymatgen
data_Ho3Er5(Si4Tc3)4
_symmetry_space_group_name_H-M   'P 1'
_cell_length_a   6.78229400
_cell_length_b   6.78208321
_cell_length_c   12.64082696
_cell_angle_alpha   89.92131685
_cell_angle_beta   90.04875408
_cell_angle_gamma   89.99822552
_symmetry_Int_Tables_number   1
_chemical_formula_structural   Ho3Er5(Si4Tc3)4
_chemical_formula_sum   'Ho3 Er5 Si16 Tc12'
_cell_volume   581.45303945
_cell_formula_units_Z   1
loop_
 _symmetry_equiv_pos_site_id
 _symmetry_equiv_pos_as_xyz
  1  'x, y, z'
loop_
 _atom_site_type_symbol
 _atom_site_label
 _atom_site_symmetry_multiplicity
 _atom_site_fract_x
 _atom_site_fract_y
 _atom_site_fract_z
 _atom_site_occupancy
  Ho  Ho0  1  0.661312  0.002037  0.969988  1
  Ho  Ho1  1  0.997873  0.338898  0.530048  1
  Ho  Ho2  1  0.001981  0.661328  0.029976  1
  Er  Er3  1  0.339345  0.998046  0.470062  1
  Er  Er4  1  0.501617  0.839187  0.720162  1
  Er  Er5  1  0.497872  0.160542  0.220078  1
  Er  Er6  1  0.839163  0.501692  0.279899  1
  Er  Er7  1  0.160662  0.497977  0.779923  1
  Si  Si8  1  0.192387  0.117082  0.687713  1
  Si  Si9  1  0.383212  0.691656  0.937564  1
  Si  Si10  1  0.616806  0.307887  0.437526  1
  Si  Si11  1  0.691723  0.383144  0.062491  1
  Si  Si12  1  0.308303  0.617303  0.562261  1
  Si  Si13  1  0.807779  0.882932  0.188093  1
  Si  Si14  1  0.117404  0.192003  0.312305  1
  Si  Si15  1  0.883151  0.807937  0.811912  1
  Si  Si16  1  0.275410  0.975987  0.064636  1
  Si  Si17  1  0.524847  0.776348  0.315033  1
  Si  Si18  1  0.475338  0.224359  0.814461  1
  Si  Si19  1  0.775636  0.524832  0.685344  1
  Si  Si20  1  0.223900  0.474967  0.185391  1
  Si  Si21  1  0.723071  0.024573  0.564941  1
  Si  Si22  1  0.976170  0.275391  0.935340  1
  Si  Si23  1  0.024935  0.723849  0.434914  1
  Tc  Tc24  1  0.667310  0.667772  0.499999  1
  Tc  Tc25  1  0.181985  0.978726  0.872839  1
  Tc  Tc26  1  0.520300  0.680852  0.123718  1
  Tc  Tc27  1  0.478963  0.318481  0.623065  1
  Tc  Tc28  1  0.681299  0.520617  0.876613  1
  Tc  Tc29  1  0.319126  0.478896  0.376549  1
  Tc  Tc30  1  0.819001  0.020904  0.373538  1
  Tc  Tc31  1  0.978654  0.181842  0.127198  1
  Tc  Tc32  1  0.020950  0.819372  0.626206  1
  Tc  Tc33  1  0.332496  0.332479  0.999988  1
  Tc  Tc34  1  0.167639  0.832558  0.250163  1
  Tc  Tc35  1  0.832380  0.167546  0.750061  1
