# generated using pymatgen
data_CuNi5Mo12(IrN2)2
_symmetry_space_group_name_H-M   'P 1'
_cell_length_a   6.72181297
_cell_length_b   6.72040763
_cell_length_c   6.72494389
_cell_angle_alpha   89.84149508
_cell_angle_beta   90.10018120
_cell_angle_gamma   90.09692141
_symmetry_Int_Tables_number   1
_chemical_formula_structural   CuNi5Mo12(IrN2)2
_chemical_formula_sum   'Cu1 Ni5 Mo12 Ir2 N4'
_cell_volume   303.78600471
_cell_formula_units_Z   1
loop_
 _symmetry_equiv_pos_site_id
 _symmetry_equiv_pos_as_xyz
  1  'x, y, z'
loop_
 _atom_site_type_symbol
 _atom_site_label
 _atom_site_symmetry_multiplicity
 _atom_site_fract_x
 _atom_site_fract_y
 _atom_site_fract_z
 _atom_site_occupancy
  Cu  Cu0  1  0.183453  0.317044  0.565602  1
  Ni  Ni1  1  0.683239  0.683073  0.435293  1
  Ni  Ni2  1  0.936499  0.440670  0.321377  1
  Ni  Ni3  1  0.563408  0.931850  0.192757  1
  Ni  Ni4  1  0.437176  0.560861  0.679590  1
  Ni  Ni5  1  0.063000  0.068830  0.807737  1
  Mo  Mo6  1  0.375858  0.947325  0.546126  1
  Mo  Mo7  1  0.871588  0.045674  0.451190  1
  Mo  Mo8  1  0.122680  0.447276  0.955777  1
  Mo  Mo9  1  0.624388  0.553701  0.048276  1
  Mo  Mo10  1  0.795401  0.379484  0.699416  1
  Mo  Mo11  1  0.702887  0.873663  0.800316  1
  Mo  Mo12  1  0.204567  0.124445  0.197017  1
  Mo  Mo13  1  0.301314  0.624661  0.298228  1
  Mo  Mo14  1  0.948697  0.798218  0.126545  1
  Mo  Mo15  1  0.049519  0.705490  0.626189  1
  Mo  Mo16  1  0.452505  0.200301  0.875843  1
  Mo  Mo17  1  0.553579  0.296610  0.373614  1
  Ir  Ir18  1  0.315083  0.815606  0.930891  1
  Ir  Ir19  1  0.816378  0.185790  0.068586  1
  N  N20  1  0.624475  0.125593  0.625183  1
  N  N21  1  0.124595  0.873445  0.374172  1
  N  N22  1  0.874472  0.625530  0.876506  1
  N  N23  1  0.375241  0.374860  0.123769  1
