# generated using pymatgen
data_Tb2Pr(Co3P2)3
_symmetry_space_group_name_H-M   'P 1'
_cell_length_a   3.72442400
_cell_length_b   10.55773700
_cell_length_c   12.24295200
_cell_angle_alpha   90.00000000
_cell_angle_beta   90.00000000
_cell_angle_gamma   90.00000000
_symmetry_Int_Tables_number   1
_chemical_formula_structural   Tb2Pr(Co3P2)3
_chemical_formula_sum   'Tb4 Pr2 Co18 P12'
_cell_volume   481.41110323
_cell_formula_units_Z   2
loop_
 _symmetry_equiv_pos_site_id
 _symmetry_equiv_pos_as_xyz
  1  'x, y, z'
loop_
 _atom_site_type_symbol
 _atom_site_label
 _atom_site_symmetry_multiplicity
 _atom_site_fract_x
 _atom_site_fract_y
 _atom_site_fract_z
 _atom_site_occupancy
  Tb  Tb0  1  0.500000  0.817037  0.204704  1
  Tb  Tb1  1  0.500000  0.182963  0.204704  1
  Tb  Tb2  1  0.000000  0.682963  0.795296  1
  Tb  Tb3  1  0.000000  0.317037  0.795296  1
  Pr  Pr4  1  0.000000  0.500000  0.522642  1
  Pr  Pr5  1  0.500000  0.000000  0.477358  1
  Co  Co6  1  0.500000  0.500000  0.156741  1
  Co  Co7  1  0.000000  0.000000  0.843259  1
  Co  Co8  1  0.500000  0.500000  0.706940  1
  Co  Co9  1  0.000000  0.000000  0.293060  1
  Co  Co10  1  0.000000  0.500000  0.986762  1
  Co  Co11  1  0.500000  0.000000  0.013238  1
  Co  Co12  1  0.500000  0.333310  0.995207  1
  Co  Co13  1  0.500000  0.666690  0.995207  1
  Co  Co14  1  0.000000  0.166690  0.004793  1
  Co  Co15  1  0.000000  0.833310  0.004793  1
  Co  Co16  1  0.500000  0.296538  0.429110  1
  Co  Co17  1  0.500000  0.703462  0.429110  1
  Co  Co18  1  0.000000  0.203462  0.570890  1
  Co  Co19  1  0.000000  0.796538  0.570890  1
  Co  Co20  1  0.500000  0.880055  0.712460  1
  Co  Co21  1  0.500000  0.119945  0.712460  1
  Co  Co22  1  0.000000  0.619945  0.287540  1
  Co  Co23  1  0.000000  0.380055  0.287540  1
  P  P24  1  0.500000  0.500000  0.884490  1
  P  P25  1  0.000000  0.000000  0.115510  1
  P  P26  1  0.500000  0.500000  0.339261  1
  P  P27  1  0.000000  0.000000  0.660739  1
  P  P28  1  0.500000  0.306429  0.617321  1
  P  P29  1  0.500000  0.693571  0.617321  1
  P  P30  1  0.000000  0.193571  0.382679  1
  P  P31  1  0.000000  0.806429  0.382679  1
  P  P32  1  0.500000  0.847129  0.894479  1
  P  P33  1  0.500000  0.152871  0.894479  1
  P  P34  1  0.000000  0.652871  0.105521  1
  P  P35  1  0.000000  0.347129  0.105521  1
