# generated using pymatgen
data_La2Zn19CuPt2
_symmetry_space_group_name_H-M   'P 1'
_cell_length_a   8.31804979
_cell_length_b   8.31209943
_cell_length_c   8.33652970
_cell_angle_alpha   99.85692558
_cell_angle_beta   99.86683292
_cell_angle_gamma   131.15916613
_symmetry_Int_Tables_number   1
_chemical_formula_structural   La2Zn19CuPt2
_chemical_formula_sum   'La2 Zn19 Cu1 Pt2'
_cell_volume   394.96564415
_cell_formula_units_Z   1
loop_
 _symmetry_equiv_pos_site_id
 _symmetry_equiv_pos_as_xyz
  1  'x, y, z'
loop_
 _atom_site_type_symbol
 _atom_site_label
 _atom_site_symmetry_multiplicity
 _atom_site_fract_x
 _atom_site_fract_y
 _atom_site_fract_z
 _atom_site_occupancy
  La  La0  1  0.253057  0.753905  0.504377  1
  La  La1  1  0.996943  0.996095  0.995623  1
  Zn  Zn2  1  0.902632  0.572642  0.083794  1
  Zn  Zn3  1  0.425897  0.510389  0.329686  1
  Zn  Zn4  1  0.483788  0.570908  0.672453  1
  Zn  Zn5  1  0.427539  0.100207  0.915926  1
  Zn  Zn6  1  0.766212  0.179092  0.827547  1
  Zn  Zn7  1  0.484885  0.811381  0.914627  1
  Zn  Zn8  1  0.495186  0.499259  0.003961  1
  Zn  Zn9  1  0.765115  0.938619  0.585373  1
  Zn  Zn10  1  0.754814  0.250741  0.496039  1
  Zn  Zn11  1  0.065407  0.643138  0.824277  1
  Zn  Zn12  1  0.347368  0.177358  0.416206  1
  Zn  Zn13  1  0.822461  0.649793  0.584074  1
  Zn  Zn14  1  0.902636  0.819747  0.329081  1
  Zn  Zn15  1  0.184593  0.106862  0.675723  1
  Zn  Zn16  1  0.068099  0.240774  0.422002  1
  Zn  Zn17  1  0.347364  0.930253  0.170919  1
  Zn  Zn18  1  0.824103  0.239611  0.170314  1
  Zn  Zn19  1  0.181901  0.509226  0.077998  1
  Zn  Zn20  1  0.625000  0.375000  0.750000  1
  Cu  Cu21  1  0.125000  0.375000  0.750000  1
  Pt  Pt22  1  0.625000  0.875000  0.250000  1
  Pt  Pt23  1  0.625000  0.375000  0.250000  1
