# generated using pymatgen
data_Er5Tm(Zr2Sb3)2
_symmetry_space_group_name_H-M   'P 1'
_cell_length_a   8.76494012
_cell_length_b   8.76494091
_cell_length_c   5.97587800
_cell_angle_alpha   90.00000000
_cell_angle_beta   90.00000000
_cell_angle_gamma   119.98117877
_symmetry_Int_Tables_number   1
_chemical_formula_structural   Er5Tm(Zr2Sb3)2
_chemical_formula_sum   'Er5 Tm1 Zr4 Sb6'
_cell_volume   397.66066587
_cell_formula_units_Z   1
loop_
 _symmetry_equiv_pos_site_id
 _symmetry_equiv_pos_as_xyz
  1  'x, y, z'
loop_
 _atom_site_type_symbol
 _atom_site_label
 _atom_site_symmetry_multiplicity
 _atom_site_fract_x
 _atom_site_fract_y
 _atom_site_fract_z
 _atom_site_occupancy
  Er  Er0  1  0.251212  0.999983  0.750000  1
  Er  Er1  1  0.999983  0.251212  0.750000  1
  Er  Er2  1  0.251298  0.251298  0.250000  1
  Er  Er3  1  0.748741  0.999943  0.250000  1
  Er  Er4  1  0.999943  0.748741  0.250000  1
  Tm  Tm5  1  0.748686  0.748686  0.750000  1
  Zr  Zr6  1  0.666668  0.333351  0.000008  1
  Zr  Zr7  1  0.333351  0.666668  0.000008  1
  Zr  Zr8  1  0.333351  0.666668  0.499992  1
  Zr  Zr9  1  0.666668  0.333351  0.499992  1
  Sb  Sb10  1  0.391550  0.391550  0.750000  1
  Sb  Sb11  1  0.608624  0.999886  0.750000  1
  Sb  Sb12  1  0.999886  0.608624  0.750000  1
  Sb  Sb13  1  0.608618  0.608618  0.250000  1
  Sb  Sb14  1  0.391410  0.000012  0.250000  1
  Sb  Sb15  1  0.000012  0.391410  0.250000  1
