# generated using pymatgen
data_Th6Al24Ru7Pt
_symmetry_space_group_name_H-M   'P 1'
_cell_length_a   8.97703287
_cell_length_b   8.97703343
_cell_length_c   9.56276749
_cell_angle_alpha   89.87349946
_cell_angle_beta   90.12650252
_cell_angle_gamma   119.82978254
_symmetry_Int_Tables_number   1
_chemical_formula_structural   Th6Al24Ru7Pt
_chemical_formula_sum   'Th6 Al24 Ru7 Pt1'
_cell_volume   668.52989473
_cell_formula_units_Z   1
loop_
 _symmetry_equiv_pos_site_id
 _symmetry_equiv_pos_as_xyz
  1  'x, y, z'
loop_
 _atom_site_type_symbol
 _atom_site_label
 _atom_site_symmetry_multiplicity
 _atom_site_fract_x
 _atom_site_fract_y
 _atom_site_fract_z
 _atom_site_occupancy
  Th  Th0  1  0.191083  0.387803  0.251644  1
  Th  Th1  1  0.808917  0.612197  0.748356  1
  Th  Th2  1  0.612197  0.808917  0.251644  1
  Th  Th3  1  0.387803  0.191083  0.748356  1
  Th  Th4  1  0.194163  0.805837  0.252059  1
  Th  Th5  1  0.805837  0.194163  0.747941  1
  Al  Al6  1  0.330911  0.669089  0.014187  1
  Al  Al7  1  0.669089  0.330911  0.985813  1
  Al  Al8  1  0.666655  0.333345  0.511491  1
  Al  Al9  1  0.333345  0.666655  0.488509  1
  Al  Al10  1  0.162752  0.325175  0.577436  1
  Al  Al11  1  0.837248  0.674825  0.422564  1
  Al  Al12  1  0.674825  0.837248  0.577436  1
  Al  Al13  1  0.842393  0.676566  0.077641  1
  Al  Al14  1  0.325175  0.162752  0.422564  1
  Al  Al15  1  0.157607  0.323434  0.922359  1
  Al  Al16  1  0.162995  0.837005  0.577816  1
  Al  Al17  1  0.323434  0.157607  0.077641  1
  Al  Al18  1  0.837005  0.162995  0.422184  1
  Al  Al19  1  0.676566  0.842393  0.922359  1
  Al  Al20  1  0.837169  0.162831  0.078390  1
  Al  Al21  1  0.162831  0.837169  0.921610  1
  Al  Al22  1  0.562952  0.127104  0.249541  1
  Al  Al23  1  0.437048  0.872896  0.750459  1
  Al  Al24  1  0.872896  0.437048  0.249541  1
  Al  Al25  1  0.127104  0.562952  0.750459  1
  Al  Al26  1  0.563793  0.436207  0.253226  1
  Al  Al27  1  0.436207  0.563793  0.746774  1
  Al  Al28  1  0.999437  0.000563  0.250171  1
  Al  Al29  1  0.000563  0.999437  0.749829  1
  Ru  Ru30  1  0.500000  0.000000  0.000000  1
  Ru  Ru31  1  0.000000  0.500000  0.000000  1
  Ru  Ru32  1  0.500000  0.000000  0.500000  1
  Ru  Ru33  1  0.000000  0.500000  0.500000  1
  Ru  Ru34  1  0.500000  0.500000  0.500000  1
  Ru  Ru35  1  0.000000  0.000000  0.000000  1
  Ru  Ru36  1  0.000000  0.000000  0.500000  1
  Pt  Pt37  1  0.500000  0.500000  0.000000  1
