# generated using pymatgen
data_Y3HoAl15(SiRh2)3
_symmetry_space_group_name_H-M   'P 1'
_cell_length_a   7.52853863
_cell_length_b   7.49078789
_cell_length_c   9.40536301
_cell_angle_alpha   90.00271410
_cell_angle_beta   89.91924724
_cell_angle_gamma   119.75455160
_symmetry_Int_Tables_number   1
_chemical_formula_structural   Y3HoAl15(SiRh2)3
_chemical_formula_sum   'Y3 Ho1 Al15 Si3 Rh6'
_cell_volume   460.48200115
_cell_formula_units_Z   1
loop_
 _symmetry_equiv_pos_site_id
 _symmetry_equiv_pos_as_xyz
  1  'x, y, z'
loop_
 _atom_site_type_symbol
 _atom_site_label
 _atom_site_symmetry_multiplicity
 _atom_site_fract_x
 _atom_site_fract_y
 _atom_site_fract_z
 _atom_site_occupancy
  Y  Y0  1  0.006147  0.340763  0.753484  1
  Y  Y1  1  0.674773  0.000313  0.247975  1
  Y  Y2  1  0.320553  0.993129  0.749848  1
  Ho  Ho3  1  0.994405  0.664454  0.247447  1
  Al  Al4  1  0.128808  0.126284  0.250054  1
  Al  Al5  1  0.871689  0.871288  0.749378  1
  Al  Al6  1  0.338557  0.002774  0.423995  1
  Al  Al7  1  0.001361  0.330531  0.429752  1
  Al  Al8  1  0.665859  0.001742  0.575216  1
  Al  Al9  1  0.662181  0.998005  0.922664  1
  Al  Al10  1  0.338323  0.002931  0.076353  1
  Al  Al11  1  0.333239  0.331674  0.554706  1
  Al  Al12  1  0.664443  0.667809  0.446416  1
  Al  Al13  1  0.663927  0.667469  0.054982  1
  Al  Al14  1  0.335478  0.332158  0.945715  1
  Al  Al15  1  0.337990  0.549900  0.250236  1
  Al  Al16  1  0.661399  0.450507  0.750368  1
  Al  Al17  1  0.548479  0.343024  0.250214  1
  Al  Al18  1  0.454746  0.658098  0.749689  1
  Si  Si19  1  0.002268  0.328970  0.074972  1
  Si  Si20  1  0.997179  0.671512  0.930902  1
  Si  Si21  1  0.997896  0.665671  0.564614  1
  Rh  Rh22  1  0.689178  0.337703  0.001418  1
  Rh  Rh23  1  0.310947  0.662918  0.997785  1
  Rh  Rh24  1  0.319267  0.670473  0.502440  1
  Rh  Rh25  1  0.679942  0.336364  0.499796  1
  Rh  Rh26  1  0.000041  0.000387  0.999370  1
  Rh  Rh27  1  0.000924  0.993151  0.500213  1
