# generated using pymatgen
data_Tb5Eu3(Lu3Pb4)4
_symmetry_space_group_name_H-M   'P 1'
_cell_length_a   8.13503777
_cell_length_b   8.19355950
_cell_length_c   15.44591900
_cell_angle_alpha   89.98678364
_cell_angle_beta   89.96216453
_cell_angle_gamma   89.98499875
_symmetry_Int_Tables_number   1
_chemical_formula_structural   Tb5Eu3(Lu3Pb4)4
_chemical_formula_sum   'Tb5 Eu3 Lu12 Pb16'
_cell_volume   1029.54614671
_cell_formula_units_Z   1
loop_
 _symmetry_equiv_pos_site_id
 _symmetry_equiv_pos_as_xyz
  1  'x, y, z'
loop_
 _atom_site_type_symbol
 _atom_site_label
 _atom_site_symmetry_multiplicity
 _atom_site_fract_x
 _atom_site_fract_y
 _atom_site_fract_z
 _atom_site_occupancy
  Tb  Tb0  1  0.523676  0.322846  0.904803  1
  Tb  Tb1  1  0.023612  0.179221  0.594943  1
  Tb  Tb2  1  0.475623  0.676786  0.403383  1
  Tb  Tb3  1  0.974778  0.819453  0.096679  1
  Tb  Tb4  1  0.473237  0.678017  0.096481  1
  Eu  Eu5  1  0.974407  0.823301  0.404257  1
  Eu  Eu6  1  0.523321  0.323468  0.593353  1
  Eu  Eu7  1  0.021893  0.178560  0.908287  1
  Lu  Lu8  1  0.364045  0.846130  0.877963  1
  Lu  Lu9  1  0.862571  0.654504  0.621567  1
  Lu  Lu10  1  0.638453  0.154416  0.375608  1
  Lu  Lu11  1  0.136950  0.346870  0.121101  1
  Lu  Lu12  1  0.636283  0.156197  0.124059  1
  Lu  Lu13  1  0.136756  0.342880  0.375610  1
  Lu  Lu14  1  0.364289  0.843115  0.623812  1
  Lu  Lu15  1  0.866322  0.654844  0.878383  1
  Lu  Lu16  1  0.198410  0.505710  0.749489  1
  Lu  Lu17  1  0.697700  0.994176  0.751099  1
  Lu  Lu18  1  0.804188  0.494883  0.248374  1
  Lu  Lu19  1  0.303669  0.005294  0.250904  1
  Pb  Pb20  1  0.298617  0.038211  0.046444  1
  Pb  Pb21  1  0.798797  0.456954  0.453798  1
  Pb  Pb22  1  0.700841  0.958339  0.544883  1
  Pb  Pb23  1  0.209701  0.545654  0.957334  1
  Pb  Pb24  1  0.700716  0.954260  0.959538  1
  Pb  Pb25  1  0.202085  0.542541  0.542051  1
  Pb  Pb26  1  0.298292  0.041305  0.457118  1
  Pb  Pb27  1  0.789190  0.462112  0.043924  1
  Pb  Pb28  1  0.558933  0.626059  0.752231  1
  Pb  Pb29  1  0.056909  0.872829  0.748879  1
  Pb  Pb30  1  0.443217  0.375190  0.249946  1
  Pb  Pb31  1  0.944470  0.127395  0.246124  1
  Pb  Pb32  1  0.334301  0.153139  0.751233  1
  Pb  Pb33  1  0.835980  0.347618  0.749208  1
  Pb  Pb34  1  0.660483  0.843797  0.249107  1
  Pb  Pb35  1  0.167286  0.653924  0.248028  1
