# generated using pymatgen
data_LaNd5(CuRh8)2
_symmetry_space_group_name_H-M   'P 1'
_cell_length_a   5.38168310
_cell_length_b   5.37959940
_cell_length_c   17.41506800
_cell_angle_alpha   90.00000000
_cell_angle_beta   90.00000000
_cell_angle_gamma   119.98961458
_symmetry_Int_Tables_number   1
_chemical_formula_structural   LaNd5(CuRh8)2
_chemical_formula_sum   'La1 Nd5 Cu2 Rh16'
_cell_volume   436.68603486
_cell_formula_units_Z   1
loop_
 _symmetry_equiv_pos_site_id
 _symmetry_equiv_pos_as_xyz
  1  'x, y, z'
loop_
 _atom_site_type_symbol
 _atom_site_label
 _atom_site_symmetry_multiplicity
 _atom_site_fract_x
 _atom_site_fract_y
 _atom_site_fract_z
 _atom_site_occupancy
  La  La0  1  0.332582  0.666353  0.750000  1
  Nd  Nd1  1  0.333328  0.666679  0.540304  1
  Nd  Nd2  1  0.666666  0.333269  0.040863  1
  Nd  Nd3  1  0.666666  0.333269  0.459137  1
  Nd  Nd4  1  0.333328  0.666679  0.959696  1
  Nd  Nd5  1  0.667285  0.333906  0.250000  1
  Cu  Cu6  1  0.001662  0.001058  0.250000  1
  Cu  Cu7  1  0.998051  0.999255  0.750000  1
  Rh  Rh8  1  0.167118  0.334082  0.127462  1
  Rh  Rh9  1  0.832889  0.665796  0.626671  1
  Rh  Rh10  1  0.666375  0.833138  0.127762  1
  Rh  Rh11  1  0.167089  0.832970  0.127560  1
  Rh  Rh12  1  0.832914  0.166999  0.626599  1
  Rh  Rh13  1  0.333801  0.166837  0.626897  1
  Rh  Rh14  1  0.832889  0.665796  0.873329  1
  Rh  Rh15  1  0.832914  0.166999  0.873401  1
  Rh  Rh16  1  0.333801  0.166837  0.873103  1
  Rh  Rh17  1  0.666375  0.833138  0.372238  1
  Rh  Rh18  1  0.167089  0.832970  0.372440  1
  Rh  Rh19  1  0.167118  0.334082  0.372538  1
  Rh  Rh20  1  0.333301  0.666743  0.250000  1
  Rh  Rh21  1  0.666723  0.333281  0.750000  1
  Rh  Rh22  1  0.000020  0.999932  0.000398  1
  Rh  Rh23  1  0.000020  0.999932  0.499602  1
