# generated using pymatgen
data_Ce(PrRu)2
_symmetry_space_group_name_H-M   'P 1'
_cell_length_a   6.10229404
_cell_length_b   6.10229401
_cell_length_c   6.10229429
_cell_angle_alpha   139.72574914
_cell_angle_beta   120.52585671
_cell_angle_gamma   74.28299393
_symmetry_Int_Tables_number   1
_chemical_formula_structural   Ce(PrRu)2
_chemical_formula_sum   'Ce1 Pr2 Ru2'
_cell_volume   123.72977914
_cell_formula_units_Z   1
loop_
 _symmetry_equiv_pos_site_id
 _symmetry_equiv_pos_as_xyz
  1  'x, y, z'
loop_
 _atom_site_type_symbol
 _atom_site_label
 _atom_site_symmetry_multiplicity
 _atom_site_fract_x
 _atom_site_fract_y
 _atom_site_fract_z
 _atom_site_occupancy
  Ce  Ce0  1  0.000000  0.000000  0.000000  1
  Pr  Pr1  1  0.689410  0.189410  0.500000  1
  Pr  Pr2  1  0.310590  0.810589  0.500000  1
  Ru  Ru3  1  0.752713  0.500000  0.252713  1
  Ru  Ru4  1  0.247287  0.500000  0.747286  1
