# generated using pymatgen
data_Y3Er3Al24Os5Pt3
_symmetry_space_group_name_H-M   'P 1'
_cell_length_a   8.81564911
_cell_length_b   8.83524752
_cell_length_c   9.54779656
_cell_angle_alpha   90.09418190
_cell_angle_beta   89.73562612
_cell_angle_gamma   119.55686058
_symmetry_Int_Tables_number   1
_chemical_formula_structural   Y3Er3Al24Os5Pt3
_chemical_formula_sum   'Y3 Er3 Al24 Os5 Pt3'
_cell_volume   646.88053481
_cell_formula_units_Z   1
loop_
 _symmetry_equiv_pos_site_id
 _symmetry_equiv_pos_as_xyz
  1  'x, y, z'
loop_
 _atom_site_type_symbol
 _atom_site_label
 _atom_site_symmetry_multiplicity
 _atom_site_fract_x
 _atom_site_fract_y
 _atom_site_fract_z
 _atom_site_occupancy
  Y  Y0  1  0.187895  0.383415  0.250937  1
  Y  Y1  1  0.811815  0.616422  0.749067  1
  Y  Y2  1  0.614009  0.813771  0.251893  1
  Er  Er3  1  0.387442  0.186170  0.748001  1
  Er  Er4  1  0.195903  0.808742  0.251572  1
  Er  Er5  1  0.803609  0.191177  0.748385  1
  Al  Al6  1  0.335195  0.671360  0.029147  1
  Al  Al7  1  0.664408  0.328583  0.970363  1
  Al  Al8  1  0.668927  0.331159  0.527831  1
  Al  Al9  1  0.330688  0.668810  0.472624  1
  Al  Al10  1  0.157931  0.325227  0.576082  1
  Al  Al11  1  0.842216  0.674563  0.424226  1
  Al  Al12  1  0.673477  0.841023  0.576076  1
  Al  Al13  1  0.837259  0.676286  0.078470  1
  Al  Al14  1  0.326415  0.158965  0.424477  1
  Al  Al15  1  0.162940  0.323463  0.921170  1
  Al  Al16  1  0.164001  0.835374  0.576184  1
  Al  Al17  1  0.325506  0.158516  0.076487  1
  Al  Al18  1  0.836021  0.164941  0.424160  1
  Al  Al19  1  0.674404  0.841475  0.923006  1
  Al  Al20  1  0.831707  0.159352  0.077221  1
  Al  Al21  1  0.168352  0.841036  0.922419  1
  Al  Al22  1  0.560306  0.124526  0.249791  1
  Al  Al23  1  0.439381  0.875679  0.750236  1
  Al  Al24  1  0.874202  0.438371  0.252684  1
  Al  Al25  1  0.125766  0.561621  0.747336  1
  Al  Al26  1  0.562749  0.436502  0.249703  1
  Al  Al27  1  0.437045  0.562912  0.750311  1
  Al  Al28  1  0.999554  0.001737  0.250204  1
  Al  Al29  1  0.001560  0.998820  0.749794  1
  Os  Os30  1  0.499826  0.000231  0.999640  1
  Os  Os31  1  0.499804  0.000269  0.500443  1
  Os  Os32  1  0.999877  0.499889  0.500005  1
  Os  Os33  1  0.000014  0.000030  0.999930  1
  Os  Os34  1  0.000030  0.000053  0.500117  1
  Pt  Pt35  1  0.999935  0.499948  0.999997  1
  Pt  Pt36  1  0.499920  0.499804  0.999876  1
  Pt  Pt37  1  0.499911  0.499780  0.500135  1
