# generated using pymatgen
data_Sc5(NiHg2)2
_symmetry_space_group_name_H-M   'P 1'
_cell_length_a   3.34849400
_cell_length_b   7.47619200
_cell_length_c   17.31944200
_cell_angle_alpha   90.00000000
_cell_angle_beta   90.00000000
_cell_angle_gamma   90.00000000
_symmetry_Int_Tables_number   1
_chemical_formula_structural   Sc5(NiHg2)2
_chemical_formula_sum   'Sc10 Ni4 Hg8'
_cell_volume   433.57463487
_cell_formula_units_Z   2
loop_
 _symmetry_equiv_pos_site_id
 _symmetry_equiv_pos_as_xyz
  1  'x, y, z'
loop_
 _atom_site_type_symbol
 _atom_site_label
 _atom_site_symmetry_multiplicity
 _atom_site_fract_x
 _atom_site_fract_y
 _atom_site_fract_z
 _atom_site_occupancy
  Sc  Sc0  1  0.500000  0.121753  0.912151  1
  Sc  Sc1  1  0.500000  0.621753  0.587849  1
  Sc  Sc2  1  0.500000  0.378247  0.412151  1
  Sc  Sc3  1  0.500000  0.878247  0.087849  1
  Sc  Sc4  1  0.500000  0.000000  0.500000  1
  Sc  Sc5  1  0.500000  0.755179  0.781007  1
  Sc  Sc6  1  0.500000  0.744821  0.281007  1
  Sc  Sc7  1  0.500000  0.255179  0.718993  1
  Sc  Sc8  1  0.500000  0.500000  0.000000  1
  Sc  Sc9  1  0.500000  0.244821  0.218993  1
  Ni  Ni10  1  0.000000  0.461537  0.304839  1
  Ni  Ni11  1  0.000000  0.538463  0.695161  1
  Ni  Ni12  1  0.000000  0.038463  0.804839  1
  Ni  Ni13  1  0.000000  0.961537  0.195161  1
  Hg  Hg14  1  0.000000  0.204814  0.066743  1
  Hg  Hg15  1  0.000000  0.704814  0.433257  1
  Hg  Hg16  1  0.000000  0.928399  0.651429  1
  Hg  Hg17  1  0.000000  0.071601  0.348571  1
  Hg  Hg18  1  0.000000  0.295186  0.566743  1
  Hg  Hg19  1  0.000000  0.428399  0.848571  1
  Hg  Hg20  1  0.000000  0.571601  0.151429  1
  Hg  Hg21  1  0.000000  0.795186  0.933257  1
