# generated using pymatgen
data_Pr6Dy10Cd3HgIr4
_symmetry_space_group_name_H-M   'P 1'
_cell_length_a   9.76241179
_cell_length_b   9.76241148
_cell_length_c   9.76241124
_cell_angle_alpha   59.97909604
_cell_angle_beta   59.97909513
_cell_angle_gamma   59.97909567
_symmetry_Int_Tables_number   1
_chemical_formula_structural   Pr6Dy10Cd3HgIr4
_chemical_formula_sum   'Pr6 Dy10 Cd3 Hg1 Ir4'
_cell_volume   657.58276304
_cell_formula_units_Z   1
loop_
 _symmetry_equiv_pos_site_id
 _symmetry_equiv_pos_as_xyz
  1  'x, y, z'
loop_
 _atom_site_type_symbol
 _atom_site_label
 _atom_site_symmetry_multiplicity
 _atom_site_fract_x
 _atom_site_fract_y
 _atom_site_fract_z
 _atom_site_occupancy
  Pr  Pr0  1  0.940365  0.558597  0.558597  1
  Pr  Pr1  1  0.557451  0.941942  0.941942  1
  Pr  Pr2  1  0.558597  0.940365  0.558597  1
  Pr  Pr3  1  0.941942  0.557451  0.941942  1
  Pr  Pr4  1  0.558597  0.558597  0.940365  1
  Pr  Pr5  1  0.941942  0.941942  0.557451  1
  Dy  Dy6  1  0.346927  0.346927  0.346927  1
  Dy  Dy7  1  0.348463  0.348463  0.956661  1
  Dy  Dy8  1  0.348463  0.956661  0.348463  1
  Dy  Dy9  1  0.956661  0.348463  0.348463  1
  Dy  Dy10  1  0.811369  0.187597  0.187597  1
  Dy  Dy11  1  0.186089  0.812016  0.812016  1
  Dy  Dy12  1  0.187597  0.811369  0.187597  1
  Dy  Dy13  1  0.812016  0.186089  0.812016  1
  Dy  Dy14  1  0.187597  0.187597  0.811369  1
  Dy  Dy15  1  0.812016  0.812016  0.186089  1
  Cd  Cd16  1  0.579292  0.579292  0.261666  1
  Cd  Cd17  1  0.579292  0.261666  0.579292  1
  Cd  Cd18  1  0.261666  0.579292  0.579292  1
  Hg  Hg19  1  0.581338  0.581338  0.581338  1
  Ir  Ir20  1  0.141515  0.141515  0.141515  1
  Ir  Ir21  1  0.142193  0.142193  0.576417  1
  Ir  Ir22  1  0.142193  0.576417  0.142193  1
  Ir  Ir23  1  0.576417  0.142193  0.142193  1
