# generated using pymatgen
data_La3In3PtAu2
_symmetry_space_group_name_H-M   'P 1'
_cell_length_a   7.83193500
_cell_length_b   7.83193640
_cell_length_c   4.27666500
_cell_angle_alpha   90.00000000
_cell_angle_beta   90.00000000
_cell_angle_gamma   119.99999831
_symmetry_Int_Tables_number   1
_chemical_formula_structural   La3In3PtAu2
_chemical_formula_sum   'La3 In3 Pt1 Au2'
_cell_volume   227.18209393
_cell_formula_units_Z   1
loop_
 _symmetry_equiv_pos_site_id
 _symmetry_equiv_pos_as_xyz
  1  'x, y, z'
loop_
 _atom_site_type_symbol
 _atom_site_label
 _atom_site_symmetry_multiplicity
 _atom_site_fract_x
 _atom_site_fract_y
 _atom_site_fract_z
 _atom_site_occupancy
  La  La0  1  0.588288  0.009257  0.500000  1
  La  La1  1  0.420969  0.411712  0.500000  1
  La  La2  1  0.990743  0.579031  0.500000  1
  In  In3  1  0.997783  0.248729  0.000000  1
  In  In4  1  0.751271  0.749053  0.000000  1
  In  In5  1  0.250947  0.002217  0.000000  1
  Pt  Pt6  1  0.666667  0.333333  0.000000  1
  Au  Au7  1  0.333333  0.666667  0.000000  1
  Au  Au8  1  0.000000  0.000000  0.500000  1
