# generated using pymatgen
data_Th2Cr3Co9P7
_symmetry_space_group_name_H-M   'P 1'
_cell_length_a   9.04808886
_cell_length_b   9.03950815
_cell_length_c   3.70229200
_cell_angle_alpha   90.00000000
_cell_angle_beta   90.00000000
_cell_angle_gamma   120.00019027
_symmetry_Int_Tables_number   1
_chemical_formula_structural   Th2Cr3Co9P7
_chemical_formula_sum   'Th2 Cr3 Co9 P7'
_cell_volume   262.24192554
_cell_formula_units_Z   1
loop_
 _symmetry_equiv_pos_site_id
 _symmetry_equiv_pos_as_xyz
  1  'x, y, z'
loop_
 _atom_site_type_symbol
 _atom_site_label
 _atom_site_symmetry_multiplicity
 _atom_site_fract_x
 _atom_site_fract_y
 _atom_site_fract_z
 _atom_site_occupancy
  Th  Th0  1  0.333451  0.667103  0.000000  1
  Th  Th1  1  0.999925  0.000122  0.500000  1
  Cr  Cr2  1  0.783188  0.235862  0.500000  1
  Cr  Cr3  1  0.764483  0.546136  0.500000  1
  Cr  Cr4  1  0.453113  0.219284  0.500000  1
  Co  Co5  1  0.037227  0.270093  0.000000  1
  Co  Co6  1  0.729573  0.766401  0.000000  1
  Co  Co7  1  0.231930  0.962115  0.000000  1
  Co  Co8  1  0.542705  0.057924  0.000000  1
  Co  Co9  1  0.941925  0.484594  0.000000  1
  Co  Co10  1  0.515657  0.457620  0.000000  1
  Co  Co11  1  0.614231  0.900855  0.500000  1
  Co  Co12  1  0.098629  0.712683  0.500000  1
  Co  Co13  1  0.286916  0.385759  0.500000  1
  P  P14  1  0.770826  0.038024  0.000000  1
  P  P15  1  0.961906  0.732599  0.000000  1
  P  P16  1  0.267061  0.228901  0.000000  1
  P  P17  1  0.374177  0.939359  0.500000  1
  P  P18  1  0.061877  0.435575  0.500000  1
  P  P19  1  0.564565  0.625691  0.500000  1
  P  P20  1  0.666636  0.333302  0.000000  1
