# generated using pymatgen
data_YbDy3(Mo2O7)2
_symmetry_space_group_name_H-M   'P 1'
_cell_length_a   7.30983715
_cell_length_b   7.30983705
_cell_length_c   7.41506873
_cell_angle_alpha   60.46835567
_cell_angle_beta   60.46835571
_cell_angle_gamma   59.99999781
_symmetry_Int_Tables_number   1
_chemical_formula_structural   YbDy3(Mo2O7)2
_chemical_formula_sum   'Yb1 Dy3 Mo4 O14'
_cell_volume   282.13308935
_cell_formula_units_Z   1
loop_
 _symmetry_equiv_pos_site_id
 _symmetry_equiv_pos_as_xyz
  1  'x, y, z'
loop_
 _atom_site_type_symbol
 _atom_site_label
 _atom_site_symmetry_multiplicity
 _atom_site_fract_x
 _atom_site_fract_y
 _atom_site_fract_z
 _atom_site_occupancy
  Yb  Yb0  1  0.125000  0.125000  0.625000  1
  Dy  Dy1  1  0.625000  0.125000  0.125000  1
  Dy  Dy2  1  0.125000  0.625000  0.125000  1
  Dy  Dy3  1  0.125000  0.125000  0.125000  1
  Mo  Mo4  1  0.125000  0.625000  0.625000  1
  Mo  Mo5  1  0.625000  0.125000  0.625000  1
  Mo  Mo6  1  0.625000  0.625000  0.125000  1
  Mo  Mo7  1  0.625000  0.625000  0.625000  1
  O  O8  1  0.708835  0.708835  0.285545  1
  O  O9  1  0.288351  0.288351  0.724408  1
  O  O10  1  0.698889  0.288351  0.724408  1
  O  O11  1  0.296785  0.708835  0.285545  1
  O  O12  1  0.288351  0.698889  0.724408  1
  O  O13  1  0.708835  0.296785  0.285545  1
  O  O14  1  0.541165  0.541165  0.964455  1
  O  O15  1  0.961649  0.961649  0.525592  1
  O  O16  1  0.551111  0.961649  0.525592  1
  O  O17  1  0.953215  0.541165  0.964455  1
  O  O18  1  0.961649  0.551111  0.525592  1
  O  O19  1  0.541165  0.953215  0.964455  1
  O  O20  1  0.252160  0.252160  0.243519  1
  O  O21  1  0.997840  0.997840  0.006481  1
