# generated using pymatgen
data_Li3Fe(SbRh3)2
_symmetry_space_group_name_H-M   'P 1'
_cell_length_a   4.32031100
_cell_length_b   6.08318000
_cell_length_c   12.97198000
_cell_angle_alpha   90.00000000
_cell_angle_beta   90.00073794
_cell_angle_gamma   90.00000000
_symmetry_Int_Tables_number   1
_chemical_formula_structural   Li3Fe(SbRh3)2
_chemical_formula_sum   'Li6 Fe2 Sb4 Rh12'
_cell_volume   340.91958303
_cell_formula_units_Z   2
loop_
 _symmetry_equiv_pos_site_id
 _symmetry_equiv_pos_as_xyz
  1  'x, y, z'
loop_
 _atom_site_type_symbol
 _atom_site_label
 _atom_site_symmetry_multiplicity
 _atom_site_fract_x
 _atom_site_fract_y
 _atom_site_fract_z
 _atom_site_occupancy
  Li  Li0  1  0.999969  0.500000  0.993005  1
  Li  Li1  1  0.499872  0.000000  0.164114  1
  Li  Li2  1  0.999882  0.500000  0.335911  1
  Li  Li3  1  0.499977  0.000000  0.507006  1
  Li  Li4  1  0.000129  0.500000  0.670002  1
  Li  Li5  1  0.500137  0.000000  0.829976  1
  Fe  Fe6  1  0.000126  0.000000  0.671415  1
  Fe  Fe7  1  0.500125  0.500000  0.828562  1
  Sb  Sb8  1  0.999981  0.000000  0.992849  1
  Sb  Sb9  1  0.499885  0.500000  0.163523  1
  Sb  Sb10  1  0.999891  0.000000  0.336516  1
  Sb  Sb11  1  0.499992  0.500000  0.507164  1
  Rh  Rh12  1  0.499984  0.254797  0.995065  1
  Rh  Rh13  1  0.499984  0.745203  0.995065  1
  Rh  Rh14  1  0.999898  0.248022  0.165463  1
  Rh  Rh15  1  0.999898  0.751977  0.165463  1
  Rh  Rh16  1  0.499904  0.251967  0.334554  1
  Rh  Rh17  1  0.499904  0.748032  0.334554  1
  Rh  Rh18  1  0.999991  0.245140  0.504946  1
  Rh  Rh19  1  0.999991  0.754860  0.504946  1
  Rh  Rh20  1  0.500117  0.244599  0.670848  1
  Rh  Rh21  1  0.500117  0.755400  0.670848  1
  Rh  Rh22  1  0.000119  0.255217  0.829103  1
  Rh  Rh23  1  0.000119  0.744782  0.829103  1
