# generated using pymatgen
data_DyHo9(TlSb2)2
_symmetry_space_group_name_H-M   'P 1'
_cell_length_a   8.94108300
_cell_length_b   8.92976746
_cell_length_c   6.36798900
_cell_angle_alpha   90.00000000
_cell_angle_beta   90.00000000
_cell_angle_gamma   119.77787285
_symmetry_Int_Tables_number   1
_chemical_formula_structural   DyHo9(TlSb2)2
_chemical_formula_sum   'Dy1 Ho9 Tl2 Sb4'
_cell_volume   441.29697341
_cell_formula_units_Z   1
loop_
 _symmetry_equiv_pos_site_id
 _symmetry_equiv_pos_as_xyz
  1  'x, y, z'
loop_
 _atom_site_type_symbol
 _atom_site_label
 _atom_site_symmetry_multiplicity
 _atom_site_fract_x
 _atom_site_fract_y
 _atom_site_fract_z
 _atom_site_occupancy
  Dy  Dy0  1  0.759266  0.998123  0.750000  1
  Ho  Ho1  1  0.333248  0.667331  0.000672  1
  Ho  Ho2  1  0.663474  0.331358  0.499365  1
  Ho  Ho3  1  0.663474  0.331358  0.000635  1
  Ho  Ho4  1  0.333248  0.667331  0.499328  1
  Ho  Ho5  1  0.757597  0.759040  0.250000  1
  Ho  Ho6  1  0.002315  0.242012  0.250000  1
  Ho  Ho7  1  0.001757  0.759520  0.750000  1
  Ho  Ho8  1  0.243332  0.239720  0.750000  1
  Ho  Ho9  1  0.240749  0.003312  0.250000  1
  Tl  Tl10  1  0.392283  0.997368  0.750000  1
  Tl  Tl11  1  0.391772  0.393591  0.250000  1
  Sb  Sb12  1  0.998898  0.609427  0.250000  1
  Sb  Sb13  1  0.998497  0.390092  0.750000  1
  Sb  Sb14  1  0.610436  0.609924  0.750000  1
  Sb  Sb15  1  0.609654  0.000498  0.250000  1
