# generated using pymatgen
data_Sr3CaPt8
_symmetry_space_group_name_H-M   'P 1'
_cell_length_a   9.59873137
_cell_length_b   9.59873129
_cell_length_c   9.59873133
_cell_angle_alpha   33.57012927
_cell_angle_beta   33.57013094
_cell_angle_gamma   33.57012472
_symmetry_Int_Tables_number   1
_chemical_formula_structural   Sr3CaPt8
_chemical_formula_sum   'Sr3 Ca1 Pt8'
_cell_volume   240.86664645
_cell_formula_units_Z   1
loop_
 _symmetry_equiv_pos_site_id
 _symmetry_equiv_pos_as_xyz
  1  'x, y, z'
loop_
 _atom_site_type_symbol
 _atom_site_label
 _atom_site_symmetry_multiplicity
 _atom_site_fract_x
 _atom_site_fract_y
 _atom_site_fract_z
 _atom_site_occupancy
  Sr  Sr0  1  0.562363  0.562363  0.562363  1
  Sr  Sr1  1  0.436966  0.436966  0.436966  1
  Sr  Sr2  1  0.938259  0.938259  0.938259  1
  Ca  Ca3  1  0.062713  0.062713  0.062713  1
  Pt  Pt4  1  0.749751  0.749751  0.749751  1
  Pt  Pt5  1  0.250090  0.250090  0.250090  1
  Pt  Pt6  1  0.001775  0.500615  0.500615  1
  Pt  Pt7  1  0.497566  0.999642  0.999642  1
  Pt  Pt8  1  0.500615  0.001775  0.500615  1
  Pt  Pt9  1  0.999642  0.497566  0.999642  1
  Pt  Pt10  1  0.500615  0.500615  0.001775  1
  Pt  Pt11  1  0.999642  0.999642  0.497566  1
