# generated using pymatgen
data_CaYb3(Al3Ni)6
_symmetry_space_group_name_H-M   'P 1'
_cell_length_a   7.42073400
_cell_length_b   7.42019494
_cell_length_c   9.25632400
_cell_angle_alpha   90.00000000
_cell_angle_beta   90.00000000
_cell_angle_gamma   119.29497952
_symmetry_Int_Tables_number   1
_chemical_formula_structural   CaYb3(Al3Ni)6
_chemical_formula_sum   'Ca1 Yb3 Al18 Ni6'
_cell_volume   444.50132968
_cell_formula_units_Z   1
loop_
 _symmetry_equiv_pos_site_id
 _symmetry_equiv_pos_as_xyz
  1  'x, y, z'
loop_
 _atom_site_type_symbol
 _atom_site_label
 _atom_site_symmetry_multiplicity
 _atom_site_fract_x
 _atom_site_fract_y
 _atom_site_fract_z
 _atom_site_occupancy
  Ca  Ca0  1  0.994002  0.671947  0.250000  1
  Yb  Yb1  1  0.005848  0.327970  0.750000  1
  Yb  Yb2  1  0.671964  0.994155  0.250000  1
  Yb  Yb3  1  0.327986  0.005887  0.750000  1
  Al  Al4  1  0.126045  0.126232  0.250000  1
  Al  Al5  1  0.873876  0.873904  0.750000  1
  Al  Al6  1  0.331328  0.331307  0.544416  1
  Al  Al7  1  0.668660  0.668748  0.044231  1
  Al  Al8  1  0.331328  0.331307  0.955584  1
  Al  Al9  1  0.668660  0.668748  0.455769  1
  Al  Al10  1  0.340422  0.552358  0.250000  1
  Al  Al11  1  0.659521  0.447573  0.750000  1
  Al  Al12  1  0.552277  0.340195  0.250000  1
  Al  Al13  1  0.447573  0.659552  0.750000  1
  Al  Al14  1  0.996989  0.334737  0.073126  1
  Al  Al15  1  0.003106  0.665170  0.573444  1
  Al  Al16  1  0.334946  0.997059  0.426889  1
  Al  Al17  1  0.665180  0.003039  0.926669  1
  Al  Al18  1  0.003106  0.665170  0.926556  1
  Al  Al19  1  0.996989  0.334737  0.426874  1
  Al  Al20  1  0.665180  0.003039  0.573331  1
  Al  Al21  1  0.334946  0.997059  0.073111  1
  Ni  Ni22  1  0.000006  0.000350  0.999780  1
  Ni  Ni23  1  0.000006  0.000350  0.500220  1
  Ni  Ni24  1  0.670484  0.328926  0.999844  1
  Ni  Ni25  1  0.329544  0.670778  0.500173  1
  Ni  Ni26  1  0.329544  0.670778  0.999827  1
  Ni  Ni27  1  0.670484  0.328926  0.500156  1
