# generated using pymatgen
data_Ca6PuRhO12
_symmetry_space_group_name_H-M   'P 1'
_cell_length_a   5.87882124
_cell_length_b   5.59681915
_cell_length_c   9.84170300
_cell_angle_alpha   55.26524634
_cell_angle_beta   91.02638128
_cell_angle_gamma   90.27580871
_symmetry_Int_Tables_number   1
_chemical_formula_structural   Ca6PuRhO12
_chemical_formula_sum   'Ca6 Pu1 Rh1 O12'
_cell_volume   266.06523513
_cell_formula_units_Z   1
loop_
 _symmetry_equiv_pos_site_id
 _symmetry_equiv_pos_as_xyz
  1  'x, y, z'
loop_
 _atom_site_type_symbol
 _atom_site_label
 _atom_site_symmetry_multiplicity
 _atom_site_fract_x
 _atom_site_fract_y
 _atom_site_fract_z
 _atom_site_occupancy
  Ca  Ca0  1  0.052713  0.708838  0.783149  1
  Ca  Ca1  1  0.947287  0.291162  0.216851  1
  Ca  Ca2  1  0.571143  0.245747  0.775810  1
  Ca  Ca3  1  0.428857  0.754253  0.224190  1
  Ca  Ca4  1  0.500000  0.500000  0.000000  1
  Ca  Ca5  1  0.000000  0.500000  0.500000  1
  Pu  Pu6  1  0.500000  0.000000  0.500000  1
  Rh  Rh7  1  0.000000  0.000000  0.000000  1
  O  O8  1  0.439939  0.904554  0.727561  1
  O  O9  1  0.560061  0.095446  0.272439  1
  O  O10  1  0.945304  0.119353  0.768800  1
  O  O11  1  0.054696  0.880647  0.231200  1
  O  O12  1  0.784083  0.749212  0.585100  1
  O  O13  1  0.215917  0.250788  0.414900  1
  O  O14  1  0.281684  0.237050  0.938841  1
  O  O15  1  0.718316  0.762950  0.061159  1
  O  O16  1  0.326704  0.646537  0.565104  1
  O  O17  1  0.673296  0.353463  0.434896  1
  O  O18  1  0.815192  0.337397  0.954464  1
  O  O19  1  0.184808  0.662603  0.045536  1
