# generated using pymatgen
data_Nb2I4ClF3
_symmetry_space_group_name_H-M   'P 1'
_cell_length_a   7.80938914
_cell_length_b   7.80938871
_cell_length_c   7.81818068
_cell_angle_alpha   121.85741275
_cell_angle_beta   113.12313677
_cell_angle_gamma   94.49935489
_symmetry_Int_Tables_number   1
_chemical_formula_structural   Nb2I4ClF3
_chemical_formula_sum   'Nb2 I4 Cl1 F3'
_cell_volume   346.63515913
_cell_formula_units_Z   1
loop_
 _symmetry_equiv_pos_site_id
 _symmetry_equiv_pos_as_xyz
  1  'x, y, z'
loop_
 _atom_site_type_symbol
 _atom_site_label
 _atom_site_symmetry_multiplicity
 _atom_site_fract_x
 _atom_site_fract_y
 _atom_site_fract_z
 _atom_site_occupancy
  Nb  Nb0  1  0.992983  0.292958  0.285941  1
  Nb  Nb1  1  0.001657  0.710210  0.711869  1
  I  I2  1  0.811228  0.822801  0.989889  1
  I  I3  1  0.167088  0.178661  0.989889  1
  I  I4  1  0.778203  0.284881  0.495594  1
  I  I5  1  0.210713  0.717391  0.495594  1
  Cl  Cl6  1  0.273455  0.718061  0.991516  1
  F  F7  1  0.770925  0.285558  0.056484  1
  F  F8  1  0.214580  0.275125  0.489704  1
  F  F9  1  0.779167  0.714355  0.493523  1
