# generated using pymatgen
data_ThTlPt4
_symmetry_space_group_name_H-M   'P 1'
_cell_length_a   5.48441413
_cell_length_b   5.48441379
_cell_length_c   5.48441400
_cell_angle_alpha   59.99999871
_cell_angle_beta   60.00000079
_cell_angle_gamma   59.99999845
_symmetry_Int_Tables_number   1
_chemical_formula_structural   ThTlPt4
_chemical_formula_sum   'Th1 Tl1 Pt4'
_cell_volume   116.64756604
_cell_formula_units_Z   1
loop_
 _symmetry_equiv_pos_site_id
 _symmetry_equiv_pos_as_xyz
  1  'x, y, z'
loop_
 _atom_site_type_symbol
 _atom_site_label
 _atom_site_symmetry_multiplicity
 _atom_site_fract_x
 _atom_site_fract_y
 _atom_site_fract_z
 _atom_site_occupancy
  Th  Th0  1  0.000000  0.000000  0.000000  1
  Tl  Tl1  1  0.750000  0.750000  0.750000  1
  Pt  Pt2  1  0.873859  0.375380  0.375380  1
  Pt  Pt3  1  0.375380  0.873859  0.375380  1
  Pt  Pt4  1  0.375380  0.375380  0.873859  1
  Pt  Pt5  1  0.375380  0.375380  0.375380  1
