# generated using pymatgen
data_Tb2NdBiO7
_symmetry_space_group_name_H-M   'P 1'
_cell_length_a   6.64262804
_cell_length_b   6.64262842
_cell_length_c   7.80166500
_cell_angle_alpha   90.00000000
_cell_angle_beta   90.00000000
_cell_angle_gamma   109.32782669
_symmetry_Int_Tables_number   1
_chemical_formula_structural   Tb2NdBiO7
_chemical_formula_sum   'Tb4 Nd2 Bi2 O14'
_cell_volume   324.84312564
_cell_formula_units_Z   2
loop_
 _symmetry_equiv_pos_site_id
 _symmetry_equiv_pos_as_xyz
  1  'x, y, z'
loop_
 _atom_site_type_symbol
 _atom_site_label
 _atom_site_symmetry_multiplicity
 _atom_site_fract_x
 _atom_site_fract_y
 _atom_site_fract_z
 _atom_site_occupancy
  Tb  Tb0  1  0.531202  0.001989  0.750000  1
  Tb  Tb1  1  0.001989  0.531202  0.250000  1
  Tb  Tb2  1  0.468798  0.998011  0.250000  1
  Tb  Tb3  1  0.998011  0.468798  0.750000  1
  Nd  Nd4  1  0.500000  0.500000  0.500000  1
  Nd  Nd5  1  0.500000  0.500000  0.000000  1
  Bi  Bi6  1  0.000000  0.000000  0.500000  1
  Bi  Bi7  1  0.000000  0.000000  0.000000  1
  O  O8  1  0.665520  0.921929  0.470698  1
  O  O9  1  0.921929  0.665520  0.529302  1
  O  O10  1  0.665520  0.921929  0.029302  1
  O  O11  1  0.921929  0.665520  0.970698  1
  O  O12  1  0.334480  0.078071  0.529302  1
  O  O13  1  0.078071  0.334480  0.470698  1
  O  O14  1  0.334480  0.078071  0.970698  1
  O  O15  1  0.078071  0.334480  0.029302  1
  O  O16  1  0.916443  0.083557  0.750000  1
  O  O17  1  0.083557  0.916443  0.250000  1
  O  O18  1  0.364120  0.635880  0.750000  1
  O  O19  1  0.635880  0.364120  0.250000  1
  O  O20  1  0.640770  0.359230  0.750000  1
  O  O21  1  0.359230  0.640770  0.250000  1
