# generated using pymatgen
data_Zr8In4CoNi2Au5
_symmetry_space_group_name_H-M   'P 1'
_cell_length_a   7.49730227
_cell_length_b   7.49730167
_cell_length_c   6.96208427
_cell_angle_alpha   89.86541092
_cell_angle_beta   89.86541264
_cell_angle_gamma   91.03625209
_symmetry_Int_Tables_number   1
_chemical_formula_structural   Zr8In4CoNi2Au5
_chemical_formula_sum   'Zr8 In4 Co1 Ni2 Au5'
_cell_volume   391.26933178
_cell_formula_units_Z   1
loop_
 _symmetry_equiv_pos_site_id
 _symmetry_equiv_pos_as_xyz
  1  'x, y, z'
loop_
 _atom_site_type_symbol
 _atom_site_label
 _atom_site_symmetry_multiplicity
 _atom_site_fract_x
 _atom_site_fract_y
 _atom_site_fract_z
 _atom_site_occupancy
  Zr  Zr0  1  0.151822  0.151822  0.005112  1
  Zr  Zr1  1  0.825706  0.825706  0.005375  1
  Zr  Zr2  1  0.647771  0.365456  0.487720  1
  Zr  Zr3  1  0.365456  0.647771  0.487720  1
  Zr  Zr4  1  0.683282  0.339987  0.010100  1
  Zr  Zr5  1  0.339987  0.683282  0.010100  1
  Zr  Zr6  1  0.793342  0.793342  0.496908  1
  Zr  Zr7  1  0.200642  0.200642  0.487574  1
  In  In8  1  0.500011  0.006639  0.245366  1
  In  In9  1  0.501637  0.994045  0.750890  1
  In  In10  1  0.006639  0.500011  0.245366  1
  In  In11  1  0.994045  0.501637  0.750890  1
  Co  Co12  1  0.624083  0.624083  0.222638  1
  Ni  Ni13  1  0.371998  0.371998  0.207362  1
  Ni  Ni14  1  0.627853  0.627853  0.787182  1
  Au  Au15  1  0.866888  0.129839  0.715030  1
  Au  Au16  1  0.867402  0.127520  0.289161  1
  Au  Au17  1  0.374079  0.374079  0.791315  1
  Au  Au18  1  0.127520  0.867402  0.289161  1
  Au  Au19  1  0.129839  0.866888  0.715030  1
