# generated using pymatgen
data_Zr10SiNi(BiSb2)2
_symmetry_space_group_name_H-M   'P 1'
_cell_length_a   8.70384392
_cell_length_b   8.69759697
_cell_length_c   5.87850146
_cell_angle_alpha   89.95477450
_cell_angle_beta   90.02258780
_cell_angle_gamma   119.97624902
_symmetry_Int_Tables_number   1
_chemical_formula_structural   Zr10SiNi(BiSb2)2
_chemical_formula_sum   'Zr10 Si1 Ni1 Bi2 Sb4'
_cell_volume   385.48846800
_cell_formula_units_Z   1
loop_
 _symmetry_equiv_pos_site_id
 _symmetry_equiv_pos_as_xyz
  1  'x, y, z'
loop_
 _atom_site_type_symbol
 _atom_site_label
 _atom_site_symmetry_multiplicity
 _atom_site_fract_x
 _atom_site_fract_y
 _atom_site_fract_z
 _atom_site_occupancy
  Zr  Zr0  1  0.255142  0.999753  0.248475  1
  Zr  Zr1  1  0.255142  0.255389  0.751525  1
  Zr  Zr2  1  0.004676  0.742373  0.751176  1
  Zr  Zr3  1  0.004676  0.262303  0.248824  1
  Zr  Zr4  1  0.744848  0.739712  0.248992  1
  Zr  Zr5  1  0.744848  0.005136  0.751008  1
  Zr  Zr6  1  0.327609  0.663805  0.000000  1
  Zr  Zr7  1  0.667858  0.333928  0.500000  1
  Zr  Zr8  1  0.667951  0.333975  0.000000  1
  Zr  Zr9  1  0.327652  0.663827  0.500000  1
  Si  Si10  1  0.998862  0.999431  0.500000  1
  Ni  Ni11  1  0.999460  0.999730  0.000000  1
  Bi  Bi12  1  0.610035  0.999004  0.248784  1
  Bi  Bi13  1  0.610035  0.611031  0.751216  1
  Sb  Sb14  1  0.999476  0.390650  0.751496  1
  Sb  Sb15  1  0.999476  0.608825  0.248504  1
  Sb  Sb16  1  0.391126  0.390802  0.248747  1
  Sb  Sb17  1  0.391126  0.000324  0.751253  1
