# generated using pymatgen
data_HoEr3TmInAu4
_symmetry_space_group_name_H-M   'P 1'
_cell_length_a   8.04540407
_cell_length_b   8.04631707
_cell_length_c   3.71218400
_cell_angle_alpha   90.00000000
_cell_angle_beta   90.00000000
_cell_angle_gamma   89.98443317
_symmetry_Int_Tables_number   1
_chemical_formula_structural   HoEr3TmInAu4
_chemical_formula_sum   'Ho1 Er3 Tm1 In1 Au4'
_cell_volume   240.31146003
_cell_formula_units_Z   1
loop_
 _symmetry_equiv_pos_site_id
 _symmetry_equiv_pos_as_xyz
  1  'x, y, z'
loop_
 _atom_site_type_symbol
 _atom_site_label
 _atom_site_symmetry_multiplicity
 _atom_site_fract_x
 _atom_site_fract_y
 _atom_site_fract_z
 _atom_site_occupancy
  Ho  Ho0  1  0.683617  0.143943  0.500000  1
  Er  Er1  1  0.316343  0.856099  0.500000  1
  Er  Er2  1  0.143919  0.316535  0.500000  1
  Er  Er3  1  0.856211  0.683410  0.500000  1
  Tm  Tm4  1  0.499966  0.500084  0.000000  1
  In  In5  1  0.000168  0.999930  0.000000  1
  Au  Au6  1  0.145519  0.618900  0.000000  1
  Au  Au7  1  0.854700  0.381463  0.000000  1
  Au  Au8  1  0.618781  0.854141  0.000000  1
  Au  Au9  1  0.380776  0.145494  0.000000  1
