# generated using pymatgen
data_Hf4Be4Ir3Rh
_symmetry_space_group_name_H-M   'P 1'
_cell_length_a   3.74095400
_cell_length_b   6.32737001
_cell_length_c   7.41212329
_cell_angle_alpha   89.89800426
_cell_angle_beta   90.00000000
_cell_angle_gamma   90.00000000
_symmetry_Int_Tables_number   1
_chemical_formula_structural   Hf4Be4Ir3Rh
_chemical_formula_sum   'Hf4 Be4 Ir3 Rh1'
_cell_volume   175.44764606
_cell_formula_units_Z   1
loop_
 _symmetry_equiv_pos_site_id
 _symmetry_equiv_pos_as_xyz
  1  'x, y, z'
loop_
 _atom_site_type_symbol
 _atom_site_label
 _atom_site_symmetry_multiplicity
 _atom_site_fract_x
 _atom_site_fract_y
 _atom_site_fract_z
 _atom_site_occupancy
  Hf  Hf0  1  0.250000  0.524341  0.185639  1
  Hf  Hf1  1  0.750000  0.476355  0.814095  1
  Hf  Hf2  1  0.250000  0.025355  0.313979  1
  Hf  Hf3  1  0.750000  0.977316  0.686427  1
  Be  Be4  1  0.250000  0.792130  0.885568  1
  Be  Be5  1  0.750000  0.208683  0.115382  1
  Be  Be6  1  0.250000  0.289581  0.615739  1
  Be  Be7  1  0.750000  0.708349  0.384300  1
  Ir  Ir8  1  0.750000  0.828197  0.066287  1
  Ir  Ir9  1  0.250000  0.171897  0.933097  1
  Ir  Ir10  1  0.750000  0.327989  0.434258  1
  Rh  Rh11  1  0.250000  0.669806  0.565229  1
