# generated using pymatgen
data_Sc7CoSn23Ru5
_symmetry_space_group_name_H-M   'P 1'
_cell_length_a   9.68316613
_cell_length_b   9.69202723
_cell_length_c   9.87746843
_cell_angle_alpha   90.00000018
_cell_angle_beta   90.01340233
_cell_angle_gamma   120.03027618
_symmetry_Int_Tables_number   1
_chemical_formula_structural   Sc7CoSn23Ru5
_chemical_formula_sum   'Sc7 Co1 Sn23 Ru5'
_cell_volume   802.55665096
_cell_formula_units_Z   1
loop_
 _symmetry_equiv_pos_site_id
 _symmetry_equiv_pos_as_xyz
  1  'x, y, z'
loop_
 _atom_site_type_symbol
 _atom_site_label
 _atom_site_symmetry_multiplicity
 _atom_site_fract_x
 _atom_site_fract_y
 _atom_site_fract_z
 _atom_site_occupancy
  Sc  Sc0  1  0.016732  0.008366  0.010101  1
  Sc  Sc1  1  0.489064  0.510175  0.302737  1
  Sc  Sc2  1  0.510200  0.487228  0.695864  1
  Sc  Sc3  1  0.489064  0.978889  0.302737  1
  Sc  Sc4  1  0.510200  0.022972  0.695864  1
  Sc  Sc5  1  0.019895  0.509948  0.302245  1
  Sc  Sc6  1  0.975332  0.487666  0.697063  1
  Co  Co7  1  0.653030  0.826516  0.795562  1
  Sn  Sn8  1  0.351426  0.998495  0.999601  1
  Sn  Sn9  1  0.653441  0.997082  0.994202  1
  Sn  Sn10  1  0.999672  0.348471  0.999926  1
  Sn  Sn11  1  0.999672  0.651202  0.999926  1
  Sn  Sn12  1  0.653441  0.656359  0.994202  1
  Sn  Sn13  1  0.351426  0.352931  0.999601  1
  Sn  Sn14  1  0.335752  0.667877  0.823868  1
  Sn  Sn15  1  0.665791  0.332894  0.173342  1
  Sn  Sn16  1  0.001195  0.000598  0.500917  1
  Sn  Sn17  1  0.777525  0.222334  0.466824  1
  Sn  Sn18  1  0.221991  0.776475  0.533509  1
  Sn  Sn19  1  0.777525  0.555191  0.466824  1
  Sn  Sn20  1  0.221991  0.445516  0.533509  1
  Sn  Sn21  1  0.445594  0.222797  0.465091  1
  Sn  Sn22  1  0.557908  0.778954  0.539074  1
  Sn  Sn23  1  0.332847  0.666425  0.144805  1
  Sn  Sn24  1  0.665605  0.332802  0.855433  1
  Sn  Sn25  1  0.120614  0.877410  0.277331  1
  Sn  Sn26  1  0.874182  0.112700  0.726298  1
  Sn  Sn27  1  0.120614  0.243205  0.277331  1
  Sn  Sn28  1  0.874182  0.761481  0.726298  1
  Sn  Sn29  1  0.755000  0.877500  0.275940  1
  Sn  Sn30  1  0.245240  0.122619  0.724817  1
  Ru  Ru31  1  0.826783  0.169366  0.203418  1
  Ru  Ru32  1  0.170129  0.828068  0.795098  1
  Ru  Ru33  1  0.826783  0.657416  0.203418  1
  Ru  Ru34  1  0.170129  0.342062  0.795098  1
  Ru  Ru35  1  0.340019  0.170009  0.202121  1
