# generated using pymatgen
data_Dy9Tm2Lu9Pb16
_symmetry_space_group_name_H-M   'P 1'
_cell_length_a   8.13915242
_cell_length_b   8.21753955
_cell_length_c   15.47816616
_cell_angle_alpha   90.00441835
_cell_angle_beta   90.05255837
_cell_angle_gamma   90.15769545
_symmetry_Int_Tables_number   1
_chemical_formula_structural   Dy9Tm2Lu9Pb16
_chemical_formula_sum   'Dy9 Tm2 Lu9 Pb16'
_cell_volume   1035.23431774
_cell_formula_units_Z   1
loop_
 _symmetry_equiv_pos_site_id
 _symmetry_equiv_pos_as_xyz
  1  'x, y, z'
loop_
 _atom_site_type_symbol
 _atom_site_label
 _atom_site_symmetry_multiplicity
 _atom_site_fract_x
 _atom_site_fract_y
 _atom_site_fract_z
 _atom_site_occupancy
  Dy  Dy0  1  0.875838  0.658551  0.878808  1
  Dy  Dy1  1  0.536854  0.322229  0.901605  1
  Dy  Dy2  1  0.036606  0.177005  0.598556  1
  Dy  Dy3  1  0.463459  0.677206  0.401222  1
  Dy  Dy4  1  0.961934  0.824873  0.100640  1
  Dy  Dy5  1  0.463752  0.676017  0.099366  1
  Dy  Dy6  1  0.962640  0.823357  0.400283  1
  Dy  Dy7  1  0.535774  0.322369  0.598192  1
  Dy  Dy8  1  0.037437  0.176572  0.901014  1
  Tm  Tm9  1  0.374546  0.842167  0.878264  1
  Tm  Tm10  1  0.874700  0.657471  0.621475  1
  Lu  Lu11  1  0.625831  0.156684  0.377405  1
  Lu  Lu12  1  0.125075  0.343154  0.122625  1
  Lu  Lu13  1  0.624904  0.156235  0.123116  1
  Lu  Lu14  1  0.125473  0.343071  0.377690  1
  Lu  Lu15  1  0.374424  0.843389  0.621475  1
  Lu  Lu16  1  0.207320  0.505061  0.749444  1
  Lu  Lu17  1  0.706478  0.995134  0.749340  1
  Lu  Lu18  1  0.793160  0.494312  0.250367  1
  Lu  Lu19  1  0.293134  0.005495  0.250050  1
  Pb  Pb20  1  0.283366  0.035922  0.043669  1
  Pb  Pb21  1  0.784380  0.463895  0.456206  1
  Pb  Pb22  1  0.714463  0.965037  0.542564  1
  Pb  Pb23  1  0.218487  0.532755  0.957031  1
  Pb  Pb24  1  0.715743  0.967249  0.956986  1
  Pb  Pb25  1  0.216078  0.536047  0.542962  1
  Pb  Pb26  1  0.283954  0.036279  0.456442  1
  Pb  Pb27  1  0.784284  0.462397  0.044832  1
  Pb  Pb28  1  0.567705  0.627269  0.748984  1
  Pb  Pb29  1  0.069765  0.874169  0.749095  1
  Pb  Pb30  1  0.431566  0.372360  0.250221  1
  Pb  Pb31  1  0.931787  0.127582  0.250201  1
  Pb  Pb32  1  0.347516  0.155435  0.749930  1
  Pb  Pb33  1  0.847165  0.344199  0.749710  1
  Pb  Pb34  1  0.651842  0.843624  0.250194  1
  Pb  Pb35  1  0.152557  0.655429  0.250038  1
