# generated using pymatgen
data_Hf4Sc4Ti8Nb3Si16Pd
_symmetry_space_group_name_H-M   'P 1'
_cell_length_a   6.68278000
_cell_length_b   6.81866100
_cell_length_c   12.99754500
_cell_angle_alpha   90.00000000
_cell_angle_beta   90.00000000
_cell_angle_gamma   90.00000000
_symmetry_Int_Tables_number   1
_chemical_formula_structural   Hf4Sc4Ti8Nb3Si16Pd
_chemical_formula_sum   'Hf4 Sc4 Ti8 Nb3 Si16 Pd1'
_cell_volume   592.26707916
_cell_formula_units_Z   1
loop_
 _symmetry_equiv_pos_site_id
 _symmetry_equiv_pos_as_xyz
  1  'x, y, z'
loop_
 _atom_site_type_symbol
 _atom_site_label
 _atom_site_symmetry_multiplicity
 _atom_site_fract_x
 _atom_site_fract_y
 _atom_site_fract_z
 _atom_site_occupancy
  Hf  Hf0  1  0.497642  0.675590  0.595720  1
  Hf  Hf1  1  0.002213  0.826537  0.905292  1
  Hf  Hf2  1  0.499868  0.325816  0.097500  1
  Hf  Hf3  1  0.998391  0.173708  0.402088  1
  Sc  Sc4  1  0.501380  0.327065  0.404239  1
  Sc  Sc5  1  0.000976  0.172045  0.096297  1
  Sc  Sc6  1  0.498385  0.673743  0.904656  1
  Sc  Sc7  1  0.999266  0.826712  0.594217  1
  Ti  Ti8  1  0.662875  0.173926  0.626360  1
  Ti  Ti9  1  0.162603  0.326316  0.873518  1
  Ti  Ti10  1  0.336982  0.826168  0.125287  1
  Ti  Ti11  1  0.838517  0.674084  0.375795  1
  Ti  Ti12  1  0.337032  0.823566  0.374364  1
  Ti  Ti13  1  0.837000  0.676059  0.124369  1
  Ti  Ti14  1  0.663513  0.172349  0.873328  1
  Ti  Ti15  1  0.163843  0.322573  0.626803  1
  Nb  Nb16  1  0.334179  0.004343  0.749613  1
  Nb  Nb17  1  0.166530  0.506854  0.250458  1
  Nb  Nb18  1  0.665169  0.995685  0.249350  1
  Si  Si19  1  0.668165  0.964446  0.460821  1
  Si  Si20  1  0.166715  0.535066  0.038600  1
  Si  Si21  1  0.332573  0.037106  0.961059  1
  Si  Si22  1  0.829712  0.459660  0.536365  1
  Si  Si23  1  0.330080  0.036244  0.537875  1
  Si  Si24  1  0.828887  0.459718  0.964012  1
  Si  Si25  1  0.671123  0.964822  0.038170  1
  Si  Si26  1  0.169698  0.535563  0.463302  1
  Si  Si27  1  0.461102  0.383919  0.750140  1
  Si  Si28  1  0.956989  0.110791  0.750102  1
  Si  Si29  1  0.543305  0.618655  0.250001  1
  Si  Si30  1  0.041493  0.882709  0.249993  1
  Si  Si31  1  0.704131  0.865261  0.749854  1
  Si  Si32  1  0.202847  0.630446  0.750051  1
  Si  Si33  1  0.296189  0.133942  0.250191  1
  Si  Si34  1  0.796497  0.368390  0.249763  1
  Pd  Pd35  1  0.834131  0.510121  0.750448  1
