# generated using pymatgen
data_Cd5Ag2(MoO4)6
_symmetry_space_group_name_H-M   'P 1'
_cell_length_a   7.37381417
_cell_length_b   9.16155046
_cell_length_c   10.94292514
_cell_angle_alpha   106.05361357
_cell_angle_beta   105.85933213
_cell_angle_gamma   101.88149815
_symmetry_Int_Tables_number   1
_chemical_formula_structural   Cd5Ag2(MoO4)6
_chemical_formula_sum   'Cd5 Ag2 Mo6 O24'
_cell_volume   650.93921302
_cell_formula_units_Z   1
loop_
 _symmetry_equiv_pos_site_id
 _symmetry_equiv_pos_as_xyz
  1  'x, y, z'
loop_
 _atom_site_type_symbol
 _atom_site_label
 _atom_site_symmetry_multiplicity
 _atom_site_fract_x
 _atom_site_fract_y
 _atom_site_fract_z
 _atom_site_occupancy
  Cd  Cd0  1  0.381980  0.951969  0.109748  1
  Cd  Cd1  1  0.625639  0.055552  0.896380  1
  Cd  Cd2  1  0.956204  0.790713  0.476804  1
  Cd  Cd3  1  0.039919  0.205503  0.517819  1
  Cd  Cd4  1  0.709872  0.710182  0.698643  1
  Ag  Ag5  1  0.021072  0.502164  0.019147  1
  Ag  Ag6  1  0.287914  0.296547  0.293515  1
  Mo  Mo7  1  0.404531  0.730865  0.372677  1
  Mo  Mo8  1  0.593976  0.274856  0.629882  1
  Mo  Mo9  1  0.894470  0.903349  0.165330  1
  Mo  Mo10  1  0.101801  0.087068  0.829612  1
  Mo  Mo11  1  0.781445  0.337959  0.233598  1
  Mo  Mo12  1  0.220941  0.664413  0.767444  1
  O  O13  1  0.260137  0.805183  0.466602  1
  O  O14  1  0.743862  0.201930  0.539959  1
  O  O15  1  0.682347  0.957819  0.077385  1
  O  O16  1  0.313161  0.031565  0.914513  1
  O  O17  1  0.866161  0.701134  0.086171  1
  O  O18  1  0.131828  0.288003  0.912084  1
  O  O19  1  0.116339  0.013796  0.152154  1
  O  O20  1  0.872986  0.970600  0.836632  1
  O  O21  1  0.447162  0.844381  0.269272  1
  O  O22  1  0.566871  0.172574  0.744039  1
  O  O23  1  0.267748  0.530502  0.262399  1
  O  O24  1  0.712568  0.485769  0.726843  1
  O  O25  1  0.791578  0.302250  0.064356  1
  O  O26  1  0.219949  0.697682  0.937193  1
  O  O27  1  0.822603  0.543842  0.317287  1
  O  O28  1  0.173736  0.459277  0.683615  1
  O  O29  1  0.922540  0.942500  0.343421  1
  O  O30  1  0.075774  0.054300  0.653780  1
  O  O31  1  0.969620  0.273359  0.330063  1
  O  O32  1  0.025092  0.729458  0.674873  1
  O  O33  1  0.641207  0.740636  0.495348  1
  O  O34  1  0.354373  0.245543  0.508985  1
  O  O35  1  0.541906  0.226832  0.224063  1
  O  O36  1  0.460689  0.769924  0.768366  1
