# generated using pymatgen
data_CoSi7Ni4(Mo6C)2
_symmetry_space_group_name_H-M   'P 1'
_cell_length_a   7.76485373
_cell_length_b   7.76485396
_cell_length_c   7.76485308
_cell_angle_alpha   60.30912369
_cell_angle_beta   60.30912256
_cell_angle_gamma   60.30912474
_symmetry_Int_Tables_number   1
_chemical_formula_structural   CoSi7Ni4(Mo6C)2
_chemical_formula_sum   'Co1 Si7 Ni4 Mo12 C2'
_cell_volume   333.35889732
_cell_formula_units_Z   1
loop_
 _symmetry_equiv_pos_site_id
 _symmetry_equiv_pos_as_xyz
  1  'x, y, z'
loop_
 _atom_site_type_symbol
 _atom_site_label
 _atom_site_symmetry_multiplicity
 _atom_site_fract_x
 _atom_site_fract_y
 _atom_site_fract_z
 _atom_site_occupancy
  Co  Co0  1  0.627201  0.627201  0.627201  1
  Si  Si1  1  0.415965  0.415965  0.760579  1
  Si  Si2  1  0.415965  0.760579  0.415965  1
  Si  Si3  1  0.760579  0.415965  0.415965  1
  Si  Si4  1  0.411952  0.411952  0.411952  1
  Si  Si5  1  0.837819  0.837819  0.497534  1
  Si  Si6  1  0.837819  0.497534  0.837819  1
  Si  Si7  1  0.497534  0.837819  0.837819  1
  Ni  Ni8  1  0.826923  0.826923  0.826923  1
  Ni  Ni9  1  0.617294  0.617294  0.142709  1
  Ni  Ni10  1  0.617294  0.142709  0.617294  1
  Ni  Ni11  1  0.142709  0.617294  0.617294  1
  Mo  Mo12  1  0.055871  0.055871  0.447713  1
  Mo  Mo13  1  0.443527  0.057081  0.443527  1
  Mo  Mo14  1  0.057081  0.443527  0.443527  1
  Mo  Mo15  1  0.443527  0.443527  0.057081  1
  Mo  Mo16  1  0.055871  0.447713  0.055871  1
  Mo  Mo17  1  0.447713  0.055871  0.055871  1
  Mo  Mo18  1  0.189708  0.189708  0.809032  1
  Mo  Mo19  1  0.806702  0.186590  0.806702  1
  Mo  Mo20  1  0.186590  0.806702  0.806702  1
  Mo  Mo21  1  0.806702  0.806702  0.186590  1
  Mo  Mo22  1  0.189708  0.809032  0.189708  1
  Mo  Mo23  1  0.809032  0.189708  0.189708  1
  C  C24  1  0.251426  0.251426  0.251426  1
  C  C25  1  0.997486  0.997486  0.997486  1
