# generated using pymatgen
data_Ce2HoHf3F22
_symmetry_space_group_name_H-M   'P 1'
_cell_length_a   8.45504766
_cell_length_b   8.45504898
_cell_length_c   8.46457042
_cell_angle_alpha   124.85334092
_cell_angle_beta   106.41056700
_cell_angle_gamma   98.33970980
_symmetry_Int_Tables_number   1
_chemical_formula_structural   Ce2HoHf3F22
_chemical_formula_sum   'Ce2 Ho1 Hf3 F22'
_cell_volume   438.74904324
_cell_formula_units_Z   1
loop_
 _symmetry_equiv_pos_site_id
 _symmetry_equiv_pos_as_xyz
  1  'x, y, z'
loop_
 _atom_site_type_symbol
 _atom_site_label
 _atom_site_symmetry_multiplicity
 _atom_site_fract_x
 _atom_site_fract_y
 _atom_site_fract_z
 _atom_site_occupancy
  Ce  Ce0  1  0.749358  0.250061  0.500813  1
  Ce  Ce1  1  0.250752  0.751456  0.500813  1
  Ho  Ho2  1  0.679915  0.634821  0.314736  1
  Hf  Hf3  1  0.317305  0.364582  0.681886  1
  Hf  Hf4  1  0.180741  0.865808  0.046550  1
  Hf  Hf5  1  0.819979  0.135392  0.955370  1
  F  F6  1  0.707386  0.917341  0.346475  1
  F  F7  1  0.293035  0.101089  0.651825  1
  F  F8  1  0.550735  0.358790  0.651825  1
  F  F9  1  0.947540  0.605593  0.813572  1
  F  F10  1  0.429134  0.639089  0.346475  1
  F  F11  1  0.055779  0.392597  0.187049  1
  F  F12  1  0.794451  0.131269  0.187049  1
  F  F13  1  0.207978  0.866031  0.813572  1
  F  F14  1  0.489875  0.492284  0.982159  1
  F  F15  1  0.004358  0.001225  0.005583  1
  F  F16  1  0.784212  0.880676  0.664888  1
  F  F17  1  0.220865  0.129014  0.349878  1
  F  F18  1  0.276433  0.629465  0.905899  1
  F  F19  1  0.721002  0.359374  0.080375  1
  F  F20  1  0.972608  0.741521  0.424289  1
  F  F21  1  0.047932  0.263391  0.583005  1
  F  F22  1  0.319615  0.535074  0.583005  1
  F  F23  1  0.176644  0.762546  0.212381  1
  F  F24  1  0.682767  0.451681  0.424289  1
  F  F25  1  0.823862  0.241026  0.786930  1
  F  F26  1  0.545905  0.963068  0.786930  1
  F  F27  1  0.449836  0.035737  0.212381  1
