# generated using pymatgen
data_Ac2I2O9
_symmetry_space_group_name_H-M   'P 1'
_cell_length_a   7.30138478
_cell_length_b   7.58304287
_cell_length_c   7.43071100
_cell_angle_alpha   70.12216641
_cell_angle_beta   85.00929989
_cell_angle_gamma   83.65562605
_symmetry_Int_Tables_number   1
_chemical_formula_structural   Ac2I2O9
_chemical_formula_sum   'Ac4 I4 O18'
_cell_volume   383.99445541
_cell_formula_units_Z   2
loop_
 _symmetry_equiv_pos_site_id
 _symmetry_equiv_pos_as_xyz
  1  'x, y, z'
loop_
 _atom_site_type_symbol
 _atom_site_label
 _atom_site_symmetry_multiplicity
 _atom_site_fract_x
 _atom_site_fract_y
 _atom_site_fract_z
 _atom_site_occupancy
  Ac  Ac0  1  0.824788  0.763359  0.894443  1
  Ac  Ac1  1  0.175212  0.236641  0.105557  1
  Ac  Ac2  1  0.377136  0.716230  0.585387  1
  Ac  Ac3  1  0.622864  0.283770  0.414613  1
  I  I4  1  0.127708  0.192007  0.617440  1
  I  I5  1  0.872292  0.807993  0.382560  1
  I  I6  1  0.728442  0.276163  0.923706  1
  I  I7  1  0.271558  0.723837  0.076294  1
  O  O8  1  0.303917  0.337909  0.648347  1
  O  O9  1  0.696083  0.662091  0.351653  1
  O  O10  1  0.974160  0.334632  0.809785  1
  O  O11  1  0.025840  0.665368  0.190215  1
  O  O12  1  0.488721  0.780636  0.925246  1
  O  O13  1  0.511279  0.219364  0.074754  1
  O  O14  1  0.630587  0.487509  0.734534  1
  O  O15  1  0.369413  0.512491  0.265466  1
  O  O16  1  0.285468  0.874351  0.231425  1
  O  O17  1  0.714532  0.125649  0.768575  1
  O  O18  1  0.784540  0.421733  0.076155  1
  O  O19  1  0.215460  0.578267  0.923845  1
  O  O20  1  0.986830  0.301087  0.399014  1
  O  O21  1  0.013170  0.698913  0.600986  1
  O  O22  1  0.851563  0.067993  0.109917  1
  O  O23  1  0.148437  0.932007  0.890083  1
  O  O24  1  0.309754  0.086380  0.467615  1
  O  O25  1  0.690246  0.913620  0.532386  1
