# generated using pymatgen
data_Er5Lu8Th3(CdIr)4
_symmetry_space_group_name_H-M   'P 1'
_cell_length_a   9.61153978
_cell_length_b   9.61016930
_cell_length_c   9.61016975
_cell_angle_alpha   59.74892147
_cell_angle_beta   59.75974337
_cell_angle_gamma   59.75975167
_symmetry_Int_Tables_number   1
_chemical_formula_structural   Er5Lu8Th3(CdIr)4
_chemical_formula_sum   'Er5 Lu8 Th3 Cd4 Ir4'
_cell_volume   624.20684694
_cell_formula_units_Z   1
loop_
 _symmetry_equiv_pos_site_id
 _symmetry_equiv_pos_as_xyz
  1  'x, y, z'
loop_
 _atom_site_type_symbol
 _atom_site_label
 _atom_site_symmetry_multiplicity
 _atom_site_fract_x
 _atom_site_fract_y
 _atom_site_fract_z
 _atom_site_occupancy
  Er  Er0  1  0.815379  0.184945  0.184945  1
  Er  Er1  1  0.816889  0.184119  0.815843  1
  Er  Er2  1  0.186731  0.813315  0.186528  1
  Er  Er3  1  0.816889  0.815843  0.184119  1
  Er  Er4  1  0.186731  0.186528  0.813315  1
  Lu  Lu5  1  0.197781  0.601369  0.601369  1
  Lu  Lu6  1  0.061352  0.438943  0.438943  1
  Lu  Lu7  1  0.434407  0.064798  0.064798  1
  Lu  Lu8  1  0.435350  0.063157  0.436946  1
  Lu  Lu9  1  0.063228  0.437299  0.061204  1
  Lu  Lu10  1  0.435350  0.436946  0.063157  1
  Lu  Lu11  1  0.063228  0.061204  0.437299  1
  Lu  Lu12  1  0.187299  0.813543  0.813543  1
  Th  Th13  1  0.597823  0.600363  0.600363  1
  Th  Th14  1  0.598892  0.601706  0.198892  1
  Th  Th15  1  0.598892  0.198892  0.601706  1
  Cd  Cd16  1  0.836883  0.830424  0.830424  1
  Cd  Cd17  1  0.835932  0.830352  0.502195  1
  Cd  Cd18  1  0.835932  0.502195  0.830352  1
  Cd  Cd19  1  0.498935  0.833005  0.833005  1
  Ir  Ir20  1  0.390567  0.392374  0.392374  1
  Ir  Ir21  1  0.390415  0.392498  0.824525  1
  Ir  Ir22  1  0.390415  0.824525  0.392498  1
  Ir  Ir23  1  0.824702  0.391654  0.391654  1
