# generated using pymatgen
data_SrAgH9W
_symmetry_space_group_name_H-M   'P 1'
_cell_length_a   8.66686700
_cell_length_b   8.66686502
_cell_length_c   5.03657700
_cell_angle_alpha   90.00000000
_cell_angle_beta   90.00000000
_cell_angle_gamma   120.00000373
_symmetry_Int_Tables_number   1
_chemical_formula_structural   SrAgH9W
_chemical_formula_sum   'Sr3 Ag3 H27 W3'
_cell_volume   327.63497640
_cell_formula_units_Z   3
loop_
 _symmetry_equiv_pos_site_id
 _symmetry_equiv_pos_as_xyz
  1  'x, y, z'
loop_
 _atom_site_type_symbol
 _atom_site_label
 _atom_site_symmetry_multiplicity
 _atom_site_fract_x
 _atom_site_fract_y
 _atom_site_fract_z
 _atom_site_occupancy
  Sr  Sr0  1  0.000000  0.609693  0.000000  1
  Sr  Sr1  1  0.390307  0.390307  0.000000  1
  Sr  Sr2  1  0.609693  0.000000  0.000000  1
  Ag  Ag3  1  0.000000  0.261490  0.500000  1
  Ag  Ag4  1  0.738510  0.738510  0.500000  1
  Ag  Ag5  1  0.261490  0.000000  0.500000  1
  H  H6  1  0.808900  0.329831  0.752332  1
  H  H7  1  0.670169  0.479067  0.752332  1
  H  H8  1  0.520933  0.191100  0.752332  1
  H  H9  1  0.191100  0.520933  0.247668  1
  H  H10  1  0.520933  0.191100  0.247668  1
  H  H11  1  0.808900  0.329831  0.247668  1
  H  H12  1  0.670169  0.479067  0.247668  1
  H  H13  1  0.329831  0.808900  0.752332  1
  H  H14  1  0.479067  0.670169  0.752332  1
  H  H15  1  0.202561  0.000000  0.000000  1
  H  H16  1  0.797439  0.797439  0.000000  1
  H  H17  1  0.000000  0.202561  0.000000  1
  H  H18  1  0.858038  0.000000  0.257698  1
  H  H19  1  0.141962  0.141962  0.742302  1
  H  H20  1  0.000000  0.858038  0.742302  1
  H  H21  1  0.000000  0.858038  0.257698  1
  H  H22  1  0.141962  0.141962  0.257698  1
  H  H23  1  0.858038  0.000000  0.742302  1
  H  H24  1  0.132051  0.665905  0.500000  1
  H  H25  1  0.533854  0.867949  0.500000  1
  H  H26  1  0.334095  0.466146  0.500000  1
  H  H27  1  0.466146  0.334095  0.500000  1
  H  H28  1  0.867949  0.533854  0.500000  1
  H  H29  1  0.665905  0.132051  0.500000  1
  H  H30  1  0.191100  0.520933  0.752332  1
  H  H31  1  0.329831  0.808900  0.247668  1
  H  H32  1  0.479067  0.670169  0.247668  1
  W  W33  1  0.666667  0.333333  0.500000  1
  W  W34  1  0.333333  0.666667  0.500000  1
  W  W35  1  0.000000  0.000000  0.000000  1
