# generated using pymatgen
data_La7YCd2RuPt
_symmetry_space_group_name_H-M   'P 1'
_cell_length_a   10.06864590
_cell_length_b   10.06331838
_cell_length_c   10.06864650
_cell_angle_alpha   60.01749713
_cell_angle_beta   60.75146772
_cell_angle_gamma   60.01749940
_symmetry_Int_Tables_number   1
_chemical_formula_structural   La7YCd2RuPt
_chemical_formula_sum   'La14 Y2 Cd4 Ru2 Pt2'
_cell_volume   725.58852218
_cell_formula_units_Z   2
loop_
 _symmetry_equiv_pos_site_id
 _symmetry_equiv_pos_as_xyz
  1  'x, y, z'
loop_
 _atom_site_type_symbol
 _atom_site_label
 _atom_site_symmetry_multiplicity
 _atom_site_fract_x
 _atom_site_fract_y
 _atom_site_fract_z
 _atom_site_occupancy
  La  La0  1  0.439795  0.437429  0.061300  1
  La  La1  1  0.061300  0.061477  0.439795  1
  La  La2  1  0.439795  0.061477  0.061300  1
  La  La3  1  0.848172  0.849047  0.848172  1
  La  La4  1  0.685329  0.321277  0.305413  1
  La  La5  1  0.061300  0.437429  0.439795  1
  La  La6  1  0.305413  0.687980  0.685329  1
  La  La7  1  0.305413  0.321277  0.685329  1
  La  La8  1  0.861056  0.843333  0.452277  1
  La  La9  1  0.685329  0.687980  0.305413  1
  La  La10  1  0.452277  0.843333  0.861056  1
  La  La11  1  0.057395  0.442605  0.057395  1
  La  La12  1  0.848172  0.454610  0.848172  1
  La  La13  1  0.445180  0.054820  0.445180  1
  Y  Y14  1  0.307247  0.692753  0.307247  1
  Y  Y15  1  0.693059  0.306941  0.693059  1
  Cd  Cd16  1  0.081465  0.761131  0.081465  1
  Cd  Cd17  1  0.077547  0.080617  0.761218  1
  Cd  Cd18  1  0.761218  0.080617  0.077547  1
  Cd  Cd19  1  0.081465  0.075939  0.081465  1
  Ru  Ru20  1  0.641684  0.639197  0.079921  1
  Ru  Ru21  1  0.079921  0.639197  0.641684  1
  Pt  Pt22  1  0.640234  0.077499  0.640234  1
  Pt  Pt23  1  0.640234  0.642033  0.640234  1
