# generated using pymatgen
data_Pr7ThMgCdIr2
_symmetry_space_group_name_H-M   'P 1'
_cell_length_a   10.06543390
_cell_length_b   10.06543367
_cell_length_c   10.10115300
_cell_angle_alpha   59.88254322
_cell_angle_beta   59.88254398
_cell_angle_gamma   60.11234177
_symmetry_Int_Tables_number   1
_chemical_formula_structural   Pr7ThMgCdIr2
_chemical_formula_sum   'Pr14 Th2 Mg2 Cd2 Ir4'
_cell_volume   722.95902431
_cell_formula_units_Z   2
loop_
 _symmetry_equiv_pos_site_id
 _symmetry_equiv_pos_as_xyz
  1  'x, y, z'
loop_
 _atom_site_type_symbol
 _atom_site_label
 _atom_site_symmetry_multiplicity
 _atom_site_fract_x
 _atom_site_fract_y
 _atom_site_fract_z
 _atom_site_occupancy
  Pr  Pr0  1  0.350104  0.952173  0.348862  1
  Pr  Pr1  1  0.952173  0.350104  0.348862  1
  Pr  Pr2  1  0.810798  0.189000  0.189998  1
  Pr  Pr3  1  0.189000  0.810798  0.810204  1
  Pr  Pr4  1  0.189000  0.810798  0.189998  1
  Pr  Pr5  1  0.810798  0.189000  0.810204  1
  Pr  Pr6  1  0.188146  0.188146  0.811854  1
  Pr  Pr7  1  0.807160  0.807160  0.192840  1
  Pr  Pr8  1  0.941442  0.559641  0.563020  1
  Pr  Pr9  1  0.559641  0.941442  0.935897  1
  Pr  Pr10  1  0.559641  0.941442  0.563020  1
  Pr  Pr11  1  0.941442  0.559641  0.935897  1
  Pr  Pr12  1  0.561067  0.561067  0.938933  1
  Pr  Pr13  1  0.938283  0.938283  0.561717  1
  Th  Th14  1  0.343898  0.343898  0.344801  1
  Th  Th15  1  0.343898  0.343898  0.967403  1
  Mg  Mg16  1  0.576692  0.268291  0.577508  1
  Mg  Mg17  1  0.268291  0.576692  0.577508  1
  Cd  Cd18  1  0.579058  0.579058  0.584050  1
  Cd  Cd19  1  0.579058  0.579058  0.257833  1
  Ir  Ir20  1  0.146458  0.146458  0.137700  1
  Ir  Ir21  1  0.146458  0.146458  0.569385  1
  Ir  Ir22  1  0.151759  0.565735  0.141252  1
  Ir  Ir23  1  0.565735  0.151759  0.141252  1
