# generated using pymatgen
data_DyEr3Al12(GaIr)6
_symmetry_space_group_name_H-M   'P 1'
_cell_length_a   7.51711506
_cell_length_b   7.51784383
_cell_length_c   9.55298100
_cell_angle_alpha   90.00000000
_cell_angle_beta   90.00000000
_cell_angle_gamma   119.69937927
_symmetry_Int_Tables_number   1
_chemical_formula_structural   DyEr3Al12(GaIr)6
_chemical_formula_sum   'Dy1 Er3 Al12 Ga6 Ir6'
_cell_volume   468.94474874
_cell_formula_units_Z   1
loop_
 _symmetry_equiv_pos_site_id
 _symmetry_equiv_pos_as_xyz
  1  'x, y, z'
loop_
 _atom_site_type_symbol
 _atom_site_label
 _atom_site_symmetry_multiplicity
 _atom_site_fract_x
 _atom_site_fract_y
 _atom_site_fract_z
 _atom_site_occupancy
  Dy  Dy0  1  0.997237  0.669307  0.750000  1
  Er  Er1  1  0.002736  0.330630  0.250000  1
  Er  Er2  1  0.669349  0.997319  0.750000  1
  Er  Er3  1  0.330646  0.002738  0.250000  1
  Al  Al4  1  0.001762  0.334067  0.572545  1
  Al  Al5  1  0.998223  0.665635  0.427008  1
  Al  Al6  1  0.998223  0.665635  0.072992  1
  Al  Al7  1  0.334665  0.002043  0.927444  1
  Al  Al8  1  0.001762  0.334067  0.927455  1
  Al  Al9  1  0.665639  0.998240  0.072741  1
  Al  Al10  1  0.665639  0.998240  0.427259  1
  Al  Al11  1  0.334665  0.002043  0.572556  1
  Al  Al12  1  0.333972  0.333975  0.057546  1
  Al  Al13  1  0.665767  0.666049  0.942677  1
  Al  Al14  1  0.665767  0.666049  0.557323  1
  Al  Al15  1  0.333972  0.333975  0.442454  1
  Ga  Ga16  1  0.127483  0.127649  0.750000  1
  Ga  Ga17  1  0.872626  0.872649  0.250000  1
  Ga  Ga18  1  0.338705  0.546762  0.750000  1
  Ga  Ga19  1  0.661429  0.453122  0.250000  1
  Ga  Ga20  1  0.546500  0.338280  0.750000  1
  Ga  Ga21  1  0.453169  0.661481  0.250000  1
  Ir  Ir22  1  0.671866  0.327925  0.499881  1
  Ir  Ir23  1  0.328119  0.671945  0.499877  1
  Ir  Ir24  1  0.328119  0.671945  0.000123  1
  Ir  Ir25  1  0.671866  0.327925  0.000119  1
  Ir  Ir26  1  0.000048  0.000153  0.499875  1
  Ir  Ir27  1  0.000048  0.000153  0.000125  1
