# generated using pymatgen
data_Th2Mn3Fe6Ni3P7
_symmetry_space_group_name_H-M   'P 1'
_cell_length_a   9.16812300
_cell_length_b   9.16812362
_cell_length_c   3.70785600
_cell_angle_alpha   90.00000000
_cell_angle_beta   90.00000000
_cell_angle_gamma   119.99999320
_symmetry_Int_Tables_number   1
_chemical_formula_structural   Th2Mn3Fe6Ni3P7
_chemical_formula_sum   'Th2 Mn3 Fe6 Ni3 P7'
_cell_volume   269.90716422
_cell_formula_units_Z   1
loop_
 _symmetry_equiv_pos_site_id
 _symmetry_equiv_pos_as_xyz
  1  'x, y, z'
loop_
 _atom_site_type_symbol
 _atom_site_label
 _atom_site_symmetry_multiplicity
 _atom_site_fract_x
 _atom_site_fract_y
 _atom_site_fract_z
 _atom_site_occupancy
  Th  Th0  1  0.333333  0.666667  0.000000  1
  Th  Th1  1  0.000000  0.000000  0.500000  1
  Mn  Mn2  1  0.775378  0.229272  0.500000  1
  Mn  Mn3  1  0.770728  0.546107  0.500000  1
  Mn  Mn4  1  0.453893  0.224622  0.500000  1
  Fe  Fe5  1  0.546566  0.059547  0.000000  1
  Fe  Fe6  1  0.940453  0.487018  0.000000  1
  Fe  Fe7  1  0.512982  0.453434  0.000000  1
  Fe  Fe8  1  0.618302  0.898110  0.500000  1
  Fe  Fe9  1  0.101890  0.720191  0.500000  1
  Fe  Fe10  1  0.279809  0.381698  0.500000  1
  Ni  Ni11  1  0.029870  0.267343  0.000000  1
  Ni  Ni12  1  0.732657  0.762525  0.000000  1
  Ni  Ni13  1  0.237475  0.970130  0.000000  1
  P  P14  1  0.763895  0.025541  0.000000  1
  P  P15  1  0.974459  0.738353  0.000000  1
  P  P16  1  0.261647  0.236105  0.000000  1
  P  P17  1  0.383078  0.935509  0.500000  1
  P  P18  1  0.064491  0.447569  0.500000  1
  P  P19  1  0.552431  0.616922  0.500000  1
  P  P20  1  0.666667  0.333333  0.000000  1
