# generated using pymatgen
data_Ho8TcOsBr8
_symmetry_space_group_name_H-M   'P 1'
_cell_length_a   8.99124538
_cell_length_b   8.99124615
_cell_length_c   6.54411409
_cell_angle_alpha   89.64995384
_cell_angle_beta   89.64995118
_cell_angle_gamma   89.36759172
_symmetry_Int_Tables_number   1
_chemical_formula_structural   Ho8TcOsBr8
_chemical_formula_sum   'Ho8 Tc1 Os1 Br8'
_cell_volume   528.99078949
_cell_formula_units_Z   1
loop_
 _symmetry_equiv_pos_site_id
 _symmetry_equiv_pos_as_xyz
  1  'x, y, z'
loop_
 _atom_site_type_symbol
 _atom_site_label
 _atom_site_symmetry_multiplicity
 _atom_site_fract_x
 _atom_site_fract_y
 _atom_site_fract_z
 _atom_site_occupancy
  Ho  Ho0  1  0.247201  0.901380  0.011650  1
  Ho  Ho1  1  0.752237  0.098666  0.988881  1
  Ho  Ho2  1  0.098620  0.752799  0.488350  1
  Ho  Ho3  1  0.901334  0.247763  0.511119  1
  Ho  Ho4  1  0.754005  0.903393  0.506767  1
  Ho  Ho5  1  0.246152  0.097074  0.492665  1
  Ho  Ho6  1  0.096607  0.245995  0.993233  1
  Ho  Ho7  1  0.902926  0.753848  0.007335  1
  Tc  Tc8  1  0.994902  0.005098  0.250000  1
  Os  Os9  1  0.004838  0.995162  0.750000  1
  Br  Br10  1  0.417802  0.818597  0.410657  1
  Br  Br11  1  0.582204  0.181077  0.591661  1
  Br  Br12  1  0.181403  0.582198  0.089343  1
  Br  Br13  1  0.818923  0.417796  0.908339  1
  Br  Br14  1  0.413195  0.188885  0.092274  1
  Br  Br15  1  0.587167  0.810630  0.906767  1
  Br  Br16  1  0.811115  0.586805  0.407726  1
  Br  Br17  1  0.189370  0.412833  0.593233  1
