# generated using pymatgen
data_Ca2PrCdIrRh3O14
_symmetry_space_group_name_H-M   'P 1'
_cell_length_a   7.23698401
_cell_length_b   7.33264790
_cell_length_c   7.23698500
_cell_angle_alpha   60.43063771
_cell_angle_beta   60.00000004
_cell_angle_gamma   60.43064029
_symmetry_Int_Tables_number   1
_chemical_formula_structural   Ca2PrCdIrRh3O14
_chemical_formula_sum   'Ca2 Pr1 Cd1 Ir1 Rh3 O14'
_cell_volume   273.31126434
_cell_formula_units_Z   1
loop_
 _symmetry_equiv_pos_site_id
 _symmetry_equiv_pos_as_xyz
  1  'x, y, z'
loop_
 _atom_site_type_symbol
 _atom_site_label
 _atom_site_symmetry_multiplicity
 _atom_site_fract_x
 _atom_site_fract_y
 _atom_site_fract_z
 _atom_site_occupancy
  Ca  Ca0  1  0.125000  0.125000  0.625000  1
  Ca  Ca1  1  0.625000  0.125000  0.125000  1
  Pr  Pr2  1  0.125000  0.625000  0.125000  1
  Cd  Cd3  1  0.125000  0.125000  0.125000  1
  Ir  Ir4  1  0.625000  0.125000  0.625000  1
  Rh  Rh5  1  0.625000  0.625000  0.625000  1
  Rh  Rh6  1  0.125000  0.625000  0.625000  1
  Rh  Rh7  1  0.625000  0.625000  0.125000  1
  O  O8  1  0.956534  0.538368  0.548825  1
  O  O9  1  0.307600  0.301260  0.694602  1
  O  O10  1  0.952276  0.544220  0.952276  1
  O  O11  1  0.694602  0.301260  0.307600  1
  O  O12  1  0.548825  0.538368  0.956534  1
  O  O13  1  0.551602  0.951412  0.551602  1
  O  O14  1  0.555398  0.948740  0.942400  1
  O  O15  1  0.245725  0.239887  0.245725  1
  O  O16  1  0.293466  0.711632  0.701175  1
  O  O17  1  0.698398  0.298588  0.698398  1
  O  O18  1  0.004275  0.010113  0.004275  1
  O  O19  1  0.942400  0.948740  0.555398  1
  O  O20  1  0.297724  0.705780  0.297724  1
  O  O21  1  0.701175  0.711632  0.293466  1
