# generated using pymatgen
data_Ac8LuPd6
_symmetry_space_group_name_H-M   'P 1'
_cell_length_a   8.09005681
_cell_length_b   8.09005692
_cell_length_c   8.09005745
_cell_angle_alpha   72.64402724
_cell_angle_beta   72.64402786
_cell_angle_gamma   72.64402614
_symmetry_Int_Tables_number   1
_chemical_formula_structural   Ac8LuPd6
_chemical_formula_sum   'Ac8 Lu1 Pd6'
_cell_volume   469.46336693
_cell_formula_units_Z   1
loop_
 _symmetry_equiv_pos_site_id
 _symmetry_equiv_pos_as_xyz
  1  'x, y, z'
loop_
 _atom_site_type_symbol
 _atom_site_label
 _atom_site_symmetry_multiplicity
 _atom_site_fract_x
 _atom_site_fract_y
 _atom_site_fract_z
 _atom_site_occupancy
  Ac  Ac0  1  0.701991  0.701991  0.701991  1
  Ac  Ac1  1  0.298009  0.298009  0.298009  1
  Ac  Ac2  1  0.877069  0.176281  0.665589  1
  Ac  Ac3  1  0.665589  0.877069  0.176281  1
  Ac  Ac4  1  0.176281  0.665589  0.877069  1
  Ac  Ac5  1  0.122931  0.823719  0.334411  1
  Ac  Ac6  1  0.334411  0.122931  0.823719  1
  Ac  Ac7  1  0.823719  0.334411  0.122931  1
  Lu  Lu8  1  0.500000  0.500000  0.500000  1
  Pd  Pd9  1  0.894094  0.537181  0.357356  1
  Pd  Pd10  1  0.357356  0.894094  0.537181  1
  Pd  Pd11  1  0.537181  0.357356  0.894094  1
  Pd  Pd12  1  0.105906  0.462819  0.642644  1
  Pd  Pd13  1  0.642644  0.105906  0.462819  1
  Pd  Pd14  1  0.462819  0.642644  0.105906  1
