# generated using pymatgen
data_Hf9Si8W
_symmetry_space_group_name_H-M   'P 1'
_cell_length_a   7.00484558
_cell_length_b   7.00484558
_cell_length_c   12.80241800
_cell_angle_alpha   90.00000000
_cell_angle_beta   90.00000000
_cell_angle_gamma   89.82067368
_symmetry_Int_Tables_number   1
_chemical_formula_structural   Hf9Si8W
_chemical_formula_sum   'Hf18 Si16 W2'
_cell_volume   628.18419727
_cell_formula_units_Z   2
loop_
 _symmetry_equiv_pos_site_id
 _symmetry_equiv_pos_as_xyz
  1  'x, y, z'
loop_
 _atom_site_type_symbol
 _atom_site_label
 _atom_site_symmetry_multiplicity
 _atom_site_fract_x
 _atom_site_fract_y
 _atom_site_fract_z
 _atom_site_occupancy
  Hf  Hf0  1  0.824773  0.824773  0.500000  1
  Hf  Hf1  1  0.175227  0.175227  0.000000  1
  Hf  Hf2  1  0.495900  0.152926  0.531021  1
  Hf  Hf3  1  0.504100  0.847074  0.031021  1
  Hf  Hf4  1  0.653439  0.002223  0.282450  1
  Hf  Hf5  1  0.346561  0.997777  0.782450  1
  Hf  Hf6  1  0.847074  0.504100  0.968979  1
  Hf  Hf7  1  0.152926  0.495900  0.468979  1
  Hf  Hf8  1  0.002223  0.653439  0.717550  1
  Hf  Hf9  1  0.997777  0.346561  0.217550  1
  Hf  Hf10  1  0.498031  0.355752  0.126829  1
  Hf  Hf11  1  0.501969  0.644248  0.626829  1
  Hf  Hf12  1  0.853245  0.001864  0.875377  1
  Hf  Hf13  1  0.146755  0.998136  0.375377  1
  Hf  Hf14  1  0.644248  0.501969  0.373171  1
  Hf  Hf15  1  0.355752  0.498031  0.873171  1
  Hf  Hf16  1  0.001864  0.853245  0.124623  1
  Hf  Hf17  1  0.998136  0.146755  0.624623  1
  Si  Si18  1  0.796319  0.147088  0.071647  1
  Si  Si19  1  0.203681  0.852912  0.571647  1
  Si  Si20  1  0.647135  0.701653  0.822460  1
  Si  Si21  1  0.352865  0.298347  0.322460  1
  Si  Si22  1  0.852912  0.203681  0.428353  1
  Si  Si23  1  0.147088  0.796319  0.928353  1
  Si  Si24  1  0.701653  0.647135  0.177540  1
  Si  Si25  1  0.298347  0.352865  0.677540  1
  Si  Si26  1  0.550730  0.199793  0.934057  1
  Si  Si27  1  0.449270  0.800207  0.434057  1
  Si  Si28  1  0.695689  0.956107  0.685735  1
  Si  Si29  1  0.304311  0.043893  0.185735  1
  Si  Si30  1  0.800207  0.449270  0.565943  1
  Si  Si31  1  0.199793  0.550730  0.065943  1
  Si  Si32  1  0.956107  0.695689  0.314265  1
  Si  Si33  1  0.043893  0.304311  0.814265  1
  W  W34  1  0.675406  0.324594  0.750000  1
  W  W35  1  0.324594  0.675406  0.250000  1
