# generated using pymatgen
data_LuU3(SnIr2)2
_symmetry_space_group_name_H-M   'P 1'
_cell_length_a   7.65942014
_cell_length_b   7.65942014
_cell_length_c   3.53174100
_cell_angle_alpha   90.00000000
_cell_angle_beta   90.00000000
_cell_angle_gamma   91.02954585
_symmetry_Int_Tables_number   1
_chemical_formula_structural   LuU3(SnIr2)2
_chemical_formula_sum   'Lu1 U3 Sn2 Ir4'
_cell_volume   207.16219996
_cell_formula_units_Z   1
loop_
 _symmetry_equiv_pos_site_id
 _symmetry_equiv_pos_as_xyz
  1  'x, y, z'
loop_
 _atom_site_type_symbol
 _atom_site_label
 _atom_site_symmetry_multiplicity
 _atom_site_fract_x
 _atom_site_fract_y
 _atom_site_fract_z
 _atom_site_occupancy
  Lu  Lu0  1  0.170085  0.329915  0.000000  1
  U  U1  1  0.833048  0.666952  0.000000  1
  U  U2  1  0.668596  0.172255  0.000000  1
  U  U3  1  0.327745  0.831404  0.000000  1
  Sn  Sn4  1  0.003840  0.010908  0.500000  1
  Sn  Sn5  1  0.489092  0.496160  0.500000  1
  Ir  Ir6  1  0.384761  0.115239  0.500000  1
  Ir  Ir7  1  0.642189  0.857811  0.500000  1
  Ir  Ir8  1  0.853964  0.373318  0.500000  1
  Ir  Ir9  1  0.126682  0.646036  0.500000  1
