# generated using pymatgen
data_Tm6Co18Si5P7
_symmetry_space_group_name_H-M   'P 1'
_cell_length_a   10.49119000
_cell_length_b   3.69698600
_cell_length_c   12.15737600
_cell_angle_alpha   90.00000000
_cell_angle_beta   90.00000000
_cell_angle_gamma   90.00000000
_symmetry_Int_Tables_number   1
_chemical_formula_structural   Tm6Co18Si5P7
_chemical_formula_sum   'Tm6 Co18 Si5 P7'
_cell_volume   471.53334196
_cell_formula_units_Z   1
loop_
 _symmetry_equiv_pos_site_id
 _symmetry_equiv_pos_as_xyz
  1  'x, y, z'
loop_
 _atom_site_type_symbol
 _atom_site_label
 _atom_site_symmetry_multiplicity
 _atom_site_fract_x
 _atom_site_fract_y
 _atom_site_fract_z
 _atom_site_occupancy
  Tm  Tm0  1  0.065792  0.750001  0.207162  1
  Tm  Tm1  1  0.434207  0.750001  0.207162  1
  Tm  Tm2  1  0.250000  0.750001  0.475770  1
  Tm  Tm3  1  0.750000  0.250001  0.528191  1
  Tm  Tm4  1  0.566157  0.250001  0.793356  1
  Tm  Tm5  1  0.933843  0.250001  0.793356  1
  Co  Co6  1  0.080610  0.250001  0.003252  1
  Co  Co7  1  0.419390  0.250001  0.003252  1
  Co  Co8  1  0.250000  0.750001  0.010765  1
  Co  Co9  1  0.750000  0.750001  0.156523  1
  Co  Co10  1  0.628863  0.250001  0.295847  1
  Co  Co11  1  0.871137  0.250001  0.295847  1
  Co  Co12  1  0.250000  0.250001  0.303063  1
  Co  Co13  1  0.544360  0.750001  0.433391  1
  Co  Co14  1  0.955641  0.750001  0.433391  1
  Co  Co15  1  0.044959  0.250001  0.568537  1
  Co  Co16  1  0.455041  0.250001  0.568537  1
  Co  Co17  1  0.750000  0.750001  0.698850  1
  Co  Co18  1  0.127502  0.750001  0.711000  1
  Co  Co19  1  0.372498  0.750001  0.711000  1
  Co  Co20  1  0.250000  0.250001  0.846319  1
  Co  Co21  1  0.750000  0.250001  0.973874  1
  Co  Co22  1  0.584195  0.750001  0.988963  1
  Co  Co23  1  0.915805  0.750001  0.988963  1
  Si  Si24  1  0.605292  0.250001  0.106982  1
  Si  Si25  1  0.894709  0.250001  0.106982  1
  Si  Si26  1  0.250000  0.250001  0.117861  1
  Si  Si27  1  0.750000  0.750001  0.344771  1
  Si  Si28  1  0.250000  0.250001  0.657692  1
  P  P29  1  0.060220  0.250001  0.384077  1
  P  P30  1  0.439780  0.250001  0.384077  1
  P  P31  1  0.559195  0.750001  0.617641  1
  P  P32  1  0.940804  0.750001  0.617641  1
  P  P33  1  0.750000  0.750001  0.877937  1
  P  P34  1  0.096184  0.750001  0.893983  1
  P  P35  1  0.403817  0.750001  0.893983  1
