# generated using pymatgen
data_DyHo5U4O20
_symmetry_space_group_name_H-M   'P 1'
_cell_length_a   6.63232694
_cell_length_b   7.47451576
_cell_length_c   8.38768449
_cell_angle_alpha   100.77712716
_cell_angle_beta   97.66490573
_cell_angle_gamma   107.28238802
_symmetry_Int_Tables_number   1
_chemical_formula_structural   DyHo5U4O20
_chemical_formula_sum   'Dy1 Ho5 U4 O20'
_cell_volume   382.03730845
_cell_formula_units_Z   1
loop_
 _symmetry_equiv_pos_site_id
 _symmetry_equiv_pos_as_xyz
  1  'x, y, z'
loop_
 _atom_site_type_symbol
 _atom_site_label
 _atom_site_symmetry_multiplicity
 _atom_site_fract_x
 _atom_site_fract_y
 _atom_site_fract_z
 _atom_site_occupancy
  Dy  Dy0  1  0.000000  0.500000  0.500000  1
  Ho  Ho1  1  0.614877  0.704020  0.699282  1
  Ho  Ho2  1  0.385123  0.295980  0.300718  1
  Ho  Ho3  1  0.197279  0.896711  0.891542  1
  Ho  Ho4  1  0.802721  0.103289  0.108458  1
  Ho  Ho5  1  0.000000  0.000000  0.500000  1
  U  U6  1  0.401705  0.804394  0.302137  1
  U  U7  1  0.199027  0.399640  0.898804  1
  U  U8  1  0.800973  0.600360  0.101196  1
  U  U9  1  0.598295  0.195606  0.697863  1
  O  O10  1  0.440358  0.531686  0.138206  1
  O  O11  1  0.555026  0.986328  0.841502  1
  O  O12  1  0.266965  0.142434  0.744750  1
  O  O13  1  0.360703  0.593375  0.443154  1
  O  O14  1  0.053592  0.729392  0.334708  1
  O  O15  1  0.444974  0.013672  0.158498  1
  O  O16  1  0.150501  0.182936  0.032538  1
  O  O17  1  0.559642  0.468314  0.861794  1
  O  O18  1  0.854047  0.335329  0.950289  1
  O  O19  1  0.257688  0.608038  0.759201  1
  O  O20  1  0.953206  0.773049  0.652786  1
  O  O21  1  0.352957  0.063245  0.453049  1
  O  O22  1  0.647043  0.936755  0.546951  1
  O  O23  1  0.046794  0.226951  0.347214  1
  O  O24  1  0.742312  0.391962  0.240799  1
  O  O25  1  0.145953  0.664671  0.049711  1
  O  O26  1  0.849499  0.817064  0.967462  1
  O  O27  1  0.946408  0.270608  0.665292  1
  O  O28  1  0.639297  0.406625  0.556846  1
  O  O29  1  0.733035  0.857566  0.255250  1
