# generated using pymatgen
data_Hf2BeAsOs2
_symmetry_space_group_name_H-M   'P 1'
_cell_length_a   7.58909085
_cell_length_b   7.58902892
_cell_length_c   7.58955548
_cell_angle_alpha   127.31884449
_cell_angle_beta   125.16537017
_cell_angle_gamma   79.50745556
_symmetry_Int_Tables_number   1
_chemical_formula_structural   Hf2BeAsOs2
_chemical_formula_sum   'Hf6 Be3 As3 Os6'
_cell_volume   274.63797724
_cell_formula_units_Z   3
loop_
 _symmetry_equiv_pos_site_id
 _symmetry_equiv_pos_as_xyz
  1  'x, y, z'
loop_
 _atom_site_type_symbol
 _atom_site_label
 _atom_site_symmetry_multiplicity
 _atom_site_fract_x
 _atom_site_fract_y
 _atom_site_fract_z
 _atom_site_occupancy
  Hf  Hf0  1  0.442278  0.645172  0.685024  1
  Hf  Hf1  1  0.544977  0.264148  0.200289  1
  Hf  Hf2  1  0.734123  0.850903  0.596293  1
  Hf  Hf3  1  0.254687  0.851383  0.116549  1
  Hf  Hf4  1  0.063941  0.264321  0.718486  1
  Hf  Hf5  1  0.959079  0.644139  0.201897  1
  Be  Be6  1  0.251767  0.254546  0.505063  1
  Be  Be7  1  0.748835  0.252191  0.002358  1
  Be  Be8  1  0.332585  0.586506  0.252821  1
  As  As9  1  0.669317  0.920324  0.250728  1
  As  As10  1  0.163466  0.919679  0.755521  1
  As  As11  1  0.833340  0.586570  0.753411  1
  Os  Os12  1  0.497442  0.493809  0.997825  1
  Os  Os13  1  0.999277  0.492098  0.492234  1
  Os  Os14  1  0.123218  0.260921  0.137023  1
  Os  Os15  1  0.882864  0.013418  0.133728  1
  Os  Os16  1  0.378194  0.006714  0.626526  1
  Os  Os17  1  0.620608  0.252757  0.633826  1
