# generated using pymatgen
data_Tb2DyCd3Si2Au
_symmetry_space_group_name_H-M   'P 1'
_cell_length_a   7.26722401
_cell_length_b   7.26722440
_cell_length_c   4.34376000
_cell_angle_alpha   90.00000000
_cell_angle_beta   90.00000000
_cell_angle_gamma   119.99399920
_symmetry_Int_Tables_number   1
_chemical_formula_structural   Tb2DyCd3Si2Au
_chemical_formula_sum   'Tb2 Dy1 Cd3 Si2 Au1'
_cell_volume   198.68259761
_cell_formula_units_Z   1
loop_
 _symmetry_equiv_pos_site_id
 _symmetry_equiv_pos_as_xyz
  1  'x, y, z'
loop_
 _atom_site_type_symbol
 _atom_site_label
 _atom_site_symmetry_multiplicity
 _atom_site_fract_x
 _atom_site_fract_y
 _atom_site_fract_z
 _atom_site_occupancy
  Tb  Tb0  1  0.583162  0.999959  0.000000  1
  Tb  Tb1  1  0.999959  0.583162  0.000000  1
  Dy  Dy2  1  0.416740  0.416740  0.000000  1
  Cd  Cd3  1  0.254640  0.000060  0.500000  1
  Cd  Cd4  1  0.000060  0.254640  0.500000  1
  Cd  Cd5  1  0.745294  0.745294  0.500000  1
  Si  Si6  1  0.333399  0.666564  0.500000  1
  Si  Si7  1  0.666564  0.333399  0.500000  1
  Au  Au8  1  0.000182  0.000182  0.000000  1
