# generated using pymatgen
data_Cs3Rb(SiP)12
_symmetry_space_group_name_H-M   'P 1'
_cell_length_a   3.57649800
_cell_length_b   9.94726483
_cell_length_c   20.57377768
_cell_angle_alpha   89.08053098
_cell_angle_beta   90.00000000
_cell_angle_gamma   90.00000000
_symmetry_Int_Tables_number   1
_chemical_formula_structural   Cs3Rb(SiP)12
_chemical_formula_sum   'Cs3 Rb1 Si12 P12'
_cell_volume   731.84613716
_cell_formula_units_Z   1
loop_
 _symmetry_equiv_pos_site_id
 _symmetry_equiv_pos_as_xyz
  1  'x, y, z'
loop_
 _atom_site_type_symbol
 _atom_site_label
 _atom_site_symmetry_multiplicity
 _atom_site_fract_x
 _atom_site_fract_y
 _atom_site_fract_z
 _atom_site_occupancy
  Cs  Cs0  1  0.000000  0.299471  0.302864  1
  Cs  Cs1  1  0.000000  0.713493  0.692313  1
  Cs  Cs2  1  0.000000  0.213250  0.807929  1
  Rb  Rb3  1  0.000000  0.793681  0.192050  1
  Si  Si4  1  0.500000  0.398439  0.038628  1
  Si  Si5  1  0.500000  0.592555  0.971007  1
  Si  Si6  1  0.500000  0.096148  0.532071  1
  Si  Si7  1  0.500000  0.907340  0.463832  1
  Si  Si8  1  0.000000  0.109735  0.017108  1
  Si  Si9  1  0.000000  0.882208  0.988679  1
  Si  Si10  1  0.000000  0.386996  0.510514  1
  Si  Si11  1  0.000000  0.616180  0.480758  1
  Si  Si12  1  0.000000  0.166801  0.127424  1
  Si  Si13  1  0.000000  0.820277  0.878758  1
  Si  Si14  1  0.000000  0.323123  0.621243  1
  Si  Si15  1  0.000000  0.688327  0.371068  1
  P  P16  1  0.500000  0.098232  0.184610  1
  P  P17  1  0.500000  0.888237  0.821447  1
  P  P18  1  0.500000  0.389608  0.677914  1
  P  P19  1  0.500000  0.624492  0.313598  1
  P  P20  1  0.500000  0.282701  0.463286  1
  P  P21  1  0.500000  0.716946  0.529928  1
  P  P22  1  0.500000  0.216658  0.969620  1
  P  P23  1  0.500000  0.777781  0.037773  1
  P  P24  1  0.000000  0.398534  0.107982  1
  P  P25  1  0.000000  0.589607  0.901586  1
  P  P26  1  0.000000  0.092315  0.601565  1
  P  P27  1  0.000000  0.916863  0.394443  1
