# generated using pymatgen
data_Ce3Ho13MgIn3Co4
_symmetry_space_group_name_H-M   'P 1'
_cell_length_a   9.49318540
_cell_length_b   9.55426319
_cell_length_c   9.55426300
_cell_angle_alpha   60.00000413
_cell_angle_beta   59.78694469
_cell_angle_gamma   59.78694353
_symmetry_Int_Tables_number   1
_chemical_formula_structural   Ce3Ho13MgIn3Co4
_chemical_formula_sum   'Ce3 Ho13 Mg1 In3 Co4'
_cell_volume   610.78064062
_cell_formula_units_Z   1
loop_
 _symmetry_equiv_pos_site_id
 _symmetry_equiv_pos_as_xyz
  1  'x, y, z'
loop_
 _atom_site_type_symbol
 _atom_site_label
 _atom_site_symmetry_multiplicity
 _atom_site_fract_x
 _atom_site_fract_y
 _atom_site_fract_z
 _atom_site_occupancy
  Ce  Ce0  1  0.338715  0.344397  0.344397  1
  Ce  Ce1  1  0.338715  0.344397  0.972493  1
  Ce  Ce2  1  0.338715  0.972493  0.344397  1
  Ho  Ho3  1  0.950776  0.349742  0.349742  1
  Ho  Ho4  1  0.812030  0.188299  0.188299  1
  Ho  Ho5  1  0.186245  0.813470  0.813470  1
  Ho  Ho6  1  0.186245  0.813470  0.186816  1
  Ho  Ho7  1  0.812030  0.188299  0.811373  1
  Ho  Ho8  1  0.186245  0.186816  0.813470  1
  Ho  Ho9  1  0.812030  0.811373  0.188299  1
  Ho  Ho10  1  0.936629  0.564502  0.564502  1
  Ho  Ho11  1  0.560535  0.939110  0.939110  1
  Ho  Ho12  1  0.560535  0.939110  0.561244  1
  Ho  Ho13  1  0.936629  0.564502  0.934366  1
  Ho  Ho14  1  0.560535  0.561244  0.939110  1
  Ho  Ho15  1  0.936629  0.934366  0.564502  1
  Mg  Mg16  1  0.266020  0.577993  0.577993  1
  In  In17  1  0.580367  0.583434  0.583434  1
  In  In18  1  0.580367  0.583434  0.252765  1
  In  In19  1  0.580367  0.252765  0.583434  1
  Co  Co20  1  0.158907  0.137971  0.137971  1
  Co  Co21  1  0.158907  0.137971  0.565151  1
  Co  Co22  1  0.158907  0.565151  0.137971  1
  Co  Co23  1  0.562924  0.145692  0.145692  1
