# generated using pymatgen
data_La3Yb2Sb3C
_symmetry_space_group_name_H-M   'P 1'
_cell_length_a   9.29090800
_cell_length_b   9.29090906
_cell_length_c   6.84163800
_cell_angle_alpha   90.00000000
_cell_angle_beta   90.00000000
_cell_angle_gamma   120.00000334
_symmetry_Int_Tables_number   1
_chemical_formula_structural   La3Yb2Sb3C
_chemical_formula_sum   'La6 Yb4 Sb6 C2'
_cell_volume   511.45458626
_cell_formula_units_Z   2
loop_
 _symmetry_equiv_pos_site_id
 _symmetry_equiv_pos_as_xyz
  1  'x, y, z'
loop_
 _atom_site_type_symbol
 _atom_site_label
 _atom_site_symmetry_multiplicity
 _atom_site_fract_x
 _atom_site_fract_y
 _atom_site_fract_z
 _atom_site_occupancy
  La  La0  1  0.781439  0.781439  0.250000  1
  La  La1  1  0.218561  0.000000  0.250000  1
  La  La2  1  0.000000  0.218561  0.250000  1
  La  La3  1  0.218561  0.218561  0.750000  1
  La  La4  1  0.781439  0.000000  0.750000  1
  La  La5  1  0.000000  0.781439  0.750000  1
  Yb  Yb6  1  0.666667  0.333333  0.500000  1
  Yb  Yb7  1  0.333333  0.666667  0.500000  1
  Yb  Yb8  1  0.333333  0.666667  0.000000  1
  Yb  Yb9  1  0.666667  0.333333  0.000000  1
  Sb  Sb10  1  0.406246  0.406246  0.250000  1
  Sb  Sb11  1  0.593754  0.000000  0.250000  1
  Sb  Sb12  1  0.000000  0.593754  0.250000  1
  Sb  Sb13  1  0.593754  0.593754  0.750000  1
  Sb  Sb14  1  0.406246  0.000000  0.750000  1
  Sb  Sb15  1  0.000000  0.406246  0.750000  1
  C  C16  1  0.000000  0.000000  0.500000  1
  C  C17  1  0.000000  0.000000  0.000000  1
