# generated using pymatgen
data_HoBi3IrRh3O14
_symmetry_space_group_name_H-M   'P 1'
_cell_length_a   7.31008170
_cell_length_b   7.34924351
_cell_length_c   7.35176100
_cell_angle_alpha   59.98866337
_cell_angle_beta   59.81120754
_cell_angle_gamma   59.67416125
_symmetry_Int_Tables_number   1
_chemical_formula_structural   HoBi3IrRh3O14
_chemical_formula_sum   'Ho1 Bi3 Ir1 Rh3 O14'
_cell_volume   278.16531184
_cell_formula_units_Z   1
loop_
 _symmetry_equiv_pos_site_id
 _symmetry_equiv_pos_as_xyz
  1  'x, y, z'
loop_
 _atom_site_type_symbol
 _atom_site_label
 _atom_site_symmetry_multiplicity
 _atom_site_fract_x
 _atom_site_fract_y
 _atom_site_fract_z
 _atom_site_occupancy
  Ho  Ho0  1  0.625000  0.125000  0.125000  1
  Bi  Bi1  1  0.125000  0.125000  0.125000  1
  Bi  Bi2  1  0.125000  0.625000  0.125000  1
  Bi  Bi3  1  0.125000  0.125000  0.625000  1
  Ir  Ir4  1  0.625000  0.125000  0.625000  1
  Rh  Rh5  1  0.625000  0.625000  0.625000  1
  Rh  Rh6  1  0.625000  0.625000  0.125000  1
  Rh  Rh7  1  0.125000  0.625000  0.625000  1
  O  O8  1  0.258057  0.245989  0.247977  1
  O  O9  1  0.291429  0.709806  0.291948  1
  O  O10  1  0.952995  0.958814  0.544095  1
  O  O11  1  0.545930  0.962661  0.534160  1
  O  O12  1  0.704501  0.719224  0.288137  1
  O  O13  1  0.958571  0.540194  0.543182  1
  O  O14  1  0.704070  0.287339  0.715840  1
  O  O15  1  0.297005  0.291186  0.705905  1
  O  O16  1  0.704070  0.287339  0.292750  1
  O  O17  1  0.291429  0.709806  0.706818  1
  O  O18  1  0.958571  0.540194  0.958052  1
  O  O19  1  0.545499  0.530776  0.961863  1
  O  O20  1  0.991943  0.004011  0.002023  1
  O  O21  1  0.545930  0.962661  0.957250  1
