# generated using pymatgen
data_Zr2ReMo2W
_symmetry_space_group_name_H-M   'P 1'
_cell_length_a   5.38420830
_cell_length_b   5.38560971
_cell_length_c   5.38561068
_cell_angle_alpha   119.91290993
_cell_angle_beta   120.09696033
_cell_angle_gamma   89.99900955
_symmetry_Int_Tables_number   1
_chemical_formula_structural   Zr2ReMo2W
_chemical_formula_sum   'Zr2 Re1 Mo2 W1'
_cell_volume   110.41155315
_cell_formula_units_Z   1
loop_
 _symmetry_equiv_pos_site_id
 _symmetry_equiv_pos_as_xyz
  1  'x, y, z'
loop_
 _atom_site_type_symbol
 _atom_site_label
 _atom_site_symmetry_multiplicity
 _atom_site_fract_x
 _atom_site_fract_y
 _atom_site_fract_z
 _atom_site_occupancy
  Zr  Zr0  1  0.376897  0.125467  0.251429  1
  Zr  Zr1  1  0.623103  0.874533  0.748571  1
  Re  Re2  1  0.500000  0.500000  0.000000  1
  Mo  Mo3  1  0.000000  0.500000  0.000000  1
  Mo  Mo4  1  0.000000  0.000000  0.500000  1
  W  W5  1  0.000000  0.500000  0.500000  1
