# generated using pymatgen
data_Ce2Er3(In2Ru)2
_symmetry_space_group_name_H-M   'P 1'
_cell_length_a   3.67685400
_cell_length_b   8.06016000
_cell_length_c   18.17193100
_cell_angle_alpha   90.00000000
_cell_angle_beta   90.00000000
_cell_angle_gamma   90.00000000
_symmetry_Int_Tables_number   1
_chemical_formula_structural   Ce2Er3(In2Ru)2
_chemical_formula_sum   'Ce4 Er6 In8 Ru4'
_cell_volume   538.54392020
_cell_formula_units_Z   2
loop_
 _symmetry_equiv_pos_site_id
 _symmetry_equiv_pos_as_xyz
  1  'x, y, z'
loop_
 _atom_site_type_symbol
 _atom_site_label
 _atom_site_symmetry_multiplicity
 _atom_site_fract_x
 _atom_site_fract_y
 _atom_site_fract_z
 _atom_site_occupancy
  Ce  Ce0  1  0.000000  0.755577  0.277828  1
  Ce  Ce1  1  0.000000  0.244423  0.722172  1
  Ce  Ce2  1  0.000000  0.744423  0.777828  1
  Ce  Ce3  1  0.000000  0.255577  0.222172  1
  Er  Er4  1  0.000000  0.500000  0.500000  1
  Er  Er5  1  0.000000  0.000000  0.000000  1
  Er  Er6  1  0.000000  0.613814  0.089456  1
  Er  Er7  1  0.000000  0.386186  0.910544  1
  Er  Er8  1  0.000000  0.886186  0.589456  1
  Er  Er9  1  0.000000  0.113814  0.410544  1
  In  In10  1  0.500000  0.701556  0.937166  1
  In  In11  1  0.500000  0.298444  0.062834  1
  In  In12  1  0.500000  0.798444  0.437166  1
  In  In13  1  0.500000  0.201556  0.562834  1
  In  In14  1  0.500000  0.561617  0.643118  1
  In  In15  1  0.500000  0.438383  0.356882  1
  In  In16  1  0.500000  0.938383  0.143118  1
  In  In17  1  0.500000  0.061617  0.856882  1
  Ru  Ru18  1  0.500000  0.496336  0.201434  1
  Ru  Ru19  1  0.500000  0.503664  0.798566  1
  Ru  Ru20  1  0.500000  0.003664  0.701434  1
  Ru  Ru21  1  0.500000  0.996336  0.298566  1
