# generated using pymatgen
data_Tb6YbPtBr12
_symmetry_space_group_name_H-M   'P 1'
_cell_length_a   9.30881870
_cell_length_b   9.30881815
_cell_length_c   9.30881896
_cell_angle_alpha   106.87041830
_cell_angle_beta   106.87041575
_cell_angle_gamma   106.87042048
_symmetry_Int_Tables_number   1
_chemical_formula_structural   Tb6YbPtBr12
_chemical_formula_sum   'Tb6 Yb1 Pt1 Br12'
_cell_volume   674.14417523
_cell_formula_units_Z   1
loop_
 _symmetry_equiv_pos_site_id
 _symmetry_equiv_pos_as_xyz
  1  'x, y, z'
loop_
 _atom_site_type_symbol
 _atom_site_label
 _atom_site_symmetry_multiplicity
 _atom_site_fract_x
 _atom_site_fract_y
 _atom_site_fract_z
 _atom_site_occupancy
  Tb  Tb0  1  0.104445  0.026200  0.315500  1
  Tb  Tb1  1  0.315500  0.104445  0.026200  1
  Tb  Tb2  1  0.026200  0.315500  0.104445  1
  Tb  Tb3  1  0.895555  0.973800  0.684500  1
  Tb  Tb4  1  0.684500  0.895555  0.973800  1
  Tb  Tb5  1  0.973800  0.684500  0.895555  1
  Yb  Yb6  1  0.500000  0.500000  0.500000  1
  Pt  Pt7  1  0.000000  0.000000  0.000000  1
  Br  Br8  1  0.074304  0.679539  0.221082  1
  Br  Br9  1  0.221082  0.074304  0.679539  1
  Br  Br10  1  0.679539  0.221082  0.074304  1
  Br  Br11  1  0.925696  0.320461  0.778918  1
  Br  Br12  1  0.778918  0.925696  0.320461  1
  Br  Br13  1  0.320461  0.778918  0.925696  1
  Br  Br14  1  0.455944  0.160912  0.379286  1
  Br  Br15  1  0.379286  0.455944  0.160912  1
  Br  Br16  1  0.160912  0.379286  0.455944  1
  Br  Br17  1  0.544056  0.839088  0.620714  1
  Br  Br18  1  0.620714  0.544056  0.839088  1
  Br  Br19  1  0.839088  0.620714  0.544056  1
