# generated using pymatgen
data_Lu3BeP2Ir3
_symmetry_space_group_name_H-M   'P 1'
_cell_length_a   6.60009100
_cell_length_b   6.60009084
_cell_length_c   3.83459100
_cell_angle_alpha   90.00000000
_cell_angle_beta   90.00000000
_cell_angle_gamma   120.00000581
_symmetry_Int_Tables_number   1
_chemical_formula_structural   Lu3BeP2Ir3
_chemical_formula_sum   'Lu3 Be1 P2 Ir3'
_cell_volume   144.66034328
_cell_formula_units_Z   1
loop_
 _symmetry_equiv_pos_site_id
 _symmetry_equiv_pos_as_xyz
  1  'x, y, z'
loop_
 _atom_site_type_symbol
 _atom_site_label
 _atom_site_symmetry_multiplicity
 _atom_site_fract_x
 _atom_site_fract_y
 _atom_site_fract_z
 _atom_site_occupancy
  Lu  Lu0  1  0.000000  0.408245  0.500000  1
  Lu  Lu1  1  0.591755  0.591755  0.500000  1
  Lu  Lu2  1  0.408245  0.000000  0.500000  1
  Be  Be3  1  0.000000  0.000000  0.500000  1
  P  P4  1  0.666667  0.333333  0.000000  1
  P  P5  1  0.333333  0.666667  0.000000  1
  Ir  Ir6  1  0.000000  0.761936  0.000000  1
  Ir  Ir7  1  0.238064  0.238064  0.000000  1
  Ir  Ir8  1  0.761936  0.000000  0.000000  1
