# generated using pymatgen
data_Nd2I5
_symmetry_space_group_name_H-M   'P 1'
_cell_length_a   4.33830400
_cell_length_b   9.28346905
_cell_length_c   14.85474319
_cell_angle_alpha   86.02279604
_cell_angle_beta   90.00000000
_cell_angle_gamma   90.00000000
_symmetry_Int_Tables_number   1
_chemical_formula_structural   Nd2I5
_chemical_formula_sum   'Nd4 I10'
_cell_volume   596.82672393
_cell_formula_units_Z   2
loop_
 _symmetry_equiv_pos_site_id
 _symmetry_equiv_pos_as_xyz
  1  'x, y, z'
loop_
 _atom_site_type_symbol
 _atom_site_label
 _atom_site_symmetry_multiplicity
 _atom_site_fract_x
 _atom_site_fract_y
 _atom_site_fract_z
 _atom_site_occupancy
  Nd  Nd0  1  0.250000  0.899891  0.152122  1
  Nd  Nd1  1  0.750000  0.100109  0.847878  1
  Nd  Nd2  1  0.250000  0.412006  0.657499  1
  Nd  Nd3  1  0.750000  0.587994  0.342501  1
  I  I4  1  0.250000  0.366017  0.284042  1
  I  I5  1  0.750000  0.633983  0.715958  1
  I  I6  1  0.250000  0.865436  0.928212  1
  I  I7  1  0.750000  0.134564  0.071788  1
  I  I8  1  0.750000  0.318529  0.513870  1
  I  I9  1  0.250000  0.681471  0.486130  1
  I  I10  1  0.750000  0.938883  0.309899  1
  I  I11  1  0.250000  0.061117  0.690101  1
  I  I12  1  0.750000  0.652263  0.125037  1
  I  I13  1  0.250000  0.347737  0.874963  1
