# generated using pymatgen
data_NaAg(NO3)4
_symmetry_space_group_name_H-M   'P 1'
_cell_length_a   7.97080488
_cell_length_b   7.57575200
_cell_length_c   8.55965938
_cell_angle_alpha   90.00000000
_cell_angle_beta   85.84675267
_cell_angle_gamma   90.00000000
_symmetry_Int_Tables_number   1
_chemical_formula_structural   NaAg(NO3)4
_chemical_formula_sum   'Na2 Ag2 N8 O24'
_cell_volume   515.51631222
_cell_formula_units_Z   2
loop_
 _symmetry_equiv_pos_site_id
 _symmetry_equiv_pos_as_xyz
  1  'x, y, z'
loop_
 _atom_site_type_symbol
 _atom_site_label
 _atom_site_symmetry_multiplicity
 _atom_site_fract_x
 _atom_site_fract_y
 _atom_site_fract_z
 _atom_site_occupancy
  Na  Na0  1  0.000000  0.500000  0.000000  1
  Na  Na1  1  0.000000  0.000000  0.500000  1
  Ag  Ag2  1  0.500000  0.500000  0.500000  1
  Ag  Ag3  1  0.500000  0.000000  0.000000  1
  N  N4  1  0.671659  0.187698  0.355681  1
  N  N5  1  0.671659  0.312302  0.855681  1
  N  N6  1  0.818429  0.846270  0.828397  1
  N  N7  1  0.818429  0.653730  0.328397  1
  N  N8  1  0.181571  0.153730  0.171603  1
  N  N9  1  0.181571  0.346270  0.671603  1
  N  N10  1  0.328341  0.687698  0.144319  1
  N  N11  1  0.328341  0.812302  0.644319  1
  O  O12  1  0.543585  0.205827  0.837955  1
  O  O13  1  0.543585  0.294173  0.337955  1
  O  O14  1  0.686420  0.436515  0.761489  1
  O  O15  1  0.686420  0.063485  0.261489  1
  O  O16  1  0.715582  0.662481  0.456000  1
  O  O17  1  0.715582  0.837519  0.956000  1
  O  O18  1  0.766849  0.283711  0.961226  1
  O  O19  1  0.766849  0.216289  0.461226  1
  O  O20  1  0.792327  0.951636  0.722623  1
  O  O21  1  0.792327  0.548364  0.222623  1
  O  O22  1  0.939350  0.742170  0.825370  1
  O  O23  1  0.939350  0.757830  0.325370  1
  O  O24  1  0.060650  0.242170  0.674630  1
  O  O25  1  0.060650  0.257830  0.174630  1
  O  O26  1  0.207673  0.451636  0.777377  1
  O  O27  1  0.207673  0.048364  0.277377  1
  O  O28  1  0.233151  0.716289  0.038774  1
  O  O29  1  0.233151  0.783711  0.538774  1
  O  O30  1  0.284418  0.162481  0.044000  1
  O  O31  1  0.284418  0.337519  0.544000  1
  O  O32  1  0.313580  0.563485  0.238511  1
  O  O33  1  0.313580  0.936515  0.738511  1
  O  O34  1  0.456415  0.705827  0.662045  1
  O  O35  1  0.456415  0.794173  0.162045  1
