# generated using pymatgen
data_Sn4IrSe10
_symmetry_space_group_name_H-M   'P 1'
_cell_length_a   6.74621185
_cell_length_b   7.18285216
_cell_length_c   9.13547671
_cell_angle_alpha   102.87207322
_cell_angle_beta   112.41468436
_cell_angle_gamma   89.21047123
_symmetry_Int_Tables_number   1
_chemical_formula_structural   Sn4IrSe10
_chemical_formula_sum   'Sn4 Ir1 Se10'
_cell_volume   397.70321570
_cell_formula_units_Z   1
loop_
 _symmetry_equiv_pos_site_id
 _symmetry_equiv_pos_as_xyz
  1  'x, y, z'
loop_
 _atom_site_type_symbol
 _atom_site_label
 _atom_site_symmetry_multiplicity
 _atom_site_fract_x
 _atom_site_fract_y
 _atom_site_fract_z
 _atom_site_occupancy
  Sn  Sn0  1  0.200511  0.400202  0.899707  1
  Sn  Sn1  1  0.401498  0.800198  0.300025  1
  Sn  Sn2  1  0.598502  0.199802  0.699975  1
  Sn  Sn3  1  0.799489  0.599798  0.100293  1
  Ir  Ir4  1  0.000000  0.000000  0.500000  1
  Se  Se5  1  0.886871  0.325790  0.589488  1
  Se  Se6  1  0.749031  0.855623  0.595438  1
  Se  Se7  1  0.081362  0.755939  0.991721  1
  Se  Se8  1  0.918638  0.244061  0.008279  1
  Se  Se9  1  0.250969  0.144377  0.404562  1
  Se  Se10  1  0.113129  0.674210  0.410512  1
  Se  Se11  1  0.485303  0.563723  0.798800  1
  Se  Se12  1  0.296160  0.041441  0.776990  1
  Se  Se13  1  0.703840  0.958559  0.223010  1
  Se  Se14  1  0.514697  0.436277  0.201200  1
