# generated using pymatgen
data_CeSm11Si12PdAu11
_symmetry_space_group_name_H-M   'P 1'
_cell_length_a   4.34292500
_cell_length_b   7.51405847
_cell_length_c   23.79181691
_cell_angle_alpha   90.04310138
_cell_angle_beta   90.00000000
_cell_angle_gamma   90.00000000
_symmetry_Int_Tables_number   1
_chemical_formula_structural   CeSm11Si12PdAu11
_chemical_formula_sum   'Ce1 Sm11 Si12 Pd1 Au11'
_cell_volume   776.39795966
_cell_formula_units_Z   1
loop_
 _symmetry_equiv_pos_site_id
 _symmetry_equiv_pos_as_xyz
  1  'x, y, z'
loop_
 _atom_site_type_symbol
 _atom_site_label
 _atom_site_symmetry_multiplicity
 _atom_site_fract_x
 _atom_site_fract_y
 _atom_site_fract_z
 _atom_site_occupancy
  Ce  Ce0  1  0.750000  0.243519  0.663255  1
  Sm  Sm1  1  0.250000  0.747557  0.334170  1
  Sm  Sm2  1  0.750000  0.248429  0.167001  1
  Sm  Sm3  1  0.250000  0.750000  0.832812  1
  Sm  Sm4  1  0.250000  0.751005  0.167291  1
  Sm  Sm5  1  0.750000  0.249401  0.833519  1
  Sm  Sm6  1  0.750000  0.252618  0.334309  1
  Sm  Sm7  1  0.250000  0.755169  0.663916  1
  Sm  Sm8  1  0.250000  0.749589  0.000151  1
  Sm  Sm9  1  0.750000  0.250783  0.000471  1
  Sm  Sm10  1  0.750000  0.244929  0.501359  1
  Sm  Sm11  1  0.250000  0.756389  0.501273  1
  Si  Si12  1  0.250000  0.083693  0.080518  1
  Si  Si13  1  0.750000  0.916367  0.920696  1
  Si  Si14  1  0.750000  0.583798  0.421167  1
  Si  Si15  1  0.250000  0.411854  0.584090  1
  Si  Si16  1  0.250000  0.083470  0.251071  1
  Si  Si17  1  0.750000  0.915874  0.747743  1
  Si  Si18  1  0.750000  0.583260  0.250917  1
  Si  Si19  1  0.250000  0.416871  0.742821  1
  Si  Si20  1  0.250000  0.084592  0.419673  1
  Si  Si21  1  0.750000  0.920827  0.583013  1
  Si  Si22  1  0.750000  0.583328  0.081142  1
  Si  Si23  1  0.250000  0.416468  0.918639  1
  Pd  Pd24  1  0.250000  0.082876  0.582717  1
  Au  Au25  1  0.250000  0.416027  0.250015  1
  Au  Au26  1  0.750000  0.582338  0.750916  1
  Au  Au27  1  0.750000  0.916700  0.251461  1
  Au  Au28  1  0.250000  0.083489  0.751423  1
  Au  Au29  1  0.250000  0.417654  0.416972  1
  Au  Au30  1  0.750000  0.584421  0.581829  1
  Au  Au31  1  0.750000  0.916454  0.086434  1
  Au  Au32  1  0.250000  0.083132  0.913324  1
  Au  Au33  1  0.250000  0.416879  0.086904  1
  Au  Au34  1  0.750000  0.583446  0.912913  1
  Au  Au35  1  0.750000  0.916793  0.414078  1
