# generated using pymatgen
data_Nd3Dy(WN3)4
_symmetry_space_group_name_H-M   'P 1'
_cell_length_a   7.37460106
_cell_length_b   7.37460021
_cell_length_c   6.33164961
_cell_angle_alpha   75.28760993
_cell_angle_beta   75.28761876
_cell_angle_gamma   83.43644969
_symmetry_Int_Tables_number   1
_chemical_formula_structural   Nd3Dy(WN3)4
_chemical_formula_sum   'Nd3 Dy1 W4 N12'
_cell_volume   321.67821490
_cell_formula_units_Z   1
loop_
 _symmetry_equiv_pos_site_id
 _symmetry_equiv_pos_as_xyz
  1  'x, y, z'
loop_
 _atom_site_type_symbol
 _atom_site_label
 _atom_site_symmetry_multiplicity
 _atom_site_fract_x
 _atom_site_fract_y
 _atom_site_fract_z
 _atom_site_occupancy
  Nd  Nd0  1  0.697760  0.302240  0.750000  1
  Nd  Nd1  1  0.088470  0.911530  0.750000  1
  Nd  Nd2  1  0.303058  0.696942  0.250000  1
  Dy  Dy3  1  0.908744  0.091256  0.250000  1
  W  W4  1  0.381036  0.200714  0.241584  1
  W  W5  1  0.620768  0.798947  0.754104  1
  W  W6  1  0.799286  0.618964  0.258416  1
  W  W7  1  0.201053  0.379232  0.745896  1
  N  N8  1  0.620142  0.111024  0.159399  1
  N  N9  1  0.360178  0.341332  0.469886  1
  N  N10  1  0.000680  0.221975  0.857682  1
  N  N11  1  0.383954  0.888020  0.846889  1
  N  N12  1  0.778025  0.999320  0.642318  1
  N  N13  1  0.111980  0.616046  0.653111  1
  N  N14  1  0.888976  0.379858  0.340601  1
  N  N15  1  0.634302  0.649909  0.534895  1
  N  N16  1  0.658668  0.639822  0.030114  1
  N  N17  1  0.350091  0.365698  0.965105  1
  N  N18  1  0.994641  0.781814  0.158858  1
  N  N19  1  0.218186  0.005359  0.341142  1
