# generated using pymatgen
data_Tb2Dy4InCoOs
_symmetry_space_group_name_H-M   'P 1'
_cell_length_a   8.43141804
_cell_length_b   8.43141900
_cell_length_c   8.43141844
_cell_angle_alpha   112.96623728
_cell_angle_beta   110.05554800
_cell_angle_gamma   105.47871342
_symmetry_Int_Tables_number   1
_chemical_formula_structural   Tb2Dy4InCoOs
_chemical_formula_sum   'Tb4 Dy8 In2 Co2 Os2'
_cell_volume   459.41757890
_cell_formula_units_Z   2
loop_
 _symmetry_equiv_pos_site_id
 _symmetry_equiv_pos_as_xyz
  1  'x, y, z'
loop_
 _atom_site_type_symbol
 _atom_site_label
 _atom_site_symmetry_multiplicity
 _atom_site_fract_x
 _atom_site_fract_y
 _atom_site_fract_z
 _atom_site_occupancy
  Tb  Tb0  1  0.442453  0.241835  0.200619  1
  Tb  Tb1  1  0.557547  0.758165  0.799381  1
  Tb  Tb2  1  0.041216  0.241835  0.799381  1
  Tb  Tb3  1  0.958784  0.758165  0.200619  1
  Dy  Dy4  1  0.183534  0.284271  0.467806  1
  Dy  Dy5  1  0.816466  0.715729  0.532194  1
  Dy  Dy6  1  0.183534  0.715729  0.899263  1
  Dy  Dy7  1  0.816466  0.284271  0.100737  1
  Dy  Dy8  1  0.324757  0.641282  0.316524  1
  Dy  Dy9  1  0.675243  0.358718  0.683476  1
  Dy  Dy10  1  0.324757  0.008233  0.683476  1
  Dy  Dy11  1  0.675243  0.991767  0.316524  1
  In  In12  1  0.500000  0.500000  0.000000  1
  In  In13  1  0.000000  0.000000  0.000000  1
  Co  Co14  1  0.110773  0.610773  0.500000  1
  Co  Co15  1  0.889227  0.389227  0.500000  1
  Os  Os16  1  0.330760  0.000000  0.330760  1
  Os  Os17  1  0.669240  0.000000  0.669240  1
