# generated using pymatgen
data_Dy2ErCd3Sn2Au
_symmetry_space_group_name_H-M   'P 1'
_cell_length_a   7.48780600
_cell_length_b   7.47876164
_cell_length_c   4.52863700
_cell_angle_alpha   90.00000000
_cell_angle_beta   90.00000000
_cell_angle_gamma   120.04002155
_symmetry_Int_Tables_number   1
_chemical_formula_structural   Dy2ErCd3Sn2Au
_chemical_formula_sum   'Dy2 Er1 Cd3 Sn2 Au1'
_cell_volume   219.53670037
_cell_formula_units_Z   1
loop_
 _symmetry_equiv_pos_site_id
 _symmetry_equiv_pos_as_xyz
  1  'x, y, z'
loop_
 _atom_site_type_symbol
 _atom_site_label
 _atom_site_symmetry_multiplicity
 _atom_site_fract_x
 _atom_site_fract_y
 _atom_site_fract_z
 _atom_site_occupancy
  Dy  Dy0  1  0.000078  0.593588  0.000000  1
  Dy  Dy1  1  0.406489  0.406412  0.000000  1
  Er  Er2  1  0.593965  0.000000  0.000000  1
  Cd  Cd3  1  0.240532  0.000000  0.500000  1
  Cd  Cd4  1  0.999802  0.240181  0.500000  1
  Cd  Cd5  1  0.759621  0.759819  0.500000  1
  Sn  Sn6  1  0.333919  0.667525  0.500000  1
  Sn  Sn7  1  0.666395  0.332475  0.500000  1
  Au  Au8  1  0.999200  0.000000  0.000000  1
