# generated using pymatgen
data_Tm5Si3P9Ir19
_symmetry_space_group_name_H-M   'P 1'
_cell_length_a   12.61154300
_cell_length_b   12.61154221
_cell_length_c   3.93430100
_cell_angle_alpha   90.00000000
_cell_angle_beta   90.00000000
_cell_angle_gamma   119.99999944
_symmetry_Int_Tables_number   1
_chemical_formula_structural   Tm5Si3P9Ir19
_chemical_formula_sum   'Tm5 Si3 P9 Ir19'
_cell_volume   541.91932744
_cell_formula_units_Z   1
loop_
 _symmetry_equiv_pos_site_id
 _symmetry_equiv_pos_as_xyz
  1  'x, y, z'
loop_
 _atom_site_type_symbol
 _atom_site_label
 _atom_site_symmetry_multiplicity
 _atom_site_fract_x
 _atom_site_fract_y
 _atom_site_fract_z
 _atom_site_occupancy
  Tm  Tm0  1  0.666667  0.333333  0.000000  1
  Tm  Tm1  1  0.333333  0.666667  0.000000  1
  Tm  Tm2  1  0.817442  0.814080  0.500000  1
  Tm  Tm3  1  0.185920  0.003363  0.500000  1
  Tm  Tm4  1  0.996637  0.182558  0.500000  1
  Si  Si5  1  0.678969  0.161232  0.500000  1
  Si  Si6  1  0.838768  0.517737  0.500000  1
  Si  Si7  1  0.482263  0.321031  0.500000  1
  P  P8  1  0.177682  0.693802  0.500000  1
  P  P9  1  0.516120  0.822318  0.500000  1
  P  P10  1  0.306198  0.483880  0.500000  1
  P  P11  1  0.644843  0.639570  0.000000  1
  P  P12  1  0.360430  0.005273  0.000000  1
  P  P13  1  0.994727  0.355157  0.000000  1
  P  P14  1  0.174559  0.181008  0.000000  1
  P  P15  1  0.818992  0.993553  0.000000  1
  P  P16  1  0.006447  0.825441  0.000000  1
  Ir  Ir17  1  0.805915  0.173988  0.000000  1
  Ir  Ir18  1  0.826012  0.631927  0.000000  1
  Ir  Ir19  1  0.368073  0.194085  0.000000  1
  Ir  Ir20  1  0.187876  0.808839  0.000000  1
  Ir  Ir21  1  0.620962  0.812124  0.000000  1
  Ir  Ir22  1  0.191161  0.379038  0.000000  1
  Ir  Ir23  1  0.467272  0.452044  0.000000  1
  Ir  Ir24  1  0.547956  0.015227  0.000000  1
  Ir  Ir25  1  0.984773  0.532728  0.000000  1
  Ir  Ir26  1  0.276057  0.283653  0.500000  1
  Ir  Ir27  1  0.716347  0.992404  0.500000  1
  Ir  Ir28  1  0.007596  0.723943  0.500000  1
  Ir  Ir29  1  0.867372  0.350500  0.500000  1
  Ir  Ir30  1  0.649500  0.516874  0.500000  1
  Ir  Ir31  1  0.483126  0.132628  0.500000  1
  Ir  Ir32  1  0.368112  0.871425  0.500000  1
  Ir  Ir33  1  0.503315  0.631888  0.500000  1
  Ir  Ir34  1  0.128575  0.496685  0.500000  1
  Ir  Ir35  1  0.000000  0.000000  0.000000  1
