# generated using pymatgen
data_TbTm5Mn3Co14NiP12
_symmetry_space_group_name_H-M   'P 1'
_cell_length_a   3.68304300
_cell_length_b   10.52068000
_cell_length_c   12.12310700
_cell_angle_alpha   90.00000000
_cell_angle_beta   90.00000000
_cell_angle_gamma   90.00000000
_symmetry_Int_Tables_number   1
_chemical_formula_structural   TbTm5Mn3Co14NiP12
_chemical_formula_sum   'Tb1 Tm5 Mn3 Co14 Ni1 P12'
_cell_volume   469.74756637
_cell_formula_units_Z   1
loop_
 _symmetry_equiv_pos_site_id
 _symmetry_equiv_pos_as_xyz
  1  'x, y, z'
loop_
 _atom_site_type_symbol
 _atom_site_label
 _atom_site_symmetry_multiplicity
 _atom_site_fract_x
 _atom_site_fract_y
 _atom_site_fract_z
 _atom_site_occupancy
  Tb  Tb0  1  0.500000  0.000000  0.477049  1
  Tm  Tm1  1  0.000000  0.500000  0.521598  1
  Tm  Tm2  1  0.500000  0.818460  0.204670  1
  Tm  Tm3  1  0.500000  0.181540  0.204670  1
  Tm  Tm4  1  0.000000  0.681272  0.796675  1
  Tm  Tm5  1  0.000000  0.318728  0.796675  1
  Mn  Mn6  1  0.500000  0.500000  0.155626  1
  Mn  Mn7  1  0.000000  0.000000  0.841591  1
  Mn  Mn8  1  0.000000  0.500000  0.989081  1
  Co  Co9  1  0.000000  0.000000  0.296584  1
  Co  Co10  1  0.500000  0.000000  0.013575  1
  Co  Co11  1  0.500000  0.330401  0.993711  1
  Co  Co12  1  0.500000  0.669599  0.993711  1
  Co  Co13  1  0.000000  0.165313  0.005159  1
  Co  Co14  1  0.000000  0.834687  0.005159  1
  Co  Co15  1  0.500000  0.297651  0.430790  1
  Co  Co16  1  0.500000  0.702349  0.430790  1
  Co  Co17  1  0.000000  0.204426  0.569665  1
  Co  Co18  1  0.000000  0.795574  0.569665  1
  Co  Co19  1  0.500000  0.877997  0.709665  1
  Co  Co20  1  0.500000  0.122003  0.709665  1
  Co  Co21  1  0.000000  0.621323  0.291338  1
  Co  Co22  1  0.000000  0.378677  0.291338  1
  Ni  Ni23  1  0.500000  0.500000  0.700566  1
  P  P24  1  0.500000  0.500000  0.883186  1
  P  P25  1  0.000000  0.000000  0.117778  1
  P  P26  1  0.500000  0.500000  0.347378  1
  P  P27  1  0.000000  0.000000  0.655726  1
  P  P28  1  0.500000  0.310704  0.616411  1
  P  P29  1  0.500000  0.689296  0.616411  1
  P  P30  1  0.000000  0.189132  0.382866  1
  P  P31  1  0.000000  0.810868  0.382866  1
  P  P32  1  0.500000  0.846955  0.892180  1
  P  P33  1  0.500000  0.153045  0.892180  1
  P  P34  1  0.000000  0.655449  0.106999  1
  P  P35  1  0.000000  0.344551  0.106999  1
