# generated using pymatgen
data_Pa2Cr3Si4
_symmetry_space_group_name_H-M   'P 1'
_cell_length_a   8.00788400
_cell_length_b   5.47294679
_cell_length_c   6.69828288
_cell_angle_alpha   76.15746514
_cell_angle_beta   90.00000000
_cell_angle_gamma   90.00000000
_symmetry_Int_Tables_number   1
_chemical_formula_structural   Pa2Cr3Si4
_chemical_formula_sum   'Pa4 Cr6 Si8'
_cell_volume   285.03779541
_cell_formula_units_Z   2
loop_
 _symmetry_equiv_pos_site_id
 _symmetry_equiv_pos_as_xyz
  1  'x, y, z'
loop_
 _atom_site_type_symbol
 _atom_site_label
 _atom_site_symmetry_multiplicity
 _atom_site_fract_x
 _atom_site_fract_y
 _atom_site_fract_z
 _atom_site_occupancy
  Pa  Pa0  1  0.944055  0.570436  0.253654  1
  Pa  Pa1  1  0.444055  0.929564  0.746346  1
  Pa  Pa2  1  0.055945  0.429564  0.746346  1
  Pa  Pa3  1  0.555945  0.070436  0.253654  1
  Cr  Cr4  1  0.291323  0.623943  0.104210  1
  Cr  Cr5  1  0.791323  0.876057  0.895790  1
  Cr  Cr6  1  0.708677  0.376057  0.895790  1
  Cr  Cr7  1  0.208677  0.123943  0.104210  1
  Cr  Cr8  1  0.500000  0.500000  0.500000  1
  Cr  Cr9  1  0.000000  0.000000  0.500000  1
  Si  Si10  1  0.592437  0.611759  0.126136  1
  Si  Si11  1  0.092437  0.888241  0.873864  1
  Si  Si12  1  0.407563  0.388241  0.873864  1
  Si  Si13  1  0.907563  0.111759  0.126136  1
  Si  Si14  1  0.749691  0.720863  0.587317  1
  Si  Si15  1  0.249691  0.779137  0.412683  1
  Si  Si16  1  0.250309  0.279137  0.412683  1
  Si  Si17  1  0.750309  0.220863  0.587317  1
