# generated using pymatgen
data_Li8Tb8Sn3Bi5
_symmetry_space_group_name_H-M   'P 1'
_cell_length_a   9.60009562
_cell_length_b   9.60009529
_cell_length_c   7.21411721
_cell_angle_alpha   90.10543995
_cell_angle_beta   89.89454947
_cell_angle_gamma   119.95709336
_symmetry_Int_Tables_number   1
_chemical_formula_structural   Li8Tb8Sn3Bi5
_chemical_formula_sum   'Li8 Tb8 Sn3 Bi5'
_cell_volume   576.03855871
_cell_formula_units_Z   1
loop_
 _symmetry_equiv_pos_site_id
 _symmetry_equiv_pos_as_xyz
  1  'x, y, z'
loop_
 _atom_site_type_symbol
 _atom_site_label
 _atom_site_symmetry_multiplicity
 _atom_site_fract_x
 _atom_site_fract_y
 _atom_site_fract_z
 _atom_site_occupancy
  Li  Li0  1  0.169653  0.830347  0.201035  1
  Li  Li1  1  0.337570  0.168058  0.705376  1
  Li  Li2  1  0.831942  0.662430  0.705376  1
  Li  Li3  1  0.165392  0.336199  0.209464  1
  Li  Li4  1  0.663801  0.834608  0.209464  1
  Li  Li5  1  0.830591  0.169409  0.700044  1
  Li  Li6  1  0.332570  0.667430  0.809678  1
  Li  Li7  1  0.668683  0.331317  0.306644  1
  Tb  Tb8  1  0.510222  0.489778  0.991219  1
  Tb  Tb9  1  0.019750  0.506863  0.487372  1
  Tb  Tb10  1  0.493137  0.980250  0.487372  1
  Tb  Tb11  1  0.517498  0.025103  0.992313  1
  Tb  Tb12  1  0.974897  0.482502  0.992313  1
  Tb  Tb13  1  0.489884  0.510116  0.490160  1
  Tb  Tb14  1  0.996889  0.003111  0.984411  1
  Tb  Tb15  1  0.997535  0.002465  0.479213  1
  Sn  Sn16  1  0.833699  0.166301  0.249089  1
  Sn  Sn17  1  0.333979  0.666021  0.225770  1
  Sn  Sn18  1  0.665968  0.334032  0.725468  1
  Bi  Bi19  1  0.166275  0.833725  0.748555  1
  Bi  Bi20  1  0.332960  0.166607  0.247466  1
  Bi  Bi21  1  0.833393  0.667040  0.247466  1
  Bi  Bi22  1  0.166853  0.333141  0.747368  1
  Bi  Bi23  1  0.666859  0.833147  0.747368  1
