# generated using pymatgen
data_La6Y2ZnPd24
_symmetry_space_group_name_H-M   'P 1'
_cell_length_a   8.51236522
_cell_length_b   8.51236522
_cell_length_c   8.51236522
_cell_angle_alpha   89.82325900
_cell_angle_beta   89.82325900
_cell_angle_gamma   89.82325900
_symmetry_Int_Tables_number   1
_chemical_formula_structural   La6Y2ZnPd24
_chemical_formula_sum   'La6 Y2 Zn1 Pd24'
_cell_volume   616.80027619
_cell_formula_units_Z   1
loop_
 _symmetry_equiv_pos_site_id
 _symmetry_equiv_pos_as_xyz
  1  'x, y, z'
loop_
 _atom_site_type_symbol
 _atom_site_label
 _atom_site_symmetry_multiplicity
 _atom_site_fract_x
 _atom_site_fract_y
 _atom_site_fract_z
 _atom_site_occupancy
  La  La0  1  0.749012  0.749012  0.250123  1
  La  La1  1  0.749012  0.250123  0.749012  1
  La  La2  1  0.250988  0.250988  0.749877  1
  La  La3  1  0.250988  0.749877  0.250988  1
  La  La4  1  0.250123  0.749012  0.749012  1
  La  La5  1  0.749877  0.250988  0.250988  1
  Y  Y6  1  0.250173  0.250173  0.250173  1
  Y  Y7  1  0.749827  0.749827  0.749827  1
  Zn  Zn8  1  0.000000  0.000000  0.000000  1
  Pd  Pd9  1  0.262529  0.497784  0.003668  1
  Pd  Pd10  1  0.737471  0.502216  0.996332  1
  Pd  Pd11  1  0.003668  0.262529  0.497784  1
  Pd  Pd12  1  0.497784  0.262529  0.003668  1
  Pd  Pd13  1  0.996332  0.737471  0.502216  1
  Pd  Pd14  1  0.502216  0.737471  0.996332  1
  Pd  Pd15  1  0.497784  0.003668  0.262529  1
  Pd  Pd16  1  0.262529  0.003668  0.497784  1
  Pd  Pd17  1  0.502216  0.996332  0.737471  1
  Pd  Pd18  1  0.737471  0.996332  0.502216  1
  Pd  Pd19  1  0.003668  0.497784  0.262529  1
  Pd  Pd20  1  0.996332  0.502216  0.737471  1
  Pd  Pd21  1  0.253893  0.497078  0.497078  1
  Pd  Pd22  1  0.746107  0.502922  0.502922  1
  Pd  Pd23  1  0.497078  0.253893  0.497078  1
  Pd  Pd24  1  0.502922  0.746107  0.502922  1
  Pd  Pd25  1  0.497078  0.497078  0.253893  1
  Pd  Pd26  1  0.502922  0.502922  0.746107  1
  Pd  Pd27  1  0.297187  0.002895  0.002895  1
  Pd  Pd28  1  0.702813  0.997105  0.997105  1
  Pd  Pd29  1  0.002895  0.297187  0.002895  1
  Pd  Pd30  1  0.997105  0.702813  0.997105  1
  Pd  Pd31  1  0.002895  0.002895  0.297187  1
  Pd  Pd32  1  0.997105  0.997105  0.702813  1
