# generated using pymatgen
data_HoEr3Ga18NiIr5
_symmetry_space_group_name_H-M   'P 1'
_cell_length_a   7.55812374
_cell_length_b   7.55851032
_cell_length_c   9.43201107
_cell_angle_alpha   90.20191123
_cell_angle_beta   90.20190334
_cell_angle_gamma   119.99066833
_symmetry_Int_Tables_number   1
_chemical_formula_structural   HoEr3Ga18NiIr5
_chemical_formula_sum   'Ho1 Er3 Ga18 Ni1 Ir5'
_cell_volume   466.67569998
_cell_formula_units_Z   1
loop_
 _symmetry_equiv_pos_site_id
 _symmetry_equiv_pos_as_xyz
  1  'x, y, z'
loop_
 _atom_site_type_symbol
 _atom_site_label
 _atom_site_symmetry_multiplicity
 _atom_site_fract_x
 _atom_site_fract_y
 _atom_site_fract_z
 _atom_site_occupancy
  Ho  Ho0  1  0.996856  0.666755  0.750244  1
  Er  Er1  1  0.003105  0.333220  0.249760  1
  Er  Er2  1  0.666770  0.996890  0.750239  1
  Er  Er3  1  0.333243  0.003120  0.249752  1
  Ga  Ga4  1  0.121200  0.121303  0.745131  1
  Ga  Ga5  1  0.878899  0.878932  0.254883  1
  Ga  Ga6  1  0.998741  0.329726  0.579886  1
  Ga  Ga7  1  0.001242  0.670054  0.419787  1
  Ga  Ga8  1  0.001107  0.666650  0.081049  1
  Ga  Ga9  1  0.333578  0.999104  0.919272  1
  Ga  Ga10  1  0.998886  0.333138  0.919272  1
  Ga  Ga11  1  0.666660  0.001126  0.080883  1
  Ga  Ga12  1  0.670075  0.001262  0.419943  1
  Ga  Ga13  1  0.330157  0.998954  0.579897  1
  Ga  Ga14  1  0.332222  0.332208  0.065480  1
  Ga  Ga15  1  0.667613  0.667803  0.934700  1
  Ga  Ga16  1  0.672636  0.672834  0.565066  1
  Ga  Ga17  1  0.327159  0.327161  0.434751  1
  Ga  Ga18  1  0.338795  0.545662  0.749341  1
  Ga  Ga19  1  0.661250  0.454276  0.250649  1
  Ga  Ga20  1  0.545495  0.338564  0.749337  1
  Ga  Ga21  1  0.454300  0.661291  0.250654  1
  Ni  Ni22  1  0.000009  0.000020  0.499968  1
  Ir  Ir23  1  0.671892  0.328009  0.499917  1
  Ir  Ir24  1  0.328071  0.671945  0.499935  1
  Ir  Ir25  1  0.328220  0.671751  0.000064  1
  Ir  Ir26  1  0.671770  0.328215  0.000065  1
  Ir  Ir27  1  0.000049  0.000030  0.000075  1
