# generated using pymatgen
data_Ho8Ti8Nb3Si16Pt
_symmetry_space_group_name_H-M   'P 1'
_cell_length_a   7.04060141
_cell_length_b   7.04060118
_cell_length_c   12.86763689
_cell_angle_alpha   90.27048558
_cell_angle_beta   89.72951504
_cell_angle_gamma   89.61032459
_symmetry_Int_Tables_number   1
_chemical_formula_structural   Ho8Ti8Nb3Si16Pt
_chemical_formula_sum   'Ho8 Ti8 Nb3 Si16 Pt1'
_cell_volume   637.82055373
_cell_formula_units_Z   1
loop_
 _symmetry_equiv_pos_site_id
 _symmetry_equiv_pos_as_xyz
  1  'x, y, z'
loop_
 _atom_site_type_symbol
 _atom_site_label
 _atom_site_symmetry_multiplicity
 _atom_site_fract_x
 _atom_site_fract_y
 _atom_site_fract_z
 _atom_site_occupancy
  Ho  Ho0  1  0.340998  0.001628  0.467435  1
  Ho  Ho1  1  0.497963  0.841421  0.718214  1
  Ho  Ho2  1  0.501321  0.157814  0.215145  1
  Ho  Ho3  1  0.841421  0.497963  0.281786  1
  Ho  Ho4  1  0.157814  0.501321  0.784855  1
  Ho  Ho5  1  0.657881  0.999530  0.968507  1
  Ho  Ho6  1  0.001628  0.340998  0.532565  1
  Ho  Ho7  1  0.999530  0.657881  0.031493  1
  Ti  Ti8  1  0.147671  0.004177  0.875629  1
  Ti  Ti9  1  0.492741  0.655476  0.124444  1
  Ti  Ti10  1  0.508274  0.350330  0.627506  1
  Ti  Ti11  1  0.655476  0.492741  0.875556  1
  Ti  Ti12  1  0.350330  0.508274  0.372494  1
  Ti  Ti13  1  0.849280  0.990920  0.374245  1
  Ti  Ti14  1  0.004177  0.147671  0.124371  1
  Ti  Ti15  1  0.990920  0.849280  0.625755  1
  Nb  Nb16  1  0.175281  0.825957  0.248051  1
  Nb  Nb17  1  0.825957  0.175281  0.751949  1
  Nb  Nb18  1  0.673349  0.673349  0.500000  1
  Si  Si19  1  0.203263  0.132490  0.684389  1
  Si  Si20  1  0.372674  0.708863  0.931925  1
  Si  Si21  1  0.630452  0.295390  0.433718  1
  Si  Si22  1  0.708863  0.372674  0.068075  1
  Si  Si23  1  0.295390  0.630452  0.566282  1
  Si  Si24  1  0.796771  0.867502  0.183126  1
  Si  Si25  1  0.132490  0.203263  0.315611  1
  Si  Si26  1  0.867502  0.796771  0.816874  1
  Si  Si27  1  0.288019  0.947329  0.062008  1
  Si  Si28  1  0.547870  0.793138  0.314085  1
  Si  Si29  1  0.448794  0.209148  0.815764  1
  Si  Si30  1  0.793138  0.547870  0.685915  1
  Si  Si31  1  0.209148  0.448794  0.184236  1
  Si  Si32  1  0.707530  0.048416  0.564227  1
  Si  Si33  1  0.947329  0.288019  0.937992  1
  Si  Si34  1  0.048416  0.707530  0.435773  1
  Pt  Pt35  1  0.330339  0.330339  0.000000  1
