# generated using pymatgen
data_Nd2MnP4Rh5
_symmetry_space_group_name_H-M   'P 1'
_cell_length_a   3.95735300
_cell_length_b   11.31103125
_cell_length_c   12.75102993
_cell_angle_alpha   90.05178102
_cell_angle_beta   90.00000000
_cell_angle_gamma   90.00000000
_symmetry_Int_Tables_number   1
_chemical_formula_structural   Nd2MnP4Rh5
_chemical_formula_sum   'Nd6 Mn3 P12 Rh15'
_cell_volume   570.75809735
_cell_formula_units_Z   3
loop_
 _symmetry_equiv_pos_site_id
 _symmetry_equiv_pos_as_xyz
  1  'x, y, z'
loop_
 _atom_site_type_symbol
 _atom_site_label
 _atom_site_symmetry_multiplicity
 _atom_site_fract_x
 _atom_site_fract_y
 _atom_site_fract_z
 _atom_site_occupancy
  Nd  Nd0  1  0.000000  0.502760  0.518422  1
  Nd  Nd1  1  0.500000  0.000548  0.479010  1
  Nd  Nd2  1  0.500000  0.818182  0.202101  1
  Nd  Nd3  1  0.500000  0.183430  0.200913  1
  Nd  Nd4  1  0.000000  0.678900  0.798694  1
  Nd  Nd5  1  0.000000  0.319741  0.798854  1
  Mn  Mn6  1  0.000000  0.499195  0.992737  1
  Mn  Mn7  1  0.500000  0.000320  0.008708  1
  Mn  Mn8  1  0.000000  0.379122  0.287952  1
  P  P9  1  0.500000  0.499242  0.888557  1
  P  P10  1  0.000000  0.001115  0.111730  1
  P  P11  1  0.500000  0.483286  0.340117  1
  P  P12  1  0.000000  0.000748  0.655217  1
  P  P13  1  0.500000  0.311023  0.618185  1
  P  P14  1  0.500000  0.688268  0.618545  1
  P  P15  1  0.000000  0.196808  0.374624  1
  P  P16  1  0.000000  0.809646  0.380408  1
  P  P17  1  0.500000  0.850110  0.898971  1
  P  P18  1  0.500000  0.150645  0.899729  1
  P  P19  1  0.000000  0.650227  0.101569  1
  P  P20  1  0.000000  0.353236  0.109050  1
  Rh  Rh21  1  0.500000  0.497776  0.159208  1
  Rh  Rh22  1  0.000000  0.001540  0.839763  1
  Rh  Rh23  1  0.500000  0.499307  0.700470  1
  Rh  Rh24  1  0.000000  0.999953  0.298660  1
  Rh  Rh25  1  0.500000  0.333738  0.994882  1
  Rh  Rh26  1  0.500000  0.666023  0.995684  1
  Rh  Rh27  1  0.000000  0.167128  0.006877  1
  Rh  Rh28  1  0.000000  0.834794  0.004986  1
  Rh  Rh29  1  0.500000  0.295025  0.430058  1
  Rh  Rh30  1  0.500000  0.708044  0.429804  1
  Rh  Rh31  1  0.000000  0.205184  0.570524  1
  Rh  Rh32  1  0.000000  0.795406  0.571752  1
  Rh  Rh33  1  0.500000  0.874349  0.715017  1
  Rh  Rh34  1  0.500000  0.124818  0.713548  1
  Rh  Rh35  1  0.000000  0.620364  0.284674  1
