# generated using pymatgen
data_Pr5YAl24CuOs7
_symmetry_space_group_name_H-M   'P 1'
_cell_length_a   8.93770955
_cell_length_b   8.93770934
_cell_length_c   9.64859995
_cell_angle_alpha   89.81678658
_cell_angle_beta   90.18321295
_cell_angle_gamma   120.03587885
_symmetry_Int_Tables_number   1
_chemical_formula_structural   Pr5YAl24CuOs7
_chemical_formula_sum   'Pr5 Y1 Al24 Cu1 Os7'
_cell_volume   667.24804271
_cell_formula_units_Z   1
loop_
 _symmetry_equiv_pos_site_id
 _symmetry_equiv_pos_as_xyz
  1  'x, y, z'
loop_
 _atom_site_type_symbol
 _atom_site_label
 _atom_site_symmetry_multiplicity
 _atom_site_fract_x
 _atom_site_fract_y
 _atom_site_fract_z
 _atom_site_occupancy
  Pr  Pr0  1  0.190291  0.382445  0.248132  1
  Pr  Pr1  1  0.809756  0.617753  0.751590  1
  Pr  Pr2  1  0.617555  0.809709  0.248132  1
  Pr  Pr3  1  0.382247  0.190244  0.751590  1
  Pr  Pr4  1  0.193004  0.806996  0.252374  1
  Y  Y5  1  0.804874  0.195126  0.747687  1
  Al  Al6  1  0.332122  0.667878  0.009895  1
  Al  Al7  1  0.669025  0.330975  0.985829  1
  Al  Al8  1  0.666744  0.333256  0.512050  1
  Al  Al9  1  0.334102  0.665898  0.491407  1
  Al  Al10  1  0.161036  0.325359  0.575097  1
  Al  Al11  1  0.836744  0.673021  0.426462  1
  Al  Al12  1  0.674641  0.838964  0.575097  1
  Al  Al13  1  0.843920  0.674917  0.077583  1
  Al  Al14  1  0.326979  0.163256  0.426462  1
  Al  Al15  1  0.153236  0.323043  0.920591  1
  Al  Al16  1  0.163148  0.836852  0.575286  1
  Al  Al17  1  0.325083  0.156080  0.077583  1
  Al  Al18  1  0.837137  0.162863  0.428048  1
  Al  Al19  1  0.676957  0.846764  0.920591  1
  Al  Al20  1  0.836282  0.163718  0.070638  1
  Al  Al21  1  0.163788  0.836212  0.926084  1
  Al  Al22  1  0.563360  0.124277  0.248768  1
  Al  Al23  1  0.440367  0.878787  0.751015  1
  Al  Al24  1  0.875723  0.436640  0.248768  1
  Al  Al25  1  0.121213  0.559633  0.751015  1
  Al  Al26  1  0.563292  0.436708  0.251727  1
  Al  Al27  1  0.436705  0.563295  0.749227  1
  Al  Al28  1  0.999520  0.000480  0.250446  1
  Al  Al29  1  0.997451  0.002549  0.749617  1
  Cu  Cu30  1  0.500678  0.499322  0.000038  1
  Os  Os31  1  0.501358  0.000399  0.998913  1
  Os  Os32  1  0.999601  0.498642  0.998913  1
  Os  Os33  1  0.501649  0.000604  0.501180  1
  Os  Os34  1  0.999396  0.498351  0.501180  1
  Os  Os35  1  0.500416  0.499584  0.500901  1
  Os  Os36  1  0.000256  0.999744  0.999622  1
  Os  Os37  1  0.000343  0.999657  0.500464  1
