# generated using pymatgen
data_Tm4MgPd
_symmetry_space_group_name_H-M   'P 1'
_cell_length_a   9.65185694
_cell_length_b   9.65185702
_cell_length_c   9.65185700
_cell_angle_alpha   59.99999664
_cell_angle_beta   59.99999637
_cell_angle_gamma   59.99999785
_symmetry_Int_Tables_number   1
_chemical_formula_structural   Tm4MgPd
_chemical_formula_sum   'Tm16 Mg4 Pd4'
_cell_volume   635.79573026
_cell_formula_units_Z   4
loop_
 _symmetry_equiv_pos_site_id
 _symmetry_equiv_pos_as_xyz
  1  'x, y, z'
loop_
 _atom_site_type_symbol
 _atom_site_label
 _atom_site_symmetry_multiplicity
 _atom_site_fract_x
 _atom_site_fract_y
 _atom_site_fract_z
 _atom_site_occupancy
  Tm  Tm0  1  0.601104  0.601104  0.601104  1
  Tm  Tm1  1  0.601104  0.601104  0.196689  1
  Tm  Tm2  1  0.601104  0.196689  0.601104  1
  Tm  Tm3  1  0.196689  0.601104  0.601104  1
  Tm  Tm4  1  0.060470  0.439530  0.439530  1
  Tm  Tm5  1  0.439530  0.060470  0.060470  1
  Tm  Tm6  1  0.439530  0.060470  0.439530  1
  Tm  Tm7  1  0.060470  0.439530  0.060470  1
  Tm  Tm8  1  0.439530  0.439530  0.060470  1
  Tm  Tm9  1  0.060470  0.060470  0.439530  1
  Tm  Tm10  1  0.183043  0.816957  0.816957  1
  Tm  Tm11  1  0.816957  0.183043  0.183043  1
  Tm  Tm12  1  0.816957  0.183043  0.816957  1
  Tm  Tm13  1  0.183043  0.816957  0.183043  1
  Tm  Tm14  1  0.816957  0.816957  0.183043  1
  Tm  Tm15  1  0.183043  0.183043  0.816957  1
  Mg  Mg16  1  0.830450  0.830450  0.830450  1
  Mg  Mg17  1  0.830450  0.830450  0.508651  1
  Mg  Mg18  1  0.830450  0.508651  0.830450  1
  Mg  Mg19  1  0.508651  0.830450  0.830450  1
  Pd  Pd20  1  0.393445  0.393445  0.393445  1
  Pd  Pd21  1  0.393445  0.393445  0.819663  1
  Pd  Pd22  1  0.393445  0.819663  0.393445  1
  Pd  Pd23  1  0.819663  0.393445  0.393445  1
