# generated using pymatgen
data_Tb2Ta3Co9As7
_symmetry_space_group_name_H-M   'P 1'
_cell_length_a   3.82099500
_cell_length_b   9.54285041
_cell_length_c   9.54285000
_cell_angle_alpha   119.99999857
_cell_angle_beta   90.00000000
_cell_angle_gamma   90.00000000
_symmetry_Int_Tables_number   1
_chemical_formula_structural   Tb2Ta3Co9As7
_chemical_formula_sum   'Tb2 Ta3 Co9 As7'
_cell_volume   301.34453575
_cell_formula_units_Z   1
loop_
 _symmetry_equiv_pos_site_id
 _symmetry_equiv_pos_as_xyz
  1  'x, y, z'
loop_
 _atom_site_type_symbol
 _atom_site_label
 _atom_site_symmetry_multiplicity
 _atom_site_fract_x
 _atom_site_fract_y
 _atom_site_fract_z
 _atom_site_occupancy
  Tb  Tb0  1  0.000000  0.666667  0.333333  1
  Tb  Tb1  1  0.500000  0.333333  0.666667  1
  Ta  Ta2  1  0.500000  0.775682  0.896019  1
  Ta  Ta3  1  0.500000  0.120337  0.224318  1
  Ta  Ta4  1  0.500000  0.103981  0.879663  1
  Co  Co5  1  0.000000  0.572500  0.936824  1
  Co  Co6  1  0.000000  0.364325  0.427500  1
  Co  Co7  1  0.000000  0.063176  0.635675  1
  Co  Co8  1  0.000000  0.878188  0.158656  1
  Co  Co9  1  0.000000  0.280469  0.121812  1
  Co  Co10  1  0.000000  0.841344  0.719531  1
  Co  Co11  1  0.500000  0.948359  0.383668  1
  Co  Co12  1  0.500000  0.435308  0.051641  1
  Co  Co13  1  0.500000  0.616332  0.564692  1
  As  As14  1  0.000000  0.000000  0.000000  1
  As  As15  1  0.500000  0.707695  0.123965  1
  As  As16  1  0.500000  0.416270  0.292305  1
  As  As17  1  0.500000  0.876035  0.583730  1
  As  As18  1  0.000000  0.580079  0.690855  1
  As  As19  1  0.000000  0.110776  0.419921  1
  As  As20  1  0.000000  0.309145  0.889224  1
