# generated using pymatgen
data_Mg2SeCl2O3
_symmetry_space_group_name_H-M   'P 1'
_cell_length_a   10.43519000
_cell_length_b   7.89239150
_cell_length_c   7.91511250
_cell_angle_alpha   79.82158206
_cell_angle_beta   90.00000000
_cell_angle_gamma   90.00000000
_symmetry_Int_Tables_number   1
_chemical_formula_structural   Mg2SeCl2O3
_chemical_formula_sum   'Mg8 Se4 Cl8 O12'
_cell_volume   641.61853093
_cell_formula_units_Z   4
loop_
 _symmetry_equiv_pos_site_id
 _symmetry_equiv_pos_as_xyz
  1  'x, y, z'
loop_
 _atom_site_type_symbol
 _atom_site_label
 _atom_site_symmetry_multiplicity
 _atom_site_fract_x
 _atom_site_fract_y
 _atom_site_fract_z
 _atom_site_occupancy
  Mg  Mg0  1  0.007840  0.102772  0.220150  1
  Mg  Mg1  1  0.279156  0.129536  0.905710  1
  Mg  Mg2  1  0.507840  0.397228  0.779850  1
  Mg  Mg3  1  0.779156  0.370464  0.094290  1
  Mg  Mg4  1  0.992160  0.897228  0.779850  1
  Mg  Mg5  1  0.720844  0.870464  0.094290  1
  Mg  Mg6  1  0.220844  0.629536  0.905710  1
  Mg  Mg7  1  0.492160  0.602772  0.220150  1
  Se  Se8  1  0.966800  0.686625  0.181282  1
  Se  Se9  1  0.533200  0.186625  0.181282  1
  Se  Se10  1  0.466800  0.813375  0.818718  1
  Se  Se11  1  0.033200  0.313375  0.818718  1
  Cl  Cl12  1  0.276121  0.535295  0.218937  1
  Cl  Cl13  1  0.223879  0.035295  0.218937  1
  Cl  Cl14  1  0.396495  0.237362  0.606715  1
  Cl  Cl15  1  0.896495  0.262638  0.393285  1
  Cl  Cl16  1  0.723879  0.464705  0.781063  1
  Cl  Cl17  1  0.603505  0.762638  0.393285  1
  Cl  Cl18  1  0.776121  0.964705  0.781063  1
  Cl  Cl19  1  0.103505  0.737362  0.606715  1
  O  O20  1  0.046545  0.721016  0.984495  1
  O  O21  1  0.681547  0.120458  0.120363  1
  O  O22  1  0.089126  0.106170  0.812836  1
  O  O23  1  0.953455  0.278984  0.015505  1
  O  O24  1  0.410874  0.606170  0.812836  1
  O  O25  1  0.546545  0.778984  0.015505  1
  O  O26  1  0.453455  0.221016  0.984495  1
  O  O27  1  0.318453  0.879542  0.879637  1
  O  O28  1  0.589126  0.393830  0.187164  1
  O  O29  1  0.181547  0.379542  0.879637  1
  O  O30  1  0.910874  0.893830  0.187164  1
  O  O31  1  0.818453  0.620458  0.120363  1
