# generated using pymatgen
data_Ho4Tm12ZnIn3Rh4
_symmetry_space_group_name_H-M   'P 1'
_cell_length_a   9.50565425
_cell_length_b   9.49968822
_cell_length_c   9.50760669
_cell_angle_alpha   60.18088480
_cell_angle_beta   60.08962970
_cell_angle_gamma   60.12003739
_symmetry_Int_Tables_number   1
_chemical_formula_structural   Ho4Tm12ZnIn3Rh4
_chemical_formula_sum   'Ho4 Tm12 Zn1 In3 Rh4'
_cell_volume   608.87189444
_cell_formula_units_Z   1
loop_
 _symmetry_equiv_pos_site_id
 _symmetry_equiv_pos_as_xyz
  1  'x, y, z'
loop_
 _atom_site_type_symbol
 _atom_site_label
 _atom_site_symmetry_multiplicity
 _atom_site_fract_x
 _atom_site_fract_y
 _atom_site_fract_z
 _atom_site_occupancy
  Ho  Ho0  1  0.061664  0.061857  0.438252  1
  Ho  Ho1  1  0.435469  0.070156  0.434560  1
  Ho  Ho2  1  0.062629  0.438110  0.062116  1
  Ho  Ho3  1  0.054827  0.646412  0.646962  1
  Tm  Tm4  1  0.436562  0.436185  0.067978  1
  Tm  Tm5  1  0.646608  0.053854  0.646805  1
  Tm  Tm6  1  0.189152  0.811701  0.188723  1
  Tm  Tm7  1  0.188750  0.188628  0.812366  1
  Tm  Tm8  1  0.809977  0.810115  0.190855  1
  Tm  Tm9  1  0.439821  0.060934  0.060280  1
  Tm  Tm10  1  0.811642  0.189198  0.188959  1
  Tm  Tm11  1  0.068330  0.436740  0.436043  1
  Tm  Tm12  1  0.809554  0.190813  0.810514  1
  Tm  Tm13  1  0.190642  0.810122  0.810952  1
  Tm  Tm14  1  0.646883  0.646576  0.054152  1
  Tm  Tm15  1  0.651469  0.652271  0.651827  1
  Zn  Zn16  1  0.416157  0.415951  0.415740  1
  In  In17  1  0.744663  0.417659  0.417662  1
  In  In18  1  0.418226  0.744706  0.417182  1
  In  In19  1  0.418147  0.416980  0.745318  1
  Rh  Rh20  1  0.858642  0.858805  0.426321  1
  Rh  Rh21  1  0.855041  0.857264  0.857379  1
  Rh  Rh22  1  0.427663  0.858236  0.859700  1
  Rh  Rh23  1  0.857484  0.426727  0.859355  1
