# generated using pymatgen
data_Yb2Si7(Ni5W)2
_symmetry_space_group_name_H-M   'P 1'
_cell_length_a   9.31755833
_cell_length_b   9.19152452
_cell_length_c   3.70536200
_cell_angle_alpha   90.00000000
_cell_angle_beta   90.00000000
_cell_angle_gamma   119.41133442
_symmetry_Int_Tables_number   1
_chemical_formula_structural   Yb2Si7(Ni5W)2
_chemical_formula_sum   'Yb2 Si7 Ni10 W2'
_cell_volume   276.43730102
_cell_formula_units_Z   1
loop_
 _symmetry_equiv_pos_site_id
 _symmetry_equiv_pos_as_xyz
  1  'x, y, z'
loop_
 _atom_site_type_symbol
 _atom_site_label
 _atom_site_symmetry_multiplicity
 _atom_site_fract_x
 _atom_site_fract_y
 _atom_site_fract_z
 _atom_site_occupancy
  Yb  Yb0  1  0.667828  0.339322  0.500000  1
  Yb  Yb1  1  0.341390  0.663776  0.000000  1
  Si  Si2  1  0.409327  0.297192  0.000000  1
  Si  Si3  1  0.294464  0.879799  0.500000  1
  Si  Si4  1  0.701231  0.114609  0.000000  1
  Si  Si5  1  0.603490  0.708478  0.500000  1
  Si  Si6  1  0.884335  0.601033  0.000000  1
  Si  Si7  1  0.114990  0.411705  0.500000  1
  Si  Si8  1  0.995253  0.987000  0.000000  1
  Ni  Ni9  1  0.717448  0.874057  0.000000  1
  Ni  Ni10  1  0.942008  0.378672  0.000000  1
  Ni  Ni11  1  0.154045  0.282055  0.000000  1
  Ni  Ni12  1  0.382392  0.437395  0.500000  1
  Ni  Ni13  1  0.130176  0.838277  0.000000  1
  Ni  Ni14  1  0.432236  0.055480  0.000000  1
  Ni  Ni15  1  0.045930  0.617418  0.500000  1
  Ni  Ni16  1  0.564702  0.946902  0.500000  1
  Ni  Ni17  1  0.622908  0.565438  0.000000  1
  Ni  Ni18  1  0.883422  0.785925  0.500000  1
  W  W19  1  0.214457  0.100109  0.500000  1
  W  W20  1  0.897970  0.115355  0.500000  1
