# generated using pymatgen
data_YbDy4InPd4
_symmetry_space_group_name_H-M   'P 1'
_cell_length_a   7.96153500
_cell_length_b   7.96153500
_cell_length_c   3.66831600
_cell_angle_alpha   90.00000000
_cell_angle_beta   90.00000000
_cell_angle_gamma   90.00000000
_symmetry_Int_Tables_number   1
_chemical_formula_structural   YbDy4InPd4
_chemical_formula_sum   'Yb1 Dy4 In1 Pd4'
_cell_volume   232.52002308
_cell_formula_units_Z   1
loop_
 _symmetry_equiv_pos_site_id
 _symmetry_equiv_pos_as_xyz
  1  'x, y, z'
loop_
 _atom_site_type_symbol
 _atom_site_label
 _atom_site_symmetry_multiplicity
 _atom_site_fract_x
 _atom_site_fract_y
 _atom_site_fract_z
 _atom_site_occupancy
  Yb  Yb0  1  0.000000  0.000000  0.000000  1
  Dy  Dy1  1  0.360546  0.815671  0.500000  1
  Dy  Dy2  1  0.815671  0.639454  0.500000  1
  Dy  Dy3  1  0.184329  0.360546  0.500000  1
  Dy  Dy4  1  0.639454  0.184329  0.500000  1
  In  In5  1  0.500000  0.500000  0.000000  1
  Pd  Pd6  1  0.357525  0.122883  0.000000  1
  Pd  Pd7  1  0.877117  0.357525  0.000000  1
  Pd  Pd8  1  0.122883  0.642475  0.000000  1
  Pd  Pd9  1  0.642475  0.877117  0.000000  1
