# generated using pymatgen
data_Th8Si12Ni3Ir
_symmetry_space_group_name_H-M   'P 1'
_cell_length_a   8.09036900
_cell_length_b   8.09035932
_cell_length_c   8.51382800
_cell_angle_alpha   89.99969547
_cell_angle_beta   90.00028328
_cell_angle_gamma   120.00010907
_symmetry_Int_Tables_number   1
_chemical_formula_structural   Th8Si12Ni3Ir
_chemical_formula_sum   'Th8 Si12 Ni3 Ir1'
_cell_volume   482.60427804
_cell_formula_units_Z   1
loop_
 _symmetry_equiv_pos_site_id
 _symmetry_equiv_pos_as_xyz
  1  'x, y, z'
loop_
 _atom_site_type_symbol
 _atom_site_label
 _atom_site_symmetry_multiplicity
 _atom_site_fract_x
 _atom_site_fract_y
 _atom_site_fract_z
 _atom_site_occupancy
  Th  Th0  1  0.000002  0.000003  0.248722  1
  Th  Th1  1  0.000008  0.999999  0.751274  1
  Th  Th2  1  0.000092  0.500051  0.249797  1
  Th  Th3  1  0.499951  0.500051  0.249777  1
  Th  Th4  1  0.500571  0.001120  0.750202  1
  Th  Th5  1  0.499953  0.999913  0.249805  1
  Th  Th6  1  0.500578  0.499423  0.750218  1
  Th  Th7  1  0.998881  0.499430  0.750209  1
  Si  Si8  1  0.171202  0.342396  0.999542  1
  Si  Si9  1  0.657586  0.828790  0.999542  1
  Si  Si10  1  0.171153  0.342294  0.500632  1
  Si  Si11  1  0.341978  0.170990  0.000397  1
  Si  Si12  1  0.171222  0.828781  0.999542  1
  Si  Si13  1  0.657713  0.828854  0.500632  1
  Si  Si14  1  0.829027  0.658047  0.000397  1
  Si  Si15  1  0.329670  0.164833  0.499552  1
  Si  Si16  1  0.171145  0.828861  0.500634  1
  Si  Si17  1  0.835179  0.670342  0.499552  1
  Si  Si18  1  0.829008  0.170998  0.000397  1
  Si  Si19  1  0.835174  0.164834  0.499551  1
  Ni  Ni20  1  0.333325  0.666283  0.999394  1
  Ni  Ni21  1  0.333223  0.666661  0.500648  1
  Ni  Ni22  1  0.666684  0.333710  0.000775  1
  Ir  Ir23  1  0.666674  0.333336  0.498810  1
