# generated using pymatgen
data_TbSm3(Si5Os3)2
_symmetry_space_group_name_H-M   'P 1'
_cell_length_a   8.17448453
_cell_length_b   8.18303089
_cell_length_c   5.83375259
_cell_angle_alpha   70.43957066
_cell_angle_beta   70.44855634
_cell_angle_gamma   93.81675403
_symmetry_Int_Tables_number   1
_chemical_formula_structural   TbSm3(Si5Os3)2
_chemical_formula_sum   'Tb1 Sm3 Si10 Os6'
_cell_volume   339.42722029
_cell_formula_units_Z   1
loop_
 _symmetry_equiv_pos_site_id
 _symmetry_equiv_pos_as_xyz
  1  'x, y, z'
loop_
 _atom_site_type_symbol
 _atom_site_label
 _atom_site_symmetry_multiplicity
 _atom_site_fract_x
 _atom_site_fract_y
 _atom_site_fract_z
 _atom_site_occupancy
  Tb  Tb0  1  0.867698  0.602673  0.753992  1
  Sm  Sm1  1  0.398380  0.131898  0.745328  1
  Sm  Sm2  1  0.131936  0.397860  0.245881  1
  Sm  Sm3  1  0.601902  0.867845  0.254710  1
  Si  Si4  1  0.064507  0.260584  0.835646  1
  Si  Si5  1  0.738806  0.934234  0.665499  1
  Si  Si6  1  0.935131  0.738977  0.165041  1
  Si  Si7  1  0.261826  0.064959  0.334921  1
  Si  Si8  1  0.206693  0.791975  0.749552  1
  Si  Si9  1  0.792356  0.207065  0.251407  1
  Si  Si10  1  0.512941  0.488731  0.748509  1
  Si  Si11  1  0.488362  0.512046  0.250031  1
  Si  Si12  1  0.773942  0.227414  0.749131  1
  Si  Si13  1  0.225478  0.773668  0.251284  1
  Os  Os14  1  0.255066  0.542622  0.631648  1
  Os  Os15  1  0.456366  0.743418  0.869310  1
  Os  Os16  1  0.744491  0.457935  0.367112  1
  Os  Os17  1  0.544189  0.257182  0.130257  1
  Os  Os18  1  0.002390  0.996929  0.750281  1
  Os  Os19  1  0.997539  0.001983  0.250459  1
