# generated using pymatgen
data_La3Tb2P12Pd2Ru17
_symmetry_space_group_name_H-M   'P 1'
_cell_length_a   4.02267800
_cell_length_b   12.65378676
_cell_length_c   12.65380635
_cell_angle_alpha   119.36599015
_cell_angle_beta   90.00000000
_cell_angle_gamma   90.00000000
_symmetry_Int_Tables_number   1
_chemical_formula_structural   La3Tb2P12Pd2Ru17
_chemical_formula_sum   'La3 Tb2 P12 Pd2 Ru17'
_cell_volume   561.34114173
_cell_formula_units_Z   1
loop_
 _symmetry_equiv_pos_site_id
 _symmetry_equiv_pos_as_xyz
  1  'x, y, z'
loop_
 _atom_site_type_symbol
 _atom_site_label
 _atom_site_symmetry_multiplicity
 _atom_site_fract_x
 _atom_site_fract_y
 _atom_site_fract_z
 _atom_site_occupancy
  La  La0  1  0.500000  0.998677  0.180774  1
  La  La1  1  0.500000  0.180774  0.998677  1
  La  La2  1  0.500000  0.816453  0.816452  1
  Tb  Tb3  1  0.000000  0.335814  0.663690  1
  Tb  Tb4  1  0.000000  0.663685  0.335817  1
  P  P5  1  0.000000  0.001172  0.807505  1
  P  P6  1  0.000000  0.807501  0.001174  1
  P  P7  1  0.000000  0.188863  0.188867  1
  P  P8  1  0.500000  0.305831  0.478381  1
  P  P9  1  0.500000  0.184858  0.700558  1
  P  P10  1  0.500000  0.521564  0.819906  1
  P  P11  1  0.500000  0.819901  0.521566  1
  P  P12  1  0.500000  0.478379  0.305834  1
  P  P13  1  0.500000  0.700557  0.184862  1
  P  P14  1  0.000000  0.999443  0.368945  1
  P  P15  1  0.000000  0.368943  0.999449  1
  P  P16  1  0.000000  0.622705  0.622708  1
  Pd  Pd17  1  0.000000  0.000847  0.553070  1
  Pd  Pd18  1  0.000000  0.553066  0.000847  1
  Ru  Ru19  1  0.000000  0.444795  0.444798  1
  Ru  Ru20  1  0.500000  0.002227  0.707941  1
  Ru  Ru21  1  0.500000  0.707937  0.002228  1
  Ru  Ru22  1  0.500000  0.287498  0.287498  1
  Ru  Ru23  1  0.000000  0.195334  0.381434  1
  Ru  Ru24  1  0.000000  0.188371  0.801940  1
  Ru  Ru25  1  0.000000  0.618883  0.814188  1
  Ru  Ru26  1  0.000000  0.814185  0.618884  1
  Ru  Ru27  1  0.000000  0.381430  0.195339  1
  Ru  Ru28  1  0.000000  0.801940  0.188373  1
  Ru  Ru29  1  0.500000  0.127952  0.495541  1
  Ru  Ru30  1  0.500000  0.372518  0.878198  1
  Ru  Ru31  1  0.500000  0.506369  0.630137  1
  Ru  Ru32  1  0.500000  0.630134  0.506375  1
  Ru  Ru33  1  0.500000  0.495541  0.127955  1
  Ru  Ru34  1  0.500000  0.878196  0.372521  1
  Ru  Ru35  1  0.000000  0.997560  0.997566  1
