# generated using pymatgen
data_DyYPa2(B2Os)4
_symmetry_space_group_name_H-M   'P 1'
_cell_length_a   5.82667200
_cell_length_b   5.35033700
_cell_length_c   6.49743600
_cell_angle_alpha   90.00000000
_cell_angle_beta   90.00005595
_cell_angle_gamma   90.00000000
_symmetry_Int_Tables_number   1
_chemical_formula_structural   DyYPa2(B2Os)4
_chemical_formula_sum   'Dy1 Y1 Pa2 B8 Os4'
_cell_volume   202.55535030
_cell_formula_units_Z   1
loop_
 _symmetry_equiv_pos_site_id
 _symmetry_equiv_pos_as_xyz
  1  'x, y, z'
loop_
 _atom_site_type_symbol
 _atom_site_label
 _atom_site_symmetry_multiplicity
 _atom_site_fract_x
 _atom_site_fract_y
 _atom_site_fract_z
 _atom_site_occupancy
  Dy  Dy0  1  0.493989  0.750000  0.837144  1
  Y  Y1  1  0.993806  0.750000  0.663384  1
  Pa  Pa2  1  0.000964  0.250000  0.332328  1
  Pa  Pa3  1  0.500898  0.250000  0.167358  1
  B  B4  1  0.366764  0.085915  0.539272  1
  B  B5  1  0.866729  0.413972  0.960795  1
  B  B6  1  0.633512  0.586868  0.466482  1
  B  B7  1  0.133652  0.913186  0.033475  1
  B  B8  1  0.633512  0.913132  0.466482  1
  B  B9  1  0.133652  0.586814  0.033475  1
  B  B10  1  0.366764  0.414085  0.539272  1
  B  B11  1  0.866729  0.086028  0.960795  1
  Os  Os12  1  0.188568  0.250000  0.819561  1
  Os  Os13  1  0.688324  0.250000  0.680646  1
  Os  Os14  1  0.815835  0.750000  0.190464  1
  Os  Os15  1  0.316302  0.750000  0.309066  1
