# generated using pymatgen
data_BaRu2F12
_symmetry_space_group_name_H-M   'P 1'
_cell_length_a   5.71761134
_cell_length_b   5.75153875
_cell_length_c   9.78284033
_cell_angle_alpha   97.42175287
_cell_angle_beta   95.44349622
_cell_angle_gamma   119.13051632
_symmetry_Int_Tables_number   1
_chemical_formula_structural   BaRu2F12
_chemical_formula_sum   'Ba1 Ru2 F12'
_cell_volume   274.00309170
_cell_formula_units_Z   1
loop_
 _symmetry_equiv_pos_site_id
 _symmetry_equiv_pos_as_xyz
  1  'x, y, z'
loop_
 _atom_site_type_symbol
 _atom_site_label
 _atom_site_symmetry_multiplicity
 _atom_site_fract_x
 _atom_site_fract_y
 _atom_site_fract_z
 _atom_site_occupancy
  Ba  Ba0  1  0.996971  0.967739  0.915633  1
  Ru  Ru1  1  0.220377  0.503442  0.598538  1
  Ru  Ru2  1  0.374572  0.689788  0.127527  1
  F  F3  1  0.238193  0.888841  0.220822  1
  F  F4  1  0.556508  0.660297  0.734658  1
  F  F5  1  0.042268  0.518899  0.987387  1
  F  F6  1  0.203209  0.387675  0.211013  1
  F  F7  1  0.495804  0.486210  0.010583  1
  F  F8  1  0.318349  0.276431  0.499125  1
  F  F9  1  0.703327  0.855287  0.251433  1
  F  F10  1  0.131203  0.740826  0.714029  1
  F  F11  1  0.889941  0.353608  0.477034  1
  F  F12  1  0.050574  0.237027  0.714219  1
  F  F13  1  0.395145  0.775029  0.498286  1
  F  F14  1  0.531557  0.968903  0.017713  1
