# generated using pymatgen
data_Y6Ni18As10P3Pt2
_symmetry_space_group_name_H-M   'P 1'
_cell_length_a   13.16744004
_cell_length_b   13.12981955
_cell_length_c   3.85794000
_cell_angle_alpha   90.00000000
_cell_angle_beta   90.00000000
_cell_angle_gamma   120.14033841
_symmetry_Int_Tables_number   1
_chemical_formula_structural   Y6Ni18As10P3Pt2
_chemical_formula_sum   'Y6 Ni18 As10 P3 Pt2'
_cell_volume   576.80672415
_cell_formula_units_Z   1
loop_
 _symmetry_equiv_pos_site_id
 _symmetry_equiv_pos_as_xyz
  1  'x, y, z'
loop_
 _atom_site_type_symbol
 _atom_site_label
 _atom_site_symmetry_multiplicity
 _atom_site_fract_x
 _atom_site_fract_y
 _atom_site_fract_z
 _atom_site_occupancy
  Y  Y0  1  0.465106  0.183361  0.000000  1
  Y  Y1  1  0.719973  0.534942  0.000000  1
  Y  Y2  1  0.816149  0.281226  0.000000  1
  Y  Y3  1  0.530870  0.813901  0.500000  1
  Y  Y4  1  0.276151  0.466564  0.500000  1
  Y  Y5  1  0.187365  0.720834  0.500000  1
  Ni  Ni6  1  0.188276  0.084243  0.000000  1
  Ni  Ni7  1  0.898067  0.812290  0.000000  1
  Ni  Ni8  1  0.915937  0.104753  0.000000  1
  Ni  Ni9  1  0.865968  0.937442  0.500000  1
  Ni  Ni10  1  0.071078  0.134660  0.500000  1
  Ni  Ni11  1  0.063752  0.929290  0.500000  1
  Ni  Ni12  1  0.433669  0.414367  0.000000  1
  Ni  Ni13  1  0.986503  0.559803  0.000000  1
  Ni  Ni14  1  0.571622  0.012578  0.000000  1
  Ni  Ni15  1  0.566822  0.588718  0.500000  1
  Ni  Ni16  1  0.031369  0.441861  0.500000  1
  Ni  Ni17  1  0.409237  0.968131  0.500000  1
  Ni  Ni18  1  0.075822  0.326914  0.000000  1
  Ni  Ni19  1  0.249961  0.924106  0.000000  1
  Ni  Ni20  1  0.681615  0.757468  0.000000  1
  Ni  Ni21  1  0.932168  0.692269  0.500000  1
  Ni  Ni22  1  0.761638  0.069254  0.500000  1
  Ni  Ni23  1  0.307739  0.240061  0.500000  1
  As  As24  1  0.229042  0.281117  0.000000  1
  As  As25  1  0.051229  0.767867  0.000000  1
  As  As26  1  0.716752  0.951145  0.000000  1
  As  As27  1  0.769523  0.724452  0.500000  1
  As  As28  1  0.956533  0.233523  0.500000  1
  As  As29  1  0.276677  0.043835  0.500000  1
  As  As30  1  0.480193  0.612957  0.000000  1
  As  As31  1  0.514835  0.385914  0.500000  1
  As  As32  1  0.872763  0.486570  0.500000  1
  As  As33  1  0.613759  0.126233  0.500000  1
  P  P34  1  0.131693  0.518757  0.000000  1
  P  P35  1  0.385224  0.867579  0.000000  1
  P  P36  1  0.000010  0.000480  0.000000  1
  Pt  Pt37  1  0.327931  0.668159  0.000000  1
  Pt  Pt38  1  0.666980  0.332377  0.500000  1
