# generated using pymatgen
data_Tb5Sc(Si3Ru)8
_symmetry_space_group_name_H-M   'P 1'
_cell_length_a   10.11218605
_cell_length_b   10.11218562
_cell_length_c   8.15194525
_cell_angle_alpha   90.01139985
_cell_angle_beta   90.01140259
_cell_angle_gamma   132.48270895
_symmetry_Int_Tables_number   1
_chemical_formula_structural   Tb5Sc(Si3Ru)8
_chemical_formula_sum   'Tb5 Sc1 Si24 Ru8'
_cell_volume   614.75522889
_cell_formula_units_Z   1
loop_
 _symmetry_equiv_pos_site_id
 _symmetry_equiv_pos_as_xyz
  1  'x, y, z'
loop_
 _atom_site_type_symbol
 _atom_site_label
 _atom_site_symmetry_multiplicity
 _atom_site_fract_x
 _atom_site_fract_y
 _atom_site_fract_z
 _atom_site_occupancy
  Tb  Tb0  1  0.000000  0.000000  0.000000  1
  Tb  Tb1  1  0.502666  0.002534  0.749714  1
  Tb  Tb2  1  0.997466  0.497334  0.250286  1
  Tb  Tb3  1  0.497334  0.997466  0.250286  1
  Tb  Tb4  1  0.002534  0.502666  0.749714  1
  Sc  Sc5  1  0.500000  0.500000  0.500000  1
  Si  Si6  1  0.794463  0.205537  0.500000  1
  Si  Si7  1  0.295066  0.704934  0.000000  1
  Si  Si8  1  0.205537  0.794463  0.500000  1
  Si  Si9  1  0.704934  0.295066  0.000000  1
  Si  Si10  1  0.333485  0.333485  0.831401  1
  Si  Si11  1  0.666515  0.666515  0.168599  1
  Si  Si12  1  0.169040  0.169040  0.334108  1
  Si  Si13  1  0.830960  0.830960  0.665892  1
  Si  Si14  1  0.121841  0.887325  0.727877  1
  Si  Si15  1  0.112675  0.878159  0.272123  1
  Si  Si16  1  0.610807  0.378373  0.230180  1
  Si  Si17  1  0.621627  0.389193  0.769820  1
  Si  Si18  1  0.878159  0.112675  0.272123  1
  Si  Si19  1  0.887325  0.121841  0.727877  1
  Si  Si20  1  0.389193  0.621627  0.769820  1
  Si  Si21  1  0.378373  0.610807  0.230180  1
  Si  Si22  1  0.346109  0.114091  0.505188  1
  Si  Si23  1  0.885909  0.653891  0.494812  1
  Si  Si24  1  0.388412  0.154854  0.005224  1
  Si  Si25  1  0.845146  0.611588  0.994776  1
  Si  Si26  1  0.653891  0.885909  0.494812  1
  Si  Si27  1  0.114091  0.346109  0.505188  1
  Si  Si28  1  0.611588  0.845146  0.994776  1
  Si  Si29  1  0.154854  0.388412  0.005224  1
  Ru  Ru30  1  0.667668  0.332332  0.500000  1
  Ru  Ru31  1  0.169032  0.830968  0.000000  1
  Ru  Ru32  1  0.332332  0.667668  0.500000  1
  Ru  Ru33  1  0.830968  0.169032  0.000000  1
  Ru  Ru34  1  0.127143  0.127143  0.626233  1
  Ru  Ru35  1  0.872857  0.872857  0.373767  1
  Ru  Ru36  1  0.374171  0.374171  0.128239  1
  Ru  Ru37  1  0.625829  0.625829  0.871761  1
