# generated using pymatgen
data_TiMnV10P7
_symmetry_space_group_name_H-M   'P 1'
_cell_length_a   9.26385415
_cell_length_b   9.27946471
_cell_length_c   3.25910300
_cell_angle_alpha   90.00000000
_cell_angle_beta   90.00000000
_cell_angle_gamma   120.00204581
_symmetry_Int_Tables_number   1
_chemical_formula_structural   TiMnV10P7
_chemical_formula_sum   'Ti1 Mn1 V10 P7'
_cell_volume   242.62435726
_cell_formula_units_Z   1
loop_
 _symmetry_equiv_pos_site_id
 _symmetry_equiv_pos_as_xyz
  1  'x, y, z'
loop_
 _atom_site_type_symbol
 _atom_site_label
 _atom_site_symmetry_multiplicity
 _atom_site_fract_x
 _atom_site_fract_y
 _atom_site_fract_z
 _atom_site_occupancy
  Ti  Ti0  1  0.204129  0.987927  0.000000  1
  Mn  Mn1  1  0.265874  0.253185  0.500000  1
  V  V2  1  0.128153  0.610831  0.000000  1
  V  V3  1  0.004543  0.211887  0.000000  1
  V  V4  1  0.487976  0.867364  0.000000  1
  V  V5  1  0.383296  0.517268  0.000000  1
  V  V6  1  0.799924  0.806853  0.000000  1
  V  V7  1  0.620326  0.491256  0.500000  1
  V  V8  1  0.502886  0.132914  0.500000  1
  V  V9  1  0.983461  0.732321  0.500000  1
  V  V10  1  0.871453  0.373425  0.500000  1
  V  V11  1  0.750735  0.017547  0.500000  1
  P  P12  1  0.282886  0.831934  0.500000  1
  P  P13  1  0.164382  0.440027  0.500000  1
  P  P14  1  0.561009  0.719557  0.500000  1
  P  P15  1  0.450084  0.288960  0.000000  1
  P  P16  1  0.006261  0.007799  0.500000  1
  P  P17  1  0.825985  0.536578  0.000000  1
  P  P18  1  0.706637  0.172371  0.000000  1
