# generated using pymatgen
data_Cs2KCrO4
_symmetry_space_group_name_H-M   'P 1'
_cell_length_a   6.48497200
_cell_length_b   6.71338422
_cell_length_c   8.37019790
_cell_angle_alpha   87.34436621
_cell_angle_beta   90.00000000
_cell_angle_gamma   90.00000000
_symmetry_Int_Tables_number   1
_chemical_formula_structural   Cs2KCrO4
_chemical_formula_sum   'Cs4 K2 Cr2 O8'
_cell_volume   364.01449251
_cell_formula_units_Z   2
loop_
 _symmetry_equiv_pos_site_id
 _symmetry_equiv_pos_as_xyz
  1  'x, y, z'
loop_
 _atom_site_type_symbol
 _atom_site_label
 _atom_site_symmetry_multiplicity
 _atom_site_fract_x
 _atom_site_fract_y
 _atom_site_fract_z
 _atom_site_occupancy
  Cs  Cs0  1  0.750000  0.189908  0.512557  1
  Cs  Cs1  1  0.250000  0.810092  0.487443  1
  Cs  Cs2  1  0.250000  0.400929  0.177717  1
  Cs  Cs3  1  0.750000  0.599071  0.822283  1
  K  K4  1  0.250000  0.883111  0.962911  1
  K  K5  1  0.750000  0.116889  0.037089  1
  Cr  Cr6  1  0.750000  0.689915  0.264855  1
  Cr  Cr7  1  0.250000  0.310085  0.735145  1
  O  O8  1  0.969352  0.810307  0.188427  1
  O  O9  1  0.469352  0.189693  0.811573  1
  O  O10  1  0.030648  0.189693  0.811573  1
  O  O11  1  0.530648  0.810307  0.188427  1
  O  O12  1  0.250000  0.550950  0.802279  1
  O  O13  1  0.250000  0.295162  0.530263  1
  O  O14  1  0.750000  0.449050  0.197721  1
  O  O15  1  0.750000  0.704838  0.469737  1
