# generated using pymatgen
data_Ba6DyTl(NiO6)2
_symmetry_space_group_name_H-M   'P 1'
_cell_length_a   7.14027068
_cell_length_b   7.14026989
_cell_length_c   7.14026944
_cell_angle_alpha   92.92681804
_cell_angle_beta   92.92682371
_cell_angle_gamma   92.92679601
_symmetry_Int_Tables_number   1
_chemical_formula_structural   Ba6DyTl(NiO6)2
_chemical_formula_sum   'Ba6 Dy1 Tl1 Ni2 O12'
_cell_volume   362.56054402
_cell_formula_units_Z   1
loop_
 _symmetry_equiv_pos_site_id
 _symmetry_equiv_pos_as_xyz
  1  'x, y, z'
loop_
 _atom_site_type_symbol
 _atom_site_label
 _atom_site_symmetry_multiplicity
 _atom_site_fract_x
 _atom_site_fract_y
 _atom_site_fract_z
 _atom_site_occupancy
  Ba  Ba0  1  0.381653  0.118346  0.750000  1
  Ba  Ba1  1  0.750000  0.381654  0.118347  1
  Ba  Ba2  1  0.249999  0.620567  0.879434  1
  Ba  Ba3  1  0.620566  0.879433  0.250001  1
  Ba  Ba4  1  0.118347  0.750000  0.381654  1
  Ba  Ba5  1  0.879433  0.250000  0.620567  1
  Dy  Dy6  1  0.250001  0.250000  0.250000  1
  Tl  Tl7  1  0.750000  0.750001  0.750000  1
  Ni  Ni8  1  0.497485  0.497485  0.497485  1
  Ni  Ni9  1  0.002515  0.002515  0.002515  1
  O  O10  1  0.776152  0.586356  0.458614  1
  O  O11  1  0.586357  0.458613  0.776152  1
  O  O12  1  0.458613  0.776152  0.586357  1
  O  O13  1  0.041386  0.913644  0.723849  1
  O  O14  1  0.913643  0.723848  0.041386  1
  O  O15  1  0.723849  0.041386  0.913643  1
  O  O16  1  0.216542  0.405643  0.533532  1
  O  O17  1  0.405643  0.533531  0.216542  1
  O  O18  1  0.533531  0.216542  0.405642  1
  O  O19  1  0.966469  0.094357  0.283459  1
  O  O20  1  0.283459  0.966468  0.094356  1
  O  O21  1  0.094356  0.283458  0.966468  1
