# generated using pymatgen
data_Na10AlVP6
_symmetry_space_group_name_H-M   'P 1'
_cell_length_a   7.29256100
_cell_length_b   8.04238189
_cell_length_c   15.33001088
_cell_angle_alpha   59.21234418
_cell_angle_beta   90.00000000
_cell_angle_gamma   90.00000000
_symmetry_Int_Tables_number   1
_chemical_formula_structural   Na10AlVP6
_chemical_formula_sum   'Na20 Al2 V2 P12'
_cell_volume   772.38863837
_cell_formula_units_Z   2
loop_
 _symmetry_equiv_pos_site_id
 _symmetry_equiv_pos_as_xyz
  1  'x, y, z'
loop_
 _atom_site_type_symbol
 _atom_site_label
 _atom_site_symmetry_multiplicity
 _atom_site_fract_x
 _atom_site_fract_y
 _atom_site_fract_z
 _atom_site_occupancy
  Na  Na0  1  0.738652  0.942504  0.244782  1
  Na  Na1  1  0.261348  0.942504  0.744782  1
  Na  Na2  1  0.770156  0.053520  0.758061  1
  Na  Na3  1  0.229844  0.053520  0.258061  1
  Na  Na4  1  0.266681  0.243679  0.420262  1
  Na  Na5  1  0.733319  0.243679  0.920262  1
  Na  Na6  1  0.218774  0.755193  0.579381  1
  Na  Na7  1  0.781226  0.755193  0.079381  1
  Na  Na8  1  0.088108  0.344107  0.582682  1
  Na  Na9  1  0.911892  0.344107  0.082682  1
  Na  Na10  1  0.407876  0.655728  0.419030  1
  Na  Na11  1  0.592124  0.655728  0.919030  1
  Na  Na12  1  0.593311  0.336060  0.242716  1
  Na  Na13  1  0.406689  0.336060  0.742716  1
  Na  Na14  1  0.908558  0.664165  0.759625  1
  Na  Na15  1  0.091442  0.664165  0.259625  1
  Na  Na16  1  0.769987  0.418397  0.409490  1
  Na  Na17  1  0.230013  0.418397  0.909490  1
  Na  Na18  1  0.740996  0.582231  0.589696  1
  Na  Na19  1  0.259004  0.582231  0.089696  1
  Al  Al20  1  0.886564  0.012259  0.417207  1
  Al  Al21  1  0.113436  0.012259  0.917207  1
  V  V22  1  0.616676  0.989687  0.578097  1
  V  V23  1  0.383324  0.989687  0.078097  1
  P  P24  1  0.979878  0.313281  0.273597  1
  P  P25  1  0.020122  0.313281  0.773597  1
  P  P26  1  0.524188  0.706007  0.718613  1
  P  P27  1  0.475812  0.706007  0.218613  1
  P  P28  1  0.933454  0.019488  0.572681  1
  P  P29  1  0.066546  0.019488  0.072681  1
  P  P30  1  0.549165  0.979721  0.433776  1
  P  P31  1  0.450835  0.979721  0.933776  1
  P  P32  1  0.002567  0.728759  0.421480  1
  P  P33  1  0.997433  0.728759  0.921480  1
  P  P34  1  0.495043  0.255212  0.578824  1
  P  P35  1  0.504957  0.255212  0.078824  1
