# generated using pymatgen
data_Cd(IrCl5)2
_symmetry_space_group_name_H-M   'P 1'
_cell_length_a   9.81507126
_cell_length_b   9.81507086
_cell_length_c   12.39370572
_cell_angle_alpha   87.54845361
_cell_angle_beta   87.54845086
_cell_angle_gamma   141.50782552
_symmetry_Int_Tables_number   1
_chemical_formula_structural   Cd(IrCl5)2
_chemical_formula_sum   'Cd2 Ir4 Cl20'
_cell_volume   736.84355858
_cell_formula_units_Z   2
loop_
 _symmetry_equiv_pos_site_id
 _symmetry_equiv_pos_as_xyz
  1  'x, y, z'
loop_
 _atom_site_type_symbol
 _atom_site_label
 _atom_site_symmetry_multiplicity
 _atom_site_fract_x
 _atom_site_fract_y
 _atom_site_fract_z
 _atom_site_occupancy
  Cd  Cd0  1  0.051194  0.948806  0.750000  1
  Cd  Cd1  1  0.948806  0.051194  0.250000  1
  Ir  Ir2  1  0.446264  0.553736  0.750000  1
  Ir  Ir3  1  0.553736  0.446264  0.250000  1
  Ir  Ir4  1  0.254771  0.745229  0.750000  1
  Ir  Ir5  1  0.745229  0.254771  0.250000  1
  Cl  Cl6  1  0.758932  0.460483  0.358276  1
  Cl  Cl7  1  0.539517  0.241068  0.141724  1
  Cl  Cl8  1  0.241068  0.539517  0.641724  1
  Cl  Cl9  1  0.460483  0.758932  0.858276  1
  Cl  Cl10  1  0.877424  0.771194  0.142320  1
  Cl  Cl11  1  0.228806  0.122576  0.357680  1
  Cl  Cl12  1  0.122576  0.228806  0.857680  1
  Cl  Cl13  1  0.771194  0.877424  0.642320  1
  Cl  Cl14  1  0.064320  0.577571  0.149420  1
  Cl  Cl15  1  0.422429  0.935680  0.350580  1
  Cl  Cl16  1  0.935680  0.422429  0.850580  1
  Cl  Cl17  1  0.577571  0.064320  0.649420  1
  Cl  Cl18  1  0.587150  0.655253  0.361544  1
  Cl  Cl19  1  0.344747  0.412850  0.138456  1
  Cl  Cl20  1  0.412850  0.344747  0.638456  1
  Cl  Cl21  1  0.655253  0.587150  0.861545  1
  Cl  Cl22  1  0.944747  0.275171  0.362904  1
  Cl  Cl23  1  0.724829  0.055253  0.137096  1
  Cl  Cl24  1  0.055253  0.724829  0.637096  1
  Cl  Cl25  1  0.275171  0.944747  0.862904  1
