# generated using pymatgen
data_Ca12Fe5Co7(SbO6)8
_symmetry_space_group_name_H-M   'P 1'
_cell_length_a   11.05683833
_cell_length_b   11.05144014
_cell_length_c   11.05683734
_cell_angle_alpha   109.13271065
_cell_angle_beta   109.61485635
_cell_angle_gamma   109.68637258
_symmetry_Int_Tables_number   1
_chemical_formula_structural   Ca12Fe5Co7(SbO6)8
_chemical_formula_sum   'Ca12 Fe5 Co7 Sb8 O48'
_cell_volume   1039.77925440
_cell_formula_units_Z   1
loop_
 _symmetry_equiv_pos_site_id
 _symmetry_equiv_pos_as_xyz
  1  'x, y, z'
loop_
 _atom_site_type_symbol
 _atom_site_label
 _atom_site_symmetry_multiplicity
 _atom_site_fract_x
 _atom_site_fract_y
 _atom_site_fract_z
 _atom_site_occupancy
  Ca  Ca0  1  0.250430  0.375717  0.125826  1
  Ca  Ca1  1  0.750163  0.624272  0.873976  1
  Ca  Ca2  1  0.750108  0.124283  0.374713  1
  Ca  Ca3  1  0.125389  0.250000  0.375389  1
  Ca  Ca4  1  0.375653  0.750000  0.125653  1
  Ca  Ca5  1  0.249704  0.875728  0.625890  1
  Ca  Ca6  1  0.875330  0.750000  0.625330  1
  Ca  Ca7  1  0.623887  0.250000  0.873887  1
  Ca  Ca8  1  0.374646  0.124426  0.249822  1
  Ca  Ca9  1  0.625076  0.875261  0.749926  1
  Ca  Ca10  1  0.125396  0.375574  0.750220  1
  Ca  Ca11  1  0.874665  0.624739  0.249815  1
  Fe  Fe12  1  0.875269  0.250000  0.125269  1
  Fe  Fe13  1  0.624265  0.374504  0.250028  1
  Fe  Fe14  1  0.375425  0.625152  0.749869  1
  Fe  Fe15  1  0.875524  0.125496  0.749762  1
  Fe  Fe16  1  0.124716  0.874848  0.250272  1
  Co  Co17  1  0.249891  0.625504  0.375365  1
  Co  Co18  1  0.749820  0.374715  0.624776  1
  Co  Co19  1  0.749860  0.874496  0.124387  1
  Co  Co20  1  0.374997  0.250000  0.624997  1
  Co  Co21  1  0.625144  0.750000  0.375144  1
  Co  Co22  1  0.250061  0.125285  0.875105  1
  Co  Co23  1  0.124986  0.750000  0.874986  1
  Sb  Sb24  1  0.000870  0.999791  0.999627  1
  Sb  Sb25  1  0.499914  0.999964  0.500102  1
  Sb  Sb26  1  0.999836  0.500209  0.501079  1
  Sb  Sb27  1  0.498890  0.999014  0.999275  1
  Sb  Sb28  1  0.500138  0.500036  0.999950  1
  Sb  Sb29  1  0.499994  0.500113  0.500008  1
  Sb  Sb30  1  0.999895  0.999887  0.499881  1
  Sb  Sb31  1  0.000261  0.500986  0.999876  1
  O  O32  1  0.480010  0.379929  0.303616  1
  O  O33  1  0.519925  0.620199  0.696389  1
  O  O34  1  0.576289  0.176376  0.195851  1
  O  O35  1  0.923688  0.120071  0.600082  1
  O  O36  1  0.303369  0.472331  0.378725  1
  O  O37  1  0.322003  0.919122  0.301090  1
  O  O38  1  0.422384  0.822531  0.802928  1
  O  O39  1  0.076191  0.879801  0.399725  1
  O  O40  1  0.696458  0.527815  0.621027  1
  O  O41  1  0.678101  0.081000  0.699230  1
  O  O42  1  0.019477  0.323624  0.899913  1
  O  O43  1  0.196717  0.575490  0.168805  1
  O  O44  1  0.118544  0.021037  0.198898  1
  O  O45  1  0.980396  0.677469  0.099853  1
  O  O46  1  0.803651  0.425237  0.831014  1
  O  O47  1  0.882002  0.979029  0.800872  1
  O  O48  1  0.593315  0.924510  0.121227  1
  O  O49  1  0.177862  0.478963  0.597509  1
  O  O50  1  0.405777  0.074763  0.878414  1
  O  O51  1  0.821842  0.520971  0.402972  1
  O  O52  1  0.906393  0.027669  0.331037  1
  O  O53  1  0.381968  0.580878  0.902881  1
  O  O54  1  0.093213  0.972185  0.668644  1
  O  O55  1  0.618231  0.419000  0.097101  1
  O  O56  1  0.380720  0.299788  0.479644  1
  O  O57  1  0.577732  0.898361  0.380862  1
  O  O58  1  0.619367  0.700591  0.520633  1
  O  O59  1  0.421971  0.101417  0.619402  1
  O  O60  1  0.119826  0.599098  0.918976  1
  O  O61  1  0.019165  0.196126  0.118745  1
  O  O62  1  0.881682  0.402780  0.080262  1
  O  O63  1  0.981652  0.802046  0.880098  1
  O  O64  1  0.319878  0.900902  0.020729  1
  O  O65  1  0.922619  0.303874  0.323038  1
  O  O66  1  0.677482  0.097220  0.978901  1
  O  O67  1  0.078052  0.697954  0.679607  1
  O  O68  1  0.179857  0.200212  0.580932  1
  O  O69  1  0.482500  0.601639  0.179370  1
  O  O70  1  0.820042  0.799409  0.418777  1
  O  O71  1  0.517986  0.398583  0.820554  1
  O  O72  1  0.303534  0.332325  0.926571  1
  O  O73  1  0.696702  0.667727  0.073198  1
  O  O74  1  0.197374  0.122437  0.028336  1
  O  O75  1  0.804250  0.877676  0.971660  1
  O  O76  1  0.905898  0.377563  0.574937  1
  O  O77  1  0.093985  0.622324  0.426574  1
  O  O78  1  0.594245  0.167675  0.471208  1
  O  O79  1  0.405472  0.832273  0.528977  1
