# generated using pymatgen
data_TbDy4(FeB3)2
_symmetry_space_group_name_H-M   'P 1'
_cell_length_a   5.41476382
_cell_length_b   5.41476351
_cell_length_c   8.28458688
_cell_angle_alpha   70.92549104
_cell_angle_beta   70.92549184
_cell_angle_gamma   59.99998137
_symmetry_Int_Tables_number   1
_chemical_formula_structural   TbDy4(FeB3)2
_chemical_formula_sum   'Tb1 Dy4 Fe2 B6'
_cell_volume   194.80673534
_cell_formula_units_Z   1
loop_
 _symmetry_equiv_pos_site_id
 _symmetry_equiv_pos_as_xyz
  1  'x, y, z'
loop_
 _atom_site_type_symbol
 _atom_site_label
 _atom_site_symmetry_multiplicity
 _atom_site_fract_x
 _atom_site_fract_y
 _atom_site_fract_z
 _atom_site_occupancy
  Tb  Tb0  1  0.000000  0.000000  0.000000  1
  Dy  Dy1  1  0.251168  0.251168  0.246498  1
  Dy  Dy2  1  0.748832  0.748832  0.753502  1
  Dy  Dy3  1  0.416625  0.416625  0.750125  1
  Dy  Dy4  1  0.583375  0.583375  0.249875  1
  Fe  Fe5  1  0.118004  0.118004  0.645990  1
  Fe  Fe6  1  0.881996  0.881996  0.354010  1
  B  B7  1  0.167840  0.832160  0.500000  1
  B  B8  1  0.832160  0.500000  0.500000  1
  B  B9  1  0.500000  0.167840  0.500000  1
  B  B10  1  0.167840  0.500000  0.500000  1
  B  B11  1  0.500000  0.832160  0.500000  1
  B  B12  1  0.832160  0.167840  0.500000  1
