# generated using pymatgen
data_SmHfReB6
_symmetry_space_group_name_H-M   'P 1'
_cell_length_a   3.62768200
_cell_length_b   9.05774500
_cell_length_c   11.48446500
_cell_angle_alpha   90.00000000
_cell_angle_beta   90.00000000
_cell_angle_gamma   90.00000000
_symmetry_Int_Tables_number   1
_chemical_formula_structural   SmHfReB6
_chemical_formula_sum   'Sm4 Hf4 Re4 B24'
_cell_volume   377.36365408
_cell_formula_units_Z   4
loop_
 _symmetry_equiv_pos_site_id
 _symmetry_equiv_pos_as_xyz
  1  'x, y, z'
loop_
 _atom_site_type_symbol
 _atom_site_label
 _atom_site_symmetry_multiplicity
 _atom_site_fract_x
 _atom_site_fract_y
 _atom_site_fract_z
 _atom_site_occupancy
  Sm  Sm0  1  0.000000  0.322907  0.414639  1
  Sm  Sm1  1  0.000000  0.677093  0.585361  1
  Sm  Sm2  1  0.000000  0.822907  0.085361  1
  Sm  Sm3  1  0.000000  0.177093  0.914639  1
  Hf  Hf4  1  0.000000  0.945557  0.372568  1
  Hf  Hf5  1  0.000000  0.054443  0.627432  1
  Hf  Hf6  1  0.000000  0.445557  0.127432  1
  Hf  Hf7  1  0.000000  0.554443  0.872568  1
  Re  Re8  1  0.000000  0.641513  0.316923  1
  Re  Re9  1  0.000000  0.358487  0.683077  1
  Re  Re10  1  0.000000  0.141513  0.183077  1
  Re  Re11  1  0.000000  0.858487  0.816923  1
  B  B12  1  0.500000  0.555717  0.431502  1
  B  B13  1  0.500000  0.444283  0.568498  1
  B  B14  1  0.500000  0.055717  0.068498  1
  B  B15  1  0.500000  0.944283  0.931502  1
  B  B16  1  0.500000  0.753527  0.416712  1
  B  B17  1  0.500000  0.246473  0.583288  1
  B  B18  1  0.500000  0.253527  0.083288  1
  B  B19  1  0.500000  0.746473  0.916712  1
  B  B20  1  0.500000  0.795296  0.264936  1
  B  B21  1  0.500000  0.204704  0.735064  1
  B  B22  1  0.500000  0.295296  0.235064  1
  B  B23  1  0.500000  0.704704  0.764936  1
  B  B24  1  0.500000  0.630059  0.183105  1
  B  B25  1  0.500000  0.369941  0.816895  1
  B  B26  1  0.500000  0.130059  0.316895  1
  B  B27  1  0.500000  0.869941  0.683105  1
  B  B28  1  0.500000  0.983320  0.214828  1
  B  B29  1  0.500000  0.016680  0.785172  1
  B  B30  1  0.500000  0.483320  0.285172  1
  B  B31  1  0.500000  0.516680  0.714828  1
  B  B32  1  0.500000  0.598674  0.026038  1
  B  B33  1  0.500000  0.401326  0.973962  1
  B  B34  1  0.500000  0.098674  0.473962  1
  B  B35  1  0.500000  0.901326  0.526038  1
