# generated using pymatgen
data_Er4Ga4CoNiRh2
_symmetry_space_group_name_H-M   'P 1'
_cell_length_a   4.19364700
_cell_length_b   6.72594137
_cell_length_c   7.67023135
_cell_angle_alpha   90.03627859
_cell_angle_beta   90.00000000
_cell_angle_gamma   90.00000000
_symmetry_Int_Tables_number   1
_chemical_formula_structural   Er4Ga4CoNiRh2
_chemical_formula_sum   'Er4 Ga4 Co1 Ni1 Rh2'
_cell_volume   216.34821902
_cell_formula_units_Z   1
loop_
 _symmetry_equiv_pos_site_id
 _symmetry_equiv_pos_as_xyz
  1  'x, y, z'
loop_
 _atom_site_type_symbol
 _atom_site_label
 _atom_site_symmetry_multiplicity
 _atom_site_fract_x
 _atom_site_fract_y
 _atom_site_fract_z
 _atom_site_occupancy
  Er  Er0  1  0.250000  0.971138  0.313993  1
  Er  Er1  1  0.250000  0.470465  0.183116  1
  Er  Er2  1  0.750000  0.028698  0.686265  1
  Er  Er3  1  0.750000  0.523764  0.815956  1
  Ga  Ga4  1  0.250000  0.350574  0.575546  1
  Ga  Ga5  1  0.250000  0.855664  0.925368  1
  Ga  Ga6  1  0.750000  0.654777  0.442972  1
  Ga  Ga7  1  0.750000  0.155877  0.056755  1
  Co  Co8  1  0.250000  0.230655  0.881498  1
  Ni  Ni9  1  0.250000  0.726663  0.617628  1
  Rh  Rh10  1  0.750000  0.766038  0.115121  1
  Rh  Rh11  1  0.750000  0.265686  0.385783  1
