# generated using pymatgen
data_Ce3As2Se
_symmetry_space_group_name_H-M   'P 1'
_cell_length_a   7.31849354
_cell_length_b   7.31849355
_cell_length_c   7.31849418
_cell_angle_alpha   146.42349818
_cell_angle_beta   131.88473102
_cell_angle_gamma   59.94822887
_symmetry_Int_Tables_number   1
_chemical_formula_structural   Ce3As2Se
_chemical_formula_sum   'Ce3 As2 Se1'
_cell_volume   159.92364919
_cell_formula_units_Z   1
loop_
 _symmetry_equiv_pos_site_id
 _symmetry_equiv_pos_as_xyz
  1  'x, y, z'
loop_
 _atom_site_type_symbol
 _atom_site_label
 _atom_site_symmetry_multiplicity
 _atom_site_fract_x
 _atom_site_fract_y
 _atom_site_fract_z
 _atom_site_occupancy
  Ce  Ce0  1  0.000000  0.000000  0.000000  1
  Ce  Ce1  1  0.669286  0.669286  0.000000  1
  Ce  Ce2  1  0.330714  0.330714  0.000000  1
  As  As3  1  0.165678  0.665678  0.500000  1
  As  As4  1  0.834322  0.334322  0.500000  1
  Se  Se5  1  0.500000  0.000000  0.500000  1
