# generated using pymatgen
data_K3Nd(AsS2)6
_symmetry_space_group_name_H-M   'P 1'
_cell_length_a   9.55702300
_cell_length_b   9.55702251
_cell_length_c   8.05013700
_cell_angle_alpha   90.00000000
_cell_angle_beta   90.00000000
_cell_angle_gamma   120.00000331
_symmetry_Int_Tables_number   1
_chemical_formula_structural   K3Nd(AsS2)6
_chemical_formula_sum   'K3 Nd1 As6 S12'
_cell_volume   636.76491842
_cell_formula_units_Z   1
loop_
 _symmetry_equiv_pos_site_id
 _symmetry_equiv_pos_as_xyz
  1  'x, y, z'
loop_
 _atom_site_type_symbol
 _atom_site_label
 _atom_site_symmetry_multiplicity
 _atom_site_fract_x
 _atom_site_fract_y
 _atom_site_fract_z
 _atom_site_occupancy
  K  K0  1  0.000000  0.000000  0.000000  1
  K  K1  1  0.333333  0.666667  0.857581  1
  K  K2  1  0.666667  0.333333  0.142419  1
  Nd  Nd3  1  0.000000  0.000000  0.500000  1
  As  As4  1  0.292213  0.838574  0.368979  1
  As  As5  1  0.161426  0.453639  0.368979  1
  As  As6  1  0.546361  0.707787  0.368979  1
  As  As7  1  0.707787  0.161426  0.631021  1
  As  As8  1  0.838574  0.546361  0.631021  1
  As  As9  1  0.453639  0.292213  0.631021  1
  S  S10  1  0.260597  0.043802  0.288091  1
  S  S11  1  0.956198  0.216796  0.288091  1
  S  S12  1  0.783204  0.739403  0.288091  1
  S  S13  1  0.739403  0.956198  0.711909  1
  S  S14  1  0.043802  0.783204  0.711909  1
  S  S15  1  0.216796  0.260597  0.711909  1
  S  S16  1  0.522681  0.900578  0.213900  1
  S  S17  1  0.099422  0.622101  0.213900  1
  S  S18  1  0.377899  0.477319  0.213900  1
  S  S19  1  0.477319  0.099422  0.786100  1
  S  S20  1  0.900578  0.377899  0.786100  1
  S  S21  1  0.622101  0.522681  0.786100  1
