# generated using pymatgen
data_YHo15MgCd(InPd2)2
_symmetry_space_group_name_H-M   'P 1'
_cell_length_a   9.66773162
_cell_length_b   9.70409563
_cell_length_c   9.68480200
_cell_angle_alpha   60.06574035
_cell_angle_beta   59.94156682
_cell_angle_gamma   60.06165766
_symmetry_Int_Tables_number   1
_chemical_formula_structural   YHo15MgCd(InPd2)2
_chemical_formula_sum   'Y1 Ho15 Mg1 Cd1 In2 Pd4'
_cell_volume   642.80663383
_cell_formula_units_Z   1
loop_
 _symmetry_equiv_pos_site_id
 _symmetry_equiv_pos_as_xyz
  1  'x, y, z'
loop_
 _atom_site_type_symbol
 _atom_site_label
 _atom_site_symmetry_multiplicity
 _atom_site_fract_x
 _atom_site_fract_y
 _atom_site_fract_z
 _atom_site_occupancy
  Y  Y0  1  0.936925  0.935879  0.563598  1
  Ho  Ho1  1  0.351097  0.352035  0.350857  1
  Ho  Ho2  1  0.351097  0.352035  0.946011  1
  Ho  Ho3  1  0.355559  0.936968  0.353737  1
  Ho  Ho4  1  0.941359  0.355143  0.351749  1
  Ho  Ho5  1  0.810287  0.189593  0.190025  1
  Ho  Ho6  1  0.191683  0.808587  0.809127  1
  Ho  Ho7  1  0.191683  0.808587  0.190602  1
  Ho  Ho8  1  0.810287  0.189593  0.810096  1
  Ho  Ho9  1  0.189085  0.187337  0.811790  1
  Ho  Ho10  1  0.807942  0.808123  0.191967  1
  Ho  Ho11  1  0.937632  0.565003  0.565104  1
  Ho  Ho12  1  0.566031  0.934768  0.933375  1
  Ho  Ho13  1  0.566031  0.934768  0.565826  1
  Ho  Ho14  1  0.937632  0.565003  0.932259  1
  Ho  Ho15  1  0.566773  0.566089  0.933569  1
  Mg  Mg16  1  0.574190  0.269777  0.578017  1
  Cd  Cd17  1  0.252042  0.580079  0.583941  1
  In  In18  1  0.581991  0.582279  0.585204  1
  In  In19  1  0.581991  0.582279  0.250526  1
  Pd  Pd20  1  0.143888  0.142438  0.146123  1
  Pd  Pd21  1  0.143888  0.142438  0.567549  1
  Pd  Pd22  1  0.142127  0.570172  0.143850  1
  Pd  Pd23  1  0.568776  0.141027  0.145098  1
