# generated using pymatgen
data_K2Zr(TeO4)3
_symmetry_space_group_name_H-M   'P 1'
_cell_length_a   7.43207327
_cell_length_b   7.43207364
_cell_length_c   7.43003588
_cell_angle_alpha   58.99437837
_cell_angle_beta   58.99437250
_cell_angle_gamma   58.98031096
_symmetry_Int_Tables_number   1
_chemical_formula_structural   K2Zr(TeO4)3
_chemical_formula_sum   'K2 Zr1 Te3 O12'
_cell_volume   283.51073691
_cell_formula_units_Z   1
loop_
 _symmetry_equiv_pos_site_id
 _symmetry_equiv_pos_as_xyz
  1  'x, y, z'
loop_
 _atom_site_type_symbol
 _atom_site_label
 _atom_site_symmetry_multiplicity
 _atom_site_fract_x
 _atom_site_fract_y
 _atom_site_fract_z
 _atom_site_occupancy
  K  K0  1  0.115204  0.150821  0.621944  1
  K  K1  1  0.849179  0.884796  0.378056  1
  Zr  Zr2  1  0.497249  0.502751  0.000000  1
  Te  Te3  1  0.499112  0.001242  0.000314  1
  Te  Te4  1  0.998758  0.500888  0.999686  1
  Te  Te5  1  0.498740  0.501260  0.500000  1
  O  O6  1  0.821060  0.822621  0.923454  1
  O  O7  1  0.430370  0.430101  0.335805  1
  O  O8  1  0.430897  0.836785  0.929584  1
  O  O9  1  0.820632  0.423977  0.321629  1
  O  O10  1  0.834668  0.431066  0.929899  1
  O  O11  1  0.423373  0.822691  0.322081  1
  O  O12  1  0.177379  0.178940  0.076546  1
  O  O13  1  0.569899  0.569630  0.664195  1
  O  O14  1  0.568934  0.165332  0.070101  1
  O  O15  1  0.177309  0.576627  0.677919  1
  O  O16  1  0.163215  0.569103  0.070416  1
  O  O17  1  0.576023  0.179368  0.678371  1
