# generated using pymatgen
data_NaHoFe6Ni6P7
_symmetry_space_group_name_H-M   'P 1'
_cell_length_a   9.03079700
_cell_length_b   9.03079621
_cell_length_c   3.61266600
_cell_angle_alpha   90.00000000
_cell_angle_beta   90.00000000
_cell_angle_gamma   120.00000556
_symmetry_Int_Tables_number   1
_chemical_formula_structural   NaHoFe6Ni6P7
_chemical_formula_sum   'Na1 Ho1 Fe6 Ni6 P7'
_cell_volume   255.15879440
_cell_formula_units_Z   1
loop_
 _symmetry_equiv_pos_site_id
 _symmetry_equiv_pos_as_xyz
  1  'x, y, z'
loop_
 _atom_site_type_symbol
 _atom_site_label
 _atom_site_symmetry_multiplicity
 _atom_site_fract_x
 _atom_site_fract_y
 _atom_site_fract_z
 _atom_site_occupancy
  Na  Na0  1  0.333333  0.666667  0.500000  1
  Ho  Ho1  1  0.000000  0.000000  0.000000  1
  Fe  Fe2  1  0.783325  0.175637  0.000000  1
  Fe  Fe3  1  0.392312  0.216675  0.000000  1
  Fe  Fe4  1  0.824363  0.607688  0.000000  1
  Fe  Fe5  1  0.544482  0.115230  0.500000  1
  Fe  Fe6  1  0.570748  0.455518  0.500000  1
  Fe  Fe7  1  0.884770  0.429252  0.500000  1
  Ni  Ni8  1  0.290657  0.898602  0.000000  1
  Ni  Ni9  1  0.607945  0.709343  0.000000  1
  Ni  Ni10  1  0.101398  0.392055  0.000000  1
  Ni  Ni11  1  0.716651  0.947153  0.500000  1
  Ni  Ni12  1  0.230501  0.283349  0.500000  1
  Ni  Ni13  1  0.052847  0.769499  0.500000  1
  P  P14  1  0.549907  0.926099  0.000000  1
  P  P15  1  0.376192  0.450093  0.000000  1
  P  P16  1  0.073901  0.623808  0.000000  1
  P  P17  1  0.950626  0.218853  0.500000  1
  P  P18  1  0.268228  0.049374  0.500000  1
  P  P19  1  0.781147  0.731772  0.500000  1
  P  P20  1  0.666667  0.333333  0.000000  1
