# generated using pymatgen
data_HoPa3TlInNi4
_symmetry_space_group_name_H-M   'P 1'
_cell_length_a   7.51929875
_cell_length_b   7.44848153
_cell_length_c   3.57196300
_cell_angle_alpha   90.00000000
_cell_angle_beta   90.00000000
_cell_angle_gamma   91.67035963
_symmetry_Int_Tables_number   1
_chemical_formula_structural   HoPa3TlInNi4
_chemical_formula_sum   'Ho1 Pa3 Tl1 In1 Ni4'
_cell_volume   199.97120083
_cell_formula_units_Z   1
loop_
 _symmetry_equiv_pos_site_id
 _symmetry_equiv_pos_as_xyz
  1  'x, y, z'
loop_
 _atom_site_type_symbol
 _atom_site_label
 _atom_site_symmetry_multiplicity
 _atom_site_fract_x
 _atom_site_fract_y
 _atom_site_fract_z
 _atom_site_occupancy
  Ho  Ho0  1  0.827865  0.673235  0.500000  1
  Pa  Pa1  1  0.676601  0.170605  0.500000  1
  Pa  Pa2  1  0.324584  0.829336  0.500000  1
  Pa  Pa3  1  0.169763  0.328299  0.500000  1
  Tl  Tl4  1  0.507001  0.504348  0.000000  1
  In  In5  1  0.995925  0.992605  0.000000  1
  Ni  Ni6  1  0.136156  0.620662  0.000000  1
  Ni  Ni7  1  0.885655  0.357791  0.000000  1
  Ni  Ni8  1  0.610965  0.894893  0.000000  1
  Ni  Ni9  1  0.365487  0.128223  0.000000  1
