# generated using pymatgen
data_Ca2GePd14
_symmetry_space_group_name_H-M   'P 1'
_cell_length_a   8.98395100
_cell_length_b   8.98395100
_cell_length_c   7.10983100
_cell_angle_alpha   90.00000000
_cell_angle_beta   90.00000000
_cell_angle_gamma   90.00000000
_symmetry_Int_Tables_number   1
_chemical_formula_structural   Ca2GePd14
_chemical_formula_sum   'Ca4 Ge2 Pd28'
_cell_volume   573.84424008
_cell_formula_units_Z   2
loop_
 _symmetry_equiv_pos_site_id
 _symmetry_equiv_pos_as_xyz
  1  'x, y, z'
loop_
 _atom_site_type_symbol
 _atom_site_label
 _atom_site_symmetry_multiplicity
 _atom_site_fract_x
 _atom_site_fract_y
 _atom_site_fract_z
 _atom_site_occupancy
  Ca  Ca0  1  0.500000  0.000000  0.939004  1
  Ca  Ca1  1  0.000000  0.500000  0.060996  1
  Ca  Ca2  1  0.000000  0.000000  0.500000  1
  Ca  Ca3  1  0.500000  0.500000  0.500000  1
  Ge  Ge4  1  0.500000  0.000000  0.448814  1
  Ge  Ge5  1  0.000000  0.500000  0.551186  1
  Pd  Pd6  1  0.330094  0.830094  0.621960  1
  Pd  Pd7  1  0.330094  0.169906  0.621960  1
  Pd  Pd8  1  0.669906  0.830094  0.621960  1
  Pd  Pd9  1  0.669906  0.169906  0.621960  1
  Pd  Pd10  1  0.169906  0.669906  0.378040  1
  Pd  Pd11  1  0.169906  0.330094  0.378040  1
  Pd  Pd12  1  0.830094  0.669906  0.378040  1
  Pd  Pd13  1  0.830094  0.330094  0.378040  1
  Pd  Pd14  1  0.500000  0.766055  0.253768  1
  Pd  Pd15  1  0.500000  0.233945  0.253768  1
  Pd  Pd16  1  0.266055  0.000000  0.253768  1
  Pd  Pd17  1  0.733945  0.000000  0.253768  1
  Pd  Pd18  1  0.000000  0.733945  0.746232  1
  Pd  Pd19  1  0.000000  0.266055  0.746232  1
  Pd  Pd20  1  0.233945  0.500000  0.746232  1
  Pd  Pd21  1  0.766055  0.500000  0.746232  1
  Pd  Pd22  1  0.500000  0.348501  0.857651  1
  Pd  Pd23  1  0.500000  0.651499  0.857651  1
  Pd  Pd24  1  0.848501  0.000000  0.857651  1
  Pd  Pd25  1  0.151499  0.000000  0.857651  1
  Pd  Pd26  1  0.000000  0.151499  0.142349  1
  Pd  Pd27  1  0.000000  0.848501  0.142349  1
  Pd  Pd28  1  0.651499  0.500000  0.142349  1
  Pd  Pd29  1  0.348501  0.500000  0.142349  1
  Pd  Pd30  1  0.250000  0.750000  0.000000  1
  Pd  Pd31  1  0.250000  0.250000  0.000000  1
  Pd  Pd32  1  0.750000  0.750000  0.000000  1
  Pd  Pd33  1  0.750000  0.250000  0.000000  1
