# generated using pymatgen
data_Hf3Nb(GeRh5)2
_symmetry_space_group_name_H-M   'P 1'
_cell_length_a   4.05483000
_cell_length_b   5.58024781
_cell_length_c   10.91203458
_cell_angle_alpha   89.93833861
_cell_angle_beta   90.00000000
_cell_angle_gamma   90.00000000
_symmetry_Int_Tables_number   1
_chemical_formula_structural   Hf3Nb(GeRh5)2
_chemical_formula_sum   'Hf3 Nb1 Ge2 Rh10'
_cell_volume   246.90598571
_cell_formula_units_Z   1
loop_
 _symmetry_equiv_pos_site_id
 _symmetry_equiv_pos_as_xyz
  1  'x, y, z'
loop_
 _atom_site_type_symbol
 _atom_site_label
 _atom_site_symmetry_multiplicity
 _atom_site_fract_x
 _atom_site_fract_y
 _atom_site_fract_z
 _atom_site_occupancy
  Hf  Hf0  1  0.500000  0.820242  0.358512  1
  Hf  Hf1  1  0.500000  0.677511  0.860463  1
  Hf  Hf2  1  0.500000  0.321473  0.141767  1
  Nb  Nb3  1  0.500000  0.175670  0.642263  1
  Ge  Ge4  1  0.000000  0.499166  0.500533  1
  Ge  Ge5  1  0.000000  0.000578  0.999973  1
  Rh  Rh6  1  0.500000  0.187101  0.889063  1
  Rh  Rh7  1  0.500000  0.812375  0.106513  1
  Rh  Rh8  1  0.500000  0.693388  0.607155  1
  Rh  Rh9  1  0.500000  0.309746  0.396683  1
  Rh  Rh10  1  0.000000  0.426812  0.740223  1
  Rh  Rh11  1  0.000000  0.567944  0.256870  1
  Rh  Rh12  1  0.000000  0.005719  0.503062  1
  Rh  Rh13  1  0.000000  0.499022  0.998965  1
  Rh  Rh14  1  0.000000  0.068031  0.244822  1
  Rh  Rh15  1  0.000000  0.935224  0.753134  1
