# generated using pymatgen
data_TmLu15(HgRh)4
_symmetry_space_group_name_H-M   'P 1'
_cell_length_a   9.38992369
_cell_length_b   9.38992388
_cell_length_c   9.38992357
_cell_angle_alpha   60.05408312
_cell_angle_beta   60.05408183
_cell_angle_gamma   60.05407740
_symmetry_Int_Tables_number   1
_chemical_formula_structural   TmLu15(HgRh)4
_chemical_formula_sum   'Tm1 Lu15 Hg4 Rh4'
_cell_volume   586.14247645
_cell_formula_units_Z   1
loop_
 _symmetry_equiv_pos_site_id
 _symmetry_equiv_pos_as_xyz
  1  'x, y, z'
loop_
 _atom_site_type_symbol
 _atom_site_label
 _atom_site_symmetry_multiplicity
 _atom_site_fract_x
 _atom_site_fract_y
 _atom_site_fract_z
 _atom_site_occupancy
  Tm  Tm0  1  0.602105  0.602105  0.602105  1
  Lu  Lu1  1  0.602693  0.602693  0.191946  1
  Lu  Lu2  1  0.602693  0.191946  0.602693  1
  Lu  Lu3  1  0.191946  0.602693  0.602693  1
  Lu  Lu4  1  0.061738  0.438182  0.438182  1
  Lu  Lu5  1  0.438660  0.061547  0.061547  1
  Lu  Lu6  1  0.438182  0.061738  0.438182  1
  Lu  Lu7  1  0.061547  0.438660  0.061547  1
  Lu  Lu8  1  0.438182  0.438182  0.061738  1
  Lu  Lu9  1  0.061547  0.061547  0.438660  1
  Lu  Lu10  1  0.186478  0.813606  0.813606  1
  Lu  Lu11  1  0.813255  0.187149  0.187149  1
  Lu  Lu12  1  0.813606  0.186478  0.813606  1
  Lu  Lu13  1  0.187149  0.813255  0.187149  1
  Lu  Lu14  1  0.813606  0.813606  0.186478  1
  Lu  Lu15  1  0.187149  0.187149  0.813255  1
  Hg  Hg16  1  0.835488  0.835488  0.835488  1
  Hg  Hg17  1  0.835547  0.835547  0.494075  1
  Hg  Hg18  1  0.835547  0.494075  0.835547  1
  Hg  Hg19  1  0.494075  0.835547  0.835547  1
  Rh  Rh20  1  0.393798  0.393798  0.393798  1
  Rh  Rh21  1  0.392775  0.392775  0.819459  1
  Rh  Rh22  1  0.392775  0.819459  0.392775  1
  Rh  Rh23  1  0.819459  0.392775  0.392775  1
