# generated using pymatgen
data_Li2Ti(AgS2)2
_symmetry_space_group_name_H-M   'P 1'
_cell_length_a   6.93428988
_cell_length_b   6.93428915
_cell_length_c   6.93428921
_cell_angle_alpha   129.26730834
_cell_angle_beta   129.26730068
_cell_angle_gamma   74.58084677
_symmetry_Int_Tables_number   1
_chemical_formula_structural   Li2Ti(AgS2)2
_chemical_formula_sum   'Li2 Ti1 Ag2 S4'
_cell_volume   194.73988466
_cell_formula_units_Z   1
loop_
 _symmetry_equiv_pos_site_id
 _symmetry_equiv_pos_as_xyz
  1  'x, y, z'
loop_
 _atom_site_type_symbol
 _atom_site_label
 _atom_site_symmetry_multiplicity
 _atom_site_fract_x
 _atom_site_fract_y
 _atom_site_fract_z
 _atom_site_occupancy
  Li  Li0  1  0.717338  0.717338  0.000000  1
  Li  Li1  1  0.282662  0.282662  0.000000  1
  Ti  Ti2  1  0.000000  0.000000  0.000000  1
  Ag  Ag3  1  0.500000  0.000000  0.500000  1
  Ag  Ag4  1  0.000000  0.500000  0.500000  1
  S  S5  1  0.344302  0.344302  0.431562  1
  S  S6  1  0.655698  0.087261  0.000000  1
  S  S7  1  0.912739  0.912739  0.568438  1
  S  S8  1  0.087261  0.655698  0.000000  1
