# generated using pymatgen
data_Er12InGaCo4
_symmetry_space_group_name_H-M   'P 1'
_cell_length_a   8.27669471
_cell_length_b   8.27679848
_cell_length_c   8.27669300
_cell_angle_alpha   112.07348348
_cell_angle_beta   109.64011780
_cell_angle_gamma   106.74334485
_symmetry_Int_Tables_number   1
_chemical_formula_structural   Er12InGaCo4
_chemical_formula_sum   'Er12 In1 Ga1 Co4'
_cell_volume   435.52831725
_cell_formula_units_Z   1
loop_
 _symmetry_equiv_pos_site_id
 _symmetry_equiv_pos_as_xyz
  1  'x, y, z'
loop_
 _atom_site_type_symbol
 _atom_site_label
 _atom_site_symmetry_multiplicity
 _atom_site_fract_x
 _atom_site_fract_y
 _atom_site_fract_z
 _atom_site_occupancy
  Er  Er0  1  0.966308  0.266373  0.699929  1
  Er  Er1  1  0.033692  0.733627  0.300071  1
  Er  Er2  1  0.675037  0.861928  0.186892  1
  Er  Er3  1  0.324953  0.511848  0.186894  1
  Er  Er4  1  0.324963  0.138072  0.813108  1
  Er  Er5  1  0.675047  0.488152  0.813106  1
  Er  Er6  1  0.566443  0.266373  0.300065  1
  Er  Er7  1  0.433557  0.733627  0.699935  1
  Er  Er8  1  0.180973  0.781901  0.962862  1
  Er  Er9  1  0.819039  0.781901  0.600931  1
  Er  Er10  1  0.180961  0.218099  0.399069  1
  Er  Er11  1  0.819027  0.218099  0.037138  1
  In  In12  1  0.500000  0.000000  0.500000  1
  Ga  Ga13  1  0.000000  0.500000  0.500000  1
  Co  Co14  1  0.114219  0.114216  0.999997  1
  Co  Co15  1  0.885781  0.885784  0.000003  1
  Co  Co16  1  0.661002  0.500000  0.161002  1
  Co  Co17  1  0.338998  0.500000  0.838998  1
