# generated using pymatgen
data_Er3AlZn2CuAu2
_symmetry_space_group_name_H-M   'P 1'
_cell_length_a   7.26486736
_cell_length_b   7.26486627
_cell_length_c   3.92978500
_cell_angle_alpha   90.00000000
_cell_angle_beta   90.00000000
_cell_angle_gamma   120.15733848
_symmetry_Int_Tables_number   1
_chemical_formula_structural   Er3AlZn2CuAu2
_chemical_formula_sum   'Er3 Al1 Zn2 Cu1 Au2'
_cell_volume   179.33456347
_cell_formula_units_Z   1
loop_
 _symmetry_equiv_pos_site_id
 _symmetry_equiv_pos_as_xyz
  1  'x, y, z'
loop_
 _atom_site_type_symbol
 _atom_site_label
 _atom_site_symmetry_multiplicity
 _atom_site_fract_x
 _atom_site_fract_y
 _atom_site_fract_z
 _atom_site_occupancy
  Er  Er0  1  0.405240  0.995024  0.500000  1
  Er  Er1  1  0.995024  0.405240  0.500000  1
  Er  Er2  1  0.601352  0.601352  0.500000  1
  Al  Al3  1  0.229367  0.229367  0.000000  1
  Zn  Zn4  1  0.766740  0.002825  0.000000  1
  Zn  Zn5  1  0.002825  0.766740  0.000000  1
  Cu  Cu6  1  0.006484  0.006484  0.500000  1
  Au  Au7  1  0.333419  0.659549  0.000000  1
  Au  Au8  1  0.659549  0.333419  0.000000  1
