# generated using pymatgen
data_Tl2Te(WO4)3
_symmetry_space_group_name_H-M   'P 1'
_cell_length_a   7.40762400
_cell_length_b   11.99203200
_cell_length_c   12.85770400
_cell_angle_alpha   90.00000000
_cell_angle_beta   90.00000000
_cell_angle_gamma   90.00000000
_symmetry_Int_Tables_number   1
_chemical_formula_structural   Tl2Te(WO4)3
_chemical_formula_sum   'Tl8 Te4 W12 O48'
_cell_volume   1142.18152837
_cell_formula_units_Z   4
loop_
 _symmetry_equiv_pos_site_id
 _symmetry_equiv_pos_as_xyz
  1  'x, y, z'
loop_
 _atom_site_type_symbol
 _atom_site_label
 _atom_site_symmetry_multiplicity
 _atom_site_fract_x
 _atom_site_fract_y
 _atom_site_fract_z
 _atom_site_occupancy
  Tl  Tl0  1  0.250000  0.049191  0.583830  1
  Tl  Tl1  1  0.250000  0.549191  0.916170  1
  Tl  Tl2  1  0.250000  0.438657  0.612770  1
  Tl  Tl3  1  0.250000  0.938657  0.887230  1
  Tl  Tl4  1  0.750000  0.061343  0.112770  1
  Tl  Tl5  1  0.750000  0.950809  0.416170  1
  Tl  Tl6  1  0.750000  0.450809  0.083830  1
  Tl  Tl7  1  0.750000  0.561343  0.387230  1
  Te  Te8  1  0.750000  0.505914  0.798140  1
  Te  Te9  1  0.250000  0.494086  0.201860  1
  Te  Te10  1  0.250000  0.994086  0.298140  1
  Te  Te11  1  0.750000  0.005914  0.701860  1
  W  W12  1  0.496890  0.753319  0.671162  1
  W  W13  1  0.503110  0.746681  0.171162  1
  W  W14  1  0.750000  0.793269  0.921778  1
  W  W15  1  0.496890  0.253319  0.828838  1
  W  W16  1  0.003110  0.253319  0.828838  1
  W  W17  1  0.003110  0.753319  0.671162  1
  W  W18  1  0.996890  0.246681  0.328838  1
  W  W19  1  0.996890  0.746681  0.171162  1
  W  W20  1  0.750000  0.293269  0.578222  1
  W  W21  1  0.503110  0.246681  0.328838  1
  W  W22  1  0.250000  0.706731  0.421778  1
  W  W23  1  0.250000  0.206731  0.078222  1
  O  O24  1  0.750000  0.440268  0.556300  1
  O  O25  1  0.939304  0.421436  0.865473  1
  O  O26  1  0.939304  0.921436  0.634527  1
  O  O27  1  0.953032  0.888387  0.211029  1
  O  O28  1  0.750000  0.117456  0.598003  1
  O  O29  1  0.250000  0.382544  0.098003  1
  O  O30  1  0.564382  0.762916  0.026441  1
  O  O31  1  0.067529  0.200685  0.187222  1
  O  O32  1  0.250000  0.776339  0.142722  1
  O  O33  1  0.750000  0.723661  0.642722  1
  O  O34  1  0.060696  0.078564  0.365473  1
  O  O35  1  0.250000  0.559732  0.443700  1
  O  O36  1  0.935618  0.762916  0.026441  1
  O  O37  1  0.250000  0.059732  0.056300  1
  O  O38  1  0.546968  0.388387  0.288971  1
  O  O39  1  0.435618  0.737084  0.526441  1
  O  O40  1  0.250000  0.276339  0.357278  1
  O  O41  1  0.750000  0.617456  0.901997  1
  O  O42  1  0.439304  0.578564  0.134527  1
  O  O43  1  0.435618  0.237084  0.973559  1
  O  O44  1  0.067529  0.700685  0.312778  1
  O  O45  1  0.567529  0.299315  0.687222  1
  O  O46  1  0.250000  0.306975  0.803985  1
  O  O47  1  0.560696  0.421436  0.865473  1
  O  O48  1  0.453032  0.611613  0.711029  1
  O  O49  1  0.750000  0.940268  0.943700  1
  O  O50  1  0.750000  0.223661  0.857278  1
  O  O51  1  0.750000  0.693025  0.196015  1
  O  O52  1  0.439304  0.078564  0.365473  1
  O  O53  1  0.046968  0.111613  0.788971  1
  O  O54  1  0.453032  0.111613  0.788971  1
  O  O55  1  0.432471  0.700685  0.312778  1
  O  O56  1  0.064382  0.737084  0.526441  1
  O  O57  1  0.560696  0.921436  0.634527  1
  O  O58  1  0.060696  0.578564  0.134527  1
  O  O59  1  0.250000  0.882544  0.401997  1
  O  O60  1  0.932471  0.799315  0.812778  1
  O  O61  1  0.046968  0.611613  0.711029  1
  O  O62  1  0.932471  0.299315  0.687222  1
  O  O63  1  0.250000  0.806975  0.696015  1
  O  O64  1  0.432471  0.200685  0.187222  1
  O  O65  1  0.564382  0.262916  0.473559  1
  O  O66  1  0.953032  0.388387  0.288971  1
  O  O67  1  0.750000  0.193025  0.303985  1
  O  O68  1  0.064382  0.237084  0.973559  1
  O  O69  1  0.935618  0.262916  0.473559  1
  O  O70  1  0.546968  0.888387  0.211029  1
  O  O71  1  0.567529  0.799315  0.812778  1
