# generated using pymatgen
data_Pr3Sn3HgIr2
_symmetry_space_group_name_H-M   'P 1'
_cell_length_a   7.76799200
_cell_length_b   7.76799201
_cell_length_c   4.18640000
_cell_angle_alpha   90.00000000
_cell_angle_beta   90.00000000
_cell_angle_gamma   119.99999143
_symmetry_Int_Tables_number   1
_chemical_formula_structural   Pr3Sn3HgIr2
_chemical_formula_sum   'Pr3 Sn3 Hg1 Ir2'
_cell_volume   218.77058639
_cell_formula_units_Z   1
loop_
 _symmetry_equiv_pos_site_id
 _symmetry_equiv_pos_as_xyz
  1  'x, y, z'
loop_
 _atom_site_type_symbol
 _atom_site_label
 _atom_site_symmetry_multiplicity
 _atom_site_fract_x
 _atom_site_fract_y
 _atom_site_fract_z
 _atom_site_occupancy
  Pr  Pr0  1  0.603554  0.019584  0.000000  1
  Pr  Pr1  1  0.980416  0.583970  0.000000  1
  Pr  Pr2  1  0.416030  0.396446  0.000000  1
  Sn  Sn3  1  0.248596  0.010325  0.500000  1
  Sn  Sn4  1  0.989675  0.238272  0.500000  1
  Sn  Sn5  1  0.761728  0.751404  0.500000  1
  Hg  Hg6  1  0.333333  0.666667  0.500000  1
  Ir  Ir7  1  0.666667  0.333333  0.500000  1
  Ir  Ir8  1  0.000000  0.000000  0.000000  1
