# generated using pymatgen
data_Pr11NdIr2(PtBr6)2
_symmetry_space_group_name_H-M   'P 1'
_cell_length_a   10.64510501
_cell_length_b   10.63709338
_cell_length_c   10.55414338
_cell_angle_alpha   109.44339320
_cell_angle_beta   109.39409881
_cell_angle_gamma   109.83649951
_symmetry_Int_Tables_number   1
_chemical_formula_structural   Pr11NdIr2(PtBr6)2
_chemical_formula_sum   'Pr11 Nd1 Ir2 Pt2 Br12'
_cell_volume   916.99083334
_cell_formula_units_Z   1
loop_
 _symmetry_equiv_pos_site_id
 _symmetry_equiv_pos_as_xyz
  1  'x, y, z'
loop_
 _atom_site_type_symbol
 _atom_site_label
 _atom_site_symmetry_multiplicity
 _atom_site_fract_x
 _atom_site_fract_y
 _atom_site_fract_z
 _atom_site_occupancy
  Pr  Pr0  1  0.755145  0.236915  0.267287  1
  Pr  Pr1  1  0.755522  0.017525  0.488507  1
  Pr  Pr2  1  0.233246  0.471038  0.488237  1
  Pr  Pr3  1  0.263264  0.744560  0.232749  1
  Pr  Pr4  1  0.029109  0.266948  0.011607  1
  Pr  Pr5  1  0.011784  0.029572  0.266826  1
  Pr  Pr6  1  0.482356  0.744185  0.011423  1
  Pr  Pr7  1  0.485419  0.235886  0.471264  1
  Pr  Pr8  1  0.014652  0.485361  0.749887  1
  Pr  Pr9  1  0.264389  0.014923  0.028903  1
  Pr  Pr10  1  0.235243  0.265091  0.750414  1
  Nd  Nd11  1  0.469079  0.487585  0.232529  1
  Ir  Ir12  1  0.000040  0.250158  0.500422  1
  Ir  Ir13  1  0.250665  0.499963  0.000396  1
  Pt  Pt14  1  0.250736  0.251035  0.250037  1
  Pt  Pt15  1  0.500284  0.999725  0.249995  1
  Br  Br16  1  0.250413  0.755383  0.746505  1
  Br  Br17  1  0.508899  0.503946  0.753505  1
  Br  Br18  1  0.993621  0.747306  0.997166  1
  Br  Br19  1  0.744666  0.249667  0.753501  1
  Br  Br20  1  0.996039  0.991147  0.746549  1
  Br  Br21  1  0.250129  0.996501  0.502785  1
  Br  Br22  1  0.752105  0.506359  0.502308  1
  Br  Br23  1  0.503659  0.250707  0.997994  1
  Br  Br24  1  0.753204  0.745471  0.249929  1
  Br  Br25  1  0.746186  0.996129  0.992351  1
  Br  Br26  1  0.996137  0.503809  0.249926  1
  Br  Br27  1  0.504014  0.753105  0.506999  1
