# generated using pymatgen
data_Ta2Be9Mo
_symmetry_space_group_name_H-M   'P 1'
_cell_length_a   7.42941329
_cell_length_b   7.42941299
_cell_length_c   7.42941261
_cell_angle_alpha   35.28623601
_cell_angle_beta   35.28623992
_cell_angle_gamma   35.28622689
_symmetry_Int_Tables_number   1
_chemical_formula_structural   Ta2Be9Mo
_chemical_formula_sum   'Ta2 Be9 Mo1'
_cell_volume   122.24102635
_cell_formula_units_Z   1
loop_
 _symmetry_equiv_pos_site_id
 _symmetry_equiv_pos_as_xyz
  1  'x, y, z'
loop_
 _atom_site_type_symbol
 _atom_site_label
 _atom_site_symmetry_multiplicity
 _atom_site_fract_x
 _atom_site_fract_y
 _atom_site_fract_z
 _atom_site_occupancy
  Ta  Ta0  1  0.142196  0.142196  0.142196  1
  Ta  Ta1  1  0.998665  0.998665  0.998665  1
  Be  Be2  1  0.416581  0.921633  0.416581  1
  Be  Be3  1  0.416581  0.416581  0.921633  1
  Be  Be4  1  0.921633  0.416581  0.416581  1
  Be  Be5  1  0.584821  0.075671  0.584821  1
  Be  Be6  1  0.584821  0.584821  0.075671  1
  Be  Be7  1  0.075671  0.584821  0.584821  1
  Be  Be8  1  0.666180  0.666180  0.666180  1
  Be  Be9  1  0.334744  0.334744  0.334744  1
  Be  Be10  1  0.499959  0.499959  0.499959  1
  Mo  Mo11  1  0.858149  0.858149  0.858149  1
