# generated using pymatgen
data_Nd2Al6CdNi2Hg
_symmetry_space_group_name_H-M   'P 1'
_cell_length_a   4.17188717
_cell_length_b   6.69394000
_cell_length_c   8.33945179
_cell_angle_alpha   89.86477562
_cell_angle_beta   104.48517456
_cell_angle_gamma   90.00000388
_symmetry_Int_Tables_number   1
_chemical_formula_structural   Nd2Al6CdNi2Hg
_chemical_formula_sum   'Nd2 Al6 Cd1 Ni2 Hg1'
_cell_volume   225.48684989
_cell_formula_units_Z   1
loop_
 _symmetry_equiv_pos_site_id
 _symmetry_equiv_pos_as_xyz
  1  'x, y, z'
loop_
 _atom_site_type_symbol
 _atom_site_label
 _atom_site_symmetry_multiplicity
 _atom_site_fract_x
 _atom_site_fract_y
 _atom_site_fract_z
 _atom_site_occupancy
  Nd  Nd0  1  0.878241  0.749648  0.756483  1
  Nd  Nd1  1  0.121759  0.250352  0.243517  1
  Al  Al2  1  0.080669  0.751416  0.161336  1
  Al  Al3  1  0.919331  0.248584  0.838664  1
  Al  Al4  1  0.693196  0.553651  0.386394  1
  Al  Al5  1  0.306804  0.446349  0.613606  1
  Al  Al6  1  0.693695  0.946024  0.387392  1
  Al  Al7  1  0.306305  0.053976  0.612608  1
  Cd  Cd8  1  0.500000  0.500000  0.000000  1
  Ni  Ni9  1  0.224283  0.750707  0.448567  1
  Ni  Ni10  1  0.775717  0.249293  0.551433  1
  Hg  Hg11  1  0.500000  0.000000  0.000000  1
