# generated using pymatgen
data_HoAlCuSi
_symmetry_space_group_name_H-M   'P 1'
_cell_length_a   9.03760179
_cell_length_b   9.03760235
_cell_length_c   3.95403600
_cell_angle_alpha   90.00000000
_cell_angle_beta   90.00000000
_cell_angle_gamma   154.20451688
_symmetry_Int_Tables_number   1
_chemical_formula_structural   HoAlCuSi
_chemical_formula_sum   'Ho2 Al2 Cu2 Si2'
_cell_volume   140.53876708
_cell_formula_units_Z   2
loop_
 _symmetry_equiv_pos_site_id
 _symmetry_equiv_pos_as_xyz
  1  'x, y, z'
loop_
 _atom_site_type_symbol
 _atom_site_label
 _atom_site_symmetry_multiplicity
 _atom_site_fract_x
 _atom_site_fract_y
 _atom_site_fract_z
 _atom_site_occupancy
  Ho  Ho0  1  0.904173  0.095827  0.750000  1
  Ho  Ho1  1  0.095827  0.904173  0.250000  1
  Al  Al2  1  0.248237  0.751763  0.750000  1
  Al  Al3  1  0.751763  0.248237  0.250000  1
  Cu  Cu4  1  0.666186  0.333814  0.750000  1
  Cu  Cu5  1  0.333814  0.666186  0.250000  1
  Si  Si6  1  0.536559  0.463441  0.750000  1
  Si  Si7  1  0.463441  0.536559  0.250000  1
