# generated using pymatgen
data_Sm3(GaRu)2
_symmetry_space_group_name_H-M   'P 1'
_cell_length_a   5.66570000
_cell_length_b   7.93215100
_cell_length_c   13.83565000
_cell_angle_alpha   90.00000000
_cell_angle_beta   90.00000000
_cell_angle_gamma   90.00000000
_symmetry_Int_Tables_number   1
_chemical_formula_structural   Sm3(GaRu)2
_chemical_formula_sum   'Sm12 Ga8 Ru8'
_cell_volume   621.79054666
_cell_formula_units_Z   4
loop_
 _symmetry_equiv_pos_site_id
 _symmetry_equiv_pos_as_xyz
  1  'x, y, z'
loop_
 _atom_site_type_symbol
 _atom_site_label
 _atom_site_symmetry_multiplicity
 _atom_site_fract_x
 _atom_site_fract_y
 _atom_site_fract_z
 _atom_site_occupancy
  Sm  Sm0  1  0.154476  0.403937  0.595469  1
  Sm  Sm1  1  0.845524  0.596063  0.095469  1
  Sm  Sm2  1  0.154476  0.096063  0.404531  1
  Sm  Sm3  1  0.845524  0.903937  0.904531  1
  Sm  Sm4  1  0.845524  0.596063  0.404531  1
  Sm  Sm5  1  0.154476  0.403937  0.904531  1
  Sm  Sm6  1  0.845524  0.903937  0.595469  1
  Sm  Sm7  1  0.154476  0.096063  0.095469  1
  Sm  Sm8  1  0.625626  0.264094  0.750000  1
  Sm  Sm9  1  0.374374  0.735906  0.250000  1
  Sm  Sm10  1  0.625626  0.235906  0.250000  1
  Sm  Sm11  1  0.374374  0.764094  0.750000  1
  Ga  Ga12  1  0.133029  0.108581  0.750000  1
  Ga  Ga13  1  0.866971  0.891419  0.250000  1
  Ga  Ga14  1  0.133029  0.391419  0.250000  1
  Ga  Ga15  1  0.866971  0.608581  0.750000  1
  Ga  Ga16  1  0.626250  0.250000  0.500000  1
  Ga  Ga17  1  0.373750  0.750000  0.000000  1
  Ga  Ga18  1  0.373750  0.750000  0.500000  1
  Ga  Ga19  1  0.626250  0.250000  0.000000  1
  Ru  Ru20  1  0.353063  0.031844  0.593344  1
  Ru  Ru21  1  0.646937  0.968156  0.093344  1
  Ru  Ru22  1  0.353063  0.468156  0.406656  1
  Ru  Ru23  1  0.646937  0.531844  0.906656  1
  Ru  Ru24  1  0.646937  0.968156  0.406656  1
  Ru  Ru25  1  0.353063  0.031844  0.906656  1
  Ru  Ru26  1  0.646937  0.531844  0.593344  1
  Ru  Ru27  1  0.353063  0.468156  0.093344  1
