# generated using pymatgen
data_LiDy2Lu3(GaNi2)6
_symmetry_space_group_name_H-M   'P 1'
_cell_length_a   5.11623700
_cell_length_b   5.11623606
_cell_length_c   15.63361400
_cell_angle_alpha   90.00000000
_cell_angle_beta   90.00000000
_cell_angle_gamma   119.99998665
_symmetry_Int_Tables_number   1
_chemical_formula_structural   LiDy2Lu3(GaNi2)6
_chemical_formula_sum   'Li1 Dy2 Lu3 Ga6 Ni12'
_cell_volume   354.39803390
_cell_formula_units_Z   1
loop_
 _symmetry_equiv_pos_site_id
 _symmetry_equiv_pos_as_xyz
  1  'x, y, z'
loop_
 _atom_site_type_symbol
 _atom_site_label
 _atom_site_symmetry_multiplicity
 _atom_site_fract_x
 _atom_site_fract_y
 _atom_site_fract_z
 _atom_site_occupancy
  Li  Li0  1  0.333333  0.666667  0.525519  1
  Dy  Dy1  1  0.333333  0.666667  0.717155  1
  Dy  Dy2  1  0.666667  0.333333  0.263142  1
  Lu  Lu3  1  0.666667  0.333333  0.471716  1
  Lu  Lu4  1  0.666667  0.333333  0.046620  1
  Lu  Lu5  1  0.333333  0.666667  0.948656  1
  Ga  Ga6  1  0.000000  0.000000  0.248886  1
  Ga  Ga7  1  0.000000  0.000000  0.755370  1
  Ga  Ga8  1  0.333333  0.666667  0.250690  1
  Ga  Ga9  1  0.666667  0.333333  0.753032  1
  Ga  Ga10  1  0.000000  0.000000  0.001046  1
  Ga  Ga11  1  0.000000  0.000000  0.502795  1
  Ni  Ni12  1  0.169606  0.339213  0.125083  1
  Ni  Ni13  1  0.830155  0.660310  0.877323  1
  Ni  Ni14  1  0.660787  0.830394  0.125083  1
  Ni  Ni15  1  0.833179  0.666358  0.626993  1
  Ni  Ni16  1  0.339690  0.169845  0.877323  1
  Ni  Ni17  1  0.167459  0.334918  0.375725  1
  Ni  Ni18  1  0.169606  0.830394  0.125083  1
  Ni  Ni19  1  0.333642  0.166821  0.626993  1
  Ni  Ni20  1  0.830155  0.169845  0.877323  1
  Ni  Ni21  1  0.665082  0.832541  0.375725  1
  Ni  Ni22  1  0.833179  0.166821  0.626993  1
  Ni  Ni23  1  0.167459  0.832541  0.375725  1
