# generated using pymatgen
data_Er2Lu2B12MoOs
_symmetry_space_group_name_H-M   'P 1'
_cell_length_a   3.61099800
_cell_length_b   9.12407835
_cell_length_c   11.50855933
_cell_angle_alpha   89.81578802
_cell_angle_beta   90.00000000
_cell_angle_gamma   90.00000000
_symmetry_Int_Tables_number   1
_chemical_formula_structural   Er2Lu2B12MoOs
_chemical_formula_sum   'Er4 Lu4 B24 Mo2 Os2'
_cell_volume   379.17087453
_cell_formula_units_Z   2
loop_
 _symmetry_equiv_pos_site_id
 _symmetry_equiv_pos_as_xyz
  1  'x, y, z'
loop_
 _atom_site_type_symbol
 _atom_site_label
 _atom_site_symmetry_multiplicity
 _atom_site_fract_x
 _atom_site_fract_y
 _atom_site_fract_z
 _atom_site_occupancy
  Er  Er0  1  0.000000  0.321388  0.414114  1
  Er  Er1  1  0.000000  0.678612  0.585886  1
  Er  Er2  1  0.000000  0.821377  0.086027  1
  Er  Er3  1  0.000000  0.178623  0.913973  1
  Lu  Lu4  1  0.000000  0.944426  0.371637  1
  Lu  Lu5  1  0.000000  0.055574  0.628363  1
  Lu  Lu6  1  0.000000  0.442714  0.128069  1
  Lu  Lu7  1  0.000000  0.557286  0.871931  1
  B  B8  1  0.500000  0.551793  0.434081  1
  B  B9  1  0.500000  0.448207  0.565919  1
  B  B10  1  0.500000  0.054007  0.066741  1
  B  B11  1  0.500000  0.945993  0.933259  1
  B  B12  1  0.500000  0.751718  0.420895  1
  B  B13  1  0.500000  0.248282  0.579105  1
  B  B14  1  0.500000  0.250003  0.080939  1
  B  B15  1  0.500000  0.749997  0.919061  1
  B  B16  1  0.500000  0.795812  0.264002  1
  B  B17  1  0.500000  0.204188  0.735997  1
  B  B18  1  0.500000  0.291368  0.233895  1
  B  B19  1  0.500000  0.708632  0.766106  1
  B  B20  1  0.500000  0.630868  0.182035  1
  B  B21  1  0.500000  0.369132  0.817965  1
  B  B22  1  0.500000  0.129920  0.314047  1
  B  B23  1  0.500000  0.870080  0.685953  1
  B  B24  1  0.500000  0.982533  0.212090  1
  B  B25  1  0.500000  0.017467  0.787910  1
  B  B26  1  0.500000  0.478090  0.286538  1
  B  B27  1  0.500000  0.521910  0.713462  1
  B  B28  1  0.500000  0.600958  0.027391  1
  B  B29  1  0.500000  0.399042  0.972609  1
  B  B30  1  0.500000  0.101132  0.471131  1
  B  B31  1  0.500000  0.898868  0.528869  1
  Mo  Mo32  1  0.000000  0.639786  0.318544  1
  Mo  Mo33  1  0.000000  0.360214  0.681456  1
  Os  Os34  1  0.000000  0.138201  0.178204  1
  Os  Os35  1  0.000000  0.861799  0.821796  1
