# generated using pymatgen
data_LaYb7(DyRu2)2
_symmetry_space_group_name_H-M   'P 1'
_cell_length_a   8.65027628
_cell_length_b   8.60952137
_cell_length_c   7.35828014
_cell_angle_alpha   82.89178436
_cell_angle_beta   83.34369588
_cell_angle_gamma   43.63066355
_symmetry_Int_Tables_number   1
_chemical_formula_structural   LaYb7(DyRu2)2
_chemical_formula_sum   'La1 Yb7 Dy2 Ru4'
_cell_volume   374.94386245
_cell_formula_units_Z   1
loop_
 _symmetry_equiv_pos_site_id
 _symmetry_equiv_pos_as_xyz
  1  'x, y, z'
loop_
 _atom_site_type_symbol
 _atom_site_label
 _atom_site_symmetry_multiplicity
 _atom_site_fract_x
 _atom_site_fract_y
 _atom_site_fract_z
 _atom_site_occupancy
  La  La0  1  0.810078  0.010661  0.409000  1
  Yb  Yb1  1  0.201761  0.978772  0.581707  1
  Yb  Yb2  1  0.025844  0.803051  0.915479  1
  Yb  Yb3  1  0.201798  0.365864  0.318747  1
  Yb  Yb4  1  0.635607  0.793352  0.179212  1
  Yb  Yb5  1  0.794993  0.631129  0.681482  1
  Yb  Yb6  1  0.366083  0.199970  0.823554  1
  Yb  Yb7  1  0.974414  0.205726  0.077263  1
  Dy  Dy8  1  0.565039  0.436079  0.750310  1
  Dy  Dy9  1  0.432334  0.572035  0.249261  1
  Ru  Ru10  1  0.163525  0.624326  0.566003  1
  Ru  Ru11  1  0.402860  0.810535  0.926210  1
  Ru  Ru12  1  0.808599  0.397814  0.429725  1
  Ru  Ru13  1  0.617064  0.170686  0.092045  1
