# generated using pymatgen
data_Y3CoP6Rh7W
_symmetry_space_group_name_H-M   'P 1'
_cell_length_a   3.89816400
_cell_length_b   11.07873700
_cell_length_c   12.78109600
_cell_angle_alpha   90.00000000
_cell_angle_beta   90.00000000
_cell_angle_gamma   90.00000000
_symmetry_Int_Tables_number   1
_chemical_formula_structural   Y3CoP6Rh7W
_chemical_formula_sum   'Y6 Co2 P12 Rh14 W2'
_cell_volume   551.97378984
_cell_formula_units_Z   2
loop_
 _symmetry_equiv_pos_site_id
 _symmetry_equiv_pos_as_xyz
  1  'x, y, z'
loop_
 _atom_site_type_symbol
 _atom_site_label
 _atom_site_symmetry_multiplicity
 _atom_site_fract_x
 _atom_site_fract_y
 _atom_site_fract_z
 _atom_site_occupancy
  Y  Y0  1  0.000000  0.500000  0.521976  1
  Y  Y1  1  0.500000  0.000000  0.478024  1
  Y  Y2  1  0.500000  0.817192  0.200874  1
  Y  Y3  1  0.500000  0.182808  0.200874  1
  Y  Y4  1  0.000000  0.682808  0.799126  1
  Y  Y5  1  0.000000  0.317192  0.799126  1
  Co  Co6  1  0.000000  0.500000  0.991919  1
  Co  Co7  1  0.500000  0.000000  0.008081  1
  P  P8  1  0.500000  0.500000  0.879129  1
  P  P9  1  0.000000  0.000000  0.120871  1
  P  P10  1  0.500000  0.500000  0.345667  1
  P  P11  1  0.000000  0.000000  0.654333  1
  P  P12  1  0.500000  0.315136  0.618749  1
  P  P13  1  0.500000  0.684864  0.618749  1
  P  P14  1  0.000000  0.184864  0.381251  1
  P  P15  1  0.000000  0.815136  0.381251  1
  P  P16  1  0.500000  0.851018  0.891797  1
  P  P17  1  0.500000  0.148982  0.891797  1
  P  P18  1  0.000000  0.648982  0.108203  1
  P  P19  1  0.000000  0.351018  0.108203  1
  Rh  Rh20  1  0.500000  0.500000  0.701194  1
  Rh  Rh21  1  0.000000  0.000000  0.298806  1
  Rh  Rh22  1  0.500000  0.334518  0.987265  1
  Rh  Rh23  1  0.500000  0.665482  0.987265  1
  Rh  Rh24  1  0.000000  0.165482  0.012735  1
  Rh  Rh25  1  0.000000  0.834518  0.012735  1
  Rh  Rh26  1  0.500000  0.295895  0.431697  1
  Rh  Rh27  1  0.500000  0.704105  0.431697  1
  Rh  Rh28  1  0.000000  0.204105  0.568303  1
  Rh  Rh29  1  0.000000  0.795895  0.568303  1
  Rh  Rh30  1  0.500000  0.875147  0.710801  1
  Rh  Rh31  1  0.500000  0.124853  0.710801  1
  Rh  Rh32  1  0.000000  0.624853  0.289199  1
  Rh  Rh33  1  0.000000  0.375147  0.289199  1
  W  W34  1  0.500000  0.500000  0.155820  1
  W  W35  1  0.000000  0.000000  0.844180  1
