# generated using pymatgen
data_MnNb6B4Ru9
_symmetry_space_group_name_H-M   'P 1'
_cell_length_a   9.40286232
_cell_length_b   9.40286232
_cell_length_c   3.02490500
_cell_angle_alpha   90.00000000
_cell_angle_beta   90.00000000
_cell_angle_gamma   90.28618481
_symmetry_Int_Tables_number   1
_chemical_formula_structural   MnNb6B4Ru9
_chemical_formula_sum   'Mn1 Nb6 B4 Ru9'
_cell_volume   267.44006964
_cell_formula_units_Z   1
loop_
 _symmetry_equiv_pos_site_id
 _symmetry_equiv_pos_as_xyz
  1  'x, y, z'
loop_
 _atom_site_type_symbol
 _atom_site_label
 _atom_site_symmetry_multiplicity
 _atom_site_fract_x
 _atom_site_fract_y
 _atom_site_fract_z
 _atom_site_occupancy
  Mn  Mn0  1  0.500000  0.000000  0.500000  1
  Nb  Nb1  1  0.822461  0.677539  0.000000  1
  Nb  Nb2  1  0.177539  0.322461  0.000000  1
  Nb  Nb3  1  0.331913  0.831913  0.000000  1
  Nb  Nb4  1  0.668087  0.168087  0.000000  1
  Nb  Nb5  1  0.500000  0.500000  0.000000  1
  Nb  Nb6  1  0.000000  0.000000  0.000000  1
  B  B7  1  0.612515  0.887485  0.000000  1
  B  B8  1  0.387485  0.112515  0.000000  1
  B  B9  1  0.122232  0.622232  0.000000  1
  B  B10  1  0.877768  0.377768  0.000000  1
  Ru  Ru11  1  0.570110  0.721776  0.500000  1
  Ru  Ru12  1  0.429890  0.278224  0.500000  1
  Ru  Ru13  1  0.072805  0.782300  0.500000  1
  Ru  Ru14  1  0.927195  0.217700  0.500000  1
  Ru  Ru15  1  0.282300  0.572805  0.500000  1
  Ru  Ru16  1  0.717700  0.427195  0.500000  1
  Ru  Ru17  1  0.221776  0.070110  0.500000  1
  Ru  Ru18  1  0.778224  0.929890  0.500000  1
  Ru  Ru19  1  0.000000  0.500000  0.500000  1
