# generated using pymatgen
data_Li2Dy2Co5(P2Rh)3
_symmetry_space_group_name_H-M   'P 1'
_cell_length_a   3.73760700
_cell_length_b   10.49597300
_cell_length_c   12.34378100
_cell_angle_alpha   90.00000000
_cell_angle_beta   90.00000000
_cell_angle_gamma   90.00000000
_symmetry_Int_Tables_number   1
_chemical_formula_structural   Li2Dy2Co5(P2Rh)3
_chemical_formula_sum   'Li4 Dy4 Co10 P12 Rh6'
_cell_volume   484.24433337
_cell_formula_units_Z   2
loop_
 _symmetry_equiv_pos_site_id
 _symmetry_equiv_pos_as_xyz
  1  'x, y, z'
loop_
 _atom_site_type_symbol
 _atom_site_label
 _atom_site_symmetry_multiplicity
 _atom_site_fract_x
 _atom_site_fract_y
 _atom_site_fract_z
 _atom_site_occupancy
  Li  Li0  1  0.250000  0.704428  0.991336  1
  Li  Li1  1  0.250000  0.795572  0.491336  1
  Li  Li2  1  0.750000  0.294112  0.010714  1
  Li  Li3  1  0.750000  0.205888  0.510714  1
  Dy  Dy4  1  0.250000  0.582269  0.709419  1
  Dy  Dy5  1  0.250000  0.917731  0.209419  1
  Dy  Dy6  1  0.750000  0.423016  0.291839  1
  Dy  Dy7  1  0.750000  0.076984  0.791839  1
  Co  Co8  1  0.750000  0.777670  0.822394  1
  Co  Co9  1  0.750000  0.722330  0.322394  1
  Co  Co10  1  0.250000  0.878276  0.695988  1
  Co  Co11  1  0.250000  0.621724  0.195988  1
  Co  Co12  1  0.750000  0.116313  0.307441  1
  Co  Co13  1  0.750000  0.383687  0.807441  1
  Co  Co14  1  0.250000  0.469117  0.934468  1
  Co  Co15  1  0.250000  0.030883  0.434468  1
  Co  Co16  1  0.750000  0.537951  0.064762  1
  Co  Co17  1  0.750000  0.962049  0.564762  1
  P  P18  1  0.250000  0.433161  0.111886  1
  P  P19  1  0.250000  0.066839  0.611886  1
  P  P20  1  0.750000  0.577216  0.885914  1
  P  P21  1  0.750000  0.922784  0.385914  1
  P  P22  1  0.250000  0.275456  0.863813  1
  P  P23  1  0.250000  0.224544  0.363813  1
  P  P24  1  0.750000  0.725448  0.142865  1
  P  P25  1  0.750000  0.774552  0.642865  1
  P  P26  1  0.250000  0.608831  0.379324  1
  P  P27  1  0.250000  0.891169  0.879324  1
  P  P28  1  0.750000  0.402580  0.616085  1
  P  P29  1  0.750000  0.097420  0.116085  1
  Rh  Rh30  1  0.250000  0.405981  0.477824  1
  Rh  Rh31  1  0.250000  0.094019  0.977824  1
  Rh  Rh32  1  0.750000  0.602869  0.518176  1
  Rh  Rh33  1  0.750000  0.897131  0.018176  1
  Rh  Rh34  1  0.250000  0.223360  0.175748  1
  Rh  Rh35  1  0.250000  0.276640  0.675748  1
