# generated using pymatgen
data_Yb4Cu(Si2Pt)5
_symmetry_space_group_name_H-M   'P 1'
_cell_length_a   8.23574348
_cell_length_b   8.23574229
_cell_length_c   8.23574297
_cell_angle_alpha   138.70391870
_cell_angle_beta   104.33502644
_cell_angle_gamma   90.06298540
_symmetry_Int_Tables_number   1
_chemical_formula_structural   Yb4Cu(Si2Pt)5
_chemical_formula_sum   'Yb4 Cu1 Si10 Pt5'
_cell_volume   341.53969501
_cell_formula_units_Z   1
loop_
 _symmetry_equiv_pos_site_id
 _symmetry_equiv_pos_as_xyz
  1  'x, y, z'
loop_
 _atom_site_type_symbol
 _atom_site_label
 _atom_site_symmetry_multiplicity
 _atom_site_fract_x
 _atom_site_fract_y
 _atom_site_fract_z
 _atom_site_occupancy
  Yb  Yb0  1  0.107704  0.872331  0.236325  1
  Yb  Yb1  1  0.892296  0.128622  0.764627  1
  Yb  Yb2  1  0.636006  0.371378  0.263675  1
  Yb  Yb3  1  0.363994  0.627669  0.735373  1
  Cu  Cu4  1  0.500000  0.750000  0.250000  1
  Si  Si5  1  0.000000  0.750000  0.750000  1
  Si  Si6  1  0.000000  0.250000  0.250000  1
  Si  Si7  1  0.273618  0.023618  0.750000  1
  Si  Si8  1  0.726382  0.476382  0.750000  1
  Si  Si9  1  0.729571  0.979571  0.250000  1
  Si  Si10  1  0.270429  0.520429  0.250000  1
  Si  Si11  1  0.761775  0.618675  0.154706  1
  Si  Si12  1  0.238225  0.392931  0.856902  1
  Si  Si13  1  0.463971  0.107069  0.345294  1
  Si  Si14  1  0.536029  0.881325  0.643098  1
  Pt  Pt15  1  0.500000  0.250000  0.750000  1
  Pt  Pt16  1  0.019917  0.638546  0.385375  1
  Pt  Pt17  1  0.980083  0.365457  0.618630  1
  Pt  Pt18  1  0.253172  0.134543  0.114625  1
  Pt  Pt19  1  0.746828  0.861454  0.881370  1
