# generated using pymatgen
data_Sr4Yb2(VH9)3
_symmetry_space_group_name_H-M   'P 1'
_cell_length_a   8.69539800
_cell_length_b   8.57813601
_cell_length_c   5.03887600
_cell_angle_alpha   90.00000000
_cell_angle_beta   90.00000000
_cell_angle_gamma   120.45325080
_symmetry_Int_Tables_number   1
_chemical_formula_structural   Sr4Yb2(VH9)3
_chemical_formula_sum   'Sr4 Yb2 V3 H27'
_cell_volume   323.99998323
_cell_formula_units_Z   1
loop_
 _symmetry_equiv_pos_site_id
 _symmetry_equiv_pos_as_xyz
  1  'x, y, z'
loop_
 _atom_site_type_symbol
 _atom_site_label
 _atom_site_symmetry_multiplicity
 _atom_site_fract_x
 _atom_site_fract_y
 _atom_site_fract_z
 _atom_site_occupancy
  Sr  Sr0  1  0.261457  0.000000  0.500000  1
  Sr  Sr1  1  0.001234  0.594797  0.000000  1
  Sr  Sr2  1  0.406436  0.405203  0.000000  1
  Sr  Sr3  1  0.601412  0.000000  0.000000  1
  Yb  Yb4  1  0.999246  0.266955  0.500000  1
  Yb  Yb5  1  0.732291  0.733045  0.500000  1
  V  V6  1  0.674397  0.339564  0.500000  1
  V  V7  1  0.334832  0.660436  0.500000  1
  V  V8  1  0.991659  0.000000  0.000000  1
  H  H9  1  0.806826  0.321503  0.741817  1
  H  H10  1  0.689268  0.487489  0.747180  1
  H  H11  1  0.527379  0.207959  0.749389  1
  H  H12  1  0.201779  0.512511  0.252820  1
  H  H13  1  0.527379  0.207959  0.250611  1
  H  H14  1  0.806826  0.321503  0.258183  1
  H  H15  1  0.689268  0.487489  0.252820  1
  H  H16  1  0.319419  0.792041  0.749389  1
  H  H17  1  0.485322  0.678497  0.741817  1
  H  H18  1  0.188976  0.000000  0.000000  1
  H  H19  1  0.789281  0.802848  0.000000  1
  H  H20  1  0.986433  0.197152  0.000000  1
  H  H21  1  0.857726  0.000000  0.250469  1
  H  H22  1  0.134092  0.148291  0.764549  1
  H  H23  1  0.985801  0.851709  0.764549  1
  H  H24  1  0.985801  0.851709  0.235451  1
  H  H25  1  0.134092  0.148291  0.235451  1
  H  H26  1  0.857726  0.000000  0.749531  1
  H  H27  1  0.133114  0.643943  0.500000  1
  H  H28  1  0.523517  0.864690  0.500000  1
  H  H29  1  0.339397  0.466300  0.500000  1
  H  H30  1  0.489171  0.356057  0.500000  1
  H  H31  1  0.873097  0.533700  0.500000  1
  H  H32  1  0.658828  0.135310  0.500000  1
  H  H33  1  0.201779  0.512511  0.747180  1
  H  H34  1  0.319419  0.792041  0.250611  1
  H  H35  1  0.485322  0.678497  0.258183  1
