# generated using pymatgen
data_Cs4US5
_symmetry_space_group_name_H-M   'P 1'
_cell_length_a   8.17768724
_cell_length_b   12.15320575
_cell_length_c   8.03299200
_cell_angle_alpha   101.35293811
_cell_angle_beta   102.29381962
_cell_angle_gamma   110.40113400
_symmetry_Int_Tables_number   1
_chemical_formula_structural   Cs4US5
_chemical_formula_sum   'Cs8 U2 S10'
_cell_volume   698.35936907
_cell_formula_units_Z   2
loop_
 _symmetry_equiv_pos_site_id
 _symmetry_equiv_pos_as_xyz
  1  'x, y, z'
loop_
 _atom_site_type_symbol
 _atom_site_label
 _atom_site_symmetry_multiplicity
 _atom_site_fract_x
 _atom_site_fract_y
 _atom_site_fract_z
 _atom_site_occupancy
  Cs  Cs0  1  0.999990  0.500004  0.999976  1
  Cs  Cs1  1  0.430581  0.908020  0.212392  1
  Cs  Cs2  1  0.595683  0.596458  0.292934  1
  Cs  Cs3  1  0.797260  0.295113  0.420596  1
  Cs  Cs4  1  0.202730  0.704851  0.579401  1
  Cs  Cs5  1  0.404339  0.403544  0.707070  1
  Cs  Cs6  1  0.569389  0.091944  0.787573  1
  Cs  Cs7  1  0.999986  0.999980  0.499995  1
  U  U8  1  0.182621  0.187866  0.097019  1
  U  U9  1  0.817400  0.812161  0.903007  1
  S  S10  1  0.493771  0.299055  0.064233  1
  S  S11  1  0.855297  0.033078  0.097954  1
  S  S12  1  0.973505  0.767351  0.173131  1
  S  S13  1  0.173634  0.377096  0.289475  1
  S  S14  1  0.350213  0.156029  0.373414  1
  S  S15  1  0.649839  0.843956  0.626680  1
  S  S16  1  0.826364  0.622998  0.710600  1
  S  S17  1  0.026420  0.232659  0.826773  1
  S  S18  1  0.144627  0.966848  0.902020  1
  S  S19  1  0.506354  0.700986  0.935755  1
