# generated using pymatgen
data_Lu12Co3BiOs2
_symmetry_space_group_name_H-M   'P 1'
_cell_length_a   8.20239798
_cell_length_b   8.20239878
_cell_length_c   8.20239812
_cell_angle_alpha   110.93038755
_cell_angle_beta   112.30366326
_cell_angle_gamma   105.26306416
_symmetry_Int_Tables_number   1
_chemical_formula_structural   Lu12Co3BiOs2
_chemical_formula_sum   'Lu12 Co3 Bi1 Os2'
_cell_volume   423.04781878
_cell_formula_units_Z   1
loop_
 _symmetry_equiv_pos_site_id
 _symmetry_equiv_pos_as_xyz
  1  'x, y, z'
loop_
 _atom_site_type_symbol
 _atom_site_label
 _atom_site_symmetry_multiplicity
 _atom_site_fract_x
 _atom_site_fract_y
 _atom_site_fract_z
 _atom_site_occupancy
  Lu  Lu0  1  0.273864  0.181853  0.455716  1
  Lu  Lu1  1  0.724005  0.819012  0.543018  1
  Lu  Lu2  1  0.275995  0.819012  0.095006  1
  Lu  Lu3  1  0.726136  0.181853  0.907990  1
  Lu  Lu4  1  0.618948  0.306677  0.307900  1
  Lu  Lu5  1  0.381052  0.688952  0.687729  1
  Lu  Lu6  1  0.998777  0.306677  0.687729  1
  Lu  Lu7  1  0.001223  0.688952  0.307900  1
  Lu  Lu8  1  0.221915  0.415862  0.193948  1
  Lu  Lu9  1  0.782454  0.585123  0.802668  1
  Lu  Lu10  1  0.217546  0.020214  0.802668  1
  Lu  Lu11  1  0.778085  0.972034  0.193948  1
  Co  Co12  1  0.000000  0.639780  0.639780  1
  Co  Co13  1  0.389824  0.889688  0.499864  1
  Co  Co14  1  0.610176  0.110040  0.499864  1
  Bi  Bi15  1  0.500000  0.497108  0.997108  1
  Os  Os16  1  0.000000  0.377262  0.377262  1
  Os  Os17  1  0.000000  0.999900  0.999900  1
