# generated using pymatgen
data_Tb2Sm3Sn3Br
_symmetry_space_group_name_H-M   'P 1'
_cell_length_a   9.32089400
_cell_length_b   9.32089401
_cell_length_c   6.70840900
_cell_angle_alpha   90.00000000
_cell_angle_beta   90.00000000
_cell_angle_gamma   119.99999997
_symmetry_Int_Tables_number   1
_chemical_formula_structural   Tb2Sm3Sn3Br
_chemical_formula_sum   'Tb4 Sm6 Sn6 Br2'
_cell_volume   504.73718738
_cell_formula_units_Z   2
loop_
 _symmetry_equiv_pos_site_id
 _symmetry_equiv_pos_as_xyz
  1  'x, y, z'
loop_
 _atom_site_type_symbol
 _atom_site_label
 _atom_site_symmetry_multiplicity
 _atom_site_fract_x
 _atom_site_fract_y
 _atom_site_fract_z
 _atom_site_occupancy
  Tb  Tb0  1  0.666667  0.333333  0.000000  1
  Tb  Tb1  1  0.333333  0.666667  0.500000  1
  Tb  Tb2  1  0.666667  0.333333  0.500000  1
  Tb  Tb3  1  0.333333  0.666667  0.000000  1
  Sm  Sm4  1  0.733330  0.000000  0.750000  1
  Sm  Sm5  1  0.733330  0.733330  0.250000  1
  Sm  Sm6  1  0.000000  0.266670  0.250000  1
  Sm  Sm7  1  0.000000  0.733330  0.750000  1
  Sm  Sm8  1  0.266670  0.266670  0.750000  1
  Sm  Sm9  1  0.266670  0.000000  0.250000  1
  Sn  Sn10  1  0.609503  0.609503  0.750000  1
  Sn  Sn11  1  0.000000  0.609503  0.250000  1
  Sn  Sn12  1  0.609503  0.000000  0.250000  1
  Sn  Sn13  1  0.390497  0.000000  0.750000  1
  Sn  Sn14  1  0.000000  0.390497  0.750000  1
  Sn  Sn15  1  0.390497  0.390497  0.250000  1
  Br  Br16  1  0.000000  0.000000  0.500000  1
  Br  Br17  1  0.000000  0.000000  0.000000  1
