# generated using pymatgen
data_Ba2SrCa2Al7Ga2
_symmetry_space_group_name_H-M   'P 1'
_cell_length_a   12.28707261
_cell_length_b   12.28707321
_cell_length_c   12.28707369
_cell_angle_alpha   27.32893825
_cell_angle_beta   27.32893116
_cell_angle_gamma   27.32893721
_symmetry_Int_Tables_number   1
_chemical_formula_structural   Ba2SrCa2Al7Ga2
_chemical_formula_sum   'Ba2 Sr1 Ca2 Al7 Ga2'
_cell_volume   345.01344060
_cell_formula_units_Z   1
loop_
 _symmetry_equiv_pos_site_id
 _symmetry_equiv_pos_as_xyz
  1  'x, y, z'
loop_
 _atom_site_type_symbol
 _atom_site_label
 _atom_site_symmetry_multiplicity
 _atom_site_fract_x
 _atom_site_fract_y
 _atom_site_fract_z
 _atom_site_occupancy
  Ba  Ba0  1  0.497881  0.497881  0.497881  1
  Ba  Ba1  1  0.216708  0.216708  0.216708  1
  Sr  Sr2  1  0.782211  0.782211  0.782211  1
  Ca  Ca3  1  0.682834  0.682834  0.682834  1
  Ca  Ca4  1  0.317815  0.317815  0.317815  1
  Al  Al5  1  0.236050  0.718225  0.236050  1
  Al  Al6  1  0.236050  0.236050  0.718225  1
  Al  Al7  1  0.718225  0.236050  0.236050  1
  Al  Al8  1  0.765691  0.280500  0.765691  1
  Al  Al9  1  0.765691  0.765691  0.280500  1
  Al  Al10  1  0.280500  0.765691  0.765691  1
  Al  Al11  1  0.000826  0.000826  0.000826  1
  Ga  Ga12  1  0.877948  0.877948  0.877948  1
  Ga  Ga13  1  0.121568  0.121568  0.121568  1
