# generated using pymatgen
data_PrNp5(Ni3Bi4)2
_symmetry_space_group_name_H-M   'P 1'
_cell_length_a   8.47275481
_cell_length_b   8.47275514
_cell_length_c   8.47275500
_cell_angle_alpha   109.50889018
_cell_angle_beta   109.45238226
_cell_angle_gamma   109.45239190
_symmetry_Int_Tables_number   1
_chemical_formula_structural   PrNp5(Ni3Bi4)2
_chemical_formula_sum   'Pr1 Np5 Ni6 Bi8'
_cell_volume   468.22212696
_cell_formula_units_Z   1
loop_
 _symmetry_equiv_pos_site_id
 _symmetry_equiv_pos_as_xyz
  1  'x, y, z'
loop_
 _atom_site_type_symbol
 _atom_site_label
 _atom_site_symmetry_multiplicity
 _atom_site_fract_x
 _atom_site_fract_y
 _atom_site_fract_z
 _atom_site_occupancy
  Pr  Pr0  1  0.750000  0.375000  0.625000  1
  Np  Np1  1  0.126927  0.875532  0.249955  1
  Np  Np2  1  0.373073  0.623028  0.748604  1
  Np  Np3  1  0.874423  0.251396  0.124468  1
  Np  Np4  1  0.625577  0.750045  0.376972  1
  Np  Np5  1  0.250000  0.125000  0.875000  1
  Ni  Ni6  1  0.614445  0.370079  0.235593  1
  Ni  Ni7  1  0.885555  0.121149  0.755635  1
  Ni  Ni8  1  0.365514  0.244365  0.629921  1
  Ni  Ni9  1  0.134486  0.764407  0.878851  1
  Ni  Ni10  1  0.250000  0.625000  0.375000  1
  Ni  Ni11  1  0.750000  0.875000  0.125000  1
  Bi  Bi12  1  0.333843  0.336185  0.337456  1
  Bi  Bi13  1  0.166157  0.503614  0.002342  1
  Bi  Bi14  1  0.999193  0.161159  0.497027  1
  Bi  Bi15  1  0.835868  0.838035  0.838841  1
  Bi  Bi16  1  0.500807  0.997833  0.161965  1
  Bi  Bi17  1  0.664132  0.502973  0.002167  1
  Bi  Bi18  1  0.501272  0.997658  0.663815  1
  Bi  Bi19  1  0.998728  0.662544  0.496386  1
