# generated using pymatgen
data_Tm2Si2TcNi
_symmetry_space_group_name_H-M   'P 1'
_cell_length_a   4.24595000
_cell_length_b   6.86673270
_cell_length_c   7.12028987
_cell_angle_alpha   91.09643252
_cell_angle_beta   90.00000000
_cell_angle_gamma   90.00000000
_symmetry_Int_Tables_number   1
_chemical_formula_structural   Tm2Si2TcNi
_chemical_formula_sum   'Tm4 Si4 Tc2 Ni2'
_cell_volume   207.55976385
_cell_formula_units_Z   2
loop_
 _symmetry_equiv_pos_site_id
 _symmetry_equiv_pos_as_xyz
  1  'x, y, z'
loop_
 _atom_site_type_symbol
 _atom_site_label
 _atom_site_symmetry_multiplicity
 _atom_site_fract_x
 _atom_site_fract_y
 _atom_site_fract_z
 _atom_site_occupancy
  Tm  Tm0  1  0.250000  0.988209  0.796040  1
  Tm  Tm1  1  0.750000  0.011791  0.203960  1
  Tm  Tm2  1  0.250000  0.491912  0.683791  1
  Tm  Tm3  1  0.750000  0.508088  0.316209  1
  Si  Si4  1  0.250000  0.297041  0.098650  1
  Si  Si5  1  0.750000  0.702959  0.901350  1
  Si  Si6  1  0.250000  0.804123  0.398608  1
  Si  Si7  1  0.750000  0.195877  0.601392  1
  Tc  Tc8  1  0.750000  0.341316  0.927104  1
  Tc  Tc9  1  0.250000  0.658684  0.072896  1
  Ni  Ni10  1  0.750000  0.832635  0.572381  1
  Ni  Ni11  1  0.250000  0.167365  0.427619  1
