# generated using pymatgen
data_NpTa3(CuH6)2
_symmetry_space_group_name_H-M   'P 1'
_cell_length_a   5.87437500
_cell_length_b   5.87437390
_cell_length_c   4.68373100
_cell_angle_alpha   90.00000000
_cell_angle_beta   90.00000000
_cell_angle_gamma   120.00000056
_symmetry_Int_Tables_number   1
_chemical_formula_structural   NpTa3(CuH6)2
_chemical_formula_sum   'Np1 Ta3 Cu2 H12'
_cell_volume   139.97350129
_cell_formula_units_Z   1
loop_
 _symmetry_equiv_pos_site_id
 _symmetry_equiv_pos_as_xyz
  1  'x, y, z'
loop_
 _atom_site_type_symbol
 _atom_site_label
 _atom_site_symmetry_multiplicity
 _atom_site_fract_x
 _atom_site_fract_y
 _atom_site_fract_z
 _atom_site_occupancy
  Np  Np0  1  0.000000  0.000000  0.000000  1
  Ta  Ta1  1  0.500000  0.000000  0.500000  1
  Ta  Ta2  1  0.000000  0.500000  0.500000  1
  Ta  Ta3  1  0.500000  0.500000  0.500000  1
  Cu  Cu4  1  0.666667  0.333333  0.000000  1
  Cu  Cu5  1  0.333333  0.666667  0.000000  1
  H  H6  1  0.805540  0.611083  0.748879  1
  H  H7  1  0.194460  0.388917  0.251121  1
  H  H8  1  0.194460  0.805540  0.251121  1
  H  H9  1  0.805540  0.194460  0.251121  1
  H  H10  1  0.611083  0.805540  0.251121  1
  H  H11  1  0.388917  0.194460  0.251121  1
  H  H12  1  0.388917  0.194460  0.748879  1
  H  H13  1  0.194460  0.388917  0.748879  1
  H  H14  1  0.805540  0.194460  0.748879  1
  H  H15  1  0.611083  0.805540  0.748879  1
  H  H16  1  0.805540  0.611083  0.251121  1
  H  H17  1  0.194460  0.805540  0.748879  1
