# generated using pymatgen
data_Na2Ga2S3
_symmetry_space_group_name_H-M   'P 1'
_cell_length_a   6.59126163
_cell_length_b   6.59126218
_cell_length_c   8.46479433
_cell_angle_alpha   82.55693906
_cell_angle_beta   82.55693780
_cell_angle_gamma   120.01574479
_symmetry_Int_Tables_number   1
_chemical_formula_structural   Na2Ga2S3
_chemical_formula_sum   'Na4 Ga4 S6'
_cell_volume   307.55297186
_cell_formula_units_Z   2
loop_
 _symmetry_equiv_pos_site_id
 _symmetry_equiv_pos_as_xyz
  1  'x, y, z'
loop_
 _atom_site_type_symbol
 _atom_site_label
 _atom_site_symmetry_multiplicity
 _atom_site_fract_x
 _atom_site_fract_y
 _atom_site_fract_z
 _atom_site_occupancy
  Na  Na0  1  0.664126  0.335874  0.000000  1
  Na  Na1  1  0.335874  0.664126  0.000000  1
  Na  Na2  1  0.000000  0.000000  0.000000  1
  Na  Na3  1  0.500000  0.500000  0.500000  1
  Ga  Ga4  1  0.882600  0.215547  0.350989  1
  Ga  Ga5  1  0.784453  0.117400  0.649011  1
  Ga  Ga6  1  0.215547  0.882600  0.350989  1
  Ga  Ga7  1  0.117400  0.784453  0.649011  1
  S  S8  1  0.412571  0.067651  0.764366  1
  S  S9  1  0.067651  0.412571  0.764366  1
  S  S10  1  0.932349  0.587429  0.235634  1
  S  S11  1  0.756129  0.756129  0.764907  1
  S  S12  1  0.587429  0.932349  0.235634  1
  S  S13  1  0.243871  0.243871  0.235093  1
