# generated using pymatgen
data_Pr13Sm4Pa3Rh16
_symmetry_space_group_name_H-M   'P 1'
_cell_length_a   7.67339995
_cell_length_b   7.69023589
_cell_length_c   14.90641300
_cell_angle_alpha   90.09509769
_cell_angle_beta   89.89474039
_cell_angle_gamma   90.11814514
_symmetry_Int_Tables_number   1
_chemical_formula_structural   Pr13Sm4Pa3Rh16
_chemical_formula_sum   'Pr13 Sm4 Pa3 Rh16'
_cell_volume   879.62668235
_cell_formula_units_Z   1
loop_
 _symmetry_equiv_pos_site_id
 _symmetry_equiv_pos_as_xyz
  1  'x, y, z'
loop_
 _atom_site_type_symbol
 _atom_site_label
 _atom_site_symmetry_multiplicity
 _atom_site_fract_x
 _atom_site_fract_y
 _atom_site_fract_z
 _atom_site_occupancy
  Pr  Pr0  1  0.835285  0.660507  0.378911  1
  Pr  Pr1  1  0.334475  0.838285  0.378764  1
  Pr  Pr2  1  0.836119  0.660562  0.118911  1
  Pr  Pr3  1  0.661971  0.159311  0.880376  1
  Pr  Pr4  1  0.163873  0.337741  0.621665  1
  Pr  Pr5  1  0.514186  0.682573  0.593852  1
  Pr  Pr6  1  0.016842  0.817486  0.905671  1
  Pr  Pr7  1  0.485565  0.319678  0.095696  1
  Pr  Pr8  1  0.986026  0.188808  0.405672  1
  Pr  Pr9  1  0.485335  0.319181  0.408107  1
  Pr  Pr10  1  0.985614  0.178861  0.093077  1
  Pr  Pr11  1  0.511075  0.676677  0.908593  1
  Pr  Pr12  1  0.012941  0.821957  0.592577  1
  Sm  Sm13  1  0.816767  0.514341  0.749215  1
  Sm  Sm14  1  0.318807  0.984148  0.751502  1
  Sm  Sm15  1  0.174390  0.488595  0.249624  1
  Sm  Sm16  1  0.683242  0.012131  0.251119  1
  Pa  Pa17  1  0.659817  0.154094  0.625465  1
  Pa  Pa18  1  0.159543  0.344587  0.876525  1
  Pa  Pa19  1  0.336879  0.844169  0.122640  1
  Rh  Rh20  1  0.694622  0.976315  0.473582  1
  Rh  Rh21  1  0.202509  0.544813  0.029627  1
  Rh  Rh22  1  0.296335  0.052033  0.966902  1
  Rh  Rh23  1  0.795790  0.429054  0.545313  1
  Rh  Rh24  1  0.346622  0.036027  0.551086  1
  Rh  Rh25  1  0.858694  0.457542  0.948785  1
  Rh  Rh26  1  0.634523  0.957766  0.051704  1
  Rh  Rh27  1  0.168961  0.529558  0.454212  1
  Rh  Rh28  1  0.459976  0.361990  0.752133  1
  Rh  Rh29  1  0.966115  0.139008  0.755437  1
  Rh  Rh30  1  0.525434  0.632800  0.238843  1
  Rh  Rh31  1  0.062112  0.877321  0.233432  1
  Rh  Rh32  1  0.702261  0.885873  0.737886  1
  Rh  Rh33  1  0.198696  0.617441  0.761770  1
  Rh  Rh34  1  0.318581  0.133806  0.242531  1
  Rh  Rh35  1  0.790016  0.364964  0.248792  1
