# generated using pymatgen
data_Yb4Zn4Si3Ag
_symmetry_space_group_name_H-M   'P 1'
_cell_length_a   4.39987000
_cell_length_b   7.21766488
_cell_length_c   7.56910972
_cell_angle_alpha   88.30088589
_cell_angle_beta   90.00000000
_cell_angle_gamma   90.00000000
_symmetry_Int_Tables_number   1
_chemical_formula_structural   Yb4Zn4Si3Ag
_chemical_formula_sum   'Yb4 Zn4 Si3 Ag1'
_cell_volume   240.26492004
_cell_formula_units_Z   1
loop_
 _symmetry_equiv_pos_site_id
 _symmetry_equiv_pos_as_xyz
  1  'x, y, z'
loop_
 _atom_site_type_symbol
 _atom_site_label
 _atom_site_symmetry_multiplicity
 _atom_site_fract_x
 _atom_site_fract_y
 _atom_site_fract_z
 _atom_site_occupancy
  Yb  Yb0  1  0.750000  0.496288  0.797791  1
  Yb  Yb1  1  0.250000  0.006333  0.294740  1
  Yb  Yb2  1  0.750000  0.999479  0.696182  1
  Yb  Yb3  1  0.250000  0.500711  0.214978  1
  Zn  Zn4  1  0.250000  0.672344  0.578749  1
  Zn  Zn5  1  0.250000  0.166956  0.908578  1
  Zn  Zn6  1  0.750000  0.328566  0.430830  1
  Zn  Zn7  1  0.750000  0.806078  0.074164  1
  Si  Si8  1  0.250000  0.794253  0.906339  1
  Si  Si9  1  0.250000  0.295871  0.595581  1
  Si  Si10  1  0.750000  0.719656  0.403677  1
  Ag  Ag11  1  0.750000  0.213462  0.098392  1
