# generated using pymatgen
data_Tb2ErTmSiBr6
_symmetry_space_group_name_H-M   'P 1'
_cell_length_a   4.03996400
_cell_length_b   13.20191393
_cell_length_c   13.95657798
_cell_angle_alpha   90.04295323
_cell_angle_beta   90.00000000
_cell_angle_gamma   90.00000000
_symmetry_Int_Tables_number   1
_chemical_formula_structural   Tb2ErTmSiBr6
_chemical_formula_sum   'Tb4 Er2 Tm2 Si2 Br12'
_cell_volume   744.37746423
_cell_formula_units_Z   2
loop_
 _symmetry_equiv_pos_site_id
 _symmetry_equiv_pos_as_xyz
  1  'x, y, z'
loop_
 _atom_site_type_symbol
 _atom_site_label
 _atom_site_symmetry_multiplicity
 _atom_site_fract_x
 _atom_site_fract_y
 _atom_site_fract_z
 _atom_site_occupancy
  Tb  Tb0  1  0.000000  0.119000  0.579232  1
  Tb  Tb1  1  0.000000  0.881000  0.420768  1
  Tb  Tb2  1  0.000000  0.618953  0.920807  1
  Tb  Tb3  1  0.000000  0.381047  0.079193  1
  Er  Er4  1  0.500000  0.117561  0.341780  1
  Er  Er5  1  0.500000  0.882439  0.658220  1
  Tm  Tm6  1  0.500000  0.617419  0.158034  1
  Tm  Tm7  1  0.500000  0.382581  0.841966  1
  Si  Si8  1  0.500000  0.000000  0.500000  1
  Si  Si9  1  0.500000  0.500000  0.000000  1
  Br  Br10  1  0.500000  0.241722  0.164888  1
  Br  Br11  1  0.500000  0.758278  0.835112  1
  Br  Br12  1  0.500000  0.741443  0.334720  1
  Br  Br13  1  0.500000  0.258557  0.665280  1
  Br  Br14  1  0.000000  0.254816  0.408855  1
  Br  Br15  1  0.000000  0.745184  0.591145  1
  Br  Br16  1  0.000000  0.754367  0.091527  1
  Br  Br17  1  0.000000  0.245633  0.908473  1
  Br  Br18  1  0.000000  0.004566  0.242393  1
  Br  Br19  1  0.000000  0.995434  0.757607  1
  Br  Br20  1  0.000000  0.505080  0.257332  1
  Br  Br21  1  0.000000  0.494920  0.742668  1
