# generated using pymatgen
data_Dy5Y2RhI12
_symmetry_space_group_name_H-M   'P 1'
_cell_length_a   9.79797573
_cell_length_b   9.79572414
_cell_length_c   9.79572593
_cell_angle_alpha   106.91621517
_cell_angle_beta   106.91286367
_cell_angle_gamma   106.94994521
_symmetry_Int_Tables_number   1
_chemical_formula_structural   Dy5Y2RhI12
_chemical_formula_sum   'Dy5 Y2 Rh1 I12'
_cell_volume   784.55612255
_cell_formula_units_Z   1
loop_
 _symmetry_equiv_pos_site_id
 _symmetry_equiv_pos_as_xyz
  1  'x, y, z'
loop_
 _atom_site_type_symbol
 _atom_site_label
 _atom_site_symmetry_multiplicity
 _atom_site_fract_x
 _atom_site_fract_y
 _atom_site_fract_z
 _atom_site_occupancy
  Dy  Dy0  1  0.977008  0.704707  0.905434  1
  Dy  Dy1  1  0.704761  0.905440  0.976942  1
  Dy  Dy2  1  0.094673  0.022903  0.295590  1
  Dy  Dy3  1  0.022966  0.295265  0.094467  1
  Dy  Dy4  1  0.295204  0.094550  0.022907  1
  Y  Y5  1  0.499966  0.499989  0.499934  1
  Y  Y6  1  0.905203  0.976979  0.703832  1
  Rh  Rh7  1  0.000158  0.999970  0.000686  1
  I  I8  1  0.536254  0.837470  0.612919  1
  I  I9  1  0.837332  0.613200  0.535884  1
  I  I10  1  0.612801  0.535790  0.836927  1
  I  I11  1  0.464241  0.162943  0.387110  1
  I  I12  1  0.162893  0.387174  0.464150  1
  I  I13  1  0.387165  0.464212  0.162879  1
  I  I14  1  0.676047  0.224393  0.070573  1
  I  I15  1  0.223927  0.070434  0.676041  1
  I  I16  1  0.070595  0.676035  0.224343  1
  I  I17  1  0.323889  0.775539  0.929289  1
  I  I18  1  0.775681  0.929482  0.324713  1
  I  I19  1  0.929235  0.323525  0.775380  1
