# generated using pymatgen
data_TbEr(AlPt)2
_symmetry_space_group_name_H-M   'P 1'
_cell_length_a   4.44052900
_cell_length_b   6.88164092
_cell_length_c   7.75080179
_cell_angle_alpha   91.35741768
_cell_angle_beta   90.00000000
_cell_angle_gamma   90.00000000
_symmetry_Int_Tables_number   1
_chemical_formula_structural   TbEr(AlPt)2
_chemical_formula_sum   'Tb2 Er2 Al4 Pt4'
_cell_volume   236.78351174
_cell_formula_units_Z   2
loop_
 _symmetry_equiv_pos_site_id
 _symmetry_equiv_pos_as_xyz
  1  'x, y, z'
loop_
 _atom_site_type_symbol
 _atom_site_label
 _atom_site_symmetry_multiplicity
 _atom_site_fract_x
 _atom_site_fract_y
 _atom_site_fract_z
 _atom_site_occupancy
  Tb  Tb0  1  0.250000  0.471353  0.183674  1
  Tb  Tb1  1  0.750000  0.528647  0.816326  1
  Er  Er2  1  0.750000  0.027182  0.682288  1
  Er  Er3  1  0.250000  0.972818  0.317712  1
  Al  Al4  1  0.250000  0.852135  0.935587  1
  Al  Al5  1  0.750000  0.147865  0.064413  1
  Al  Al6  1  0.750000  0.650453  0.435737  1
  Al  Al7  1  0.250000  0.349547  0.564263  1
  Pt  Pt8  1  0.250000  0.728889  0.611412  1
  Pt  Pt9  1  0.750000  0.271111  0.388588  1
  Pt  Pt10  1  0.750000  0.777599  0.116787  1
  Pt  Pt11  1  0.250000  0.222401  0.883213  1
