# generated using pymatgen
data_KSr3(AgO3)2
_symmetry_space_group_name_H-M   'P 1'
_cell_length_a   7.13357833
_cell_length_b   7.13357711
_cell_length_c   7.23974305
_cell_angle_alpha   75.32457101
_cell_angle_beta   75.32457451
_cell_angle_gamma   33.77146161
_symmetry_Int_Tables_number   1
_chemical_formula_structural   KSr3(AgO3)2
_chemical_formula_sum   'K1 Sr3 Ag2 O6'
_cell_volume   197.48729743
_cell_formula_units_Z   1
loop_
 _symmetry_equiv_pos_site_id
 _symmetry_equiv_pos_as_xyz
  1  'x, y, z'
loop_
 _atom_site_type_symbol
 _atom_site_label
 _atom_site_symmetry_multiplicity
 _atom_site_fract_x
 _atom_site_fract_y
 _atom_site_fract_z
 _atom_site_occupancy
  K  K0  1  0.150370  0.150370  0.175675  1
  Sr  Sr1  1  0.149738  0.149738  0.673356  1
  Sr  Sr2  1  0.846770  0.846770  0.829003  1
  Sr  Sr3  1  0.848844  0.848844  0.323989  1
  Ag  Ag4  1  0.505739  0.505739  0.994262  1
  Ag  Ag5  1  0.501876  0.501876  0.501766  1
  O  O6  1  0.340766  0.340766  0.574986  1
  O  O7  1  0.348181  0.348181  0.082406  1
  O  O8  1  0.660675  0.660675  0.444454  1
  O  O9  1  0.663030  0.663030  0.892372  1
  O  O10  1  0.990442  0.990442  0.518271  1
  O  O11  1  0.993567  0.993567  0.989458  1
