# generated using pymatgen
data_SmCu2HgPt2
_symmetry_space_group_name_H-M   'P 1'
_cell_length_a   5.53818029
_cell_length_b   5.27583229
_cell_length_c   5.27583240
_cell_angle_alpha   58.70261042
_cell_angle_beta   58.34097636
_cell_angle_gamma   58.34098051
_symmetry_Int_Tables_number   1
_chemical_formula_structural   SmCu2HgPt2
_chemical_formula_sum   'Sm1 Cu2 Hg1 Pt2'
_cell_volume   105.16192378
_cell_formula_units_Z   1
loop_
 _symmetry_equiv_pos_site_id
 _symmetry_equiv_pos_as_xyz
  1  'x, y, z'
loop_
 _atom_site_type_symbol
 _atom_site_label
 _atom_site_symmetry_multiplicity
 _atom_site_fract_x
 _atom_site_fract_y
 _atom_site_fract_z
 _atom_site_occupancy
  Sm  Sm0  1  0.995546  0.004454  0.004454  1
  Cu  Cu1  1  0.379254  0.871369  0.370123  1
  Cu  Cu2  1  0.379254  0.370123  0.871369  1
  Hg  Hg3  1  0.741439  0.758561  0.758561  1
  Pt  Pt4  1  0.377445  0.372747  0.372747  1
  Pt  Pt5  1  0.877061  0.372747  0.372747  1
