# generated using pymatgen
data_Sc22Fe2NiRu5
_symmetry_space_group_name_H-M   'P 1'
_cell_length_a   9.42532795
_cell_length_b   9.38558146
_cell_length_c   9.42532736
_cell_angle_alpha   60.13939781
_cell_angle_beta   60.22884234
_cell_angle_gamma   60.13939942
_symmetry_Int_Tables_number   1
_chemical_formula_structural   Sc22Fe2NiRu5
_chemical_formula_sum   'Sc22 Fe2 Ni1 Ru5'
_cell_volume   591.83356714
_cell_formula_units_Z   1
loop_
 _symmetry_equiv_pos_site_id
 _symmetry_equiv_pos_as_xyz
  1  'x, y, z'
loop_
 _atom_site_type_symbol
 _atom_site_label
 _atom_site_symmetry_multiplicity
 _atom_site_fract_x
 _atom_site_fract_y
 _atom_site_fract_z
 _atom_site_occupancy
  Sc  Sc0  1  0.806022  0.807868  0.193978  1
  Sc  Sc1  1  0.192619  0.807381  0.192619  1
  Sc  Sc2  1  0.806022  0.192132  0.193978  1
  Sc  Sc3  1  0.193978  0.192132  0.806022  1
  Sc  Sc4  1  0.807381  0.192619  0.807381  1
  Sc  Sc5  1  0.193978  0.807868  0.806022  1
  Sc  Sc6  1  0.611627  0.615793  0.156788  1
  Sc  Sc7  1  0.614280  0.155474  0.614280  1
  Sc  Sc8  1  0.156788  0.615793  0.611627  1
  Sc  Sc9  1  0.614280  0.615966  0.614280  1
  Sc  Sc10  1  0.388373  0.384207  0.843212  1
  Sc  Sc11  1  0.385720  0.844526  0.385720  1
  Sc  Sc12  1  0.843212  0.384207  0.388373  1
  Sc  Sc13  1  0.385720  0.384034  0.385720  1
  Sc  Sc14  1  0.843630  0.842067  0.472236  1
  Sc  Sc15  1  0.842191  0.473697  0.842191  1
  Sc  Sc16  1  0.472236  0.842067  0.843630  1
  Sc  Sc17  1  0.842191  0.841921  0.842191  1
  Sc  Sc18  1  0.156370  0.157933  0.527764  1
  Sc  Sc19  1  0.157809  0.526303  0.157809  1
  Sc  Sc20  1  0.527764  0.157933  0.156370  1
  Sc  Sc21  1  0.157809  0.158079  0.157809  1
  Fe  Fe22  1  0.000000  0.000000  0.000000  1
  Fe  Fe23  1  0.500000  0.500000  0.500000  1
  Ni  Ni24  1  0.000000  0.500000  0.000000  1
  Ru  Ru25  1  0.000000  0.000000  0.500000  1
  Ru  Ru26  1  0.500000  0.000000  0.500000  1
  Ru  Ru27  1  0.000000  0.500000  0.500000  1
  Ru  Ru28  1  0.500000  0.500000  0.000000  1
  Ru  Ru29  1  0.500000  0.000000  0.000000  1
