# generated using pymatgen
data_Li3Ho3GaSiGe
_symmetry_space_group_name_H-M   'P 1'
_cell_length_a   7.14167700
_cell_length_b   7.14167650
_cell_length_c   4.17860000
_cell_angle_alpha   90.00000000
_cell_angle_beta   90.00000000
_cell_angle_gamma   119.99998841
_symmetry_Int_Tables_number   1
_chemical_formula_structural   Li3Ho3GaSiGe
_chemical_formula_sum   'Li3 Ho3 Ga1 Si1 Ge1'
_cell_volume   184.57031808
_cell_formula_units_Z   1
loop_
 _symmetry_equiv_pos_site_id
 _symmetry_equiv_pos_as_xyz
  1  'x, y, z'
loop_
 _atom_site_type_symbol
 _atom_site_label
 _atom_site_symmetry_multiplicity
 _atom_site_fract_x
 _atom_site_fract_y
 _atom_site_fract_z
 _atom_site_occupancy
  Li  Li0  1  0.246292  0.999370  0.500000  1
  Li  Li1  1  0.753079  0.753708  0.500000  1
  Li  Li2  1  0.000630  0.246921  0.500000  1
  Ho  Ho3  1  0.001614  0.568861  0.000000  1
  Ho  Ho4  1  0.567247  0.998386  0.000000  1
  Ho  Ho5  1  0.431139  0.432753  0.000000  1
  Ga  Ga6  1  0.000000  0.000000  0.000000  1
  Si  Si7  1  0.333333  0.666667  0.500000  1
  Ge  Ge8  1  0.666667  0.333333  0.500000  1
