# generated using pymatgen
data_ErSc7(Si4Tc3)4
_symmetry_space_group_name_H-M   'P 1'
_cell_length_a   6.66255398
_cell_length_b   6.65934517
_cell_length_c   12.36133289
_cell_angle_alpha   89.89795633
_cell_angle_beta   90.21988462
_cell_angle_gamma   89.96196563
_symmetry_Int_Tables_number   1
_chemical_formula_structural   ErSc7(Si4Tc3)4
_chemical_formula_sum   'Er1 Sc7 Si16 Tc12'
_cell_volume   548.44563545
_cell_formula_units_Z   1
loop_
 _symmetry_equiv_pos_site_id
 _symmetry_equiv_pos_as_xyz
  1  'x, y, z'
loop_
 _atom_site_type_symbol
 _atom_site_label
 _atom_site_symmetry_multiplicity
 _atom_site_fract_x
 _atom_site_fract_y
 _atom_site_fract_z
 _atom_site_occupancy
  Er  Er0  1  0.999595  0.661155  0.030116  1
  Sc  Sc1  1  0.343098  0.998726  0.469741  1
  Sc  Sc2  1  0.500477  0.842678  0.719017  1
  Sc  Sc3  1  0.497959  0.157319  0.220897  1
  Sc  Sc4  1  0.842569  0.500648  0.280955  1
  Sc  Sc5  1  0.156724  0.497721  0.780327  1
  Sc  Sc6  1  0.655897  0.002613  0.968631  1
  Sc  Sc7  1  0.999246  0.343123  0.530173  1
  Si  Si8  1  0.192299  0.124940  0.683267  1
  Si  Si9  1  0.380771  0.692438  0.932906  1
  Si  Si10  1  0.624420  0.308026  0.434801  1
  Si  Si11  1  0.688949  0.374375  0.065939  1
  Si  Si12  1  0.307765  0.624926  0.565825  1
  Si  Si13  1  0.804103  0.879807  0.187438  1
  Si  Si14  1  0.123902  0.191480  0.316603  1
  Si  Si15  1  0.875476  0.808740  0.813249  1
  Si  Si16  1  0.282620  0.973987  0.065187  1
  Si  Si17  1  0.529060  0.779861  0.316217  1
  Si  Si18  1  0.469620  0.217721  0.814556  1
  Si  Si19  1  0.782601  0.530678  0.683095  1
  Si  Si20  1  0.222078  0.468360  0.187430  1
  Si  Si21  1  0.717263  0.030927  0.566089  1
  Si  Si22  1  0.970643  0.273818  0.934227  1
  Si  Si23  1  0.030553  0.717848  0.434244  1
  Tc  Tc24  1  0.331011  0.327305  0.999598  1
  Tc  Tc25  1  0.171484  0.830144  0.252245  1
  Tc  Tc26  1  0.829352  0.169061  0.749138  1
  Tc  Tc27  1  0.670138  0.670547  0.500069  1
  Tc  Tc28  1  0.182191  0.977034  0.868596  1
  Tc  Tc29  1  0.520051  0.680247  0.121655  1
  Tc  Tc30  1  0.478167  0.323160  0.621775  1
  Tc  Tc31  1  0.676765  0.518530  0.875116  1
  Tc  Tc32  1  0.320846  0.476181  0.380537  1
  Tc  Tc33  1  0.822910  0.022072  0.373833  1
  Tc  Tc34  1  0.977149  0.179844  0.129817  1
  Tc  Tc35  1  0.022248  0.823962  0.626693  1
