# generated using pymatgen
data_Ho(Tc2P)2
_symmetry_space_group_name_H-M   'P 1'
_cell_length_a   7.40927900
_cell_length_b   7.40927900
_cell_length_c   3.94844200
_cell_angle_alpha   90.00000000
_cell_angle_beta   90.00000000
_cell_angle_gamma   90.00000000
_symmetry_Int_Tables_number   1
_chemical_formula_structural   Ho(Tc2P)2
_chemical_formula_sum   'Ho2 Tc8 P4'
_cell_volume   216.75926026
_cell_formula_units_Z   2
loop_
 _symmetry_equiv_pos_site_id
 _symmetry_equiv_pos_as_xyz
  1  'x, y, z'
loop_
 _atom_site_type_symbol
 _atom_site_label
 _atom_site_symmetry_multiplicity
 _atom_site_fract_x
 _atom_site_fract_y
 _atom_site_fract_z
 _atom_site_occupancy
  Ho  Ho0  1  0.500000  0.500000  0.000000  1
  Ho  Ho1  1  0.000000  0.000000  0.500000  1
  Tc  Tc2  1  0.582090  0.160984  0.500000  1
  Tc  Tc3  1  0.417910  0.839016  0.500000  1
  Tc  Tc4  1  0.082090  0.339016  0.000000  1
  Tc  Tc5  1  0.917910  0.660984  0.000000  1
  Tc  Tc6  1  0.160984  0.582090  0.500000  1
  Tc  Tc7  1  0.839016  0.417910  0.500000  1
  Tc  Tc8  1  0.339016  0.082090  0.000000  1
  Tc  Tc9  1  0.660984  0.917910  0.000000  1
  P  P10  1  0.712728  0.712728  0.500000  1
  P  P11  1  0.287272  0.287272  0.500000  1
  P  P12  1  0.212728  0.787272  0.000000  1
  P  P13  1  0.787272  0.212728  0.000000  1
