# generated using pymatgen
data_Dy7Y(OsI4)2
_symmetry_space_group_name_H-M   'P 1'
_cell_length_a   11.66765899
_cell_length_b   11.65986781
_cell_length_c   6.18807304
_cell_angle_alpha   90.04641780
_cell_angle_beta   90.03699449
_cell_angle_gamma   89.95928519
_symmetry_Int_Tables_number   1
_chemical_formula_structural   Dy7Y(OsI4)2
_chemical_formula_sum   'Dy7 Y1 Os2 I8'
_cell_volume   841.84559354
_cell_formula_units_Z   1
loop_
 _symmetry_equiv_pos_site_id
 _symmetry_equiv_pos_as_xyz
  1  'x, y, z'
loop_
 _atom_site_type_symbol
 _atom_site_label
 _atom_site_symmetry_multiplicity
 _atom_site_fract_x
 _atom_site_fract_y
 _atom_site_fract_z
 _atom_site_occupancy
  Dy  Dy0  1  0.079251  0.808193  0.501080  1
  Dy  Dy1  1  0.078733  0.191775  0.001121  1
  Dy  Dy2  1  0.191849  0.078650  0.501079  1
  Dy  Dy3  1  0.921341  0.808198  0.998914  1
  Dy  Dy4  1  0.921211  0.191653  0.498897  1
  Dy  Dy5  1  0.191751  0.920835  0.998907  1
  Dy  Dy6  1  0.808571  0.921132  0.498895  1
  Y  Y7  1  0.807146  0.079605  0.001120  1
  Os  Os8  1  0.000427  0.999712  0.249992  1
  Os  Os9  1  0.000018  0.000103  0.750006  1
  I  I10  1  0.654026  0.143468  0.487703  1
  I  I11  1  0.855270  0.655662  0.507153  1
  I  I12  1  0.344315  0.144745  0.992858  1
  I  I13  1  0.144636  0.344359  0.492857  1
  I  I14  1  0.655625  0.855365  0.007144  1
  I  I15  1  0.346000  0.856539  0.512249  1
  I  I16  1  0.143399  0.653958  0.987778  1
  I  I17  1  0.856431  0.346049  0.012248  1
