# generated using pymatgen
data_MgSc(AlPt)2
_symmetry_space_group_name_H-M   'P 1'
_cell_length_a   4.19518600
_cell_length_b   6.52744056
_cell_length_c   7.69398633
_cell_angle_alpha   86.02142777
_cell_angle_beta   90.00000000
_cell_angle_gamma   90.00000000
_symmetry_Int_Tables_number   1
_chemical_formula_structural   MgSc(AlPt)2
_chemical_formula_sum   'Mg2 Sc2 Al4 Pt4'
_cell_volume   210.18304202
_cell_formula_units_Z   2
loop_
 _symmetry_equiv_pos_site_id
 _symmetry_equiv_pos_as_xyz
  1  'x, y, z'
loop_
 _atom_site_type_symbol
 _atom_site_label
 _atom_site_symmetry_multiplicity
 _atom_site_fract_x
 _atom_site_fract_y
 _atom_site_fract_z
 _atom_site_occupancy
  Mg  Mg0  1  0.250000  0.468755  0.169441  1
  Mg  Mg1  1  0.750000  0.531245  0.830559  1
  Sc  Sc2  1  0.750000  0.027958  0.679467  1
  Sc  Sc3  1  0.250000  0.972042  0.320533  1
  Al  Al4  1  0.250000  0.851457  0.940373  1
  Al  Al5  1  0.750000  0.148543  0.059627  1
  Al  Al6  1  0.750000  0.643780  0.443560  1
  Al  Al7  1  0.250000  0.356220  0.556440  1
  Pt  Pt8  1  0.250000  0.731291  0.627367  1
  Pt  Pt9  1  0.750000  0.268709  0.372633  1
  Pt  Pt10  1  0.750000  0.762981  0.122039  1
  Pt  Pt11  1  0.250000  0.237019  0.877961  1
