# generated using pymatgen
data_Sm4Al18CuRh5
_symmetry_space_group_name_H-M   'P 1'
_cell_length_a   7.59915619
_cell_length_b   7.59915618
_cell_length_c   9.52569708
_cell_angle_alpha   89.90075353
_cell_angle_beta   89.90075000
_cell_angle_gamma   119.47644014
_symmetry_Int_Tables_number   1
_chemical_formula_structural   Sm4Al18CuRh5
_chemical_formula_sum   'Sm4 Al18 Cu1 Rh5'
_cell_volume   478.87559610
_cell_formula_units_Z   1
loop_
 _symmetry_equiv_pos_site_id
 _symmetry_equiv_pos_as_xyz
  1  'x, y, z'
loop_
 _atom_site_type_symbol
 _atom_site_label
 _atom_site_symmetry_multiplicity
 _atom_site_fract_x
 _atom_site_fract_y
 _atom_site_fract_z
 _atom_site_occupancy
  Sm  Sm0  1  0.993238  0.668977  0.249527  1
  Sm  Sm1  1  0.002928  0.328560  0.751073  1
  Sm  Sm2  1  0.671440  0.997072  0.248927  1
  Sm  Sm3  1  0.331023  0.006762  0.750473  1
  Al  Al4  1  0.129416  0.128008  0.250420  1
  Al  Al5  1  0.871992  0.870584  0.749580  1
  Al  Al6  1  0.006143  0.335908  0.075970  1
  Al  Al7  1  0.001518  0.669309  0.924558  1
  Al  Al8  1  0.000161  0.664848  0.573234  1
  Al  Al9  1  0.335152  0.999839  0.426766  1
  Al  Al10  1  0.001140  0.334796  0.426170  1
  Al  Al11  1  0.665204  0.998860  0.573830  1
  Al  Al12  1  0.664092  0.993857  0.924030  1
  Al  Al13  1  0.330691  0.998482  0.075442  1
  Al  Al14  1  0.332673  0.332651  0.546143  1
  Al  Al15  1  0.667349  0.667327  0.453857  1
  Al  Al16  1  0.665181  0.667900  0.051688  1
  Al  Al17  1  0.332100  0.334819  0.948312  1
  Al  Al18  1  0.341423  0.549949  0.250574  1
  Al  Al19  1  0.659598  0.453979  0.746655  1
  Al  Al20  1  0.546021  0.340402  0.253345  1
  Al  Al21  1  0.450051  0.658577  0.749426  1
  Cu  Cu22  1  0.672978  0.327022  0.000000  1
  Rh  Rh23  1  0.328280  0.671720  0.000000  1
  Rh  Rh24  1  0.328892  0.671108  0.500000  1
  Rh  Rh25  1  0.671734  0.328266  0.500000  1
  Rh  Rh26  1  0.999315  0.000685  0.000000  1
  Rh  Rh27  1  0.000268  0.999732  0.500000  1
