# generated using pymatgen
data_DyMn3Bi5O18
_symmetry_space_group_name_H-M   'P 1'
_cell_length_a   8.99912566
_cell_length_b   9.00670583
_cell_length_c   5.13052398
_cell_angle_alpha   90.00000323
_cell_angle_beta   90.08706506
_cell_angle_gamma   120.02787138
_symmetry_Int_Tables_number   1
_chemical_formula_structural   DyMn3Bi5O18
_chemical_formula_sum   'Dy1 Mn3 Bi5 O18'
_cell_volume   360.02771855
_cell_formula_units_Z   1
loop_
 _symmetry_equiv_pos_site_id
 _symmetry_equiv_pos_as_xyz
  1  'x, y, z'
loop_
 _atom_site_type_symbol
 _atom_site_label
 _atom_site_symmetry_multiplicity
 _atom_site_fract_x
 _atom_site_fract_y
 _atom_site_fract_z
 _atom_site_occupancy
  Dy  Dy0  1  0.000000  0.380057  0.500000  1
  Mn  Mn1  1  0.000000  0.001767  0.500000  1
  Mn  Mn2  1  0.331681  0.664960  0.999317  1
  Mn  Mn3  1  0.668319  0.333278  0.000683  1
  Bi  Bi4  1  0.289632  0.292009  0.000408  1
  Bi  Bi5  1  0.000000  0.705675  0.000000  1
  Bi  Bi6  1  0.621688  0.622261  0.497534  1
  Bi  Bi7  1  0.378312  0.000573  0.502466  1
  Bi  Bi8  1  0.710368  0.002377  0.999592  1
  O  O9  1  0.086823  0.204267  0.713489  1
  O  O10  1  0.227794  0.459223  0.218223  1
  O  O11  1  0.132549  0.595333  0.784703  1
  O  O12  1  0.397050  0.533208  0.787584  1
  O  O13  1  0.227123  0.765719  0.217347  1
  O  O14  1  0.113905  0.912862  0.719181  1
  O  O15  1  0.539252  0.772136  0.215285  1
  O  O16  1  0.200087  0.087231  0.280782  1
  O  O17  1  0.465593  0.863635  0.787771  1
  O  O18  1  0.799913  0.887144  0.719218  1
  O  O19  1  0.460748  0.232884  0.784715  1
  O  O20  1  0.602950  0.136157  0.212416  1
  O  O21  1  0.534407  0.398041  0.212229  1
  O  O22  1  0.772206  0.231429  0.781777  1
  O  O23  1  0.913177  0.117443  0.286511  1
  O  O24  1  0.772877  0.538596  0.782653  1
  O  O25  1  0.867451  0.462783  0.215297  1
  O  O26  1  0.886095  0.798956  0.280819  1
