# generated using pymatgen
data_K10LaTlSn11
_symmetry_space_group_name_H-M   'P 1'
_cell_length_a   10.53759508
_cell_length_b   10.53759662
_cell_length_c   10.56585200
_cell_angle_alpha   109.56250951
_cell_angle_beta   109.56250671
_cell_angle_gamma   108.98546260
_symmetry_Int_Tables_number   1
_chemical_formula_structural   K10LaTlSn11
_chemical_formula_sum   'K10 La1 Tl1 Sn11'
_cell_volume   906.50272907
_cell_formula_units_Z   1
loop_
 _symmetry_equiv_pos_site_id
 _symmetry_equiv_pos_as_xyz
  1  'x, y, z'
loop_
 _atom_site_type_symbol
 _atom_site_label
 _atom_site_symmetry_multiplicity
 _atom_site_fract_x
 _atom_site_fract_y
 _atom_site_fract_z
 _atom_site_occupancy
  K  K0  1  0.248917  0.499196  0.749589  1
  K  K1  1  0.401640  0.401640  0.401721  1
  K  K2  1  0.999572  0.599368  0.999781  1
  K  K3  1  0.599368  0.999572  0.999781  1
  K  K4  1  0.998691  0.998691  0.597860  1
  K  K5  1  0.750542  0.501827  0.250658  1
  K  K6  1  0.249942  0.749566  0.500348  1
  K  K7  1  0.749566  0.249942  0.500348  1
  K  K8  1  0.499196  0.248917  0.749589  1
  K  K9  1  0.501827  0.750542  0.250658  1
  La  La10  1  0.999006  0.999006  0.998917  1
  Tl  Tl11  1  0.641333  0.641333  0.824451  1
  Sn  Sn12  1  0.000989  0.177585  0.349873  1
  Sn  Sn13  1  0.177585  0.000989  0.349873  1
  Sn  Sn14  1  0.824152  0.172040  0.822474  1
  Sn  Sn15  1  0.172040  0.824152  0.822474  1
  Sn  Sn16  1  0.832185  0.654229  0.652597  1
  Sn  Sn17  1  0.999934  0.347103  0.176423  1
  Sn  Sn18  1  0.347103  0.999934  0.176423  1
  Sn  Sn19  1  0.654229  0.832185  0.652597  1
  Sn  Sn20  1  0.176435  0.348113  0.000488  1
  Sn  Sn21  1  0.348113  0.176435  0.000488  1
  Sn  Sn22  1  0.827636  0.827636  0.172590  1
