# generated using pymatgen
data_HoEr3Sc2(B2Ir5)2
_symmetry_space_group_name_H-M   'P 1'
_cell_length_a   3.16451400
_cell_length_b   9.77445621
_cell_length_c   9.77445531
_cell_angle_alpha   90.04204121
_cell_angle_beta   90.00000000
_cell_angle_gamma   90.00000000
_symmetry_Int_Tables_number   1
_chemical_formula_structural   HoEr3Sc2(B2Ir5)2
_chemical_formula_sum   'Ho1 Er3 Sc2 B4 Ir10'
_cell_volume   302.33753976
_cell_formula_units_Z   1
loop_
 _symmetry_equiv_pos_site_id
 _symmetry_equiv_pos_as_xyz
  1  'x, y, z'
loop_
 _atom_site_type_symbol
 _atom_site_label
 _atom_site_symmetry_multiplicity
 _atom_site_fract_x
 _atom_site_fract_y
 _atom_site_fract_z
 _atom_site_occupancy
  Ho  Ho0  1  0.000000  0.677202  0.822798  1
  Er  Er1  1  0.000000  0.177011  0.677480  1
  Er  Er2  1  0.000000  0.822520  0.322989  1
  Er  Er3  1  0.000000  0.322759  0.177241  1
  Sc  Sc4  1  0.000000  0.000873  0.000256  1
  Sc  Sc5  1  0.000000  0.499744  0.499127  1
  B  B6  1  0.000000  0.620703  0.119562  1
  B  B7  1  0.000000  0.380438  0.879297  1
  B  B8  1  0.000000  0.879631  0.620369  1
  B  B9  1  0.000000  0.119678  0.380322  1
  Ir  Ir10  1  0.500000  0.068705  0.225942  1
  Ir  Ir11  1  0.500000  0.931003  0.775067  1
  Ir  Ir12  1  0.500000  0.775261  0.069135  1
  Ir  Ir13  1  0.500000  0.430865  0.724739  1
  Ir  Ir14  1  0.500000  0.225945  0.930998  1
  Ir  Ir15  1  0.500000  0.569002  0.274055  1
  Ir  Ir16  1  0.500000  0.724933  0.568997  1
  Ir  Ir17  1  0.500000  0.274058  0.431295  1
  Ir  Ir18  1  0.500000  0.999455  0.500545  1
  Ir  Ir19  1  0.500000  0.500215  0.999785  1
