# generated using pymatgen
data_HoEr2Tm5(OsBr4)2
_symmetry_space_group_name_H-M   'P 1'
_cell_length_a   8.90262364
_cell_length_b   8.89557352
_cell_length_c   6.49485088
_cell_angle_alpha   89.49957756
_cell_angle_beta   89.55825120
_cell_angle_gamma   89.24239799
_symmetry_Int_Tables_number   1
_chemical_formula_structural   HoEr2Tm5(OsBr4)2
_chemical_formula_sum   'Ho1 Er2 Tm5 Os2 Br8'
_cell_volume   514.27343646
_cell_formula_units_Z   1
loop_
 _symmetry_equiv_pos_site_id
 _symmetry_equiv_pos_as_xyz
  1  'x, y, z'
loop_
 _atom_site_type_symbol
 _atom_site_label
 _atom_site_symmetry_multiplicity
 _atom_site_fract_x
 _atom_site_fract_y
 _atom_site_fract_z
 _atom_site_occupancy
  Ho  Ho0  1  0.248632  0.097425  0.492198  1
  Er  Er1  1  0.096602  0.247469  0.991975  1
  Er  Er2  1  0.902636  0.752321  0.008321  1
  Tm  Tm3  1  0.246579  0.901602  0.011014  1
  Tm  Tm4  1  0.752924  0.097916  0.989172  1
  Tm  Tm5  1  0.097658  0.752743  0.489583  1
  Tm  Tm6  1  0.901721  0.246920  0.510632  1
  Tm  Tm7  1  0.753799  0.903408  0.508389  1
  Os  Os8  1  0.994604  0.004845  0.250430  1
  Os  Os9  1  0.004521  0.994824  0.749810  1
  Br  Br10  1  0.418872  0.816240  0.408253  1
  Br  Br11  1  0.582459  0.183165  0.591228  1
  Br  Br12  1  0.182797  0.581254  0.092366  1
  Br  Br13  1  0.817016  0.418672  0.907906  1
  Br  Br14  1  0.414341  0.189585  0.092206  1
  Br  Br15  1  0.585555  0.810671  0.905811  1
  Br  Br16  1  0.810330  0.585687  0.406269  1
  Br  Br17  1  0.188954  0.415253  0.594438  1
