# generated using pymatgen
data_YHo15Cd4Pd3Pt
_symmetry_space_group_name_H-M   'P 1'
_cell_length_a   9.65087761
_cell_length_b   9.64375436
_cell_length_c   9.65003100
_cell_angle_alpha   59.97847114
_cell_angle_beta   60.00290527
_cell_angle_gamma   59.96194256
_symmetry_Int_Tables_number   1
_chemical_formula_structural   YHo15Cd4Pd3Pt
_chemical_formula_sum   'Y1 Ho15 Cd4 Pd3 Pt1'
_cell_volume   634.80515790
_cell_formula_units_Z   1
loop_
 _symmetry_equiv_pos_site_id
 _symmetry_equiv_pos_as_xyz
  1  'x, y, z'
loop_
 _atom_site_type_symbol
 _atom_site_label
 _atom_site_symmetry_multiplicity
 _atom_site_fract_x
 _atom_site_fract_y
 _atom_site_fract_z
 _atom_site_occupancy
  Y  Y0  1  0.934734  0.934503  0.565381  1
  Ho  Ho1  1  0.355203  0.352945  0.351004  1
  Ho  Ho2  1  0.355203  0.352945  0.940847  1
  Ho  Ho3  1  0.357136  0.937636  0.352614  1
  Ho  Ho4  1  0.936009  0.356316  0.353837  1
  Ho  Ho5  1  0.809400  0.189457  0.189405  1
  Ho  Ho6  1  0.189650  0.810556  0.810376  1
  Ho  Ho7  1  0.189650  0.810556  0.189420  1
  Ho  Ho8  1  0.809400  0.189457  0.811739  1
  Ho  Ho9  1  0.190196  0.190009  0.809898  1
  Ho  Ho10  1  0.809733  0.812279  0.188995  1
  Ho  Ho11  1  0.934389  0.565147  0.565909  1
  Ho  Ho12  1  0.565192  0.934783  0.935100  1
  Ho  Ho13  1  0.565192  0.934783  0.564925  1
  Ho  Ho14  1  0.934389  0.565147  0.934553  1
  Ho  Ho15  1  0.566254  0.565337  0.934204  1
  Cd  Cd16  1  0.581808  0.582158  0.582715  1
  Cd  Cd17  1  0.581808  0.582158  0.253319  1
  Cd  Cd18  1  0.581364  0.253308  0.582665  1
  Cd  Cd19  1  0.253805  0.581546  0.582325  1
  Pd  Pd20  1  0.143940  0.144526  0.145584  1
  Pd  Pd21  1  0.143940  0.144526  0.565950  1
  Pd  Pd22  1  0.143287  0.566764  0.144975  1
  Pt  Pt23  1  0.568318  0.143160  0.144261  1
