# generated using pymatgen
data_CsBaCu3F12
_symmetry_space_group_name_H-M   'P 1'
_cell_length_a   9.85956521
_cell_length_b   9.85956507
_cell_length_c   14.96646500
_cell_angle_alpha   60.79585287
_cell_angle_beta   60.79585332
_cell_angle_gamma   59.81825816
_symmetry_Int_Tables_number   1
_chemical_formula_structural   CsBaCu3F12
_chemical_formula_sum   'Cs4 Ba4 Cu12 F48'
_cell_volume   1039.50524662
_cell_formula_units_Z   4
loop_
 _symmetry_equiv_pos_site_id
 _symmetry_equiv_pos_as_xyz
  1  'x, y, z'
loop_
 _atom_site_type_symbol
 _atom_site_label
 _atom_site_symmetry_multiplicity
 _atom_site_fract_x
 _atom_site_fract_y
 _atom_site_fract_z
 _atom_site_occupancy
  Cs  Cs0  1  0.276276  0.510569  0.958985  1
  Cs  Cs1  1  0.510569  0.276276  0.458985  1
  Cs  Cs2  1  0.723724  0.489431  0.041015  1
  Cs  Cs3  1  0.489431  0.723724  0.541015  1
  Ba  Ba4  1  0.741332  0.001603  0.001592  1
  Ba  Ba5  1  0.001603  0.741332  0.501592  1
  Ba  Ba6  1  0.998397  0.258668  0.498408  1
  Ba  Ba7  1  0.258668  0.998397  0.998408  1
  Cu  Cu8  1  0.147008  0.409071  0.770270  1
  Cu  Cu9  1  0.849420  0.957820  0.236212  1
  Cu  Cu10  1  0.957820  0.849420  0.736212  1
  Cu  Cu11  1  0.408583  0.776182  0.272024  1
  Cu  Cu12  1  0.591417  0.223818  0.727976  1
  Cu  Cu13  1  0.852992  0.590929  0.229730  1
  Cu  Cu14  1  0.223818  0.591417  0.227976  1
  Cu  Cu15  1  0.409071  0.147008  0.270270  1
  Cu  Cu16  1  0.042180  0.150580  0.263788  1
  Cu  Cu17  1  0.150580  0.042180  0.763788  1
  Cu  Cu18  1  0.776182  0.408583  0.772024  1
  Cu  Cu19  1  0.590929  0.852992  0.729730  1
  F  F20  1  0.072037  0.896840  0.584596  1
  F  F21  1  0.177320  0.917935  0.295219  1
  F  F22  1  0.204129  0.181365  0.786886  1
  F  F23  1  0.189076  0.157853  0.615086  1
  F  F24  1  0.449913  0.918450  0.300086  1
  F  F25  1  0.082065  0.822680  0.204781  1
  F  F26  1  0.081550  0.550087  0.199914  1
  F  F27  1  0.473885  0.881692  0.118223  1
  F  F28  1  0.896840  0.072037  0.084596  1
  F  F29  1  0.127926  0.872074  0.750000  1
  F  F30  1  0.660386  0.333595  0.577555  1
  F  F31  1  0.389055  0.610945  0.250000  1
  F  F32  1  0.822680  0.082065  0.704781  1
  F  F33  1  0.111671  0.337695  0.915828  1
  F  F34  1  0.842147  0.810924  0.884914  1
  F  F35  1  0.918450  0.449913  0.800086  1
  F  F36  1  0.795871  0.818635  0.213114  1
  F  F37  1  0.098202  0.625107  0.764604  1
  F  F38  1  0.625107  0.098202  0.264604  1
  F  F39  1  0.550087  0.081550  0.699914  1
  F  F40  1  0.888329  0.662305  0.084172  1
  F  F41  1  0.479228  0.185756  0.124914  1
  F  F42  1  0.917935  0.177320  0.795219  1
  F  F43  1  0.901798  0.374893  0.235396  1
  F  F44  1  0.818635  0.795871  0.713114  1
  F  F45  1  0.662305  0.888329  0.584172  1
  F  F46  1  0.810924  0.842148  0.384914  1
  F  F47  1  0.103160  0.927963  0.915404  1
  F  F48  1  0.526115  0.118308  0.881777  1
  F  F49  1  0.814244  0.520772  0.375086  1
  F  F50  1  0.628447  0.625058  0.260091  1
  F  F51  1  0.339614  0.666405  0.422445  1
  F  F52  1  0.625058  0.628447  0.760091  1
  F  F53  1  0.333595  0.660386  0.077555  1
  F  F54  1  0.927963  0.103160  0.415404  1
  F  F55  1  0.157853  0.189076  0.115086  1
  F  F56  1  0.610945  0.389055  0.750000  1
  F  F57  1  0.118308  0.526115  0.381777  1
  F  F58  1  0.185756  0.479228  0.624914  1
  F  F59  1  0.881692  0.473885  0.618223  1
  F  F60  1  0.181365  0.204129  0.286886  1
  F  F61  1  0.337695  0.111671  0.415828  1
  F  F62  1  0.872074  0.127926  0.250000  1
  F  F63  1  0.374942  0.371553  0.239909  1
  F  F64  1  0.666405  0.339614  0.922445  1
  F  F65  1  0.520772  0.814244  0.875086  1
  F  F66  1  0.374893  0.901798  0.735396  1
  F  F67  1  0.371553  0.374942  0.739909  1
