# generated using pymatgen
data_Ho9Tm11(Bi2Os)4
_symmetry_space_group_name_H-M   'P 1'
_cell_length_a   7.88240051
_cell_length_b   8.98169600
_cell_length_c   12.44560280
_cell_angle_alpha   90.00000000
_cell_angle_beta   89.95884392
_cell_angle_gamma   90.00000000
_symmetry_Int_Tables_number   1
_chemical_formula_structural   Ho9Tm11(Bi2Os)4
_chemical_formula_sum   'Ho9 Tm11 Bi8 Os4'
_cell_volume   881.11516058
_cell_formula_units_Z   1
loop_
 _symmetry_equiv_pos_site_id
 _symmetry_equiv_pos_as_xyz
  1  'x, y, z'
loop_
 _atom_site_type_symbol
 _atom_site_label
 _atom_site_symmetry_multiplicity
 _atom_site_fract_x
 _atom_site_fract_y
 _atom_site_fract_z
 _atom_site_occupancy
  Ho  Ho0  1  0.660353  0.750000  0.291033  1
  Ho  Ho1  1  0.375597  0.750000  0.690641  1
  Ho  Ho2  1  0.624416  0.250000  0.309293  1
  Ho  Ho3  1  0.875718  0.250000  0.809467  1
  Ho  Ho4  1  0.124673  0.750000  0.190428  1
  Ho  Ho5  1  0.942982  0.750000  0.504821  1
  Ho  Ho6  1  0.057854  0.250000  0.495638  1
  Ho  Ho7  1  0.442049  0.250000  0.995498  1
  Ho  Ho8  1  0.557517  0.750000  0.004211  1
  Tm  Tm9  1  0.840057  0.750000  0.791998  1
  Tm  Tm10  1  0.159882  0.250000  0.208050  1
  Tm  Tm11  1  0.339993  0.250000  0.708071  1
  Tm  Tm12  1  0.671539  0.042732  0.564912  1
  Tm  Tm13  1  0.328092  0.957841  0.435440  1
  Tm  Tm14  1  0.171614  0.957438  0.935158  1
  Tm  Tm15  1  0.328092  0.542159  0.435440  1
  Tm  Tm16  1  0.828487  0.042704  0.064731  1
  Tm  Tm17  1  0.671539  0.457268  0.564912  1
  Tm  Tm18  1  0.828487  0.457296  0.064731  1
  Tm  Tm19  1  0.171614  0.542562  0.935158  1
  Bi  Bi20  1  0.565819  0.493323  0.827077  1
  Bi  Bi21  1  0.433583  0.506073  0.172595  1
  Bi  Bi22  1  0.065704  0.506680  0.672868  1
  Bi  Bi23  1  0.433583  0.993927  0.172595  1
  Bi  Bi24  1  0.934884  0.492817  0.327227  1
  Bi  Bi25  1  0.565819  0.006677  0.827077  1
  Bi  Bi26  1  0.934884  0.007183  0.327227  1
  Bi  Bi27  1  0.065704  0.993320  0.672868  1
  Os  Os28  1  0.573679  0.750000  0.508898  1
  Os  Os29  1  0.425785  0.250000  0.491960  1
  Os  Os30  1  0.074196  0.250000  0.991928  1
  Os  Os31  1  0.925805  0.750000  0.008046  1
