# generated using pymatgen
data_Zr5Mn3Co16Si11P
_symmetry_space_group_name_H-M   'P 1'
_cell_length_a   12.07577001
_cell_length_b   12.07577014
_cell_length_c   3.65897800
_cell_angle_alpha   90.00000000
_cell_angle_beta   90.00000000
_cell_angle_gamma   119.84016710
_symmetry_Int_Tables_number   1
_chemical_formula_structural   Zr5Mn3Co16Si11P
_chemical_formula_sum   'Zr5 Mn3 Co16 Si11 P1'
_cell_volume   462.82554049
_cell_formula_units_Z   1
loop_
 _symmetry_equiv_pos_site_id
 _symmetry_equiv_pos_as_xyz
  1  'x, y, z'
loop_
 _atom_site_type_symbol
 _atom_site_label
 _atom_site_symmetry_multiplicity
 _atom_site_fract_x
 _atom_site_fract_y
 _atom_site_fract_z
 _atom_site_occupancy
  Zr  Zr0  1  0.666081  0.333658  0.000000  1
  Zr  Zr1  1  0.333658  0.666081  0.000000  1
  Zr  Zr2  1  0.814974  0.814974  0.500000  1
  Zr  Zr3  1  0.185117  0.999954  0.500000  1
  Zr  Zr4  1  0.999954  0.185117  0.500000  1
  Mn  Mn5  1  0.439631  0.439631  0.000000  1
  Mn  Mn6  1  0.561751  0.000494  0.000000  1
  Mn  Mn7  1  0.000494  0.561751  0.000000  1
  Co  Co8  1  0.195989  0.371806  0.000000  1
  Co  Co9  1  0.179144  0.803436  0.000000  1
  Co  Co10  1  0.821145  0.624531  0.000000  1
  Co  Co11  1  0.803436  0.179144  0.000000  1
  Co  Co12  1  0.371806  0.195989  0.000000  1
  Co  Co13  1  0.123499  0.480185  0.500000  1
  Co  Co14  1  0.358335  0.877695  0.500000  1
  Co  Co15  1  0.518985  0.641514  0.500000  1
  Co  Co16  1  0.641514  0.518985  0.500000  1
  Co  Co17  1  0.877695  0.358335  0.500000  1
  Co  Co18  1  0.480185  0.123499  0.500000  1
  Co  Co19  1  0.004974  0.004974  0.000000  1
  Co  Co20  1  0.717952  0.000056  0.500000  1
  Co  Co21  1  0.000056  0.717952  0.500000  1
  Co  Co22  1  0.624531  0.821145  0.000000  1
  Co  Co23  1  0.277598  0.277598  0.500000  1
  Si  Si24  1  0.638012  0.638012  0.000000  1
  Si  Si25  1  0.362269  0.999910  0.000000  1
  Si  Si26  1  0.999910  0.362269  0.000000  1
  Si  Si27  1  0.480898  0.314337  0.500000  1
  Si  Si28  1  0.686363  0.168559  0.500000  1
  Si  Si29  1  0.832010  0.518250  0.500000  1
  Si  Si30  1  0.518250  0.832010  0.500000  1
  Si  Si31  1  0.168559  0.686363  0.500000  1
  Si  Si32  1  0.821297  0.999813  0.000000  1
  Si  Si33  1  0.999813  0.821297  0.000000  1
  Si  Si34  1  0.314337  0.480898  0.500000  1
  P  P35  1  0.179773  0.179773  0.000000  1
