# generated using pymatgen
data_Tb4Tm4Sc12Si15P
_symmetry_space_group_name_H-M   'P 1'
_cell_length_a   7.07682179
_cell_length_b   7.35806938
_cell_length_c   13.94767817
_cell_angle_alpha   90.00586099
_cell_angle_beta   90.01701714
_cell_angle_gamma   90.22908293
_symmetry_Int_Tables_number   1
_chemical_formula_structural   Tb4Tm4Sc12Si15P
_chemical_formula_sum   'Tb4 Tm4 Sc12 Si15 P1'
_cell_volume   726.27411005
_cell_formula_units_Z   1
loop_
 _symmetry_equiv_pos_site_id
 _symmetry_equiv_pos_as_xyz
  1  'x, y, z'
loop_
 _atom_site_type_symbol
 _atom_site_label
 _atom_site_symmetry_multiplicity
 _atom_site_fract_x
 _atom_site_fract_y
 _atom_site_fract_z
 _atom_site_occupancy
  Tb  Tb0  1  0.009835  0.175286  0.096799  1
  Tb  Tb1  1  0.991053  0.827198  0.900502  1
  Tb  Tb2  1  0.490606  0.674361  0.904990  1
  Tb  Tb3  1  0.991084  0.826816  0.598428  1
  Tm  Tm4  1  0.510999  0.323980  0.096949  1
  Tm  Tm5  1  0.010411  0.176376  0.402917  1
  Tm  Tm6  1  0.510965  0.323665  0.404112  1
  Tm  Tm7  1  0.490143  0.675476  0.595463  1
  Sc  Sc8  1  0.160422  0.501864  0.749555  1
  Sc  Sc9  1  0.838410  0.496854  0.250369  1
  Sc  Sc10  1  0.338730  0.003137  0.250407  1
  Sc  Sc11  1  0.663223  0.998998  0.749515  1
  Sc  Sc12  1  0.327932  0.174083  0.626830  1
  Sc  Sc13  1  0.667327  0.823001  0.375366  1
  Sc  Sc14  1  0.168416  0.676571  0.375317  1
  Sc  Sc15  1  0.667638  0.823157  0.125514  1
  Sc  Sc16  1  0.832813  0.323068  0.625750  1
  Sc  Sc17  1  0.328236  0.173799  0.872460  1
  Sc  Sc18  1  0.832226  0.323505  0.873489  1
  Sc  Sc19  1  0.168329  0.676489  0.125359  1
  Si  Si20  1  0.964916  0.883934  0.250817  1
  Si  Si21  1  0.466340  0.613062  0.250346  1
  Si  Si22  1  0.531804  0.383458  0.749215  1
  Si  Si23  1  0.298014  0.863645  0.748927  1
  Si  Si24  1  0.712782  0.128012  0.251146  1
  Si  Si25  1  0.215765  0.372288  0.250981  1
  Si  Si26  1  0.785753  0.627598  0.748977  1
  Si  Si27  1  0.160054  0.462520  0.539267  1
  Si  Si28  1  0.840394  0.533715  0.460483  1
  Si  Si29  1  0.339376  0.966176  0.460458  1
  Si  Si30  1  0.840115  0.535478  0.039122  1
  Si  Si31  1  0.658366  0.037109  0.539624  1
  Si  Si32  1  0.157838  0.462851  0.960394  1
  Si  Si33  1  0.658606  0.038855  0.960739  1
  Si  Si34  1  0.341729  0.966376  0.039741  1
  P  P35  1  0.029347  0.127232  0.749674  1
