# generated using pymatgen
data_LiMn20ReWC6
_symmetry_space_group_name_H-M   'P 1'
_cell_length_a   7.37003637
_cell_length_b   7.36879891
_cell_length_c   7.36914009
_cell_angle_alpha   60.00728035
_cell_angle_beta   59.99848331
_cell_angle_gamma   59.99895752
_symmetry_Int_Tables_number   1
_chemical_formula_structural   LiMn20ReWC6
_chemical_formula_sum   'Li1 Mn20 Re1 W1 C6'
_cell_volume   282.99817842
_cell_formula_units_Z   1
loop_
 _symmetry_equiv_pos_site_id
 _symmetry_equiv_pos_as_xyz
  1  'x, y, z'
loop_
 _atom_site_type_symbol
 _atom_site_label
 _atom_site_symmetry_multiplicity
 _atom_site_fract_x
 _atom_site_fract_y
 _atom_site_fract_z
 _atom_site_occupancy
  Li  Li0  1  0.000195  0.999740  0.000049  1
  Mn  Mn1  1  0.849310  0.383541  0.383558  1
  Mn  Mn2  1  0.383509  0.849355  0.383580  1
  Mn  Mn3  1  0.383521  0.383607  0.849369  1
  Mn  Mn4  1  0.383560  0.383551  0.383492  1
  Mn  Mn5  1  0.155570  0.614858  0.614797  1
  Mn  Mn6  1  0.614829  0.155601  0.614760  1
  Mn  Mn7  1  0.614796  0.614796  0.155554  1
  Mn  Mn8  1  0.614782  0.614845  0.614853  1
  Mn  Mn9  1  0.658683  0.000156  0.000145  1
  Mn  Mn10  1  0.658669  0.000175  0.341015  1
  Mn  Mn11  1  0.658697  0.341014  0.000151  1
  Mn  Mn12  1  0.000162  0.658653  0.341022  1
  Mn  Mn13  1  0.000169  0.658641  0.000143  1
  Mn  Mn14  1  0.341033  0.658656  0.000137  1
  Mn  Mn15  1  0.000131  0.341005  0.658705  1
  Mn  Mn16  1  0.341045  0.000109  0.658677  1
  Mn  Mn17  1  0.000154  0.000122  0.658688  1
  Mn  Mn18  1  0.340985  0.000148  0.000176  1
  Mn  Mn19  1  0.000135  0.341006  0.000181  1
  Mn  Mn20  1  0.000159  0.000176  0.340963  1
  Re  Re21  1  0.249978  0.250113  0.250022  1
  W  W22  1  0.750002  0.750067  0.749961  1
  C  C23  1  0.728168  0.271798  0.271868  1
  C  C24  1  0.728196  0.271788  0.728184  1
  C  C25  1  0.728196  0.728187  0.271800  1
  C  C26  1  0.271761  0.728221  0.728232  1
  C  C27  1  0.271751  0.728253  0.271760  1
  C  C28  1  0.271856  0.271819  0.728159  1
