# generated using pymatgen
data_YbEr(SnPt)2
_symmetry_space_group_name_H-M   'P 1'
_cell_length_a   7.61403447
_cell_length_b   7.62980354
_cell_length_c   7.76931600
_cell_angle_alpha   90.00000000
_cell_angle_beta   90.00000000
_cell_angle_gamma   119.97112984
_symmetry_Int_Tables_number   1
_chemical_formula_structural   YbEr(SnPt)2
_chemical_formula_sum   'Yb3 Er3 Sn6 Pt6'
_cell_volume   390.99200828
_cell_formula_units_Z   3
loop_
 _symmetry_equiv_pos_site_id
 _symmetry_equiv_pos_as_xyz
  1  'x, y, z'
loop_
 _atom_site_type_symbol
 _atom_site_label
 _atom_site_symmetry_multiplicity
 _atom_site_fract_x
 _atom_site_fract_y
 _atom_site_fract_z
 _atom_site_occupancy
  Yb  Yb0  1  0.403693  0.001554  0.250000  1
  Yb  Yb1  1  0.594840  0.594027  0.250000  1
  Yb  Yb2  1  0.402277  0.997290  0.750000  1
  Er  Er3  1  0.001816  0.404950  0.250000  1
  Er  Er4  1  0.598519  0.597677  0.750000  1
  Er  Er5  1  0.999195  0.402635  0.750000  1
  Sn  Sn6  1  0.267515  0.261713  0.996176  1
  Sn  Sn7  1  0.002849  0.740698  0.002295  1
  Sn  Sn8  1  0.002849  0.740698  0.497705  1
  Sn  Sn9  1  0.729691  0.997201  0.497903  1
  Sn  Sn10  1  0.267515  0.261713  0.503824  1
  Sn  Sn11  1  0.729691  0.997201  0.002097  1
  Pt  Pt12  1  0.991369  0.999185  0.750000  1
  Pt  Pt13  1  0.001304  0.010521  0.250000  1
  Pt  Pt14  1  0.675664  0.338481  0.994797  1
  Pt  Pt15  1  0.327775  0.657989  0.504581  1
  Pt  Pt16  1  0.327775  0.657989  0.995419  1
  Pt  Pt17  1  0.675664  0.338481  0.505203  1
