# generated using pymatgen
data_Pr2UFe2Si4Ge3
_symmetry_space_group_name_H-M   'P 1'
_cell_length_a   12.54900860
_cell_length_b   12.54901009
_cell_length_c   4.16621400
_cell_angle_alpha   90.00000000
_cell_angle_beta   90.00000000
_cell_angle_gamma   160.82525832
_symmetry_Int_Tables_number   1
_chemical_formula_structural   Pr2UFe2Si4Ge3
_chemical_formula_sum   'Pr2 U1 Fe2 Si4 Ge3'
_cell_volume   215.49148592
_cell_formula_units_Z   1
loop_
 _symmetry_equiv_pos_site_id
 _symmetry_equiv_pos_as_xyz
  1  'x, y, z'
loop_
 _atom_site_type_symbol
 _atom_site_label
 _atom_site_symmetry_multiplicity
 _atom_site_fract_x
 _atom_site_fract_y
 _atom_site_fract_z
 _atom_site_occupancy
  Pr  Pr0  1  0.317806  0.682194  0.000000  1
  Pr  Pr1  1  0.682194  0.317806  0.000000  1
  U  U2  1  0.000000  0.000000  0.500000  1
  Fe  Fe3  1  0.120048  0.879952  0.500000  1
  Fe  Fe4  1  0.879952  0.120048  0.500000  1
  Si  Si5  1  0.084390  0.915610  0.000000  1
  Si  Si6  1  0.915610  0.084390  0.000000  1
  Si  Si7  1  0.415318  0.584682  0.500000  1
  Si  Si8  1  0.584682  0.415318  0.500000  1
  Ge  Ge9  1  0.218152  0.781848  0.500000  1
  Ge  Ge10  1  0.781848  0.218152  0.500000  1
  Ge  Ge11  1  0.500000  0.500000  0.000000  1
