# generated using pymatgen
data_Ca2La6PaIr6
_symmetry_space_group_name_H-M   'P 1'
_cell_length_a   7.77807923
_cell_length_b   7.77807705
_cell_length_c   7.77807817
_cell_angle_alpha   68.87601500
_cell_angle_beta   68.87601282
_cell_angle_gamma   68.87600794
_symmetry_Int_Tables_number   1
_chemical_formula_structural   Ca2La6PaIr6
_chemical_formula_sum   'Ca2 La6 Pa1 Ir6'
_cell_volume   394.81709298
_cell_formula_units_Z   1
loop_
 _symmetry_equiv_pos_site_id
 _symmetry_equiv_pos_as_xyz
  1  'x, y, z'
loop_
 _atom_site_type_symbol
 _atom_site_label
 _atom_site_symmetry_multiplicity
 _atom_site_fract_x
 _atom_site_fract_y
 _atom_site_fract_z
 _atom_site_occupancy
  Ca  Ca0  1  0.994634  0.994634  0.994634  1
  Ca  Ca1  1  0.804500  0.804500  0.804500  1
  La  La2  1  0.146404  0.395831  0.672990  1
  La  La3  1  0.672990  0.146404  0.395831  1
  La  La4  1  0.395831  0.672990  0.146404  1
  La  La5  1  0.854422  0.611577  0.322396  1
  La  La6  1  0.322396  0.854422  0.611577  1
  La  La7  1  0.611577  0.322396  0.854422  1
  Pa  Pa8  1  0.185106  0.185106  0.185106  1
  Ir  Ir9  1  0.967474  0.191402  0.549780  1
  Ir  Ir10  1  0.549780  0.967474  0.191402  1
  Ir  Ir11  1  0.191402  0.549780  0.967474  1
  Ir  Ir12  1  0.057021  0.846992  0.399467  1
  Ir  Ir13  1  0.399467  0.057021  0.846992  1
  Ir  Ir14  1  0.846992  0.399467  0.057021  1
