# generated using pymatgen
data_CeTm19Sn16
_symmetry_space_group_name_H-M   'P 1'
_cell_length_a   7.97041561
_cell_length_b   8.08653660
_cell_length_c   15.29586300
_cell_angle_alpha   89.98979712
_cell_angle_beta   89.62183607
_cell_angle_gamma   90.15463057
_symmetry_Int_Tables_number   1
_chemical_formula_structural   CeTm19Sn16
_chemical_formula_sum   'Ce1 Tm19 Sn16'
_cell_volume   985.84005567
_cell_formula_units_Z   1
loop_
 _symmetry_equiv_pos_site_id
 _symmetry_equiv_pos_as_xyz
  1  'x, y, z'
loop_
 _atom_site_type_symbol
 _atom_site_label
 _atom_site_symmetry_multiplicity
 _atom_site_fract_x
 _atom_site_fract_y
 _atom_site_fract_z
 _atom_site_occupancy
  Ce  Ce0  1  0.517813  0.319983  0.405912  1
  Tm  Tm1  1  0.023406  0.177559  0.403400  1
  Tm  Tm2  1  0.368802  0.837743  0.121642  1
  Tm  Tm3  1  0.133119  0.337675  0.623914  1
  Tm  Tm4  1  0.476629  0.678576  0.902706  1
  Tm  Tm5  1  0.870038  0.661912  0.122477  1
  Tm  Tm6  1  0.130366  0.338245  0.876944  1
  Tm  Tm7  1  0.198546  0.504721  0.248739  1
  Tm  Tm8  1  0.698444  0.996999  0.249108  1
  Tm  Tm9  1  0.478918  0.679808  0.597004  1
  Tm  Tm10  1  0.301393  0.003510  0.750425  1
  Tm  Tm11  1  0.633214  0.162023  0.623344  1
  Tm  Tm12  1  0.801911  0.496179  0.750601  1
  Tm  Tm13  1  0.866336  0.663677  0.376331  1
  Tm  Tm14  1  0.023259  0.177832  0.095878  1
  Tm  Tm15  1  0.976333  0.821641  0.902546  1
  Tm  Tm16  1  0.631126  0.161639  0.877568  1
  Tm  Tm17  1  0.524706  0.320247  0.097888  1
  Tm  Tm18  1  0.366362  0.838573  0.377010  1
  Tm  Tm19  1  0.977961  0.820998  0.596888  1
  Sn  Sn20  1  0.796163  0.463580  0.542097  1
  Sn  Sn21  1  0.708177  0.962798  0.458374  1
  Sn  Sn22  1  0.666951  0.849810  0.749761  1
  Sn  Sn23  1  0.202748  0.540981  0.459521  1
  Sn  Sn24  1  0.290664  0.037008  0.958037  1
  Sn  Sn25  1  0.834565  0.349661  0.249919  1
  Sn  Sn26  1  0.791287  0.463140  0.958676  1
  Sn  Sn27  1  0.564576  0.619197  0.250275  1
  Sn  Sn28  1  0.210446  0.534691  0.041342  1
  Sn  Sn29  1  0.435850  0.382035  0.750425  1
  Sn  Sn30  1  0.167758  0.650247  0.749779  1
  Sn  Sn31  1  0.934947  0.117641  0.750147  1
  Sn  Sn32  1  0.292675  0.037600  0.541515  1
  Sn  Sn33  1  0.709372  0.962245  0.041082  1
  Sn  Sn34  1  0.330638  0.148773  0.249122  1
  Sn  Sn35  1  0.064499  0.881053  0.249604  1
