# generated using pymatgen
data_Pm4ZnSi3
_symmetry_space_group_name_H-M   'P 1'
_cell_length_a   8.11659697
_cell_length_b   5.92832576
_cell_length_c   4.03238000
_cell_angle_alpha   90.00000000
_cell_angle_beta   90.00000000
_cell_angle_gamma   89.63547468
_symmetry_Int_Tables_number   1
_chemical_formula_structural   Pm4ZnSi3
_chemical_formula_sum   'Pm4 Zn1 Si3'
_cell_volume   194.02545205
_cell_formula_units_Z   1
loop_
 _symmetry_equiv_pos_site_id
 _symmetry_equiv_pos_as_xyz
  1  'x, y, z'
loop_
 _atom_site_type_symbol
 _atom_site_label
 _atom_site_symmetry_multiplicity
 _atom_site_fract_x
 _atom_site_fract_y
 _atom_site_fract_z
 _atom_site_occupancy
  Pm  Pm0  1  0.095057  0.486953  0.000000  1
  Pm  Pm1  1  0.593660  0.756757  0.000000  1
  Pm  Pm2  1  0.238135  0.993489  0.499999  1
  Pm  Pm3  1  0.736735  0.256352  0.499999  1
  Zn  Zn4  1  0.886748  0.755473  0.499999  1
  Si  Si5  1  0.449747  0.256202  0.000000  1
  Si  Si6  1  0.952244  0.997148  0.000000  1
  Si  Si7  1  0.381006  0.497631  0.499999  1
