# generated using pymatgen
data_TbGd3(ReN3)4
_symmetry_space_group_name_H-M   'P 1'
_cell_length_a   5.40514800
_cell_length_b   5.67483269
_cell_length_c   7.78714500
_cell_angle_alpha   90.00000000
_cell_angle_beta   90.00000000
_cell_angle_gamma   89.75782534
_symmetry_Int_Tables_number   1
_chemical_formula_structural   TbGd3(ReN3)4
_chemical_formula_sum   'Tb1 Gd3 Re4 N12'
_cell_volume   238.85538342
_cell_formula_units_Z   1
loop_
 _symmetry_equiv_pos_site_id
 _symmetry_equiv_pos_as_xyz
  1  'x, y, z'
loop_
 _atom_site_type_symbol
 _atom_site_label
 _atom_site_symmetry_multiplicity
 _atom_site_fract_x
 _atom_site_fract_y
 _atom_site_fract_z
 _atom_site_occupancy
  Tb  Tb0  1  0.489417  0.438307  0.250000  1
  Gd  Gd1  1  0.010791  0.939855  0.250000  1
  Gd  Gd2  1  0.507775  0.559742  0.750000  1
  Gd  Gd3  1  0.990252  0.059746  0.750000  1
  Re  Re4  1  0.500824  0.000598  0.499849  1
  Re  Re5  1  0.999438  0.500349  0.000116  1
  Re  Re6  1  0.999438  0.500349  0.499884  1
  Re  Re7  1  0.500824  0.000598  0.000151  1
  N  N8  1  0.702621  0.294076  0.539528  1
  N  N9  1  0.298656  0.704446  0.040799  1
  N  N10  1  0.203380  0.206457  0.040645  1
  N  N11  1  0.424217  0.983880  0.750000  1
  N  N12  1  0.919560  0.517376  0.250000  1
  N  N13  1  0.298656  0.704446  0.459201  1
  N  N14  1  0.797891  0.794280  0.959955  1
  N  N15  1  0.702621  0.294076  0.960472  1
  N  N16  1  0.797891  0.794280  0.540045  1
  N  N17  1  0.075121  0.483119  0.750000  1
  N  N18  1  0.203380  0.206457  0.459355  1
  N  N19  1  0.577243  0.017562  0.250000  1
