# generated using pymatgen
data_Ho5TcWC7
_symmetry_space_group_name_H-M   'P 1'
_cell_length_a   8.34010654
_cell_length_b   8.34010730
_cell_length_c   3.41735700
_cell_angle_alpha   90.00000000
_cell_angle_beta   90.00000000
_cell_angle_gamma   122.38731584
_symmetry_Int_Tables_number   1
_chemical_formula_structural   Ho5TcWC7
_chemical_formula_sum   'Ho5 Tc1 W1 C7'
_cell_volume   200.72697545
_cell_formula_units_Z   1
loop_
 _symmetry_equiv_pos_site_id
 _symmetry_equiv_pos_as_xyz
  1  'x, y, z'
loop_
 _atom_site_type_symbol
 _atom_site_label
 _atom_site_symmetry_multiplicity
 _atom_site_fract_x
 _atom_site_fract_y
 _atom_site_fract_z
 _atom_site_occupancy
  Ho  Ho0  1  0.501394  0.498606  0.000000  1
  Ho  Ho1  1  0.074120  0.333207  0.500000  1
  Ho  Ho2  1  0.922752  0.663105  0.500000  1
  Ho  Ho3  1  0.666793  0.925880  0.500000  1
  Ho  Ho4  1  0.336895  0.077248  0.500000  1
  Tc  Tc5  1  0.712637  0.287363  0.000000  1
  W  W6  1  0.286177  0.713823  0.000000  1
  C  C7  1  0.625892  0.374108  0.500000  1
  C  C8  1  0.375481  0.624519  0.500000  1
  C  C9  1  0.999797  0.000203  0.000000  1
  C  C10  1  0.168271  0.169184  0.000000  1
  C  C11  1  0.830816  0.831729  0.000000  1
  C  C12  1  0.999852  0.500878  0.000000  1
  C  C13  1  0.499122  0.000148  0.000000  1
