# generated using pymatgen
data_Dy10Ho10Si15Pd
_symmetry_space_group_name_H-M   'P 1'
_cell_length_a   7.44910452
_cell_length_b   7.66765161
_cell_length_c   14.56341900
_cell_angle_alpha   90.23118929
_cell_angle_beta   90.38653827
_cell_angle_gamma   90.15921309
_symmetry_Int_Tables_number   1
_chemical_formula_structural   Dy10Ho10Si15Pd
_chemical_formula_sum   'Dy10 Ho10 Si15 Pd1'
_cell_volume   831.79184030
_cell_formula_units_Z   1
loop_
 _symmetry_equiv_pos_site_id
 _symmetry_equiv_pos_as_xyz
  1  'x, y, z'
loop_
 _atom_site_type_symbol
 _atom_site_label
 _atom_site_symmetry_multiplicity
 _atom_site_fract_x
 _atom_site_fract_y
 _atom_site_fract_z
 _atom_site_occupancy
  Dy  Dy0  1  0.470772  0.317847  0.098956  1
  Dy  Dy1  1  0.974544  0.180719  0.399722  1
  Dy  Dy2  1  0.471031  0.320687  0.400743  1
  Dy  Dy3  1  0.970506  0.182039  0.098443  1
  Dy  Dy4  1  0.530075  0.682212  0.900594  1
  Dy  Dy5  1  0.026960  0.817572  0.600068  1
  Dy  Dy6  1  0.851722  0.507427  0.749583  1
  Dy  Dy7  1  0.351349  0.989633  0.748112  1
  Dy  Dy8  1  0.148969  0.490116  0.250669  1
  Dy  Dy9  1  0.651927  0.010569  0.253762  1
  Ho  Ho10  1  0.681158  0.170293  0.620540  1
  Ho  Ho11  1  0.182593  0.321740  0.876702  1
  Ho  Ho12  1  0.319453  0.819285  0.121736  1
  Ho  Ho13  1  0.820568  0.682448  0.379798  1
  Ho  Ho14  1  0.321100  0.824169  0.378179  1
  Ho  Ho15  1  0.817862  0.680267  0.122368  1
  Ho  Ho16  1  0.680937  0.179764  0.877571  1
  Ho  Ho17  1  0.178572  0.320927  0.623263  1
  Ho  Ho18  1  0.526206  0.680653  0.599801  1
  Ho  Ho19  1  0.028931  0.817165  0.901101  1
  Si  Si20  1  0.145719  0.529059  0.039950  1
  Si  Si21  1  0.352226  0.029605  0.959873  1
  Si  Si22  1  0.851381  0.471313  0.541506  1
  Si  Si23  1  0.344115  0.028556  0.541682  1
  Si  Si24  1  0.855126  0.471305  0.959201  1
  Si  Si25  1  0.644651  0.971056  0.039332  1
  Si  Si26  1  0.147138  0.530466  0.460658  1
  Si  Si27  1  0.478619  0.392701  0.749403  1
  Si  Si28  1  0.976453  0.105134  0.751951  1
  Si  Si29  1  0.523574  0.607017  0.248669  1
  Si  Si30  1  0.026345  0.893282  0.247473  1
  Si  Si31  1  0.734674  0.871457  0.751749  1
  Si  Si32  1  0.233844  0.626626  0.751020  1
  Si  Si33  1  0.267224  0.126083  0.247047  1
  Si  Si34  1  0.766654  0.376207  0.249058  1
  Pd  Pd35  1  0.647023  0.974602  0.459717  1
