# generated using pymatgen
data_DyPa3(NbN2)4
_symmetry_space_group_name_H-M   'P 1'
_cell_length_a   3.31489400
_cell_length_b   5.73125268
_cell_length_c   10.98896513
_cell_angle_alpha   90.09624952
_cell_angle_beta   90.00000000
_cell_angle_gamma   90.00000000
_symmetry_Int_Tables_number   1
_chemical_formula_structural   DyPa3(NbN2)4
_chemical_formula_sum   'Dy1 Pa3 Nb4 N8'
_cell_volume   208.77350579
_cell_formula_units_Z   1
loop_
 _symmetry_equiv_pos_site_id
 _symmetry_equiv_pos_as_xyz
  1  'x, y, z'
loop_
 _atom_site_type_symbol
 _atom_site_label
 _atom_site_symmetry_multiplicity
 _atom_site_fract_x
 _atom_site_fract_y
 _atom_site_fract_z
 _atom_site_occupancy
  Dy  Dy0  1  0.250000  0.578270  0.854203  1
  Pa  Pa1  1  0.750000  0.425994  0.139419  1
  Pa  Pa2  1  0.750000  0.923066  0.355818  1
  Pa  Pa3  1  0.250000  0.078850  0.647707  1
  Nb  Nb4  1  0.250000  0.922963  0.096780  1
  Nb  Nb5  1  0.750000  0.071890  0.905537  1
  Nb  Nb6  1  0.750000  0.576649  0.598544  1
  Nb  Nb7  1  0.250000  0.424497  0.402735  1
  N  N8  1  0.250000  0.659478  0.245588  1
  N  N9  1  0.750000  0.333484  0.751365  1
  N  N10  1  0.750000  0.845500  0.743721  1
  N  N11  1  0.250000  0.157997  0.255669  1
  N  N12  1  0.250000  0.766550  0.504795  1
  N  N13  1  0.750000  0.234712  0.496162  1
  N  N14  1  0.750000  0.733523  0.003798  1
  N  N15  1  0.250000  0.266576  0.998160  1
