# generated using pymatgen
data_Y4Cd2CoCu3
_symmetry_space_group_name_H-M   'P 1'
_cell_length_a   3.73104300
_cell_length_b   7.53611631
_cell_length_c   7.53611626
_cell_angle_alpha   90.16279182
_cell_angle_beta   90.00000000
_cell_angle_gamma   90.00000000
_symmetry_Int_Tables_number   1
_chemical_formula_structural   Y4Cd2CoCu3
_chemical_formula_sum   'Y4 Cd2 Co1 Cu3'
_cell_volume   211.89645131
_cell_formula_units_Z   1
loop_
 _symmetry_equiv_pos_site_id
 _symmetry_equiv_pos_as_xyz
  1  'x, y, z'
loop_
 _atom_site_type_symbol
 _atom_site_label
 _atom_site_symmetry_multiplicity
 _atom_site_fract_x
 _atom_site_fract_y
 _atom_site_fract_z
 _atom_site_occupancy
  Y  Y0  1  0.500000  0.171437  0.671437  1
  Y  Y1  1  0.500000  0.811537  0.311537  1
  Y  Y2  1  0.500000  0.343712  0.181167  1
  Y  Y3  1  0.500000  0.681167  0.843712  1
  Cd  Cd4  1  0.000000  0.005067  0.001087  1
  Cd  Cd5  1  0.000000  0.501087  0.505067  1
  Co  Co6  1  0.000000  0.615539  0.115539  1
  Cu  Cu7  1  0.000000  0.380040  0.880040  1
  Cu  Cu8  1  0.000000  0.875670  0.614743  1
  Cu  Cu9  1  0.000000  0.114743  0.375670  1
