# generated using pymatgen
data_Tm6Zn16Pt7S
_symmetry_space_group_name_H-M   'P 1'
_cell_length_a   8.82968877
_cell_length_b   8.82968813
_cell_length_c   8.82968800
_cell_angle_alpha   60.00000049
_cell_angle_beta   60.00000287
_cell_angle_gamma   59.99999737
_symmetry_Int_Tables_number   1
_chemical_formula_structural   Tm6Zn16Pt7S
_chemical_formula_sum   'Tm6 Zn16 Pt7 S1'
_cell_volume   486.76699379
_cell_formula_units_Z   1
loop_
 _symmetry_equiv_pos_site_id
 _symmetry_equiv_pos_as_xyz
  1  'x, y, z'
loop_
 _atom_site_type_symbol
 _atom_site_label
 _atom_site_symmetry_multiplicity
 _atom_site_fract_x
 _atom_site_fract_y
 _atom_site_fract_z
 _atom_site_occupancy
  Tm  Tm0  1  0.715186  0.284814  0.284814  1
  Tm  Tm1  1  0.284814  0.715186  0.715186  1
  Tm  Tm2  1  0.284814  0.715186  0.284814  1
  Tm  Tm3  1  0.715186  0.284814  0.715186  1
  Tm  Tm4  1  0.284814  0.284814  0.715186  1
  Tm  Tm5  1  0.715186  0.715186  0.284814  1
  Zn  Zn6  1  0.122188  0.122188  0.122188  1
  Zn  Zn7  1  0.877812  0.877812  0.877812  1
  Zn  Zn8  1  0.122188  0.122188  0.633437  1
  Zn  Zn9  1  0.122188  0.633437  0.122188  1
  Zn  Zn10  1  0.877812  0.877812  0.366563  1
  Zn  Zn11  1  0.877812  0.366563  0.877812  1
  Zn  Zn12  1  0.633437  0.122188  0.122188  1
  Zn  Zn13  1  0.366563  0.877812  0.877812  1
  Zn  Zn14  1  0.333626  0.333626  0.333626  1
  Zn  Zn15  1  0.666374  0.666374  0.666374  1
  Zn  Zn16  1  0.333626  0.333626  0.999121  1
  Zn  Zn17  1  0.333626  0.999121  0.333626  1
  Zn  Zn18  1  0.666374  0.666374  0.000879  1
  Zn  Zn19  1  0.666374  0.000879  0.666374  1
  Zn  Zn20  1  0.999121  0.333626  0.333626  1
  Zn  Zn21  1  0.000879  0.666374  0.666374  1
  Pt  Pt22  1  0.500000  0.000000  0.000000  1
  Pt  Pt23  1  0.000000  0.500000  0.500000  1
  Pt  Pt24  1  0.000000  0.500000  0.000000  1
  Pt  Pt25  1  0.500000  0.000000  0.500000  1
  Pt  Pt26  1  0.000000  0.000000  0.500000  1
  Pt  Pt27  1  0.500000  0.500000  0.000000  1
  Pt  Pt28  1  0.000000  0.000000  0.000000  1
  S  S29  1  0.500000  0.500000  0.500000  1
