# generated using pymatgen
data_Dy4Si4OsRh3
_symmetry_space_group_name_H-M   'P 1'
_cell_length_a   4.30608200
_cell_length_b   6.93502600
_cell_length_c   7.28459956
_cell_angle_alpha   90.33435535
_cell_angle_beta   90.00000000
_cell_angle_gamma   90.00000000
_symmetry_Int_Tables_number   1
_chemical_formula_structural   Dy4Si4OsRh3
_chemical_formula_sum   'Dy4 Si4 Os1 Rh3'
_cell_volume   217.53476745
_cell_formula_units_Z   1
loop_
 _symmetry_equiv_pos_site_id
 _symmetry_equiv_pos_as_xyz
  1  'x, y, z'
loop_
 _atom_site_type_symbol
 _atom_site_label
 _atom_site_symmetry_multiplicity
 _atom_site_fract_x
 _atom_site_fract_y
 _atom_site_fract_z
 _atom_site_occupancy
  Dy  Dy0  1  0.250000  0.494500  0.184948  1
  Dy  Dy1  1  0.750000  0.505752  0.816112  1
  Dy  Dy2  1  0.750000  0.007894  0.689460  1
  Dy  Dy3  1  0.250000  0.988366  0.310590  1
  Si  Si4  1  0.250000  0.796783  0.885321  1
  Si  Si5  1  0.750000  0.201024  0.108622  1
  Si  Si6  1  0.750000  0.700458  0.400767  1
  Si  Si7  1  0.250000  0.303236  0.604768  1
  Os  Os8  1  0.250000  0.654180  0.568185  1
  Rh  Rh9  1  0.750000  0.346299  0.431267  1
  Rh  Rh10  1  0.750000  0.846914  0.068420  1
  Rh  Rh11  1  0.250000  0.154594  0.931540  1
