# generated using pymatgen
data_TbLu2Ga5Ni
_symmetry_space_group_name_H-M   'P 1'
_cell_length_a   6.78991600
_cell_length_b   6.85287191
_cell_length_c   4.19879400
_cell_angle_alpha   90.00000000
_cell_angle_beta   90.00000000
_cell_angle_gamma   119.69656584
_symmetry_Int_Tables_number   1
_chemical_formula_structural   TbLu2Ga5Ni
_chemical_formula_sum   'Tb1 Lu2 Ga5 Ni1'
_cell_volume   169.71178915
_cell_formula_units_Z   1
loop_
 _symmetry_equiv_pos_site_id
 _symmetry_equiv_pos_as_xyz
  1  'x, y, z'
loop_
 _atom_site_type_symbol
 _atom_site_label
 _atom_site_symmetry_multiplicity
 _atom_site_fract_x
 _atom_site_fract_y
 _atom_site_fract_z
 _atom_site_occupancy
  Tb  Tb0  1  0.591508  0.000000  0.500000  1
  Lu  Lu1  1  0.402355  0.403569  0.500000  1
  Lu  Lu2  1  0.998786  0.596431  0.500000  1
  Ga  Ga3  1  0.236830  0.000000  0.000000  1
  Ga  Ga4  1  0.000606  0.236420  0.000000  1
  Ga  Ga5  1  0.668855  0.338395  0.000000  1
  Ga  Ga6  1  0.330458  0.661605  0.000000  1
  Ga  Ga7  1  0.764186  0.763580  0.000000  1
  Ni  Ni8  1  0.006415  0.000000  0.500000  1
