# generated using pymatgen
data_LiYbSiPd3
_symmetry_space_group_name_H-M   'P 1'
_cell_length_a   4.97502984
_cell_length_b   4.97502945
_cell_length_c   4.97502777
_cell_angle_alpha   67.68714647
_cell_angle_beta   67.68714312
_cell_angle_gamma   67.68715416
_symmetry_Int_Tables_number   1
_chemical_formula_structural   LiYbSiPd3
_chemical_formula_sum   'Li1 Yb1 Si1 Pd3'
_cell_volume   101.31818243
_cell_formula_units_Z   1
loop_
 _symmetry_equiv_pos_site_id
 _symmetry_equiv_pos_as_xyz
  1  'x, y, z'
loop_
 _atom_site_type_symbol
 _atom_site_label
 _atom_site_symmetry_multiplicity
 _atom_site_fract_x
 _atom_site_fract_y
 _atom_site_fract_z
 _atom_site_occupancy
  Li  Li0  1  0.865591  0.865591  0.865591  1
  Yb  Yb1  1  0.121958  0.121958  0.121958  1
  Si  Si2  1  0.503971  0.503971  0.503971  1
  Pd  Pd3  1  0.503141  0.503141  0.002198  1
  Pd  Pd4  1  0.002198  0.503141  0.503141  1
  Pd  Pd5  1  0.503141  0.002198  0.503141  1
