# generated using pymatgen
data_Be8Nb3Ni4W9C2
_symmetry_space_group_name_H-M   'P 1'
_cell_length_a   7.63197455
_cell_length_b   7.63197370
_cell_length_c   7.62645600
_cell_angle_alpha   59.97606085
_cell_angle_beta   59.97606064
_cell_angle_gamma   59.99999290
_symmetry_Int_Tables_number   1
_chemical_formula_structural   Be8Nb3Ni4W9C2
_chemical_formula_sum   'Be8 Nb3 Ni4 W9 C2'
_cell_volume   313.99612303
_cell_formula_units_Z   1
loop_
 _symmetry_equiv_pos_site_id
 _symmetry_equiv_pos_as_xyz
  1  'x, y, z'
loop_
 _atom_site_type_symbol
 _atom_site_label
 _atom_site_symmetry_multiplicity
 _atom_site_fract_x
 _atom_site_fract_y
 _atom_site_fract_z
 _atom_site_occupancy
  Be  Be0  1  0.420913  0.420913  0.737260  1
  Be  Be1  1  0.423078  0.733142  0.420700  1
  Be  Be2  1  0.733142  0.423078  0.420700  1
  Be  Be3  1  0.423078  0.423078  0.420700  1
  Be  Be4  1  0.829089  0.829089  0.512735  1
  Be  Be5  1  0.827829  0.514199  0.830144  1
  Be  Be6  1  0.514199  0.827829  0.830144  1
  Be  Be7  1  0.827829  0.827829  0.830144  1
  Nb  Nb8  1  0.050162  0.050162  0.448860  1
  Nb  Nb9  1  0.450817  0.050162  0.448860  1
  Nb  Nb10  1  0.050162  0.450817  0.448860  1
  Ni  Ni11  1  0.625726  0.625726  0.122823  1
  Ni  Ni12  1  0.623809  0.125760  0.626622  1
  Ni  Ni13  1  0.125760  0.623809  0.626622  1
  Ni  Ni14  1  0.623809  0.623809  0.626622  1
  W  W15  1  0.450642  0.450642  0.048369  1
  W  W16  1  0.050347  0.450642  0.048369  1
  W  W17  1  0.450642  0.050347  0.048369  1
  W  W18  1  0.197862  0.197862  0.806332  1
  W  W19  1  0.797943  0.197862  0.806332  1
  W  W20  1  0.197862  0.797943  0.806332  1
  W  W21  1  0.800597  0.800597  0.197306  1
  W  W22  1  0.201499  0.800597  0.197306  1
  W  W23  1  0.800597  0.201499  0.197306  1
  C  C24  1  0.253352  0.253352  0.239945  1
  C  C25  1  0.999255  0.999255  0.002235  1
