# generated using pymatgen
data_VTcMoS6
_symmetry_space_group_name_H-M   'P 1'
_cell_length_a   5.47131433
_cell_length_b   5.47121300
_cell_length_c   6.92809815
_cell_angle_alpha   82.43790013
_cell_angle_beta   82.45880763
_cell_angle_gamma   119.99868829
_symmetry_Int_Tables_number   1
_chemical_formula_structural   VTcMoS6
_chemical_formula_sum   'V1 Tc1 Mo1 S6'
_cell_volume   173.29315579
_cell_formula_units_Z   1
loop_
 _symmetry_equiv_pos_site_id
 _symmetry_equiv_pos_as_xyz
  1  'x, y, z'
loop_
 _atom_site_type_symbol
 _atom_site_label
 _atom_site_symmetry_multiplicity
 _atom_site_fract_x
 _atom_site_fract_y
 _atom_site_fract_z
 _atom_site_occupancy
  V  V0  1  0.500025  0.833395  0.500032  1
  Tc  Tc1  1  0.833257  0.500004  0.500101  1
  Mo  Mo2  1  0.166625  0.166630  0.500075  1
  S  S3  1  0.579657  0.238267  0.270677  1
  S  S4  1  0.247716  0.584423  0.270557  1
  S  S5  1  0.901605  0.906372  0.270593  1
  S  S6  1  0.748994  0.753644  0.729358  1
  S  S7  1  0.427043  0.085644  0.729471  1
  S  S8  1  0.094979  0.431526  0.729435  1
