# generated using pymatgen
data_Cs2NaAsS4
_symmetry_space_group_name_H-M   'P 1'
_cell_length_a   7.16620622
_cell_length_b   7.36559440
_cell_length_c   11.95742248
_cell_angle_alpha   72.96888010
_cell_angle_beta   71.65975200
_cell_angle_gamma   67.12509809
_symmetry_Int_Tables_number   1
_chemical_formula_structural   Cs2NaAsS4
_chemical_formula_sum   'Cs4 Na2 As2 S8'
_cell_volume   541.37717269
_cell_formula_units_Z   2
loop_
 _symmetry_equiv_pos_site_id
 _symmetry_equiv_pos_as_xyz
  1  'x, y, z'
loop_
 _atom_site_type_symbol
 _atom_site_label
 _atom_site_symmetry_multiplicity
 _atom_site_fract_x
 _atom_site_fract_y
 _atom_site_fract_z
 _atom_site_occupancy
  Cs  Cs0  1  0.755925  0.518405  0.195487  1
  Cs  Cs1  1  0.249713  0.223384  0.404861  1
  Cs  Cs2  1  0.244075  0.481595  0.804513  1
  Cs  Cs3  1  0.750287  0.776616  0.595139  1
  Na  Na4  1  0.654701  0.086410  0.065498  1
  Na  Na5  1  0.345299  0.913590  0.934502  1
  As  As6  1  0.130839  0.853425  0.235337  1
  As  As7  1  0.869161  0.146575  0.764663  1
  S  S8  1  0.787797  0.953396  0.279417  1
  S  S9  1  0.250426  0.733253  0.397505  1
  S  S10  1  0.255335  0.619167  0.127068  1
  S  S11  1  0.744665  0.380833  0.872932  1
  S  S12  1  0.772125  0.883450  0.871374  1
  S  S13  1  0.212203  0.046604  0.720583  1
  S  S14  1  0.749574  0.266747  0.602495  1
  S  S15  1  0.227875  0.116550  0.128626  1
