# generated using pymatgen
data_LiHo16In2HgRh4
_symmetry_space_group_name_H-M   'P 1'
_cell_length_a   9.57286985
_cell_length_b   9.57287036
_cell_length_c   9.59978406
_cell_angle_alpha   60.17319625
_cell_angle_beta   60.17319310
_cell_angle_gamma   60.03090190
_symmetry_Int_Tables_number   1
_chemical_formula_structural   LiHo16In2HgRh4
_chemical_formula_sum   'Li1 Ho16 In2 Hg1 Rh4'
_cell_volume   623.82764103
_cell_formula_units_Z   1
loop_
 _symmetry_equiv_pos_site_id
 _symmetry_equiv_pos_as_xyz
  1  'x, y, z'
loop_
 _atom_site_type_symbol
 _atom_site_label
 _atom_site_symmetry_multiplicity
 _atom_site_fract_x
 _atom_site_fract_y
 _atom_site_fract_z
 _atom_site_occupancy
  Li  Li0  1  0.822616  0.822616  0.536156  1
  Ho  Ho1  1  0.186959  0.186959  0.812261  1
  Ho  Ho2  1  0.601832  0.601832  0.195094  1
  Ho  Ho3  1  0.437082  0.062057  0.437957  1
  Ho  Ho4  1  0.441050  0.441050  0.057301  1
  Ho  Ho5  1  0.814579  0.183719  0.813741  1
  Ho  Ho6  1  0.187365  0.811492  0.187393  1
  Ho  Ho7  1  0.439810  0.059741  0.058331  1
  Ho  Ho8  1  0.183719  0.814579  0.813741  1
  Ho  Ho9  1  0.059741  0.439810  0.058331  1
  Ho  Ho10  1  0.811736  0.811736  0.187796  1
  Ho  Ho11  1  0.201782  0.599600  0.601903  1
  Ho  Ho12  1  0.062057  0.437082  0.437957  1
  Ho  Ho13  1  0.063956  0.063956  0.433219  1
  Ho  Ho14  1  0.811492  0.187365  0.187393  1
  Ho  Ho15  1  0.599600  0.201782  0.601903  1
  Ho  Ho16  1  0.596367  0.596367  0.600612  1
  In  In17  1  0.504998  0.832927  0.828654  1
  In  In18  1  0.832927  0.504998  0.828654  1
  Hg  Hg19  1  0.837496  0.837496  0.829055  1
  Rh  Rh20  1  0.394110  0.822558  0.389862  1
  Rh  Rh21  1  0.394041  0.394041  0.389556  1
  Rh  Rh22  1  0.822558  0.394110  0.389862  1
  Rh  Rh23  1  0.392129  0.392129  0.823269  1
