# generated using pymatgen
data_Pr3Nd5Cd2IrOs
_symmetry_space_group_name_H-M   'P 1'
_cell_length_a   9.97763471
_cell_length_b   9.97763466
_cell_length_c   10.03726000
_cell_angle_alpha   59.80212115
_cell_angle_beta   59.80212134
_cell_angle_gamma   59.65330903
_symmetry_Int_Tables_number   1
_chemical_formula_structural   Pr3Nd5Cd2IrOs
_chemical_formula_sum   'Pr6 Nd10 Cd4 Ir2 Os2'
_cell_volume   702.59638189
_cell_formula_units_Z   2
loop_
 _symmetry_equiv_pos_site_id
 _symmetry_equiv_pos_as_xyz
  1  'x, y, z'
loop_
 _atom_site_type_symbol
 _atom_site_label
 _atom_site_symmetry_multiplicity
 _atom_site_fract_x
 _atom_site_fract_y
 _atom_site_fract_z
 _atom_site_occupancy
  Pr  Pr0  1  0.940290  0.557573  0.560985  1
  Pr  Pr1  1  0.557573  0.940290  0.941152  1
  Pr  Pr2  1  0.557573  0.940290  0.560985  1
  Pr  Pr3  1  0.940290  0.557573  0.941152  1
  Pr  Pr4  1  0.560679  0.560679  0.939321  1
  Pr  Pr5  1  0.942190  0.942190  0.557810  1
  Nd  Nd6  1  0.346718  0.346718  0.348150  1
  Nd  Nd7  1  0.346718  0.346718  0.958412  1
  Nd  Nd8  1  0.345483  0.960371  0.347073  1
  Nd  Nd9  1  0.960371  0.345483  0.347073  1
  Nd  Nd10  1  0.810382  0.190429  0.191102  1
  Nd  Nd11  1  0.190429  0.810382  0.808087  1
  Nd  Nd12  1  0.190429  0.810382  0.191102  1
  Nd  Nd13  1  0.810382  0.190429  0.808087  1
  Nd  Nd14  1  0.190965  0.190965  0.809035  1
  Nd  Nd15  1  0.809288  0.809288  0.190712  1
  Cd  Cd16  1  0.578937  0.578937  0.579413  1
  Cd  Cd17  1  0.578937  0.578937  0.262711  1
  Cd  Cd18  1  0.578866  0.261363  0.579885  1
  Cd  Cd19  1  0.261363  0.578866  0.579885  1
  Ir  Ir20  1  0.142137  0.579141  0.139362  1
  Ir  Ir21  1  0.579141  0.142137  0.139362  1
  Os  Os22  1  0.140429  0.140429  0.137209  1
  Os  Os23  1  0.140429  0.140429  0.581933  1
