# generated using pymatgen
data_Er2FeCo8P7W3
_symmetry_space_group_name_H-M   'P 1'
_cell_length_a   9.03858809
_cell_length_b   9.05854707
_cell_length_c   3.71646000
_cell_angle_alpha   90.00000000
_cell_angle_beta   90.00000000
_cell_angle_gamma   119.95763492
_symmetry_Int_Tables_number   1
_chemical_formula_structural   Er2FeCo8P7W3
_chemical_formula_sum   'Er2 Fe1 Co8 P7 W3'
_cell_volume   263.63585581
_cell_formula_units_Z   1
loop_
 _symmetry_equiv_pos_site_id
 _symmetry_equiv_pos_as_xyz
  1  'x, y, z'
loop_
 _atom_site_type_symbol
 _atom_site_label
 _atom_site_symmetry_multiplicity
 _atom_site_fract_x
 _atom_site_fract_y
 _atom_site_fract_z
 _atom_site_occupancy
  Er  Er0  1  0.001841  0.001004  0.000000  1
  Er  Er1  1  0.333425  0.667045  0.500000  1
  Fe  Fe2  1  0.387414  0.174022  0.000000  1
  Co  Co3  1  0.098449  0.702907  0.000000  1
  Co  Co4  1  0.297228  0.396638  0.000000  1
  Co  Co5  1  0.604784  0.901381  0.000000  1
  Co  Co6  1  0.826476  0.213275  0.000000  1
  Co  Co7  1  0.787035  0.613133  0.000000  1
  Co  Co8  1  0.053622  0.282345  0.500000  1
  Co  Co9  1  0.717657  0.770919  0.500000  1
  Co  Co10  1  0.227580  0.945204  0.500000  1
  P  P11  1  0.081652  0.446109  0.000000  1
  P  P12  1  0.554029  0.636049  0.000000  1
  P  P13  1  0.363949  0.919407  0.000000  1
  P  P14  1  0.788166  0.042640  0.500000  1
  P  P15  1  0.957004  0.744339  0.500000  1
  P  P16  1  0.256390  0.210734  0.500000  1
  P  P17  1  0.664741  0.332501  0.000000  1
  W  W18  1  0.887012  0.456732  0.500000  1
  W  W19  1  0.542832  0.431854  0.500000  1
  W  W20  1  0.568716  0.111761  0.500000  1
