# generated using pymatgen
data_MgNbRhF12
_symmetry_space_group_name_H-M   'P 1'
_cell_length_a   5.52960149
_cell_length_b   11.16889498
_cell_length_c   5.53825094
_cell_angle_alpha   58.28735196
_cell_angle_beta   57.98304942
_cell_angle_gamma   58.56812675
_symmetry_Int_Tables_number   1
_chemical_formula_structural   MgNbRhF12
_chemical_formula_sum   'Mg1 Nb1 Rh1 F12'
_cell_volume   232.31521776
_cell_formula_units_Z   1
loop_
 _symmetry_equiv_pos_site_id
 _symmetry_equiv_pos_as_xyz
  1  'x, y, z'
loop_
 _atom_site_type_symbol
 _atom_site_label
 _atom_site_symmetry_multiplicity
 _atom_site_fract_x
 _atom_site_fract_y
 _atom_site_fract_z
 _atom_site_occupancy
  Mg  Mg0  1  0.495926  0.747658  0.507040  1
  Nb  Nb1  1  0.002295  0.008921  0.986984  1
  Rh  Rh2  1  0.989885  0.500693  0.007765  1
  F  F3  1  0.352213  0.062308  0.770321  1
  F  F4  1  0.326010  0.578651  0.759686  1
  F  F5  1  0.136109  0.388242  0.327430  1
  F  F6  1  0.168873  0.871970  0.327509  1
  F  F7  1  0.222606  0.344498  0.854713  1
  F  F8  1  0.244000  0.832970  0.838022  1
  F  F9  1  0.870108  0.112852  0.657480  1
  F  F10  1  0.838871  0.623385  0.670146  1
  F  F11  1  0.656120  0.436720  0.237555  1
  F  F12  1  0.685674  0.909675  0.250128  1
  F  F13  1  0.757126  0.162860  0.148739  1
  F  F14  1  0.754186  0.668597  0.156481  1
