# generated using pymatgen
data_Tb7Y13(Bi2Os)4
_symmetry_space_group_name_H-M   'P 1'
_cell_length_a   8.00926804
_cell_length_b   9.05347110
_cell_length_c   12.54857515
_cell_angle_alpha   89.98425863
_cell_angle_beta   89.99145342
_cell_angle_gamma   90.00666820
_symmetry_Int_Tables_number   1
_chemical_formula_structural   Tb7Y13(Bi2Os)4
_chemical_formula_sum   'Tb7 Y13 Bi8 Os4'
_cell_volume   909.91817394
_cell_formula_units_Z   1
loop_
 _symmetry_equiv_pos_site_id
 _symmetry_equiv_pos_as_xyz
  1  'x, y, z'
loop_
 _atom_site_type_symbol
 _atom_site_label
 _atom_site_symmetry_multiplicity
 _atom_site_fract_x
 _atom_site_fract_y
 _atom_site_fract_z
 _atom_site_occupancy
  Tb  Tb0  1  0.325397  0.958014  0.436382  1
  Tb  Tb1  1  0.174766  0.957878  0.936319  1
  Tb  Tb2  1  0.325082  0.541993  0.436288  1
  Tb  Tb3  1  0.825211  0.042044  0.063655  1
  Tb  Tb4  1  0.674797  0.457855  0.563694  1
  Tb  Tb5  1  0.825201  0.457974  0.063650  1
  Tb  Tb6  1  0.174768  0.542112  0.936311  1
  Y  Y7  1  0.841730  0.750009  0.791677  1
  Y  Y8  1  0.158265  0.250015  0.208291  1
  Y  Y9  1  0.341850  0.250031  0.708187  1
  Y  Y10  1  0.658265  0.750010  0.291754  1
  Y  Y11  1  0.374804  0.750036  0.693754  1
  Y  Y12  1  0.625363  0.249954  0.306278  1
  Y  Y13  1  0.874615  0.250042  0.806172  1
  Y  Y14  1  0.125373  0.750008  0.193843  1
  Y  Y15  1  0.942883  0.749893  0.504395  1
  Y  Y16  1  0.057030  0.250070  0.495615  1
  Y  Y17  1  0.442960  0.250011  0.995625  1
  Y  Y18  1  0.557114  0.749976  0.004359  1
  Y  Y19  1  0.675030  0.042246  0.564040  1
  Bi  Bi20  1  0.569410  0.493162  0.827918  1
  Bi  Bi21  1  0.430546  0.506838  0.172084  1
  Bi  Bi22  1  0.069454  0.506838  0.672100  1
  Bi  Bi23  1  0.430554  0.993185  0.172095  1
  Bi  Bi24  1  0.930550  0.493140  0.327893  1
  Bi  Bi25  1  0.569420  0.006851  0.827860  1
  Bi  Bi26  1  0.930523  0.006833  0.327959  1
  Bi  Bi27  1  0.069188  0.993241  0.671981  1
  Os  Os28  1  0.575358  0.749511  0.511117  1
  Os  Os29  1  0.424508  0.250220  0.488630  1
  Os  Os30  1  0.075465  0.250013  0.988748  1
  Os  Os31  1  0.924518  0.749995  0.011324  1
