# generated using pymatgen
data_Eu3Ho(Ga2Ag)4
_symmetry_space_group_name_H-M   'P 1'
_cell_length_a   4.41007300
_cell_length_b   7.02221875
_cell_length_c   10.44687237
_cell_angle_alpha   89.43208167
_cell_angle_beta   90.00000000
_cell_angle_gamma   90.00000000
_symmetry_Int_Tables_number   1
_chemical_formula_structural   Eu3Ho(Ga2Ag)4
_chemical_formula_sum   'Eu3 Ho1 Ga8 Ag4'
_cell_volume   323.50804614
_cell_formula_units_Z   1
loop_
 _symmetry_equiv_pos_site_id
 _symmetry_equiv_pos_as_xyz
  1  'x, y, z'
loop_
 _atom_site_type_symbol
 _atom_site_label
 _atom_site_symmetry_multiplicity
 _atom_site_fract_x
 _atom_site_fract_y
 _atom_site_fract_z
 _atom_site_occupancy
  Eu  Eu0  1  0.250000  0.783566  0.826928  1
  Eu  Eu1  1  0.750000  0.217996  0.171850  1
  Eu  Eu2  1  0.750000  0.718274  0.329109  1
  Ho  Ho3  1  0.250000  0.284156  0.668401  1
  Ga  Ga4  1  0.250000  0.920889  0.148525  1
  Ga  Ga5  1  0.750000  0.084606  0.846613  1
  Ga  Ga6  1  0.750000  0.574955  0.651515  1
  Ga  Ga7  1  0.250000  0.417312  0.352910  1
  Ga  Ga8  1  0.250000  0.696085  0.536228  1
  Ga  Ga9  1  0.750000  0.295246  0.467301  1
  Ga  Ga10  1  0.750000  0.799123  0.033694  1
  Ga  Ga11  1  0.250000  0.208034  0.960832  1
  Ag  Ag12  1  0.250000  0.539308  0.098848  1
  Ag  Ag13  1  0.750000  0.461270  0.899499  1
  Ag  Ag14  1  0.750000  0.961725  0.600948  1
  Ag  Ag15  1  0.250000  0.037457  0.406798  1
