# generated using pymatgen
data_Pr2PaSn3Ir2Pt
_symmetry_space_group_name_H-M   'P 1'
_cell_length_a   7.63851759
_cell_length_b   7.58002427
_cell_length_c   4.10488600
_cell_angle_alpha   90.00000000
_cell_angle_beta   90.00000000
_cell_angle_gamma   120.03990827
_symmetry_Int_Tables_number   1
_chemical_formula_structural   Pr2PaSn3Ir2Pt
_chemical_formula_sum   'Pr2 Pa1 Sn3 Ir2 Pt1'
_cell_volume   205.74847403
_cell_formula_units_Z   1
loop_
 _symmetry_equiv_pos_site_id
 _symmetry_equiv_pos_as_xyz
  1  'x, y, z'
loop_
 _atom_site_type_symbol
 _atom_site_label
 _atom_site_symmetry_multiplicity
 _atom_site_fract_x
 _atom_site_fract_y
 _atom_site_fract_z
 _atom_site_occupancy
  Pr  Pr0  1  0.997483  0.589132  0.000000  1
  Pr  Pr1  1  0.409849  0.407871  0.000000  1
  Pa  Pa2  1  0.594224  0.010475  0.000000  1
  Sn  Sn3  1  0.242067  0.001539  0.500000  1
  Sn  Sn4  1  0.007921  0.258657  0.500000  1
  Sn  Sn5  1  0.749047  0.740789  0.500000  1
  Ir  Ir6  1  0.661752  0.294858  0.500000  1
  Ir  Ir7  1  0.977155  0.999659  0.000000  1
  Pt  Pt8  1  0.360503  0.697019  0.500000  1
