# generated using pymatgen
data_Tm8V9Si16Mo3
_symmetry_space_group_name_H-M   'P 1'
_cell_length_a   6.80270946
_cell_length_b   6.80270974
_cell_length_c   12.59681305
_cell_angle_alpha   89.96694009
_cell_angle_beta   90.03306205
_cell_angle_gamma   90.08791241
_symmetry_Int_Tables_number   1
_chemical_formula_structural   Tm8V9Si16Mo3
_chemical_formula_sum   'Tm8 V9 Si16 Mo3'
_cell_volume   582.94004759
_cell_formula_units_Z   1
loop_
 _symmetry_equiv_pos_site_id
 _symmetry_equiv_pos_as_xyz
  1  'x, y, z'
loop_
 _atom_site_type_symbol
 _atom_site_label
 _atom_site_symmetry_multiplicity
 _atom_site_fract_x
 _atom_site_fract_y
 _atom_site_fract_z
 _atom_site_occupancy
  Tm  Tm0  1  0.000959  0.662579  0.030381  1
  Tm  Tm1  1  0.837815  0.500212  0.280232  1
  Tm  Tm2  1  0.161960  0.499180  0.779494  1
  Tm  Tm3  1  0.500212  0.837815  0.719768  1
  Tm  Tm4  1  0.499180  0.161960  0.220506  1
  Tm  Tm5  1  0.999213  0.337388  0.530580  1
  Tm  Tm6  1  0.662579  0.000959  0.969619  1
  Tm  Tm7  1  0.337388  0.999213  0.469420  1
  V  V8  1  0.667634  0.667634  0.500000  1
  V  V9  1  0.005800  0.158781  0.126248  1
  V  V10  1  0.342955  0.507043  0.376315  1
  V  V11  1  0.658684  0.493247  0.875435  1
  V  V12  1  0.507043  0.342955  0.623685  1
  V  V13  1  0.493247  0.658684  0.124565  1
  V  V14  1  0.992366  0.839818  0.625419  1
  V  V15  1  0.158781  0.005800  0.873752  1
  V  V16  1  0.839818  0.992366  0.374581  1
  Si  Si17  1  0.289211  0.960004  0.063603  1
  Si  Si18  1  0.542137  0.788449  0.315504  1
  Si  Si19  1  0.459231  0.211018  0.813301  1
  Si  Si20  1  0.788449  0.542137  0.684496  1
  Si  Si21  1  0.211018  0.459231  0.186699  1
  Si  Si22  1  0.710445  0.038532  0.563167  1
  Si  Si23  1  0.960004  0.289211  0.936397  1
  Si  Si24  1  0.038532  0.710445  0.436833  1
  Si  Si25  1  0.703600  0.376208  0.067642  1
  Si  Si26  1  0.123860  0.203086  0.317750  1
  Si  Si27  1  0.875809  0.796057  0.817055  1
  Si  Si28  1  0.203086  0.123860  0.682250  1
  Si  Si29  1  0.796057  0.875809  0.182945  1
  Si  Si30  1  0.298446  0.624580  0.566242  1
  Si  Si31  1  0.376208  0.703600  0.932358  1
  Si  Si32  1  0.624580  0.298446  0.433758  1
  Mo  Mo33  1  0.332419  0.332419  0.000000  1
  Mo  Mo34  1  0.168833  0.832440  0.249766  1
  Mo  Mo35  1  0.832440  0.168833  0.750234  1
