# generated using pymatgen
data_Tb3MgCd2Si2Ag
_symmetry_space_group_name_H-M   'P 1'
_cell_length_a   7.27779513
_cell_length_b   7.27779413
_cell_length_c   4.36730300
_cell_angle_alpha   90.00000000
_cell_angle_beta   90.00000000
_cell_angle_gamma   120.53096623
_symmetry_Int_Tables_number   1
_chemical_formula_structural   Tb3MgCd2Si2Ag
_chemical_formula_sum   'Tb3 Mg1 Cd2 Si2 Ag1'
_cell_volume   199.24845309
_cell_formula_units_Z   1
loop_
 _symmetry_equiv_pos_site_id
 _symmetry_equiv_pos_as_xyz
  1  'x, y, z'
loop_
 _atom_site_type_symbol
 _atom_site_label
 _atom_site_symmetry_multiplicity
 _atom_site_fract_x
 _atom_site_fract_y
 _atom_site_fract_z
 _atom_site_occupancy
  Tb  Tb0  1  0.576118  0.000518  0.000000  1
  Tb  Tb1  1  0.000518  0.576118  0.000000  1
  Tb  Tb2  1  0.421719  0.421719  0.000000  1
  Mg  Mg3  1  0.756296  0.756296  0.500000  1
  Cd  Cd4  1  0.251781  0.999126  0.500000  1
  Cd  Cd5  1  0.999126  0.251781  0.500000  1
  Si  Si6  1  0.336112  0.666353  0.500000  1
  Si  Si7  1  0.666353  0.336112  0.500000  1
  Ag  Ag8  1  0.991978  0.991978  0.000000  1
