# generated using pymatgen
data_Tm6Zn21AsIr2
_symmetry_space_group_name_H-M   'P 1'
_cell_length_a   8.99444506
_cell_length_b   8.99444596
_cell_length_c   9.07435700
_cell_angle_alpha   60.00080161
_cell_angle_beta   60.00079096
_cell_angle_gamma   60.23097066
_symmetry_Int_Tables_number   1
_chemical_formula_structural   Tm6Zn21AsIr2
_chemical_formula_sum   'Tm6 Zn21 As1 Ir2'
_cell_volume   520.00468431
_cell_formula_units_Z   1
loop_
 _symmetry_equiv_pos_site_id
 _symmetry_equiv_pos_as_xyz
  1  'x, y, z'
loop_
 _atom_site_type_symbol
 _atom_site_label
 _atom_site_symmetry_multiplicity
 _atom_site_fract_x
 _atom_site_fract_y
 _atom_site_fract_z
 _atom_site_occupancy
  Tm  Tm0  1  0.724908  0.286412  0.275618  1
  Tm  Tm1  1  0.713588  0.275092  0.724382  1
  Tm  Tm2  1  0.717655  0.717655  0.267639  1
  Tm  Tm3  1  0.275092  0.713588  0.724382  1
  Tm  Tm4  1  0.286412  0.724908  0.275618  1
  Tm  Tm5  1  0.282345  0.282345  0.732361  1
  Zn  Zn6  1  0.622049  0.123832  0.123522  1
  Zn  Zn7  1  0.123832  0.622049  0.123522  1
  Zn  Zn8  1  0.124931  0.124931  0.623993  1
  Zn  Zn9  1  0.128642  0.128642  0.125521  1
  Zn  Zn10  1  0.377951  0.876168  0.876478  1
  Zn  Zn11  1  0.876168  0.377951  0.876478  1
  Zn  Zn12  1  0.875069  0.875069  0.376007  1
  Zn  Zn13  1  0.871358  0.871358  0.874479  1
  Zn  Zn14  1  0.500000  0.000000  0.500000  1
  Zn  Zn15  1  0.500000  0.500000  0.000000  1
  Zn  Zn16  1  0.000000  0.500000  0.500000  1
  Zn  Zn17  1  0.000000  0.000000  0.500000  1
  Zn  Zn18  1  0.000000  0.000000  0.000000  1
  Zn  Zn19  1  0.002304  0.333773  0.332248  1
  Zn  Zn20  1  0.333773  0.002304  0.332248  1
  Zn  Zn21  1  0.331561  0.331561  0.008760  1
  Zn  Zn22  1  0.333412  0.333412  0.334553  1
  Zn  Zn23  1  0.997696  0.666227  0.667752  1
  Zn  Zn24  1  0.666227  0.997696  0.667752  1
  Zn  Zn25  1  0.668439  0.668439  0.991240  1
  Zn  Zn26  1  0.666588  0.666588  0.665447  1
  As  As27  1  0.500000  0.500000  0.500000  1
  Ir  Ir28  1  0.500000  0.000000  0.000000  1
  Ir  Ir29  1  0.000000  0.500000  0.000000  1
