# generated using pymatgen
data_DyTh(Co4B)2
_symmetry_space_group_name_H-M   'P 1'
_cell_length_a   5.00392400
_cell_length_b   5.00369164
_cell_length_c   6.91549000
_cell_angle_alpha   90.00000000
_cell_angle_beta   90.00000000
_cell_angle_gamma   120.00153613
_symmetry_Int_Tables_number   1
_chemical_formula_structural   DyTh(Co4B)2
_chemical_formula_sum   'Dy1 Th1 Co8 B2'
_cell_volume   149.95056618
_cell_formula_units_Z   1
loop_
 _symmetry_equiv_pos_site_id
 _symmetry_equiv_pos_as_xyz
  1  'x, y, z'
loop_
 _atom_site_type_symbol
 _atom_site_label
 _atom_site_symmetry_multiplicity
 _atom_site_fract_x
 _atom_site_fract_y
 _atom_site_fract_z
 _atom_site_occupancy
  Dy  Dy0  1  0.999993  0.000000  0.500000  1
  Th  Th1  1  0.999985  0.000000  0.000000  1
  Co  Co2  1  0.333253  0.666577  0.000000  1
  Co  Co3  1  0.666675  0.333423  0.000000  1
  Co  Co4  1  0.499996  0.000000  0.291029  1
  Co  Co5  1  0.499989  0.500007  0.291042  1
  Co  Co6  1  0.999982  0.499993  0.291042  1
  Co  Co7  1  0.499996  0.000000  0.708971  1
  Co  Co8  1  0.499989  0.500007  0.708958  1
  Co  Co9  1  0.999982  0.499993  0.708958  1
  B  B10  1  0.333324  0.666687  0.500000  1
  B  B11  1  0.666636  0.333313  0.500000  1
