# generated using pymatgen
data_Dy12In2CuTc3
_symmetry_space_group_name_H-M   'P 1'
_cell_length_a   8.54791733
_cell_length_b   8.54791810
_cell_length_c   8.54791900
_cell_angle_alpha   112.93267009
_cell_angle_beta   112.41044701
_cell_angle_gamma   103.24479344
_symmetry_Int_Tables_number   1
_chemical_formula_structural   Dy12In2CuTc3
_chemical_formula_sum   'Dy12 In2 Cu1 Tc3'
_cell_volume   476.58786999
_cell_formula_units_Z   1
loop_
 _symmetry_equiv_pos_site_id
 _symmetry_equiv_pos_as_xyz
  1  'x, y, z'
loop_
 _atom_site_type_symbol
 _atom_site_label
 _atom_site_symmetry_multiplicity
 _atom_site_fract_x
 _atom_site_fract_y
 _atom_site_fract_z
 _atom_site_occupancy
  Dy  Dy0  1  0.442232  0.242290  0.200303  1
  Dy  Dy1  1  0.555025  0.757479  0.797245  1
  Dy  Dy2  1  0.041987  0.242290  0.800058  1
  Dy  Dy3  1  0.960234  0.757479  0.202456  1
  Dy  Dy4  1  0.190802  0.288677  0.468109  1
  Dy  Dy5  1  0.819971  0.722171  0.531178  1
  Dy  Dy6  1  0.190993  0.722171  0.902200  1
  Dy  Dy7  1  0.820568  0.288677  0.097875  1
  Dy  Dy8  1  0.329645  0.645988  0.316342  1
  Dy  Dy9  1  0.659425  0.343405  0.683980  1
  Dy  Dy10  1  0.329557  0.013542  0.683985  1
  Dy  Dy11  1  0.659221  0.975784  0.316563  1
  In  In12  1  0.502179  0.502043  0.999863  1
  In  In13  1  0.998962  0.998523  0.999561  1
  Cu  Cu14  1  0.876298  0.376378  0.500080  1
  Tc  Tc15  1  0.326482  0.003808  0.322729  1
  Tc  Tc16  1  0.681079  0.003808  0.677326  1
  Tc  Tc17  1  0.115339  0.615487  0.500148  1
