# generated using pymatgen
data_La7Tc4C9
_symmetry_space_group_name_H-M   'P 1'
_cell_length_a   6.62011133
_cell_length_b   6.62011150
_cell_length_c   12.14573048
_cell_angle_alpha   71.12007697
_cell_angle_beta   71.12007753
_cell_angle_gamma   48.09183613
_symmetry_Int_Tables_number   1
_chemical_formula_structural   La7Tc4C9
_chemical_formula_sum   'La7 Tc4 C9'
_cell_volume   370.44187019
_cell_formula_units_Z   1
loop_
 _symmetry_equiv_pos_site_id
 _symmetry_equiv_pos_as_xyz
  1  'x, y, z'
loop_
 _atom_site_type_symbol
 _atom_site_label
 _atom_site_symmetry_multiplicity
 _atom_site_fract_x
 _atom_site_fract_y
 _atom_site_fract_z
 _atom_site_occupancy
  La  La0  1  0.371918  0.371918  0.843351  1
  La  La1  1  0.144088  0.144088  0.683072  1
  La  La2  1  0.855912  0.855912  0.316928  1
  La  La3  1  0.137493  0.137493  0.380542  1
  La  La4  1  0.862507  0.862507  0.619458  1
  La  La5  1  0.000000  0.000000  0.000000  1
  La  La6  1  0.628082  0.628082  0.156649  1
  Tc  Tc7  1  0.357962  0.357962  0.140698  1
  Tc  Tc8  1  0.566578  0.566578  0.569788  1
  Tc  Tc9  1  0.433422  0.433422  0.430212  1
  Tc  Tc10  1  0.642038  0.642038  0.859302  1
  C  C11  1  0.383520  0.383520  0.290583  1
  C  C12  1  0.922627  0.922627  0.817543  1
  C  C13  1  0.393690  0.393690  0.611141  1
  C  C14  1  0.194605  0.194605  0.142971  1
  C  C15  1  0.805395  0.805395  0.857029  1
  C  C16  1  0.500000  0.500000  0.000000  1
  C  C17  1  0.077373  0.077373  0.182457  1
  C  C18  1  0.616480  0.616480  0.709417  1
  C  C19  1  0.606310  0.606310  0.388859  1
