# generated using pymatgen
data_CsCe3CI6
_symmetry_space_group_name_H-M   'P 1'
_cell_length_a   9.61582503
_cell_length_b   9.67275325
_cell_length_c   10.26130500
_cell_angle_alpha   71.21436948
_cell_angle_beta   84.63279165
_cell_angle_gamma   89.25260573
_symmetry_Int_Tables_number   1
_chemical_formula_structural   CsCe3CI6
_chemical_formula_sum   'Cs2 Ce6 C2 I12'
_cell_volume   899.46826696
_cell_formula_units_Z   2
loop_
 _symmetry_equiv_pos_site_id
 _symmetry_equiv_pos_as_xyz
  1  'x, y, z'
loop_
 _atom_site_type_symbol
 _atom_site_label
 _atom_site_symmetry_multiplicity
 _atom_site_fract_x
 _atom_site_fract_y
 _atom_site_fract_z
 _atom_site_occupancy
  Cs  Cs0  1  0.464913  0.366563  0.327611  1
  Cs  Cs1  1  0.535088  0.633437  0.672389  1
  Ce  Ce2  1  0.920696  0.754614  0.002773  1
  Ce  Ce3  1  0.079304  0.245386  0.997226  1
  Ce  Ce4  1  0.749980  0.083045  0.001147  1
  Ce  Ce5  1  0.250019  0.916955  0.998854  1
  Ce  Ce6  1  0.974479  0.893246  0.315647  1
  Ce  Ce7  1  0.025520  0.106754  0.684354  1
  C  C8  1  0.006527  0.024795  0.926303  1
  C  C9  1  0.993472  0.975205  0.073697  1
  I  I10  1  0.077083  0.203189  0.328928  1
  I  I11  1  0.922917  0.796811  0.671072  1
  I  I12  1  0.209866  0.583850  0.999870  1
  I  I13  1  0.790135  0.416150  0.000130  1
  I  I14  1  0.412115  0.205256  0.002467  1
  I  I15  1  0.587884  0.794745  0.997532  1
  I  I16  1  0.662209  0.003515  0.329821  1
  I  I17  1  0.337791  0.996485  0.670179  1
  I  I18  1  0.284050  0.774103  0.325562  1
  I  I19  1  0.715950  0.225897  0.674438  1
  I  I20  1  0.847862  0.588523  0.329248  1
  I  I21  1  0.152137  0.411477  0.670752  1
