# generated using pymatgen
data_Pr6Er7Th3(CdIr)4
_symmetry_space_group_name_H-M   'P 1'
_cell_length_a   9.81687178
_cell_length_b   9.80414618
_cell_length_c   9.80414700
_cell_angle_alpha   60.00000059
_cell_angle_beta   60.04287258
_cell_angle_gamma   60.04286845
_symmetry_Int_Tables_number   1
_chemical_formula_structural   Pr6Er7Th3(CdIr)4
_chemical_formula_sum   'Pr6 Er7 Th3 Cd4 Ir4'
_cell_volume   667.66533547
_cell_formula_units_Z   1
loop_
 _symmetry_equiv_pos_site_id
 _symmetry_equiv_pos_as_xyz
  1  'x, y, z'
loop_
 _atom_site_type_symbol
 _atom_site_label
 _atom_site_symmetry_multiplicity
 _atom_site_fract_x
 _atom_site_fract_y
 _atom_site_fract_z
 _atom_site_occupancy
  Pr  Pr0  1  0.938439  0.561340  0.561340  1
  Pr  Pr1  1  0.562007  0.938132  0.938132  1
  Pr  Pr2  1  0.562007  0.938132  0.561729  1
  Pr  Pr3  1  0.938439  0.561340  0.938880  1
  Pr  Pr4  1  0.562007  0.561729  0.938132  1
  Pr  Pr5  1  0.938439  0.938880  0.561340  1
  Er  Er6  1  0.955580  0.348139  0.348139  1
  Er  Er7  1  0.814560  0.186512  0.186512  1
  Er  Er8  1  0.186256  0.815199  0.815199  1
  Er  Er9  1  0.186256  0.815199  0.183346  1
  Er  Er10  1  0.814560  0.186512  0.812415  1
  Er  Er11  1  0.186256  0.183346  0.815199  1
  Er  Er12  1  0.814560  0.812415  0.186512  1
  Th  Th13  1  0.345492  0.348770  0.348770  1
  Th  Th14  1  0.345492  0.348770  0.956965  1
  Th  Th15  1  0.345492  0.956965  0.348770  1
  Cd  Cd16  1  0.581287  0.578284  0.578284  1
  Cd  Cd17  1  0.581287  0.578284  0.262146  1
  Cd  Cd18  1  0.581287  0.262146  0.578284  1
  Cd  Cd19  1  0.260380  0.579873  0.579873  1
  Ir  Ir20  1  0.142431  0.141704  0.141704  1
  Ir  Ir21  1  0.142431  0.141704  0.574160  1
  Ir  Ir22  1  0.142431  0.574160  0.141704  1
  Ir  Ir23  1  0.572619  0.142460  0.142460  1
