# generated using pymatgen
data_NdTiSiIr2
_symmetry_space_group_name_H-M   'P 1'
_cell_length_a   4.20986200
_cell_length_b   4.21024700
_cell_length_c   10.40971400
_cell_angle_alpha   90.00000000
_cell_angle_beta   90.00000000
_cell_angle_gamma   90.00000000
_symmetry_Int_Tables_number   1
_chemical_formula_structural   NdTiSiIr2
_chemical_formula_sum   'Nd2 Ti2 Si2 Ir4'
_cell_volume   184.50758847
_cell_formula_units_Z   2
loop_
 _symmetry_equiv_pos_site_id
 _symmetry_equiv_pos_as_xyz
  1  'x, y, z'
loop_
 _atom_site_type_symbol
 _atom_site_label
 _atom_site_symmetry_multiplicity
 _atom_site_fract_x
 _atom_site_fract_y
 _atom_site_fract_z
 _atom_site_occupancy
  Nd  Nd0  1  0.000000  0.500000  0.237338  1
  Nd  Nd1  1  0.500000  0.000000  0.762662  1
  Ti  Ti2  1  0.000000  0.000000  0.500007  1
  Ti  Ti3  1  0.500000  0.500000  0.499993  1
  Si  Si4  1  0.000000  0.500000  0.876543  1
  Si  Si5  1  0.500000  0.000000  0.123457  1
  Ir  Ir6  1  0.000000  0.000000  0.999999  1
  Ir  Ir7  1  0.500000  0.500000  0.000001  1
  Ir  Ir8  1  0.000000  0.500000  0.637968  1
  Ir  Ir9  1  0.500000  0.000000  0.362032  1
