# generated using pymatgen
data_Y2Er2IrPd3O14
_symmetry_space_group_name_H-M   'P 1'
_cell_length_a   7.22640578
_cell_length_b   7.20748000
_cell_length_c   7.25231415
_cell_angle_alpha   60.20429869
_cell_angle_beta   60.30786964
_cell_angle_gamma   60.08660940
_symmetry_Int_Tables_number   1
_chemical_formula_structural   Y2Er2IrPd3O14
_chemical_formula_sum   'Y2 Er2 Ir1 Pd3 O14'
_cell_volume   268.30116887
_cell_formula_units_Z   1
loop_
 _symmetry_equiv_pos_site_id
 _symmetry_equiv_pos_as_xyz
  1  'x, y, z'
loop_
 _atom_site_type_symbol
 _atom_site_label
 _atom_site_symmetry_multiplicity
 _atom_site_fract_x
 _atom_site_fract_y
 _atom_site_fract_z
 _atom_site_occupancy
  Y  Y0  1  0.625000  0.125000  0.125000  1
  Y  Y1  1  0.125000  0.125000  0.625000  1
  Er  Er2  1  0.125000  0.625000  0.125000  1
  Er  Er3  1  0.125000  0.125000  0.125000  1
  Ir  Ir4  1  0.625000  0.625000  0.125000  1
  Pd  Pd5  1  0.125000  0.625000  0.625000  1
  Pd  Pd6  1  0.625000  0.125000  0.625000  1
  Pd  Pd7  1  0.625000  0.625000  0.625000  1
  O  O8  1  0.716834  0.709184  0.283071  1
  O  O9  1  0.282798  0.282876  0.721915  1
  O  O10  1  0.714513  0.282531  0.720425  1
  O  O11  1  0.287961  0.714129  0.283782  1
  O  O12  1  0.282798  0.712410  0.721915  1
  O  O13  1  0.716834  0.290912  0.283071  1
  O  O14  1  0.533166  0.540816  0.966929  1
  O  O15  1  0.967202  0.967124  0.528085  1
  O  O16  1  0.535487  0.967469  0.529575  1
  O  O17  1  0.962039  0.535871  0.966218  1
  O  O18  1  0.967202  0.537590  0.528085  1
  O  O19  1  0.533166  0.959088  0.966929  1
  O  O20  1  0.249381  0.251860  0.246899  1
  O  O21  1  0.000619  0.998140  0.003101  1
