# generated using pymatgen
data_TbY3Cu2(Si2Ru)2
_symmetry_space_group_name_H-M   'P 1'
_cell_length_a   4.22575200
_cell_length_b   6.98515071
_cell_length_c   7.38907885
_cell_angle_alpha   91.50639611
_cell_angle_beta   90.00000000
_cell_angle_gamma   90.00000000
_symmetry_Int_Tables_number   1
_chemical_formula_structural   TbY3Cu2(Si2Ru)2
_chemical_formula_sum   'Tb1 Y3 Cu2 Si4 Ru2'
_cell_volume   218.03186411
_cell_formula_units_Z   1
loop_
 _symmetry_equiv_pos_site_id
 _symmetry_equiv_pos_as_xyz
  1  'x, y, z'
loop_
 _atom_site_type_symbol
 _atom_site_label
 _atom_site_symmetry_multiplicity
 _atom_site_fract_x
 _atom_site_fract_y
 _atom_site_fract_z
 _atom_site_occupancy
  Tb  Tb0  1  0.750000  0.507836  0.312842  1
  Y  Y1  1  0.250000  0.992572  0.797985  1
  Y  Y2  1  0.750000  0.007435  0.201656  1
  Y  Y3  1  0.250000  0.492142  0.687497  1
  Cu  Cu4  1  0.750000  0.835023  0.572621  1
  Cu  Cu5  1  0.250000  0.165226  0.427364  1
  Si  Si6  1  0.250000  0.300209  0.088276  1
  Si  Si7  1  0.750000  0.699644  0.911112  1
  Si  Si8  1  0.250000  0.797393  0.388204  1
  Si  Si9  1  0.750000  0.202816  0.612139  1
  Ru  Ru10  1  0.750000  0.347636  0.934222  1
  Ru  Ru11  1  0.250000  0.652067  0.066084  1
