# generated using pymatgen
data_Pr17Au36
_symmetry_space_group_name_H-M   'P 1'
_cell_length_a   16.12513400
_cell_length_b   16.12513400
_cell_length_c   9.46540700
_cell_angle_alpha   90.00000000
_cell_angle_beta   90.00000000
_cell_angle_gamma   90.00000000
_symmetry_Int_Tables_number   1
_chemical_formula_structural   Pr17Au36
_chemical_formula_sum   'Pr34 Au72'
_cell_volume   2461.19462191
_cell_formula_units_Z   2
loop_
 _symmetry_equiv_pos_site_id
 _symmetry_equiv_pos_as_xyz
  1  'x, y, z'
loop_
 _atom_site_type_symbol
 _atom_site_label
 _atom_site_symmetry_multiplicity
 _atom_site_fract_x
 _atom_site_fract_y
 _atom_site_fract_z
 _atom_site_occupancy
  Pr  Pr0  1  0.247382  0.500000  0.115572  1
  Pr  Pr1  1  0.669081  0.830919  0.385868  1
  Pr  Pr2  1  0.159806  0.000000  0.417402  1
  Pr  Pr3  1  0.000000  0.500000  0.709786  1
  Pr  Pr4  1  0.669081  0.169081  0.385868  1
  Pr  Pr5  1  0.747382  0.000000  0.884428  1
  Pr  Pr6  1  0.500000  0.659806  0.417402  1
  Pr  Pr7  1  0.840194  0.000000  0.417402  1
  Pr  Pr8  1  0.500000  0.752618  0.884428  1
  Pr  Pr9  1  0.500000  0.000000  0.290214  1
  Pr  Pr10  1  0.000000  0.500000  0.214297  1
  Pr  Pr11  1  0.000000  0.747382  0.115572  1
  Pr  Pr12  1  0.830919  0.669081  0.614132  1
  Pr  Pr13  1  0.000000  0.252618  0.115572  1
  Pr  Pr14  1  0.330919  0.169081  0.385868  1
  Pr  Pr15  1  0.330919  0.830919  0.385868  1
  Pr  Pr16  1  0.000000  0.000000  0.000000  1
  Pr  Pr17  1  0.752618  0.500000  0.115572  1
  Pr  Pr18  1  0.830919  0.330919  0.614132  1
  Pr  Pr19  1  0.500000  0.247382  0.884428  1
  Pr  Pr20  1  0.750000  0.750000  0.000000  1
  Pr  Pr21  1  0.659806  0.500000  0.582598  1
  Pr  Pr22  1  0.500000  0.340194  0.417402  1
  Pr  Pr23  1  0.169081  0.669081  0.614132  1
  Pr  Pr24  1  0.500000  0.500000  0.000000  1
  Pr  Pr25  1  0.000000  0.159806  0.582598  1
  Pr  Pr26  1  0.169081  0.330919  0.614132  1
  Pr  Pr27  1  0.750000  0.250000  0.000000  1
  Pr  Pr28  1  0.500000  0.000000  0.785703  1
  Pr  Pr29  1  0.340194  0.500000  0.582598  1
  Pr  Pr30  1  0.250000  0.750000  0.000000  1
  Pr  Pr31  1  0.250000  0.250000  0.000000  1
  Pr  Pr32  1  0.000000  0.840194  0.582598  1
  Pr  Pr33  1  0.252618  0.000000  0.884428  1
  Au  Au34  1  0.102298  0.397702  0.969823  1
  Au  Au35  1  0.799740  0.860897  0.633387  1
  Au  Au36  1  0.404782  0.339684  0.126835  1
  Au  Au37  1  0.095218  0.839684  0.873165  1
  Au  Au38  1  0.299740  0.639103  0.366613  1
  Au  Au39  1  0.307708  0.000000  0.223403  1
  Au  Au40  1  0.000000  0.692292  0.776597  1
  Au  Au41  1  0.000000  0.647945  0.463484  1
  Au  Au42  1  0.500000  0.807708  0.223403  1
  Au  Au43  1  0.839684  0.095218  0.126835  1
  Au  Au44  1  0.339684  0.595218  0.873165  1
  Au  Au45  1  0.200260  0.860897  0.633387  1
  Au  Au46  1  0.339684  0.404782  0.873165  1
  Au  Au47  1  0.404782  0.660316  0.126835  1
  Au  Au48  1  0.102298  0.602298  0.969823  1
  Au  Au49  1  0.087835  0.000000  0.710781  1
  Au  Au50  1  0.000000  0.352055  0.463484  1
  Au  Au51  1  0.595218  0.660316  0.126835  1
  Au  Au52  1  0.660316  0.404782  0.873165  1
  Au  Au53  1  0.660316  0.595218  0.873165  1
  Au  Au54  1  0.904782  0.839684  0.873165  1
  Au  Au55  1  0.000000  0.307708  0.776597  1
  Au  Au56  1  0.904782  0.160316  0.873165  1
  Au  Au57  1  0.912165  0.000000  0.710781  1
  Au  Au58  1  0.139103  0.200260  0.366613  1
  Au  Au59  1  0.897702  0.602298  0.969823  1
  Au  Au60  1  0.160316  0.904782  0.126835  1
  Au  Au61  1  0.860897  0.799740  0.366613  1
  Au  Au62  1  0.700260  0.639103  0.366613  1
  Au  Au63  1  0.595218  0.339684  0.126835  1
  Au  Au64  1  0.692292  0.000000  0.223403  1
  Au  Au65  1  0.500000  0.412165  0.710781  1
  Au  Au66  1  0.200260  0.139103  0.633387  1
  Au  Au67  1  0.839684  0.904782  0.126835  1
  Au  Au68  1  0.299740  0.360897  0.366613  1
  Au  Au69  1  0.500000  0.192292  0.223403  1
  Au  Au70  1  0.602298  0.102298  0.030177  1
  Au  Au71  1  0.639103  0.700260  0.633387  1
  Au  Au72  1  0.412165  0.500000  0.289219  1
  Au  Au73  1  0.639103  0.299740  0.633387  1
  Au  Au74  1  0.095218  0.160316  0.873165  1
  Au  Au75  1  0.799740  0.139103  0.633387  1
  Au  Au76  1  0.361618  0.138382  0.745060  1
  Au  Au77  1  0.807708  0.500000  0.776597  1
  Au  Au78  1  0.897702  0.397702  0.969823  1
  Au  Au79  1  0.000000  0.912165  0.289219  1
  Au  Au80  1  0.602298  0.897702  0.030177  1
  Au  Au81  1  0.500000  0.852055  0.536516  1
  Au  Au82  1  0.361618  0.861618  0.745060  1
  Au  Au83  1  0.352055  0.000000  0.536516  1
  Au  Au84  1  0.360897  0.700260  0.633387  1
  Au  Au85  1  0.147945  0.500000  0.463484  1
  Au  Au86  1  0.587835  0.500000  0.289219  1
  Au  Au87  1  0.860897  0.200260  0.366613  1
  Au  Au88  1  0.500000  0.587835  0.710781  1
  Au  Au89  1  0.852055  0.500000  0.463484  1
  Au  Au90  1  0.138382  0.638382  0.254940  1
  Au  Au91  1  0.647945  0.000000  0.536516  1
  Au  Au92  1  0.638382  0.861618  0.745060  1
  Au  Au93  1  0.397702  0.897702  0.030177  1
  Au  Au94  1  0.139103  0.799740  0.366613  1
  Au  Au95  1  0.861618  0.361618  0.254940  1
  Au  Au96  1  0.192292  0.500000  0.776597  1
  Au  Au97  1  0.160316  0.095218  0.126835  1
  Au  Au98  1  0.638382  0.138382  0.745060  1
  Au  Au99  1  0.000000  0.087835  0.289219  1
  Au  Au100  1  0.138382  0.361618  0.254940  1
  Au  Au101  1  0.360897  0.299740  0.633387  1
  Au  Au102  1  0.861618  0.638382  0.254940  1
  Au  Au103  1  0.397702  0.102298  0.030177  1
  Au  Au104  1  0.500000  0.147945  0.536516  1
  Au  Au105  1  0.700260  0.360897  0.366613  1
