# generated using pymatgen
data_Nd18Y2Si15Pd
_symmetry_space_group_name_H-M   'P 1'
_cell_length_a   7.74011359
_cell_length_b   7.93251683
_cell_length_c   15.17791486
_cell_angle_alpha   90.34552265
_cell_angle_beta   90.57136225
_cell_angle_gamma   90.17064123
_symmetry_Int_Tables_number   1
_chemical_formula_structural   Nd18Y2Si15Pd
_chemical_formula_sum   'Nd18 Y2 Si15 Pd1'
_cell_volume   931.83485879
_cell_formula_units_Z   1
loop_
 _symmetry_equiv_pos_site_id
 _symmetry_equiv_pos_as_xyz
  1  'x, y, z'
loop_
 _atom_site_type_symbol
 _atom_site_label
 _atom_site_symmetry_multiplicity
 _atom_site_fract_x
 _atom_site_fract_y
 _atom_site_fract_z
 _atom_site_occupancy
  Nd  Nd0  1  0.680930  0.170648  0.618255  1
  Nd  Nd1  1  0.185781  0.319424  0.878322  1
  Nd  Nd2  1  0.316754  0.818499  0.122023  1
  Nd  Nd3  1  0.816917  0.684940  0.380125  1
  Nd  Nd4  1  0.319033  0.824011  0.378661  1
  Nd  Nd5  1  0.812785  0.680609  0.122135  1
  Nd  Nd6  1  0.683823  0.182186  0.878551  1
  Nd  Nd7  1  0.179018  0.319067  0.622379  1
  Nd  Nd8  1  0.529043  0.683072  0.600860  1
  Nd  Nd9  1  0.034655  0.813151  0.900193  1
  Nd  Nd10  1  0.466125  0.316026  0.100754  1
  Nd  Nd11  1  0.972957  0.182614  0.397597  1
  Nd  Nd12  1  0.467444  0.317543  0.399078  1
  Nd  Nd13  1  0.966817  0.184752  0.100466  1
  Nd  Nd14  1  0.536285  0.687038  0.898874  1
  Nd  Nd15  1  0.032700  0.812215  0.602374  1
  Nd  Nd16  1  0.854686  0.508510  0.748650  1
  Nd  Nd17  1  0.355036  0.986900  0.749033  1
  Y  Y18  1  0.145770  0.488877  0.251306  1
  Y  Y19  1  0.651852  0.015191  0.251731  1
  Si  Si20  1  0.137030  0.524761  0.042288  1
  Si  Si21  1  0.361686  0.028451  0.961519  1
  Si  Si22  1  0.858912  0.471628  0.538720  1
  Si  Si23  1  0.346822  0.027237  0.541496  1
  Si  Si24  1  0.864028  0.472418  0.960856  1
  Si  Si25  1  0.637351  0.975546  0.041108  1
  Si  Si26  1  0.139657  0.527956  0.459445  1
  Si  Si27  1  0.476930  0.397862  0.749587  1
  Si  Si28  1  0.974508  0.097944  0.751486  1
  Si  Si29  1  0.521176  0.598413  0.249459  1
  Si  Si30  1  0.023831  0.900030  0.247854  1
  Si  Si31  1  0.743561  0.877426  0.751208  1
  Si  Si32  1  0.244423  0.621012  0.751488  1
  Si  Si33  1  0.261256  0.126577  0.247841  1
  Si  Si34  1  0.761350  0.376626  0.249181  1
  Pd  Pd35  1  0.639066  0.980843  0.455098  1
