# generated using pymatgen
data_YThMn3Ni9P7
_symmetry_space_group_name_H-M   'P 1'
_cell_length_a   9.14119000
_cell_length_b   9.14119021
_cell_length_c   3.73086700
_cell_angle_alpha   90.00000000
_cell_angle_beta   90.00000000
_cell_angle_gamma   119.99999925
_symmetry_Int_Tables_number   1
_chemical_formula_structural   YThMn3Ni9P7
_chemical_formula_sum   'Y1 Th1 Mn3 Ni9 P7'
_cell_volume   269.98888410
_cell_formula_units_Z   1
loop_
 _symmetry_equiv_pos_site_id
 _symmetry_equiv_pos_as_xyz
  1  'x, y, z'
loop_
 _atom_site_type_symbol
 _atom_site_label
 _atom_site_symmetry_multiplicity
 _atom_site_fract_x
 _atom_site_fract_y
 _atom_site_fract_z
 _atom_site_occupancy
  Y  Y0  1  0.333333  0.666667  0.000000  1
  Th  Th1  1  0.000000  0.000000  0.500000  1
  Mn  Mn2  1  0.785874  0.235534  0.500000  1
  Mn  Mn3  1  0.764466  0.550339  0.500000  1
  Mn  Mn4  1  0.449661  0.214126  0.500000  1
  Ni  Ni5  1  0.038748  0.272120  0.000000  1
  Ni  Ni6  1  0.727880  0.766627  0.000000  1
  Ni  Ni7  1  0.233373  0.961252  0.000000  1
  Ni  Ni8  1  0.539771  0.057128  0.000000  1
  Ni  Ni9  1  0.942872  0.482643  0.000000  1
  Ni  Ni10  1  0.517357  0.460229  0.000000  1
  Ni  Ni11  1  0.612631  0.898610  0.500000  1
  Ni  Ni12  1  0.101390  0.714021  0.500000  1
  Ni  Ni13  1  0.285979  0.387369  0.500000  1
  P  P14  1  0.772350  0.038879  0.000000  1
  P  P15  1  0.961121  0.733471  0.000000  1
  P  P16  1  0.266529  0.227650  0.000000  1
  P  P17  1  0.372503  0.928383  0.500000  1
  P  P18  1  0.071617  0.444120  0.500000  1
  P  P19  1  0.555880  0.627497  0.500000  1
  P  P20  1  0.666667  0.333333  0.000000  1
