# generated using pymatgen
data_Zr20Si15Bi
_symmetry_space_group_name_H-M   'P 1'
_cell_length_a   7.23230867
_cell_length_b   7.19980164
_cell_length_c   13.12764424
_cell_angle_alpha   89.92818283
_cell_angle_beta   90.32911168
_cell_angle_gamma   89.78133703
_symmetry_Int_Tables_number   1
_chemical_formula_structural   Zr20Si15Bi
_chemical_formula_sum   'Zr20 Si15 Bi1'
_cell_volume   683.55521771
_cell_formula_units_Z   1
loop_
 _symmetry_equiv_pos_site_id
 _symmetry_equiv_pos_as_xyz
  1  'x, y, z'
loop_
 _atom_site_type_symbol
 _atom_site_label
 _atom_site_symmetry_multiplicity
 _atom_site_fract_x
 _atom_site_fract_y
 _atom_site_fract_z
 _atom_site_occupancy
  Zr  Zr0  1  0.177491  0.175436  0.001179  1
  Zr  Zr1  1  0.824986  0.823976  0.498606  1
  Zr  Zr2  1  0.683169  0.325743  0.752069  1
  Zr  Zr3  1  0.323204  0.675442  0.249446  1
  Zr  Zr4  1  0.999302  0.350749  0.214191  1
  Zr  Zr5  1  0.991903  0.658361  0.718347  1
  Zr  Zr6  1  0.515405  0.138251  0.525972  1
  Zr  Zr7  1  0.500589  0.850634  0.036806  1
  Zr  Zr8  1  0.650578  0.001115  0.284711  1
  Zr  Zr9  1  0.352453  0.987852  0.789664  1
  Zr  Zr10  1  0.847119  0.504910  0.967263  1
  Zr  Zr11  1  0.145435  0.502678  0.457657  1
  Zr  Zr12  1  0.986793  0.136933  0.624513  1
  Zr  Zr13  1  0.001090  0.854916  0.123647  1
  Zr  Zr14  1  0.499102  0.353767  0.127157  1
  Zr  Zr15  1  0.514745  0.661499  0.623582  1
  Zr  Zr16  1  0.852680  0.999680  0.878885  1
  Zr  Zr17  1  0.146563  0.998370  0.375872  1
  Zr  Zr18  1  0.647319  0.500731  0.372192  1
  Zr  Zr19  1  0.353697  0.499657  0.878011  1
  Si  Si20  1  0.705802  0.645657  0.176726  1
  Si  Si21  1  0.794424  0.146386  0.073847  1
  Si  Si22  1  0.204644  0.852299  0.571855  1
  Si  Si23  1  0.643840  0.704577  0.823964  1
  Si  Si24  1  0.354783  0.294190  0.322095  1
  Si  Si25  1  0.857132  0.204997  0.425919  1
  Si  Si26  1  0.144519  0.794429  0.929105  1
  Si  Si27  1  0.038874  0.301917  0.821553  1
  Si  Si28  1  0.947051  0.701780  0.310739  1
  Si  Si29  1  0.550696  0.199158  0.938034  1
  Si  Si30  1  0.447701  0.797498  0.434579  1
  Si  Si31  1  0.698407  0.951694  0.689962  1
  Si  Si32  1  0.300532  0.050972  0.187887  1
  Si  Si33  1  0.802035  0.448098  0.562014  1
  Si  Si34  1  0.198295  0.550371  0.063900  1
  Bi  Bi35  1  0.297645  0.355280  0.668052  1
