# generated using pymatgen
data_PdPbCl6
_symmetry_space_group_name_H-M   'P 1'
_cell_length_a   6.68625494
_cell_length_b   6.68625536
_cell_length_c   10.29763993
_cell_angle_alpha   89.95676612
_cell_angle_beta   89.95676702
_cell_angle_gamma   72.75013173
_symmetry_Int_Tables_number   1
_chemical_formula_structural   PdPbCl6
_chemical_formula_sum   'Pd2 Pb2 Cl12'
_cell_volume   439.65918798
_cell_formula_units_Z   2
loop_
 _symmetry_equiv_pos_site_id
 _symmetry_equiv_pos_as_xyz
  1  'x, y, z'
loop_
 _atom_site_type_symbol
 _atom_site_label
 _atom_site_symmetry_multiplicity
 _atom_site_fract_x
 _atom_site_fract_y
 _atom_site_fract_z
 _atom_site_occupancy
  Pd  Pd0  1  0.500000  0.000000  0.500000  1
  Pd  Pd1  1  0.000000  0.500000  0.000000  1
  Pb  Pb2  1  0.009371  0.990629  0.750000  1
  Pb  Pb3  1  0.990629  0.009371  0.250000  1
  Cl  Cl4  1  0.396853  0.742272  0.613180  1
  Cl  Cl5  1  0.603147  0.257728  0.386820  1
  Cl  Cl6  1  0.257728  0.603147  0.886820  1
  Cl  Cl7  1  0.742272  0.396853  0.113180  1
  Cl  Cl8  1  0.548663  0.151403  0.697948  1
  Cl  Cl9  1  0.451337  0.848597  0.302052  1
  Cl  Cl10  1  0.848597  0.451337  0.802052  1
  Cl  Cl11  1  0.151403  0.548663  0.197948  1
  Cl  Cl12  1  0.796641  0.854769  0.002934  1
  Cl  Cl13  1  0.203359  0.145231  0.997066  1
  Cl  Cl14  1  0.145231  0.203359  0.497066  1
  Cl  Cl15  1  0.854769  0.796641  0.502934  1
