# generated using pymatgen
data_Y3Tm17Cd6ReNi
_symmetry_space_group_name_H-M   'P 1'
_cell_length_a   9.47880600
_cell_length_b   9.47880704
_cell_length_c   9.75695000
_cell_angle_alpha   90.00000000
_cell_angle_beta   90.00000000
_cell_angle_gamma   119.99999635
_symmetry_Int_Tables_number   1
_chemical_formula_structural   Y3Tm17Cd6ReNi
_chemical_formula_sum   'Y3 Tm17 Cd6 Re1 Ni1'
_cell_volume   759.19273675
_cell_formula_units_Z   1
loop_
 _symmetry_equiv_pos_site_id
 _symmetry_equiv_pos_as_xyz
  1  'x, y, z'
loop_
 _atom_site_type_symbol
 _atom_site_label
 _atom_site_symmetry_multiplicity
 _atom_site_fract_x
 _atom_site_fract_y
 _atom_site_fract_z
 _atom_site_occupancy
  Y  Y0  1  0.537614  0.462386  0.250000  1
  Y  Y1  1  0.537614  0.075227  0.250000  1
  Y  Y2  1  0.924773  0.462386  0.250000  1
  Tm  Tm3  1  0.000000  0.000000  0.499512  1
  Tm  Tm4  1  0.000000  0.000000  0.000488  1
  Tm  Tm5  1  0.457639  0.542361  0.750000  1
  Tm  Tm6  1  0.457639  0.915279  0.750000  1
  Tm  Tm7  1  0.084721  0.542361  0.750000  1
  Tm  Tm8  1  0.209555  0.790445  0.443389  1
  Tm  Tm9  1  0.209555  0.419113  0.443389  1
  Tm  Tm10  1  0.580887  0.790445  0.443389  1
  Tm  Tm11  1  0.788953  0.211047  0.563326  1
  Tm  Tm12  1  0.788953  0.577904  0.563326  1
  Tm  Tm13  1  0.422096  0.211047  0.563326  1
  Tm  Tm14  1  0.788953  0.211047  0.936674  1
  Tm  Tm15  1  0.788953  0.577904  0.936674  1
  Tm  Tm16  1  0.422096  0.211047  0.936674  1
  Tm  Tm17  1  0.209555  0.790445  0.056611  1
  Tm  Tm18  1  0.209555  0.419113  0.056611  1
  Tm  Tm19  1  0.580887  0.790445  0.056611  1
  Cd  Cd20  1  0.886614  0.113386  0.250000  1
  Cd  Cd21  1  0.886614  0.773227  0.250000  1
  Cd  Cd22  1  0.226773  0.113386  0.250000  1
  Cd  Cd23  1  0.113918  0.886082  0.750000  1
  Cd  Cd24  1  0.113918  0.227838  0.750000  1
  Cd  Cd25  1  0.772162  0.886082  0.750000  1
  Re  Re26  1  0.333333  0.666667  0.250000  1
  Ni  Ni27  1  0.666667  0.333333  0.750000  1
