# generated using pymatgen
data_Hf4B2Ru10Au2C
_symmetry_space_group_name_H-M   'P 1'
_cell_length_a   4.11795800
_cell_length_b   4.11795800
_cell_length_c   16.27617800
_cell_angle_alpha   90.00000000
_cell_angle_beta   90.00000000
_cell_angle_gamma   90.00000000
_symmetry_Int_Tables_number   1
_chemical_formula_structural   Hf4B2Ru10Au2C
_chemical_formula_sum   'Hf4 B2 Ru10 Au2 C1'
_cell_volume   276.00455944
_cell_formula_units_Z   1
loop_
 _symmetry_equiv_pos_site_id
 _symmetry_equiv_pos_as_xyz
  1  'x, y, z'
loop_
 _atom_site_type_symbol
 _atom_site_label
 _atom_site_symmetry_multiplicity
 _atom_site_fract_x
 _atom_site_fract_y
 _atom_site_fract_z
 _atom_site_occupancy
  Hf  Hf0  1  0.000000  0.000000  0.866742  1
  Hf  Hf1  1  0.000000  0.000000  0.133258  1
  Hf  Hf2  1  0.000000  0.000000  0.372423  1
  Hf  Hf3  1  0.000000  0.000000  0.627577  1
  B  B4  1  0.500000  0.500000  0.244539  1
  B  B5  1  0.500000  0.500000  0.755461  1
  Ru  Ru6  1  0.500000  0.500000  0.879648  1
  Ru  Ru7  1  0.500000  0.500000  0.120352  1
  Ru  Ru8  1  0.500000  0.500000  0.375856  1
  Ru  Ru9  1  0.500000  0.500000  0.624144  1
  Ru  Ru10  1  0.500000  0.000000  0.250260  1
  Ru  Ru11  1  0.500000  0.000000  0.500000  1
  Ru  Ru12  1  0.500000  0.000000  0.749740  1
  Ru  Ru13  1  0.000000  0.500000  0.250260  1
  Ru  Ru14  1  0.000000  0.500000  0.500000  1
  Ru  Ru15  1  0.000000  0.500000  0.749740  1
  Au  Au16  1  0.500000  0.000000  0.000000  1
  Au  Au17  1  0.000000  0.500000  0.000000  1
  C  C18  1  0.500000  0.500000  0.500000  1
