# generated using pymatgen
data_AgSe2Br
_symmetry_space_group_name_H-M   'P 1'
_cell_length_a   5.17983400
_cell_length_b   8.46261145
_cell_length_c   13.26946533
_cell_angle_alpha   64.18028060
_cell_angle_beta   90.00000000
_cell_angle_gamma   90.00000000
_symmetry_Int_Tables_number   1
_chemical_formula_structural   AgSe2Br
_chemical_formula_sum   'Ag4 Se8 Br4'
_cell_volume   523.59764387
_cell_formula_units_Z   4
loop_
 _symmetry_equiv_pos_site_id
 _symmetry_equiv_pos_as_xyz
  1  'x, y, z'
loop_
 _atom_site_type_symbol
 _atom_site_label
 _atom_site_symmetry_multiplicity
 _atom_site_fract_x
 _atom_site_fract_y
 _atom_site_fract_z
 _atom_site_occupancy
  Ag  Ag0  1  0.362094  0.168643  0.754580  1
  Ag  Ag1  1  0.862094  0.831357  0.745420  1
  Ag  Ag2  1  0.637906  0.831357  0.245420  1
  Ag  Ag3  1  0.137906  0.168643  0.254580  1
  Se  Se4  1  0.977743  0.676533  0.162331  1
  Se  Se5  1  0.477743  0.323467  0.337669  1
  Se  Se6  1  0.022257  0.323467  0.837669  1
  Se  Se7  1  0.522257  0.676533  0.662331  1
  Se  Se8  1  0.219906  0.576017  0.825729  1
  Se  Se9  1  0.719906  0.423983  0.674271  1
  Se  Se10  1  0.780094  0.423983  0.174271  1
  Se  Se11  1  0.280094  0.576017  0.325729  1
  Br  Br12  1  0.379753  0.109385  0.097852  1
  Br  Br13  1  0.879753  0.890615  0.402148  1
  Br  Br14  1  0.620247  0.890615  0.902148  1
  Br  Br15  1  0.120247  0.109385  0.597852  1
