# generated using pymatgen
data_Tb9Y6HoAlCd3Pd4
_symmetry_space_group_name_H-M   'P 1'
_cell_length_a   9.70226934
_cell_length_b   9.70227001
_cell_length_c   9.70172193
_cell_angle_alpha   60.16397936
_cell_angle_beta   60.16397700
_cell_angle_gamma   60.13141038
_symmetry_Int_Tables_number   1
_chemical_formula_structural   Tb9Y6HoAlCd3Pd4
_chemical_formula_sum   'Tb9 Y6 Ho1 Al1 Cd3 Pd4'
_cell_volume   648.01352670
_cell_formula_units_Z   1
loop_
 _symmetry_equiv_pos_site_id
 _symmetry_equiv_pos_as_xyz
  1  'x, y, z'
loop_
 _atom_site_type_symbol
 _atom_site_label
 _atom_site_symmetry_multiplicity
 _atom_site_fract_x
 _atom_site_fract_y
 _atom_site_fract_z
 _atom_site_occupancy
  Tb  Tb0  1  0.351018  0.351018  0.350903  1
  Tb  Tb1  1  0.357712  0.357712  0.933678  1
  Tb  Tb2  1  0.358040  0.933493  0.357498  1
  Tb  Tb3  1  0.933493  0.358040  0.357498  1
  Tb  Tb4  1  0.811199  0.189493  0.189871  1
  Tb  Tb5  1  0.192163  0.808613  0.808984  1
  Tb  Tb6  1  0.189493  0.811199  0.189871  1
  Tb  Tb7  1  0.808613  0.192163  0.808984  1
  Tb  Tb8  1  0.189830  0.189830  0.811306  1
  Y  Y9  1  0.932709  0.567068  0.566605  1
  Y  Y10  1  0.564249  0.935938  0.936235  1
  Y  Y11  1  0.567068  0.932709  0.566605  1
  Y  Y12  1  0.935938  0.564249  0.936235  1
  Y  Y13  1  0.566837  0.566837  0.932769  1
  Y  Y14  1  0.936056  0.936056  0.564064  1
  Ho  Ho15  1  0.808748  0.808748  0.192478  1
  Al  Al16  1  0.581525  0.581525  0.581298  1
  Cd  Cd17  1  0.580467  0.580467  0.255789  1
  Cd  Cd18  1  0.580395  0.255861  0.580358  1
  Cd  Cd19  1  0.255861  0.580395  0.580358  1
  Pd  Pd20  1  0.146634  0.146634  0.146448  1
  Pd  Pd21  1  0.142237  0.142237  0.567618  1
  Pd  Pd22  1  0.141382  0.568327  0.142270  1
  Pd  Pd23  1  0.568327  0.141382  0.142270  1
