# generated using pymatgen
data_Tb2Er3OsRu
_symmetry_space_group_name_H-M   'P 1'
_cell_length_a   6.33965910
_cell_length_b   7.29586424
_cell_length_c   8.43490459
_cell_angle_alpha   96.83798618
_cell_angle_beta   112.07370908
_cell_angle_gamma   89.99999626
_symmetry_Int_Tables_number   1
_chemical_formula_structural   Tb2Er3OsRu
_chemical_formula_sum   'Tb4 Er6 Os2 Ru2'
_cell_volume   358.54871207
_cell_formula_units_Z   2
loop_
 _symmetry_equiv_pos_site_id
 _symmetry_equiv_pos_as_xyz
  1  'x, y, z'
loop_
 _atom_site_type_symbol
 _atom_site_label
 _atom_site_symmetry_multiplicity
 _atom_site_fract_x
 _atom_site_fract_y
 _atom_site_fract_z
 _atom_site_occupancy
  Tb  Tb0  1  0.790415  0.583272  0.813365  1
  Tb  Tb1  1  0.977050  0.916728  0.186635  1
  Tb  Tb2  1  0.210448  0.416063  0.187530  1
  Tb  Tb3  1  0.022918  0.083937  0.812470  1
  Er  Er4  1  0.204675  0.684334  0.565308  1
  Er  Er5  1  0.639366  0.815666  0.434692  1
  Er  Er6  1  0.795032  0.315553  0.434271  1
  Er  Er7  1  0.360763  0.184447  0.565729  1
  Er  Er8  1  0.421196  0.750000  0.000000  1
  Er  Er9  1  0.580083  0.250000  0.000000  1
  Os  Os10  1  0.599793  0.924464  0.779246  1
  Os  Os11  1  0.820546  0.575536  0.220754  1
  Ru  Ru12  1  0.399328  0.075951  0.220942  1
  Ru  Ru13  1  0.178387  0.424049  0.779058  1
