# generated using pymatgen
data_Sr4Ga9SiPt6
_symmetry_space_group_name_H-M   'P 1'
_cell_length_a   8.69487250
_cell_length_b   8.73111751
_cell_length_c   8.73111596
_cell_angle_alpha   138.18600540
_cell_angle_beta   107.00558946
_cell_angle_gamma   87.89581364
_symmetry_Int_Tables_number   1
_chemical_formula_structural   Sr4Ga9SiPt6
_chemical_formula_sum   'Sr4 Ga9 Si1 Pt6'
_cell_volume   405.15798962
_cell_formula_units_Z   1
loop_
 _symmetry_equiv_pos_site_id
 _symmetry_equiv_pos_as_xyz
  1  'x, y, z'
loop_
 _atom_site_type_symbol
 _atom_site_label
 _atom_site_symmetry_multiplicity
 _atom_site_fract_x
 _atom_site_fract_y
 _atom_site_fract_z
 _atom_site_occupancy
  Sr  Sr0  1  0.866099  0.630808  0.235291  1
  Sr  Sr1  1  0.134987  0.369109  0.765878  1
  Sr  Sr2  1  0.393046  0.129903  0.263144  1
  Sr  Sr3  1  0.602025  0.868740  0.733285  1
  Ga  Ga4  1  0.501286  0.750523  0.248329  1
  Ga  Ga5  1  0.501286  0.252957  0.750763  1
  Ga  Ga6  1  0.230120  0.969568  0.745380  1
  Ga  Ga7  1  0.769408  0.523648  0.751417  1
  Ga  Ga8  1  0.769408  0.017991  0.245760  1
  Ga  Ga9  1  0.230120  0.484740  0.260552  1
  Ga  Ga10  1  0.041668  0.893757  0.147911  1
  Ga  Ga11  1  0.957853  0.103604  0.854249  1
  Ga  Ga12  1  0.745130  0.393817  0.351313  1
  Si  Si13  1  0.249998  0.603471  0.646527  1
  Pt  Pt14  1  0.010391  0.747397  0.750659  1
  Pt  Pt15  1  0.010391  0.259733  0.262995  1
  Pt  Pt16  1  0.256643  0.866438  0.390205  1
  Pt  Pt17  1  0.748068  0.135967  0.612100  1
  Pt  Pt18  1  0.472333  0.364325  0.108009  1
  Pt  Pt19  1  0.509736  0.633503  0.876233  1
