# generated using pymatgen
data_TbPrMn6P7Ir6
_symmetry_space_group_name_H-M   'P 1'
_cell_length_a   9.42310300
_cell_length_b   9.42310311
_cell_length_c   3.88104900
_cell_angle_alpha   90.00000000
_cell_angle_beta   90.00000000
_cell_angle_gamma   119.99999609
_symmetry_Int_Tables_number   1
_chemical_formula_structural   TbPrMn6P7Ir6
_chemical_formula_sum   'Tb1 Pr1 Mn6 P7 Ir6'
_cell_volume   298.44730149
_cell_formula_units_Z   1
loop_
 _symmetry_equiv_pos_site_id
 _symmetry_equiv_pos_as_xyz
  1  'x, y, z'
loop_
 _atom_site_type_symbol
 _atom_site_label
 _atom_site_symmetry_multiplicity
 _atom_site_fract_x
 _atom_site_fract_y
 _atom_site_fract_z
 _atom_site_occupancy
  Tb  Tb0  1  0.333333  0.666667  0.500000  1
  Pr  Pr1  1  0.666667  0.333333  0.000000  1
  Mn  Mn2  1  0.268723  0.109868  0.000000  1
  Mn  Mn3  1  0.841145  0.731277  0.000000  1
  Mn  Mn4  1  0.890132  0.158855  0.000000  1
  Mn  Mn5  1  0.095733  0.881628  0.500000  1
  Mn  Mn6  1  0.785895  0.904267  0.500000  1
  Mn  Mn7  1  0.118372  0.214105  0.500000  1
  P  P8  1  0.300160  0.889298  0.000000  1
  P  P9  1  0.589138  0.699840  0.000000  1
  P  P10  1  0.110702  0.410862  0.000000  1
  P  P11  1  0.392995  0.277972  0.500000  1
  P  P12  1  0.884976  0.607005  0.500000  1
  P  P13  1  0.722028  0.115024  0.500000  1
  P  P14  1  0.000000  0.000000  0.000000  1
  Ir  Ir15  1  0.064311  0.639188  0.000000  1
  Ir  Ir16  1  0.574878  0.935689  0.000000  1
  Ir  Ir17  1  0.360812  0.425122  0.000000  1
  Ir  Ir18  1  0.436270  0.049054  0.500000  1
  Ir  Ir19  1  0.612784  0.563730  0.500000  1
  Ir  Ir20  1  0.950946  0.387216  0.500000  1
