# generated using pymatgen
data_Dy7Y9(CoAg)4
_symmetry_space_group_name_H-M   'P 1'
_cell_length_a   9.42596185
_cell_length_b   9.40041767
_cell_length_c   9.43675697
_cell_angle_alpha   60.05144403
_cell_angle_beta   60.24682151
_cell_angle_gamma   60.16552332
_symmetry_Int_Tables_number   1
_chemical_formula_structural   Dy7Y9(CoAg)4
_chemical_formula_sum   'Dy7 Y9 Co4 Ag4'
_cell_volume   593.32979385
_cell_formula_units_Z   1
loop_
 _symmetry_equiv_pos_site_id
 _symmetry_equiv_pos_as_xyz
  1  'x, y, z'
loop_
 _atom_site_type_symbol
 _atom_site_label
 _atom_site_symmetry_multiplicity
 _atom_site_fract_x
 _atom_site_fract_y
 _atom_site_fract_z
 _atom_site_occupancy
  Dy  Dy0  1  0.348098  0.347162  0.348009  1
  Dy  Dy1  1  0.348534  0.347592  0.956515  1
  Dy  Dy2  1  0.348009  0.956732  0.348098  1
  Dy  Dy3  1  0.956515  0.347359  0.348534  1
  Dy  Dy4  1  0.811230  0.188546  0.187782  1
  Dy  Dy5  1  0.187782  0.812441  0.811230  1
  Dy  Dy6  1  0.187628  0.812372  0.187628  1
  Y  Y7  1  0.811428  0.188572  0.811428  1
  Y  Y8  1  0.187665  0.188419  0.811288  1
  Y  Y9  1  0.811288  0.812628  0.187665  1
  Y  Y10  1  0.937587  0.562676  0.562128  1
  Y  Y11  1  0.562128  0.937609  0.937587  1
  Y  Y12  1  0.562092  0.937908  0.562092  1
  Y  Y13  1  0.937519  0.562481  0.937519  1
  Y  Y14  1  0.561919  0.562456  0.937757  1
  Y  Y15  1  0.937757  0.937867  0.561919  1
  Co  Co16  1  0.141046  0.140149  0.143491  1
  Co  Co17  1  0.143494  0.140090  0.573855  1
  Co  Co18  1  0.143491  0.575314  0.141046  1
  Co  Co19  1  0.573855  0.142561  0.143494  1
  Ag  Ag20  1  0.581146  0.580879  0.581136  1
  Ag  Ag21  1  0.581003  0.580626  0.257649  1
  Ag  Ag22  1  0.581136  0.256840  0.581146  1
  Ag  Ag23  1  0.257649  0.580723  0.581003  1
