# generated using pymatgen
data_Sm4GaTc5Os2
_symmetry_space_group_name_H-M   'P 1'
_cell_length_a   5.39430282
_cell_length_b   5.39430252
_cell_length_c   9.17917139
_cell_angle_alpha   90.18320426
_cell_angle_beta   89.81679556
_cell_angle_gamma   121.68615273
_symmetry_Int_Tables_number   1
_chemical_formula_structural   Sm4GaTc5Os2
_chemical_formula_sum   'Sm4 Ga1 Tc5 Os2'
_cell_volume   227.28414906
_cell_formula_units_Z   1
loop_
 _symmetry_equiv_pos_site_id
 _symmetry_equiv_pos_as_xyz
  1  'x, y, z'
loop_
 _atom_site_type_symbol
 _atom_site_label
 _atom_site_symmetry_multiplicity
 _atom_site_fract_x
 _atom_site_fract_y
 _atom_site_fract_z
 _atom_site_occupancy
  Sm  Sm0  1  0.334031  0.665969  0.436205  1
  Sm  Sm1  1  0.667404  0.332596  0.561988  1
  Sm  Sm2  1  0.668483  0.331517  0.932053  1
  Sm  Sm3  1  0.332351  0.667649  0.070933  1
  Ga  Ga4  1  0.000416  0.999584  0.001262  1
  Tc  Tc5  1  0.174542  0.342198  0.750434  1
  Tc  Tc6  1  0.168963  0.831037  0.750084  1
  Tc  Tc7  1  0.340437  0.173375  0.250299  1
  Tc  Tc8  1  0.826625  0.659563  0.250299  1
  Tc  Tc9  1  0.657802  0.825458  0.750434  1
  Os  Os10  1  0.828591  0.171409  0.249017  1
  Os  Os11  1  0.000356  0.999644  0.496992  1
