# generated using pymatgen
data_Tb5Th3TlCdRu2
_symmetry_space_group_name_H-M   'P 1'
_cell_length_a   9.74320302
_cell_length_b   9.82775966
_cell_length_c   9.81706043
_cell_angle_alpha   59.46718738
_cell_angle_beta   60.32102369
_cell_angle_gamma   60.32440378
_symmetry_Int_Tables_number   1
_chemical_formula_structural   Tb5Th3TlCdRu2
_chemical_formula_sum   'Tb10 Th6 Tl2 Cd2 Ru4'
_cell_volume   665.16288042
_cell_formula_units_Z   2
loop_
 _symmetry_equiv_pos_site_id
 _symmetry_equiv_pos_as_xyz
  1  'x, y, z'
loop_
 _atom_site_type_symbol
 _atom_site_label
 _atom_site_symmetry_multiplicity
 _atom_site_fract_x
 _atom_site_fract_y
 _atom_site_fract_z
 _atom_site_occupancy
  Tb  Tb0  1  0.440290  0.059708  0.440319  1
  Tb  Tb1  1  0.059708  0.440290  0.059683  1
  Tb  Tb2  1  0.441142  0.441142  0.058858  1
  Tb  Tb3  1  0.060106  0.060106  0.439894  1
  Tb  Tb4  1  0.183784  0.814158  0.815742  1
  Tb  Tb5  1  0.814158  0.183784  0.186314  1
  Tb  Tb6  1  0.811008  0.187914  0.811710  1
  Tb  Tb7  1  0.187914  0.811008  0.189367  1
  Tb  Tb8  1  0.811563  0.811563  0.188437  1
  Tb  Tb9  1  0.189441  0.189441  0.810559  1
  Th  Th10  1  0.593505  0.600017  0.598511  1
  Th  Th11  1  0.600017  0.593505  0.207969  1
  Th  Th12  1  0.600745  0.205747  0.594575  1
  Th  Th13  1  0.205747  0.600745  0.598935  1
  Th  Th14  1  0.065100  0.434570  0.434966  1
  Th  Th15  1  0.434570  0.065100  0.065364  1
  Tl  Tl16  1  0.834917  0.498152  0.835140  1
  Tl  Tl17  1  0.498152  0.834917  0.831792  1
  Cd  Cd18  1  0.835979  0.832675  0.831706  1
  Cd  Cd19  1  0.832675  0.835979  0.499640  1
  Ru  Ru20  1  0.377881  0.398601  0.400213  1
  Ru  Ru21  1  0.398601  0.377881  0.823305  1
  Ru  Ru22  1  0.398768  0.824230  0.376553  1
  Ru  Ru23  1  0.824230  0.398768  0.400450  1
