# generated using pymatgen
data_HoPaHgPt2
_symmetry_space_group_name_H-M   'P 1'
_cell_length_a   7.92933000
_cell_length_b   7.76865700
_cell_length_c   3.61795100
_cell_angle_alpha   90.00000000
_cell_angle_beta   90.00000000
_cell_angle_gamma   90.00000000
_symmetry_Int_Tables_number   1
_chemical_formula_structural   HoPaHgPt2
_chemical_formula_sum   'Ho2 Pa2 Hg2 Pt4'
_cell_volume   222.86666803
_cell_formula_units_Z   2
loop_
 _symmetry_equiv_pos_site_id
 _symmetry_equiv_pos_as_xyz
  1  'x, y, z'
loop_
 _atom_site_type_symbol
 _atom_site_label
 _atom_site_symmetry_multiplicity
 _atom_site_fract_x
 _atom_site_fract_y
 _atom_site_fract_z
 _atom_site_occupancy
  Ho  Ho0  1  0.327023  0.171698  0.500000  1
  Ho  Ho1  1  0.827023  0.328302  0.500000  1
  Pa  Pa2  1  0.170720  0.665442  0.500000  1
  Pa  Pa3  1  0.670720  0.834558  0.500000  1
  Hg  Hg4  1  0.005567  0.008894  0.000000  1
  Hg  Hg5  1  0.505567  0.491106  0.000000  1
  Pt  Pt6  1  0.626333  0.115492  0.000000  1
  Pt  Pt7  1  0.126333  0.384508  0.000000  1
  Pt  Pt8  1  0.870357  0.645415  0.000000  1
  Pt  Pt9  1  0.370357  0.854585  0.000000  1
