# generated using pymatgen
data_Gd2Y4TaRuO14
_symmetry_space_group_name_H-M   'P 1'
_cell_length_a   6.47613132
_cell_length_b   6.47613081
_cell_length_c   7.52081318
_cell_angle_alpha   90.02051275
_cell_angle_beta   89.97948524
_cell_angle_gamma   109.32053213
_symmetry_Int_Tables_number   1
_chemical_formula_structural   Gd2Y4TaRuO14
_chemical_formula_sum   'Gd2 Y4 Ta1 Ru1 O14'
_cell_volume   297.66097251
_cell_formula_units_Z   1
loop_
 _symmetry_equiv_pos_site_id
 _symmetry_equiv_pos_as_xyz
  1  'x, y, z'
loop_
 _atom_site_type_symbol
 _atom_site_label
 _atom_site_symmetry_multiplicity
 _atom_site_fract_x
 _atom_site_fract_y
 _atom_site_fract_z
 _atom_site_occupancy
  Gd  Gd0  1  0.500000  0.500000  0.500000  1
  Gd  Gd1  1  0.500000  0.500000  0.000000  1
  Y  Y2  1  0.535158  0.999574  0.750022  1
  Y  Y3  1  0.999574  0.535158  0.249978  1
  Y  Y4  1  0.464842  0.000426  0.249978  1
  Y  Y5  1  0.000426  0.464842  0.750022  1
  Ta  Ta6  1  0.000000  0.000000  0.000000  1
  Ru  Ru7  1  0.000000  0.000000  0.500000  1
  O  O8  1  0.681502  0.929050  0.469471  1
  O  O9  1  0.929050  0.681502  0.530529  1
  O  O10  1  0.678688  0.929375  0.031251  1
  O  O11  1  0.929375  0.678688  0.968749  1
  O  O12  1  0.318498  0.070950  0.530529  1
  O  O13  1  0.070950  0.318498  0.469471  1
  O  O14  1  0.321312  0.070625  0.968749  1
  O  O15  1  0.070625  0.321312  0.031251  1
  O  O16  1  0.934365  0.065635  0.748425  1
  O  O17  1  0.065635  0.934365  0.251575  1
  O  O18  1  0.368424  0.631576  0.750115  1
  O  O19  1  0.631576  0.368424  0.249885  1
  O  O20  1  0.638660  0.361340  0.748523  1
  O  O21  1  0.361340  0.638660  0.251477  1
