# generated using pymatgen
data_Rb4UAsI12
_symmetry_space_group_name_H-M   'P 1'
_cell_length_a   8.19850100
_cell_length_b   8.19850100
_cell_length_c   12.47628200
_cell_angle_alpha   90.00000000
_cell_angle_beta   90.00000000
_cell_angle_gamma   90.00000000
_symmetry_Int_Tables_number   1
_chemical_formula_structural   Rb4UAsI12
_chemical_formula_sum   'Rb4 U1 As1 I12'
_cell_volume   838.59851852
_cell_formula_units_Z   1
loop_
 _symmetry_equiv_pos_site_id
 _symmetry_equiv_pos_as_xyz
  1  'x, y, z'
loop_
 _atom_site_type_symbol
 _atom_site_label
 _atom_site_symmetry_multiplicity
 _atom_site_fract_x
 _atom_site_fract_y
 _atom_site_fract_z
 _atom_site_occupancy
  Rb  Rb0  1  0.500000  0.000000  0.795886  1
  Rb  Rb1  1  0.500000  0.000000  0.204114  1
  Rb  Rb2  1  0.000000  0.500000  0.204114  1
  Rb  Rb3  1  0.000000  0.500000  0.795886  1
  U  U4  1  0.500000  0.500000  0.500000  1
  As  As5  1  0.000000  0.000000  0.000000  1
  I  I6  1  0.743638  0.241932  0.000000  1
  I  I7  1  0.256362  0.758068  0.000000  1
  I  I8  1  0.500000  0.500000  0.262850  1
  I  I9  1  0.314037  0.194498  0.500000  1
  I  I10  1  0.241932  0.256362  0.000000  1
  I  I11  1  0.805502  0.314037  0.500000  1
  I  I12  1  0.000000  0.000000  0.233170  1
  I  I13  1  0.685963  0.805502  0.500000  1
  I  I14  1  0.194498  0.685963  0.500000  1
  I  I15  1  0.500000  0.500000  0.737150  1
  I  I16  1  0.758068  0.743638  0.000000  1
  I  I17  1  0.000000  0.000000  0.766830  1
