# generated using pymatgen
data_Pr2Dy3Er(RuO7)2
_symmetry_space_group_name_H-M   'P 1'
_cell_length_a   6.44979103
_cell_length_b   6.44984635
_cell_length_c   7.52094700
_cell_angle_alpha   90.00000000
_cell_angle_beta   90.00000000
_cell_angle_gamma   110.02108214
_symmetry_Int_Tables_number   1
_chemical_formula_structural   Pr2Dy3Er(RuO7)2
_chemical_formula_sum   'Pr2 Dy3 Er1 Ru2 O14'
_cell_volume   293.96468609
_cell_formula_units_Z   1
loop_
 _symmetry_equiv_pos_site_id
 _symmetry_equiv_pos_as_xyz
  1  'x, y, z'
loop_
 _atom_site_type_symbol
 _atom_site_label
 _atom_site_symmetry_multiplicity
 _atom_site_fract_x
 _atom_site_fract_y
 _atom_site_fract_z
 _atom_site_occupancy
  Pr  Pr0  1  0.000386  0.000043  0.499668  1
  Pr  Pr1  1  0.000386  0.000043  0.000332  1
  Dy  Dy2  1  0.482685  0.930373  0.750000  1
  Dy  Dy3  1  0.517563  0.069138  0.250000  1
  Dy  Dy4  1  0.930356  0.482548  0.750000  1
  Er  Er5  1  0.066863  0.516504  0.250000  1
  Ru  Ru6  1  0.499699  0.500051  0.499381  1
  Ru  Ru7  1  0.499699  0.500051  0.000619  1
  O  O8  1  0.589054  0.588608  0.750000  1
  O  O9  1  0.409669  0.411358  0.250000  1
  O  O10  1  0.838124  0.118862  0.750000  1
  O  O11  1  0.162552  0.877791  0.250000  1
  O  O12  1  0.118709  0.837556  0.750000  1
  O  O13  1  0.882361  0.164405  0.250000  1
  O  O14  1  0.440155  0.181753  0.963546  1
  O  O15  1  0.560879  0.818906  0.463384  1
  O  O16  1  0.181575  0.441939  0.965156  1
  O  O17  1  0.818337  0.558735  0.462145  1
  O  O18  1  0.440155  0.181753  0.536454  1
  O  O19  1  0.560879  0.818906  0.036616  1
  O  O20  1  0.818337  0.558735  0.037855  1
  O  O21  1  0.181575  0.441939  0.534844  1
