# generated using pymatgen
data_YbSi2(PRh3)2
_symmetry_space_group_name_H-M   'P 1'
_cell_length_a   7.09201301
_cell_length_b   7.03233741
_cell_length_c   3.70620400
_cell_angle_alpha   90.00000000
_cell_angle_beta   90.00000000
_cell_angle_gamma   120.27462654
_symmetry_Int_Tables_number   1
_chemical_formula_structural   YbSi2(PRh3)2
_chemical_formula_sum   'Yb1 Si2 P2 Rh6'
_cell_volume   159.63226663
_cell_formula_units_Z   1
loop_
 _symmetry_equiv_pos_site_id
 _symmetry_equiv_pos_as_xyz
  1  'x, y, z'
loop_
 _atom_site_type_symbol
 _atom_site_label
 _atom_site_symmetry_multiplicity
 _atom_site_fract_x
 _atom_site_fract_y
 _atom_site_fract_z
 _atom_site_occupancy
  Yb  Yb0  1  0.998490  0.997693  0.500000  1
  Si  Si1  1  0.666008  0.331989  0.500000  1
  Si  Si2  1  0.197047  0.393744  0.000000  1
  P  P3  1  0.189342  0.807083  0.000000  1
  P  P4  1  0.617512  0.807383  0.000000  1
  Rh  Rh5  1  0.465098  0.928441  0.500000  1
  Rh  Rh6  1  0.465688  0.534608  0.500000  1
  Rh  Rh7  1  0.069192  0.535687  0.500000  1
  Rh  Rh8  1  0.802873  0.606388  0.000000  1
  Rh  Rh9  1  0.802216  0.195677  0.000000  1
  Rh  Rh10  1  0.393201  0.194639  0.000000  1
