# generated using pymatgen
data_Nd2MoP4Rh5
_symmetry_space_group_name_H-M   'P 1'
_cell_length_a   4.00852300
_cell_length_b   11.29124000
_cell_length_c   12.96848000
_cell_angle_alpha   90.00000000
_cell_angle_beta   90.00000000
_cell_angle_gamma   90.00000000
_symmetry_Int_Tables_number   1
_chemical_formula_structural   Nd2MoP4Rh5
_chemical_formula_sum   'Nd6 Mo3 P12 Rh15'
_cell_volume   586.96890523
_cell_formula_units_Z   3
loop_
 _symmetry_equiv_pos_site_id
 _symmetry_equiv_pos_as_xyz
  1  'x, y, z'
loop_
 _atom_site_type_symbol
 _atom_site_label
 _atom_site_symmetry_multiplicity
 _atom_site_fract_x
 _atom_site_fract_y
 _atom_site_fract_z
 _atom_site_occupancy
  Nd  Nd0  1  0.000000  0.500000  0.518392  1
  Nd  Nd1  1  0.500000  0.000000  0.479935  1
  Nd  Nd2  1  0.500000  0.815337  0.202014  1
  Nd  Nd3  1  0.500000  0.184663  0.202014  1
  Nd  Nd4  1  0.000000  0.682498  0.795509  1
  Nd  Nd5  1  0.000000  0.317502  0.795509  1
  Mo  Mo6  1  0.500000  0.500000  0.158285  1
  Mo  Mo7  1  0.000000  0.000000  0.844603  1
  Mo  Mo8  1  0.000000  0.500000  0.986333  1
  P  P9  1  0.500000  0.500000  0.877594  1
  P  P10  1  0.000000  0.000000  0.121085  1
  P  P11  1  0.500000  0.500000  0.341729  1
  P  P12  1  0.000000  0.000000  0.660277  1
  P  P13  1  0.500000  0.308368  0.616489  1
  P  P14  1  0.500000  0.691632  0.616489  1
  P  P15  1  0.000000  0.188993  0.384213  1
  P  P16  1  0.000000  0.811007  0.384213  1
  P  P17  1  0.500000  0.848907  0.891158  1
  P  P18  1  0.500000  0.151093  0.891158  1
  P  P19  1  0.000000  0.649501  0.109975  1
  P  P20  1  0.000000  0.350499  0.109975  1
  Rh  Rh21  1  0.500000  0.500000  0.693004  1
  Rh  Rh22  1  0.000000  0.000000  0.302070  1
  Rh  Rh23  1  0.500000  0.000000  0.012987  1
  Rh  Rh24  1  0.500000  0.328782  0.985012  1
  Rh  Rh25  1  0.500000  0.671218  0.985012  1
  Rh  Rh26  1  0.000000  0.166234  0.013725  1
  Rh  Rh27  1  0.000000  0.833766  0.013725  1
  Rh  Rh28  1  0.500000  0.290709  0.431599  1
  Rh  Rh29  1  0.500000  0.709291  0.431599  1
  Rh  Rh30  1  0.000000  0.207055  0.570045  1
  Rh  Rh31  1  0.000000  0.792945  0.570045  1
  Rh  Rh32  1  0.500000  0.877851  0.709715  1
  Rh  Rh33  1  0.500000  0.122149  0.709715  1
  Rh  Rh34  1  0.000000  0.623697  0.292398  1
  Rh  Rh35  1  0.000000  0.376303  0.292398  1
