# generated using pymatgen
data_Th3Pa(NiB4)4
_symmetry_space_group_name_H-M   'P 1'
_cell_length_a   6.92954789
_cell_length_b   6.92954730
_cell_length_c   6.92954834
_cell_angle_alpha   112.77359926
_cell_angle_beta   112.77359201
_cell_angle_gamma   103.05101200
_symmetry_Int_Tables_number   1
_chemical_formula_structural   Th3Pa(NiB4)4
_chemical_formula_sum   'Th3 Pa1 Ni4 B16'
_cell_volume   253.77409982
_cell_formula_units_Z   1
loop_
 _symmetry_equiv_pos_site_id
 _symmetry_equiv_pos_as_xyz
  1  'x, y, z'
loop_
 _atom_site_type_symbol
 _atom_site_label
 _atom_site_symmetry_multiplicity
 _atom_site_fract_x
 _atom_site_fract_y
 _atom_site_fract_z
 _atom_site_occupancy
  Th  Th0  1  0.203928  0.203928  0.000000  1
  Th  Th1  1  0.796072  0.796072  0.000000  1
  Th  Th2  1  0.750000  0.250000  0.500000  1
  Pa  Pa3  1  0.250000  0.750000  0.500000  1
  Ni  Ni4  1  0.498459  0.268905  0.770446  1
  Ni  Ni5  1  0.498459  0.728013  0.229554  1
  Ni  Ni6  1  0.731095  0.501541  0.229554  1
  Ni  Ni7  1  0.271987  0.501541  0.770446  1
  B  B8  1  0.111858  0.275457  0.385536  1
  B  B9  1  0.889921  0.726322  0.614464  1
  B  B10  1  0.889921  0.275457  0.163600  1
  B  B11  1  0.111858  0.726322  0.836400  1
  B  B12  1  0.724543  0.888142  0.614464  1
  B  B13  1  0.273678  0.110079  0.385536  1
  B  B14  1  0.724543  0.110079  0.836400  1
  B  B15  1  0.273678  0.888142  0.163600  1
  B  B16  1  0.415730  0.420241  0.530559  1
  B  B17  1  0.889681  0.885171  0.469441  1
  B  B18  1  0.579759  0.110319  0.995489  1
  B  B19  1  0.114829  0.584270  0.004511  1
  B  B20  1  0.579759  0.584270  0.469441  1
  B  B21  1  0.114829  0.110319  0.530559  1
  B  B22  1  0.889681  0.420241  0.004511  1
  B  B23  1  0.415730  0.885171  0.995489  1
