# generated using pymatgen
data_Zr7Sc(Si4Os3)4
_symmetry_space_group_name_H-M   'P 1'
_cell_length_a   9.97822023
_cell_length_b   9.96839568
_cell_length_c   13.42604581
_cell_angle_alpha   53.71535825
_cell_angle_beta   53.73364457
_cell_angle_gamma   31.44424991
_symmetry_Int_Tables_number   1
_chemical_formula_structural   Zr7Sc(Si4Os3)4
_chemical_formula_sum   'Zr7 Sc1 Si16 Os12'
_cell_volume   549.51769700
_cell_formula_units_Z   1
loop_
 _symmetry_equiv_pos_site_id
 _symmetry_equiv_pos_as_xyz
  1  'x, y, z'
loop_
 _atom_site_type_symbol
 _atom_site_label
 _atom_site_symmetry_multiplicity
 _atom_site_fract_x
 _atom_site_fract_y
 _atom_site_fract_z
 _atom_site_occupancy
  Zr  Zr0  1  0.704997  0.960929  0.864262  1
  Zr  Zr1  1  0.960210  0.704347  0.365841  1
  Zr  Zr2  1  0.295068  0.039091  0.135496  1
  Zr  Zr3  1  0.299814  0.552357  0.647987  1
  Zr  Zr4  1  0.446755  0.699980  0.851697  1
  Zr  Zr5  1  0.700977  0.447007  0.351020  1
  Zr  Zr6  1  0.552360  0.298993  0.150545  1
  Sc  Sc7  1  0.039537  0.290214  0.638730  1
  Si  Si8  1  0.975746  0.251428  0.891972  1
  Si  Si9  1  0.747662  0.025677  0.605344  1
  Si  Si10  1  0.025200  0.748324  0.106638  1
  Si  Si11  1  0.251576  0.974212  0.394106  1
  Si  Si12  1  0.142673  0.387790  0.895464  1
  Si  Si13  1  0.613151  0.857462  0.603609  1
  Si  Si14  1  0.857777  0.613349  0.103426  1
  Si  Si15  1  0.386089  0.144038  0.398012  1
  Si  Si16  1  0.084229  0.571317  0.565203  1
  Si  Si17  1  0.426442  0.913056  0.935732  1
  Si  Si18  1  0.914562  0.425756  0.436629  1
  Si  Si19  1  0.572418  0.088259  0.064496  1
  Si  Si20  1  0.620862  0.379650  0.749218  1
  Si  Si21  1  0.379802  0.621275  0.248799  1
  Si  Si22  1  0.129569  0.871680  0.748895  1
  Si  Si23  1  0.872577  0.127704  0.250054  1
  Os  Os24  1  0.906955  0.132203  0.585129  1
  Os  Os25  1  0.866884  0.093075  0.913870  1
  Os  Os26  1  0.094776  0.864062  0.414804  1
  Os  Os27  1  0.130748  0.909727  0.084879  1
  Os  Os28  1  0.826042  0.647755  0.782096  1
  Os  Os29  1  0.352190  0.172851  0.718546  1
  Os  Os30  1  0.171544  0.353639  0.218417  1
  Os  Os31  1  0.645843  0.827939  0.281817  1
  Os  Os32  1  0.232588  0.519875  0.930602  1
  Os  Os33  1  0.484017  0.765951  0.568265  1
  Os  Os34  1  0.769330  0.480323  0.069061  1
  Os  Os35  1  0.519029  0.238701  0.429337  1
