# generated using pymatgen
data_Lu(NbC)5
_symmetry_space_group_name_H-M   'P 1'
_cell_length_a   5.57914484
_cell_length_b   5.57914410
_cell_length_c   5.55635595
_cell_angle_alpha   80.88256349
_cell_angle_beta   80.88257645
_cell_angle_gamma   120.25900620
_symmetry_Int_Tables_number   1
_chemical_formula_structural   Lu(NbC)5
_chemical_formula_sum   'Lu1 Nb5 C5'
_cell_volume   141.62545104
_cell_formula_units_Z   1
loop_
 _symmetry_equiv_pos_site_id
 _symmetry_equiv_pos_as_xyz
  1  'x, y, z'
loop_
 _atom_site_type_symbol
 _atom_site_label
 _atom_site_symmetry_multiplicity
 _atom_site_fract_x
 _atom_site_fract_y
 _atom_site_fract_z
 _atom_site_occupancy
  Lu  Lu0  1  0.749177  0.749177  0.746814  1
  Nb  Nb1  1  0.260792  0.260792  0.262183  1
  Nb  Nb2  1  0.087345  0.443482  0.743858  1
  Nb  Nb3  1  0.556735  0.909279  0.253672  1
  Nb  Nb4  1  0.909279  0.556735  0.253672  1
  Nb  Nb5  1  0.443482  0.087345  0.743858  1
  C  C6  1  0.494539  0.494539  0.496476  1
  C  C7  1  0.663296  0.322731  0.006840  1
  C  C8  1  0.322731  0.663296  0.006840  1
  C  C9  1  0.835622  0.177002  0.492893  1
  C  C10  1  0.177002  0.835622  0.492893  1
