# generated using pymatgen
data_TaTi3(GeRh5)2
_symmetry_space_group_name_H-M   'P 1'
_cell_length_a   3.98567400
_cell_length_b   5.47527412
_cell_length_c   10.70037332
_cell_angle_alpha   90.31066009
_cell_angle_beta   90.00000000
_cell_angle_gamma   90.00000000
_symmetry_Int_Tables_number   1
_chemical_formula_structural   TaTi3(GeRh5)2
_chemical_formula_sum   'Ta1 Ti3 Ge2 Rh10'
_cell_volume   233.50715190
_cell_formula_units_Z   1
loop_
 _symmetry_equiv_pos_site_id
 _symmetry_equiv_pos_as_xyz
  1  'x, y, z'
loop_
 _atom_site_type_symbol
 _atom_site_label
 _atom_site_symmetry_multiplicity
 _atom_site_fract_x
 _atom_site_fract_y
 _atom_site_fract_z
 _atom_site_occupancy
  Ta  Ta0  1  0.500000  0.323589  0.141358  1
  Ti  Ti1  1  0.500000  0.677632  0.854959  1
  Ti  Ti2  1  0.500000  0.825020  0.362011  1
  Ti  Ti3  1  0.500000  0.175760  0.641958  1
  Ge  Ge4  1  0.000000  0.995448  0.997495  1
  Ge  Ge5  1  0.000000  0.500204  0.500931  1
  Rh  Rh6  1  0.000000  0.998875  0.500346  1
  Rh  Rh7  1  0.000000  0.502794  0.998566  1
  Rh  Rh8  1  0.000000  0.068718  0.244201  1
  Rh  Rh9  1  0.000000  0.928874  0.757046  1
  Rh  Rh10  1  0.000000  0.570446  0.257069  1
  Rh  Rh11  1  0.000000  0.428480  0.742616  1
  Rh  Rh12  1  0.500000  0.306871  0.392175  1
  Rh  Rh13  1  0.500000  0.693711  0.609102  1
  Rh  Rh14  1  0.500000  0.808870  0.108848  1
  Rh  Rh15  1  0.500000  0.194707  0.891317  1
