# generated using pymatgen
data_Tb2Nd2P7Ir8
_symmetry_space_group_name_H-M   'P 1'
_cell_length_a   3.96094900
_cell_length_b   12.80026747
_cell_length_c   13.18901200
_cell_angle_alpha   80.85392289
_cell_angle_beta   90.00000000
_cell_angle_gamma   90.00000000
_symmetry_Int_Tables_number   1
_chemical_formula_structural   Tb2Nd2P7Ir8
_chemical_formula_sum   'Tb4 Nd4 P14 Ir16'
_cell_volume   660.19718471
_cell_formula_units_Z   2
loop_
 _symmetry_equiv_pos_site_id
 _symmetry_equiv_pos_as_xyz
  1  'x, y, z'
loop_
 _atom_site_type_symbol
 _atom_site_label
 _atom_site_symmetry_multiplicity
 _atom_site_fract_x
 _atom_site_fract_y
 _atom_site_fract_z
 _atom_site_occupancy
  Tb  Tb0  1  0.750000  0.791572  0.560056  1
  Tb  Tb1  1  0.250000  0.208428  0.439944  1
  Tb  Tb2  1  0.750000  0.480124  0.705435  1
  Tb  Tb3  1  0.250000  0.519876  0.294565  1
  Nd  Nd4  1  0.750000  0.720021  0.897738  1
  Nd  Nd5  1  0.250000  0.104757  0.787986  1
  Nd  Nd6  1  0.750000  0.895243  0.212014  1
  Nd  Nd7  1  0.250000  0.279979  0.102262  1
  P  P8  1  0.250000  0.907583  0.411428  1
  P  P9  1  0.750000  0.472744  0.129583  1
  P  P10  1  0.250000  0.527256  0.870417  1
  P  P11  1  0.750000  0.092417  0.588572  1
  P  P12  1  0.250000  0.741620  0.081906  1
  P  P13  1  0.750000  0.258380  0.918094  1
  P  P14  1  0.750000  0.157983  0.283781  1
  P  P15  1  0.250000  0.842017  0.716219  1
  P  P16  1  0.250000  0.051684  0.099967  1
  P  P17  1  0.750000  0.948316  0.900033  1
  P  P18  1  0.250000  0.315526  0.687793  1
  P  P19  1  0.750000  0.684474  0.312207  1
  P  P20  1  0.250000  0.607768  0.565343  1
  P  P21  1  0.750000  0.392232  0.434657  1
  Ir  Ir22  1  0.250000  0.990041  0.576136  1
  Ir  Ir23  1  0.750000  0.009959  0.423864  1
  Ir  Ir24  1  0.250000  0.661134  0.728427  1
  Ir  Ir25  1  0.750000  0.338866  0.271573  1
  Ir  Ir26  1  0.250000  0.550745  0.048674  1
  Ir  Ir27  1  0.750000  0.449255  0.951326  1
  Ir  Ir28  1  0.250000  0.063638  0.273091  1
  Ir  Ir29  1  0.750000  0.936362  0.726909  1
  Ir  Ir30  1  0.250000  0.422454  0.524231  1
  Ir  Ir31  1  0.750000  0.577546  0.475769  1
  Ir  Ir32  1  0.250000  0.914587  0.997919  1
  Ir  Ir33  1  0.750000  0.085413  0.002081  1
  Ir  Ir34  1  0.250000  0.728732  0.395678  1
  Ir  Ir35  1  0.750000  0.271268  0.604322  1
  Ir  Ir36  1  0.250000  0.343314  0.856729  1
  Ir  Ir37  1  0.750000  0.656686  0.143271  1
