# generated using pymatgen
data_Ta5Nb3(Co2N)2
_symmetry_space_group_name_H-M   'P 1'
_cell_length_a   8.20764937
_cell_length_b   8.20803555
_cell_length_c   8.20810700
_cell_angle_alpha   60.00190144
_cell_angle_beta   60.00118171
_cell_angle_gamma   59.99972385
_symmetry_Int_Tables_number   1
_chemical_formula_structural   Ta5Nb3(Co2N)2
_chemical_formula_sum   'Ta10 Nb6 Co8 N4'
_cell_volume   391.01664751
_cell_formula_units_Z   2
loop_
 _symmetry_equiv_pos_site_id
 _symmetry_equiv_pos_as_xyz
  1  'x, y, z'
loop_
 _atom_site_type_symbol
 _atom_site_label
 _atom_site_symmetry_multiplicity
 _atom_site_fract_x
 _atom_site_fract_y
 _atom_site_fract_z
 _atom_site_occupancy
  Ta  Ta0  1  0.125544  0.624829  0.624873  1
  Ta  Ta1  1  0.624895  0.125642  0.624781  1
  Ta  Ta2  1  0.624922  0.624752  0.125622  1
  Ta  Ta3  1  0.624856  0.624721  0.624760  1
  Ta  Ta4  1  0.436418  0.436400  0.063522  1
  Ta  Ta5  1  0.063477  0.063498  0.436471  1
  Ta  Ta6  1  0.436498  0.063448  0.436484  1
  Ta  Ta7  1  0.063501  0.436451  0.063514  1
  Ta  Ta8  1  0.063499  0.436431  0.436426  1
  Ta  Ta9  1  0.436475  0.063497  0.063485  1
  Nb  Nb10  1  0.813701  0.813731  0.186295  1
  Nb  Nb11  1  0.186328  0.186458  0.813601  1
  Nb  Nb12  1  0.813615  0.186407  0.813616  1
  Nb  Nb13  1  0.186323  0.813626  0.186432  1
  Nb  Nb14  1  0.186279  0.813696  0.813673  1
  Nb  Nb15  1  0.813596  0.186398  0.186390  1
  Co  Co16  1  0.753671  0.415449  0.415448  1
  Co  Co17  1  0.415493  0.753588  0.415472  1
  Co  Co18  1  0.415442  0.415421  0.753714  1
  Co  Co19  1  0.415450  0.415418  0.415444  1
  Co  Co20  1  0.502360  0.832572  0.832542  1
  Co  Co21  1  0.832533  0.502389  0.832524  1
  Co  Co22  1  0.832550  0.832573  0.502330  1
  Co  Co23  1  0.832546  0.832614  0.832559  1
  N  N24  1  0.620341  0.126552  0.126546  1
  N  N25  1  0.126562  0.620316  0.126558  1
  N  N26  1  0.126546  0.126551  0.620336  1
  N  N27  1  0.126579  0.126574  0.126582  1
