# generated using pymatgen
data_BaP2OsRu
_symmetry_space_group_name_H-M   'P 1'
_cell_length_a   6.77295765
_cell_length_b   6.77295726
_cell_length_c   6.77295902
_cell_angle_alpha   144.99556981
_cell_angle_beta   144.99556553
_cell_angle_gamma   50.34112411
_symmetry_Int_Tables_number   1
_chemical_formula_structural   BaP2OsRu
_chemical_formula_sum   'Ba1 P2 Os1 Ru1'
_cell_volume   101.73158153
_cell_formula_units_Z   1
loop_
 _symmetry_equiv_pos_site_id
 _symmetry_equiv_pos_as_xyz
  1  'x, y, z'
loop_
 _atom_site_type_symbol
 _atom_site_label
 _atom_site_symmetry_multiplicity
 _atom_site_fract_x
 _atom_site_fract_y
 _atom_site_fract_z
 _atom_site_occupancy
  Ba  Ba0  1  0.000000  0.000000  0.000000  1
  P  P1  1  0.656190  0.656190  0.000000  1
  P  P2  1  0.343810  0.343810  0.000000  1
  Os  Os3  1  0.750000  0.250000  0.500000  1
  Ru  Ru4  1  0.250000  0.750000  0.500000  1
