# generated using pymatgen
data_Sm2Ga9RuPt2
_symmetry_space_group_name_H-M   'P 1'
_cell_length_a   7.68066302
_cell_length_b   7.68066331
_cell_length_c   9.59365086
_cell_angle_alpha   89.88701051
_cell_angle_beta   89.88700953
_cell_angle_gamma   119.90990314
_symmetry_Int_Tables_number   1
_chemical_formula_structural   Sm2Ga9RuPt2
_chemical_formula_sum   'Sm4 Ga18 Ru2 Pt4'
_cell_volume   490.57134996
_cell_formula_units_Z   2
loop_
 _symmetry_equiv_pos_site_id
 _symmetry_equiv_pos_as_xyz
  1  'x, y, z'
loop_
 _atom_site_type_symbol
 _atom_site_label
 _atom_site_symmetry_multiplicity
 _atom_site_fract_x
 _atom_site_fract_y
 _atom_site_fract_z
 _atom_site_occupancy
  Sm  Sm0  1  0.996646  0.669093  0.249818  1
  Sm  Sm1  1  0.003354  0.330907  0.750182  1
  Sm  Sm2  1  0.669093  0.996646  0.249818  1
  Sm  Sm3  1  0.330907  0.003354  0.750182  1
  Ga  Ga4  1  0.132696  0.132696  0.251246  1
  Ga  Ga5  1  0.867304  0.867304  0.748754  1
  Ga  Ga6  1  0.001036  0.334154  0.083009  1
  Ga  Ga7  1  0.998965  0.665846  0.916991  1
  Ga  Ga8  1  0.000860  0.659735  0.575773  1
  Ga  Ga9  1  0.340265  0.999141  0.424227  1
  Ga  Ga10  1  0.999141  0.340265  0.424227  1
  Ga  Ga11  1  0.659735  0.000859  0.575773  1
  Ga  Ga12  1  0.665846  0.998964  0.916991  1
  Ga  Ga13  1  0.334154  0.001036  0.083009  1
  Ga  Ga14  1  0.337788  0.337788  0.560850  1
  Ga  Ga15  1  0.662212  0.662212  0.439150  1
  Ga  Ga16  1  0.664767  0.664767  0.070633  1
  Ga  Ga17  1  0.335233  0.335233  0.929367  1
  Ga  Ga18  1  0.337306  0.545445  0.255766  1
  Ga  Ga19  1  0.662694  0.454555  0.744234  1
  Ga  Ga20  1  0.545445  0.337306  0.255766  1
  Ga  Ga21  1  0.454555  0.662694  0.744234  1
  Ru  Ru22  1  0.328419  0.671581  0.500000  1
  Ru  Ru23  1  0.671581  0.328419  0.500000  1
  Pt  Pt24  1  0.670273  0.329727  0.000000  1
  Pt  Pt25  1  0.329727  0.670273  0.000000  1
  Pt  Pt26  1  0.000000  0.000000  0.000000  1
  Pt  Pt27  1  0.000000  0.000000  0.500000  1
