# generated using pymatgen
data_Dy2Hf3Co9As7
_symmetry_space_group_name_H-M   'P 1'
_cell_length_a   3.81063700
_cell_length_b   9.69060329
_cell_length_c   9.69060300
_cell_angle_alpha   119.99999560
_cell_angle_beta   90.00000000
_cell_angle_gamma   90.00000000
_symmetry_Int_Tables_number   1
_chemical_formula_structural   Dy2Hf3Co9As7
_chemical_formula_sum   'Dy2 Hf3 Co9 As7'
_cell_volume   309.90590249
_cell_formula_units_Z   1
loop_
 _symmetry_equiv_pos_site_id
 _symmetry_equiv_pos_as_xyz
  1  'x, y, z'
loop_
 _atom_site_type_symbol
 _atom_site_label
 _atom_site_symmetry_multiplicity
 _atom_site_fract_x
 _atom_site_fract_y
 _atom_site_fract_z
 _atom_site_occupancy
  Dy  Dy0  1  0.000000  0.666667  0.333333  1
  Dy  Dy1  1  0.500000  0.333333  0.666667  1
  Hf  Hf2  1  0.500000  0.768723  0.888062  1
  Hf  Hf3  1  0.500000  0.119338  0.231277  1
  Hf  Hf4  1  0.500000  0.111938  0.880662  1
  Co  Co5  1  0.000000  0.577291  0.935946  1
  Co  Co6  1  0.000000  0.358655  0.422709  1
  Co  Co7  1  0.000000  0.064054  0.641345  1
  Co  Co8  1  0.000000  0.878409  0.162946  1
  Co  Co9  1  0.000000  0.284537  0.121591  1
  Co  Co10  1  0.000000  0.837054  0.715463  1
  Co  Co11  1  0.500000  0.948267  0.390623  1
  Co  Co12  1  0.500000  0.442355  0.051733  1
  Co  Co13  1  0.500000  0.609377  0.557645  1
  As  As14  1  0.000000  0.000000  0.000000  1
  As  As15  1  0.500000  0.713083  0.132788  1
  As  As16  1  0.500000  0.419705  0.286917  1
  As  As17  1  0.500000  0.867212  0.580295  1
  As  As18  1  0.000000  0.572703  0.681320  1
  As  As19  1  0.000000  0.108617  0.427297  1
  As  As20  1  0.000000  0.318680  0.891383  1
