# generated using pymatgen
data_Dy8Hg3Os
_symmetry_space_group_name_H-M   'P 1'
_cell_length_a   10.16906000
_cell_length_b   10.16906148
_cell_length_c   7.27684400
_cell_angle_alpha   90.00000000
_cell_angle_beta   90.00000000
_cell_angle_gamma   119.99999519
_symmetry_Int_Tables_number   1
_chemical_formula_structural   Dy8Hg3Os
_chemical_formula_sum   'Dy16 Hg6 Os2'
_cell_volume   651.68151166
_cell_formula_units_Z   2
loop_
 _symmetry_equiv_pos_site_id
 _symmetry_equiv_pos_as_xyz
  1  'x, y, z'
loop_
 _atom_site_type_symbol
 _atom_site_label
 _atom_site_symmetry_multiplicity
 _atom_site_fract_x
 _atom_site_fract_y
 _atom_site_fract_z
 _atom_site_occupancy
  Dy  Dy0  1  0.173509  0.826491  0.517307  1
  Dy  Dy1  1  0.652985  0.826491  0.517307  1
  Dy  Dy2  1  0.173509  0.347015  0.517307  1
  Dy  Dy3  1  0.826491  0.173509  0.017307  1
  Dy  Dy4  1  0.347015  0.173509  0.017307  1
  Dy  Dy5  1  0.826491  0.652985  0.017307  1
  Dy  Dy6  1  0.333333  0.666667  0.823707  1
  Dy  Dy7  1  0.666667  0.333333  0.323707  1
  Dy  Dy8  1  0.462005  0.537995  0.207900  1
  Dy  Dy9  1  0.075989  0.537995  0.207900  1
  Dy  Dy10  1  0.462005  0.924011  0.207900  1
  Dy  Dy11  1  0.537995  0.462005  0.707900  1
  Dy  Dy12  1  0.924011  0.462005  0.707900  1
  Dy  Dy13  1  0.537995  0.075989  0.707900  1
  Dy  Dy14  1  0.000000  0.000000  0.234410  1
  Dy  Dy15  1  0.000000  0.000000  0.734410  1
  Hg  Hg16  1  0.167393  0.832607  0.953096  1
  Hg  Hg17  1  0.665216  0.832607  0.953096  1
  Hg  Hg18  1  0.167393  0.334784  0.953096  1
  Hg  Hg19  1  0.832607  0.167393  0.453096  1
  Hg  Hg20  1  0.334784  0.167393  0.453096  1
  Hg  Hg21  1  0.832607  0.665216  0.453096  1
  Os  Os22  1  0.333333  0.666667  0.444391  1
  Os  Os23  1  0.666667  0.333333  0.944391  1
