# generated using pymatgen
data_NaNd5Se8
_symmetry_space_group_name_H-M   'P 1'
_cell_length_a   7.75788841
_cell_length_b   7.75788884
_cell_length_c   7.75788829
_cell_angle_alpha   109.56462647
_cell_angle_beta   109.28455902
_cell_angle_gamma   109.56462862
_symmetry_Int_Tables_number   1
_chemical_formula_structural   NaNd5Se8
_chemical_formula_sum   'Na1 Nd5 Se8'
_cell_volume   359.42253580
_cell_formula_units_Z   1
loop_
 _symmetry_equiv_pos_site_id
 _symmetry_equiv_pos_as_xyz
  1  'x, y, z'
loop_
 _atom_site_type_symbol
 _atom_site_label
 _atom_site_symmetry_multiplicity
 _atom_site_fract_x
 _atom_site_fract_y
 _atom_site_fract_z
 _atom_site_occupancy
  Na  Na0  1  0.875001  0.250000  0.125000  1
  Nd  Nd1  1  0.375277  0.124663  0.243293  1
  Nd  Nd2  1  0.625001  0.750001  0.375000  1
  Nd  Nd3  1  0.249385  0.868017  0.624724  1
  Nd  Nd4  1  0.118630  0.375337  0.750616  1
  Nd  Nd5  1  0.756708  0.631985  0.881371  1
  Se  Se6  1  0.491189  0.355299  0.994860  1
  Se  Se7  1  0.500223  0.847063  0.000146  1
  Se  Se8  1  0.153083  0.652937  0.153160  1
  Se  Se9  1  0.005140  0.996331  0.360438  1
  Se  Se10  1  0.846840  0.499922  0.499776  1
  Se  Se11  1  0.364108  0.503668  0.508809  1
  Se  Se12  1  0.639561  0.144700  0.635891  1
  Se  Se13  1  0.999854  0.000077  0.846917  1
