# generated using pymatgen
data_TbLu11Tc3Os
_symmetry_space_group_name_H-M   'P 1'
_cell_length_a   6.13576764
_cell_length_b   7.38191396
_cell_length_c   8.86830100
_cell_angle_alpha   90.00000000
_cell_angle_beta   90.00000000
_cell_angle_gamma   90.16293973
_symmetry_Int_Tables_number   1
_chemical_formula_structural   TbLu11Tc3Os
_chemical_formula_sum   'Tb1 Lu11 Tc3 Os1'
_cell_volume   401.67661844
_cell_formula_units_Z   1
loop_
 _symmetry_equiv_pos_site_id
 _symmetry_equiv_pos_as_xyz
  1  'x, y, z'
loop_
 _atom_site_type_symbol
 _atom_site_label
 _atom_site_symmetry_multiplicity
 _atom_site_fract_x
 _atom_site_fract_y
 _atom_site_fract_z
 _atom_site_occupancy
  Tb  Tb0  1  0.623785  0.038324  0.250000  1
  Lu  Lu1  1  0.341793  0.674229  0.060102  1
  Lu  Lu2  1  0.153381  0.174961  0.438958  1
  Lu  Lu3  1  0.657246  0.328812  0.563607  1
  Lu  Lu4  1  0.844024  0.822397  0.935916  1
  Lu  Lu5  1  0.657246  0.328812  0.936393  1
  Lu  Lu6  1  0.844024  0.822397  0.564084  1
  Lu  Lu7  1  0.341793  0.674229  0.439898  1
  Lu  Lu8  1  0.153381  0.174961  0.061042  1
  Lu  Lu9  1  0.875359  0.539622  0.250000  1
  Lu  Lu10  1  0.129729  0.456181  0.750000  1
  Lu  Lu11  1  0.376493  0.962498  0.750000  1
  Tc  Tc12  1  0.046420  0.880136  0.250000  1
  Tc  Tc13  1  0.457641  0.383185  0.250000  1
  Tc  Tc14  1  0.957593  0.118127  0.750000  1
  Os  Os15  1  0.540090  0.621130  0.750000  1
