# generated using pymatgen
data_SrV4Pb(CO3)8
_symmetry_space_group_name_H-M   'P 1'
_cell_length_a   6.40283878
_cell_length_b   9.84868521
_cell_length_c   8.13225254
_cell_angle_alpha   89.68264522
_cell_angle_beta   109.88036539
_cell_angle_gamma   89.90999068
_symmetry_Int_Tables_number   1
_chemical_formula_structural   SrV4Pb(CO3)8
_chemical_formula_sum   'Sr1 V4 Pb1 C8 O24'
_cell_volume   482.24405912
_cell_formula_units_Z   1
loop_
 _symmetry_equiv_pos_site_id
 _symmetry_equiv_pos_as_xyz
  1  'x, y, z'
loop_
 _atom_site_type_symbol
 _atom_site_label
 _atom_site_symmetry_multiplicity
 _atom_site_fract_x
 _atom_site_fract_y
 _atom_site_fract_z
 _atom_site_occupancy
  Sr  Sr0  1  0.499942  0.250063  0.499818  1
  V  V1  1  0.499993  0.750057  0.000029  1
  V  V2  1  0.500025  0.249954  0.999964  1
  V  V3  1  0.999515  0.000336  0.499861  1
  V  V4  1  0.000431  0.499671  0.500162  1
  Pb  Pb5  1  0.499704  0.749785  0.500141  1
  C  C6  1  0.032982  0.248466  0.727966  1
  C  C7  1  0.034338  0.747967  0.728448  1
  C  C8  1  0.967273  0.251529  0.272111  1
  C  C9  1  0.965362  0.752074  0.271461  1
  C  C10  1  0.524956  0.999424  0.231863  1
  C  C11  1  0.524512  0.498406  0.230620  1
  C  C12  1  0.475217  0.500590  0.768260  1
  C  C13  1  0.475444  0.001563  0.769226  1
  O  O14  1  0.341589  0.455972  0.616572  1
  O  O15  1  0.339909  0.956844  0.617486  1
  O  O16  1  0.658642  0.044172  0.383464  1
  O  O17  1  0.660066  0.542925  0.382471  1
  O  O18  1  0.583779  0.417298  0.886728  1
  O  O19  1  0.583231  0.918629  0.888000  1
  O  O20  1  0.416297  0.082719  0.113379  1
  O  O21  1  0.416756  0.581480  0.112044  1
  O  O22  1  0.009251  0.378904  0.306245  1
  O  O23  1  0.005928  0.879364  0.305202  1
  O  O24  1  0.991398  0.121059  0.694013  1
  O  O25  1  0.993352  0.620720  0.694504  1
  O  O26  1  0.498046  0.367578  0.213600  1
  O  O27  1  0.498742  0.868717  0.212487  1
  O  O28  1  0.501807  0.132406  0.786057  1
  O  O29  1  0.501482  0.631319  0.787694  1
  O  O30  1  0.904460  0.336761  0.617096  1
  O  O31  1  0.906830  0.836942  0.617664  1
  O  O32  1  0.095678  0.163106  0.382831  1
  O  O33  1  0.093007  0.663252  0.382502  1
  O  O34  1  0.181678  0.288898  0.867081  1
  O  O35  1  0.182075  0.788829  0.868001  1
  O  O36  1  0.818426  0.211284  0.132995  1
  O  O37  1  0.817875  0.710941  0.131948  1
