# generated using pymatgen
data_La2Al9Ir2Pt
_symmetry_space_group_name_H-M   'P 1'
_cell_length_a   7.68732832
_cell_length_b   7.68732868
_cell_length_c   9.65527600
_cell_angle_alpha   90.00000000
_cell_angle_beta   90.00000000
_cell_angle_gamma   119.41934720
_symmetry_Int_Tables_number   1
_chemical_formula_structural   La2Al9Ir2Pt
_chemical_formula_sum   'La4 Al18 Ir4 Pt2'
_cell_volume   497.00145342
_cell_formula_units_Z   2
loop_
 _symmetry_equiv_pos_site_id
 _symmetry_equiv_pos_as_xyz
  1  'x, y, z'
loop_
 _atom_site_type_symbol
 _atom_site_label
 _atom_site_symmetry_multiplicity
 _atom_site_fract_x
 _atom_site_fract_y
 _atom_site_fract_z
 _atom_site_occupancy
  La  La0  1  0.996216  0.669750  0.250000  1
  La  La1  1  0.003784  0.330250  0.750000  1
  La  La2  1  0.669750  0.996216  0.250000  1
  La  La3  1  0.330250  0.003784  0.750000  1
  Al  Al4  1  0.134334  0.134334  0.250000  1
  Al  Al5  1  0.865666  0.865666  0.750000  1
  Al  Al6  1  0.003367  0.337922  0.073709  1
  Al  Al7  1  0.996633  0.662078  0.926291  1
  Al  Al8  1  0.996633  0.662078  0.573709  1
  Al  Al9  1  0.337922  0.003367  0.426291  1
  Al  Al10  1  0.003367  0.337922  0.426291  1
  Al  Al11  1  0.662078  0.996633  0.573709  1
  Al  Al12  1  0.662078  0.996633  0.926291  1
  Al  Al13  1  0.337922  0.003367  0.073709  1
  Al  Al14  1  0.338059  0.338059  0.548342  1
  Al  Al15  1  0.661941  0.661941  0.451658  1
  Al  Al16  1  0.661941  0.661941  0.048342  1
  Al  Al17  1  0.338059  0.338059  0.951658  1
  Al  Al18  1  0.339726  0.544640  0.250000  1
  Al  Al19  1  0.660274  0.455360  0.750000  1
  Al  Al20  1  0.544640  0.339726  0.250000  1
  Al  Al21  1  0.455360  0.660274  0.750000  1
  Ir  Ir22  1  0.670897  0.329103  0.000000  1
  Ir  Ir23  1  0.329103  0.670897  0.000000  1
  Ir  Ir24  1  0.329103  0.670897  0.500000  1
  Ir  Ir25  1  0.670897  0.329103  0.500000  1
  Pt  Pt26  1  0.000000  0.000000  0.000000  1
  Pt  Pt27  1  0.000000  0.000000  0.500000  1
