# generated using pymatgen
data_Na5Si12Ir8Pt11
_symmetry_space_group_name_H-M   'P 1'
_cell_length_a   12.91097180
_cell_length_b   12.92570225
_cell_length_c   3.98194800
_cell_angle_alpha   90.00000000
_cell_angle_beta   90.00000000
_cell_angle_gamma   120.03775207
_symmetry_Int_Tables_number   1
_chemical_formula_structural   Na5Si12Ir8Pt11
_chemical_formula_sum   'Na5 Si12 Ir8 Pt11'
_cell_volume   575.27295620
_cell_formula_units_Z   1
loop_
 _symmetry_equiv_pos_site_id
 _symmetry_equiv_pos_as_xyz
  1  'x, y, z'
loop_
 _atom_site_type_symbol
 _atom_site_label
 _atom_site_symmetry_multiplicity
 _atom_site_fract_x
 _atom_site_fract_y
 _atom_site_fract_z
 _atom_site_occupancy
  Na  Na0  1  0.000000  0.818358  0.500000  1
  Na  Na1  1  0.183003  0.181318  0.500000  1
  Na  Na2  1  0.816997  0.998315  0.500000  1
  Na  Na3  1  0.334492  0.668044  0.000000  1
  Na  Na4  1  0.665508  0.333551  0.000000  1
  Si  Si5  1  0.000000  0.178940  0.000000  1
  Si  Si6  1  0.819320  0.819152  0.000000  1
  Si  Si7  1  0.180680  0.999832  0.000000  1
  Si  Si8  1  0.515783  0.684005  0.500000  1
  Si  Si9  1  0.316251  0.832018  0.500000  1
  Si  Si10  1  0.172566  0.488914  0.500000  1
  Si  Si11  1  0.484217  0.168222  0.500000  1
  Si  Si12  1  0.683749  0.515768  0.500000  1
  Si  Si13  1  0.827434  0.316349  0.500000  1
  Si  Si14  1  0.000000  0.629931  0.000000  1
  Si  Si15  1  0.370447  0.369518  0.000000  1
  Si  Si16  1  0.629553  0.999071  0.000000  1
  Ir  Ir17  1  0.716419  0.716170  0.500000  1
  Ir  Ir18  1  0.283581  0.999751  0.500000  1
  Ir  Ir19  1  0.515352  0.872970  0.500000  1
  Ir  Ir20  1  0.127188  0.642496  0.500000  1
  Ir  Ir21  1  0.357988  0.484929  0.500000  1
  Ir  Ir22  1  0.484648  0.357619  0.500000  1
  Ir  Ir23  1  0.872812  0.515309  0.500000  1
  Ir  Ir24  1  0.642012  0.126942  0.500000  1
  Pt  Pt25  1  0.000000  0.284136  0.500000  1
  Pt  Pt26  1  0.624069  0.808231  0.000000  1
  Pt  Pt27  1  0.190952  0.815482  0.000000  1
  Pt  Pt28  1  0.184128  0.375354  0.000000  1
  Pt  Pt29  1  0.375931  0.184162  0.000000  1
  Pt  Pt30  1  0.809048  0.624530  0.000000  1
  Pt  Pt31  1  0.815872  0.191226  0.000000  1
  Pt  Pt32  1  0.000000  0.000348  0.000000  1
  Pt  Pt33  1  0.000000  0.449477  0.000000  1
  Pt  Pt34  1  0.550689  0.550123  0.000000  1
  Pt  Pt35  1  0.449311  0.999434  0.000000  1
