# generated using pymatgen
data_SmHoFe6(CoB4)2
_symmetry_space_group_name_H-M   'P 1'
_cell_length_a   6.97924111
_cell_length_b   6.96854447
_cell_length_c   3.80217100
_cell_angle_alpha   90.00000000
_cell_angle_beta   90.00000000
_cell_angle_gamma   90.28986901
_symmetry_Int_Tables_number   1
_chemical_formula_structural   SmHoFe6(CoB4)2
_chemical_formula_sum   'Sm1 Ho1 Fe6 Co2 B8'
_cell_volume   184.91679796
_cell_formula_units_Z   1
loop_
 _symmetry_equiv_pos_site_id
 _symmetry_equiv_pos_as_xyz
  1  'x, y, z'
loop_
 _atom_site_type_symbol
 _atom_site_label
 _atom_site_symmetry_multiplicity
 _atom_site_fract_x
 _atom_site_fract_y
 _atom_site_fract_z
 _atom_site_occupancy
  Sm  Sm0  1  0.500000  0.500000  0.501885  1
  Ho  Ho1  1  0.000000  0.000000  0.002128  1
  Fe  Fe2  1  0.385427  0.131115  0.892965  1
  Fe  Fe3  1  0.614573  0.868885  0.892965  1
  Fe  Fe4  1  0.365974  0.885935  0.393031  1
  Fe  Fe5  1  0.634026  0.114065  0.393031  1
  Fe  Fe6  1  0.114009  0.366549  0.606944  1
  Fe  Fe7  1  0.885991  0.633451  0.606944  1
  Co  Co8  1  0.134791  0.614826  0.107859  1
  Co  Co9  1  0.865209  0.385174  0.107859  1
  B  B10  1  0.798648  0.668492  0.103974  1
  B  B11  1  0.201352  0.331508  0.103974  1
  B  B12  1  0.837986  0.294805  0.605057  1
  B  B13  1  0.162014  0.705195  0.605057  1
  B  B14  1  0.703678  0.835672  0.394255  1
  B  B15  1  0.296322  0.164328  0.394255  1
  B  B16  1  0.666947  0.195369  0.893909  1
  B  B17  1  0.333053  0.804631  0.893909  1
