# generated using pymatgen
data_LaCo2(Sb6Os)2
_symmetry_space_group_name_H-M   'P 1'
_cell_length_a   8.04667484
_cell_length_b   8.07615735
_cell_length_c   8.04667510
_cell_angle_alpha   109.33630190
_cell_angle_beta   109.28073345
_cell_angle_gamma   109.64830162
_symmetry_Int_Tables_number   1
_chemical_formula_structural   LaCo2(Sb6Os)2
_chemical_formula_sum   'La1 Co2 Sb12 Os2'
_cell_volume   403.27783057
_cell_formula_units_Z   1
loop_
 _symmetry_equiv_pos_site_id
 _symmetry_equiv_pos_as_xyz
  1  'x, y, z'
loop_
 _atom_site_type_symbol
 _atom_site_label
 _atom_site_symmetry_multiplicity
 _atom_site_fract_x
 _atom_site_fract_y
 _atom_site_fract_z
 _atom_site_occupancy
  La  La0  1  0.000000  0.000000  0.000000  1
  Co  Co1  1  0.000000  0.500000  0.000000  1
  Co  Co2  1  0.500000  0.500000  0.500000  1
  Sb  Sb3  1  0.341469  0.184983  0.843514  1
  Sb  Sb4  1  0.658531  0.815017  0.156486  1
  Sb  Sb5  1  0.666252  0.504847  0.838595  1
  Sb  Sb6  1  0.333748  0.495153  0.161405  1
  Sb  Sb7  1  0.177425  0.834991  0.331976  1
  Sb  Sb8  1  0.822575  0.165009  0.668024  1
  Sb  Sb9  1  0.503015  0.834991  0.657566  1
  Sb  Sb10  1  0.496985  0.165009  0.342434  1
  Sb  Sb11  1  0.846663  0.342089  0.177982  1
  Sb  Sb12  1  0.153337  0.657911  0.822018  1
  Sb  Sb13  1  0.835893  0.657911  0.504574  1
  Sb  Sb14  1  0.164107  0.342089  0.495426  1
  Os  Os15  1  0.000000  0.000000  0.500000  1
  Os  Os16  1  0.500000  0.000000  0.000000  1
