# generated using pymatgen
data_Tm3Sc5PtAu3
_symmetry_space_group_name_H-M   'P 1'
_cell_length_a   4.66594200
_cell_length_b   6.89276222
_cell_length_c   8.48786248
_cell_angle_alpha   90.35264115
_cell_angle_beta   90.00000000
_cell_angle_gamma   90.00000000
_symmetry_Int_Tables_number   1
_chemical_formula_structural   Tm3Sc5PtAu3
_chemical_formula_sum   'Tm3 Sc5 Pt1 Au3'
_cell_volume   272.97491646
_cell_formula_units_Z   1
loop_
 _symmetry_equiv_pos_site_id
 _symmetry_equiv_pos_as_xyz
  1  'x, y, z'
loop_
 _atom_site_type_symbol
 _atom_site_label
 _atom_site_symmetry_multiplicity
 _atom_site_fract_x
 _atom_site_fract_y
 _atom_site_fract_z
 _atom_site_occupancy
  Tm  Tm0  1  0.250000  0.979751  0.323955  1
  Tm  Tm1  1  0.750000  0.011801  0.677931  1
  Tm  Tm2  1  0.250000  0.482656  0.180915  1
  Sc  Sc3  1  0.750000  0.517535  0.820239  1
  Sc  Sc4  1  0.750000  0.648418  0.432099  1
  Sc  Sc5  1  0.250000  0.365893  0.582282  1
  Sc  Sc6  1  0.750000  0.147177  0.072929  1
  Sc  Sc7  1  0.250000  0.844190  0.918083  1
  Pt  Pt8  1  0.250000  0.752377  0.597489  1
  Au  Au9  1  0.250000  0.249174  0.896815  1
  Au  Au10  1  0.750000  0.747700  0.100388  1
  Au  Au11  1  0.750000  0.253325  0.396875  1
