# generated using pymatgen
data_Tb2Er3Tm3(SiBr6)2
_symmetry_space_group_name_H-M   'P 1'
_cell_length_a   4.02822400
_cell_length_b   13.17778971
_cell_length_c   13.92033637
_cell_angle_alpha   90.39766338
_cell_angle_beta   90.00000000
_cell_angle_gamma   90.00000000
_symmetry_Int_Tables_number   1
_chemical_formula_structural   Tb2Er3Tm3(SiBr6)2
_chemical_formula_sum   'Tb2 Er3 Tm3 Si2 Br12'
_cell_volume   738.91665366
_cell_formula_units_Z   1
loop_
 _symmetry_equiv_pos_site_id
 _symmetry_equiv_pos_as_xyz
  1  'x, y, z'
loop_
 _atom_site_type_symbol
 _atom_site_label
 _atom_site_symmetry_multiplicity
 _atom_site_fract_x
 _atom_site_fract_y
 _atom_site_fract_z
 _atom_site_occupancy
  Tb  Tb0  1  0.000000  0.619066  0.920600  1
  Tb  Tb1  1  0.000000  0.380987  0.079361  1
  Er  Er2  1  0.500000  0.117268  0.342383  1
  Er  Er3  1  0.000000  0.117173  0.578270  1
  Er  Er4  1  0.000000  0.882909  0.421649  1
  Tm  Tm5  1  0.500000  0.882714  0.657647  1
  Tm  Tm6  1  0.500000  0.618051  0.158518  1
  Tm  Tm7  1  0.500000  0.381957  0.841463  1
  Si  Si8  1  0.500000  0.999739  0.500389  1
  Si  Si9  1  0.500000  0.500028  0.999976  1
  Br  Br10  1  0.500000  0.241069  0.166119  1
  Br  Br11  1  0.500000  0.759243  0.833307  1
  Br  Br12  1  0.500000  0.746473  0.336258  1
  Br  Br13  1  0.500000  0.253490  0.663822  1
  Br  Br14  1  0.000000  0.254668  0.412379  1
  Br  Br15  1  0.000000  0.746130  0.588297  1
  Br  Br16  1  0.000000  0.755360  0.092903  1
  Br  Br17  1  0.000000  0.244648  0.907073  1
  Br  Br18  1  0.000000  0.001490  0.243631  1
  Br  Br19  1  0.000000  0.997532  0.755966  1
  Br  Br20  1  0.000000  0.506679  0.258936  1
  Br  Br21  1  0.000000  0.493325  0.741051  1
