# generated using pymatgen
data_Tb3Lu17(Cd3Tc)2
_symmetry_space_group_name_H-M   'P 1'
_cell_length_a   9.37487100
_cell_length_b   9.37487037
_cell_length_c   9.78263000
_cell_angle_alpha   90.00000000
_cell_angle_beta   90.00000000
_cell_angle_gamma   119.99999871
_symmetry_Int_Tables_number   1
_chemical_formula_structural   Tb3Lu17(Cd3Tc)2
_chemical_formula_sum   'Tb3 Lu17 Cd6 Tc2'
_cell_volume   744.58937860
_cell_formula_units_Z   1
loop_
 _symmetry_equiv_pos_site_id
 _symmetry_equiv_pos_as_xyz
  1  'x, y, z'
loop_
 _atom_site_type_symbol
 _atom_site_label
 _atom_site_symmetry_multiplicity
 _atom_site_fract_x
 _atom_site_fract_y
 _atom_site_fract_z
 _atom_site_occupancy
  Tb  Tb0  1  0.462476  0.537524  0.750000  1
  Tb  Tb1  1  0.462476  0.924951  0.750000  1
  Tb  Tb2  1  0.075049  0.537524  0.750000  1
  Lu  Lu3  1  0.000000  0.000000  0.499634  1
  Lu  Lu4  1  0.000000  0.000000  0.000366  1
  Lu  Lu5  1  0.210191  0.789809  0.441191  1
  Lu  Lu6  1  0.210191  0.420382  0.441191  1
  Lu  Lu7  1  0.579618  0.789809  0.441191  1
  Lu  Lu8  1  0.789035  0.210965  0.555378  1
  Lu  Lu9  1  0.789035  0.578070  0.555378  1
  Lu  Lu10  1  0.421930  0.210965  0.555378  1
  Lu  Lu11  1  0.789035  0.210965  0.944622  1
  Lu  Lu12  1  0.789035  0.578070  0.944622  1
  Lu  Lu13  1  0.421930  0.210965  0.944622  1
  Lu  Lu14  1  0.210191  0.789809  0.058809  1
  Lu  Lu15  1  0.210191  0.420382  0.058809  1
  Lu  Lu16  1  0.579618  0.789809  0.058809  1
  Lu  Lu17  1  0.538904  0.461096  0.250000  1
  Lu  Lu18  1  0.538904  0.077809  0.250000  1
  Lu  Lu19  1  0.922191  0.461096  0.250000  1
  Cd  Cd20  1  0.885364  0.114636  0.250000  1
  Cd  Cd21  1  0.885364  0.770730  0.250000  1
  Cd  Cd22  1  0.229270  0.114636  0.250000  1
  Cd  Cd23  1  0.112392  0.887608  0.750000  1
  Cd  Cd24  1  0.112392  0.224783  0.750000  1
  Cd  Cd25  1  0.775217  0.887608  0.750000  1
  Tc  Tc26  1  0.333333  0.666667  0.250000  1
  Tc  Tc27  1  0.666667  0.333333  0.750000  1
