# generated using pymatgen
data_Er2Zn8RuRh
_symmetry_space_group_name_H-M   'P 1'
_cell_length_a   5.15035500
_cell_length_b   5.15035452
_cell_length_c   8.34070000
_cell_angle_alpha   90.00000000
_cell_angle_beta   90.00000000
_cell_angle_gamma   119.99999668
_symmetry_Int_Tables_number   1
_chemical_formula_structural   Er2Zn8RuRh
_chemical_formula_sum   'Er2 Zn8 Ru1 Rh1'
_cell_volume   191.60526379
_cell_formula_units_Z   1
loop_
 _symmetry_equiv_pos_site_id
 _symmetry_equiv_pos_as_xyz
  1  'x, y, z'
loop_
 _atom_site_type_symbol
 _atom_site_label
 _atom_site_symmetry_multiplicity
 _atom_site_fract_x
 _atom_site_fract_y
 _atom_site_fract_z
 _atom_site_occupancy
  Er  Er0  1  0.666667  0.333333  0.432660  1
  Er  Er1  1  0.333333  0.666667  0.935143  1
  Zn  Zn2  1  0.000000  0.000000  0.002582  1
  Zn  Zn3  1  0.000000  0.000000  0.504020  1
  Zn  Zn4  1  0.170406  0.340810  0.247830  1
  Zn  Zn5  1  0.829093  0.170907  0.750568  1
  Zn  Zn6  1  0.341811  0.170907  0.750568  1
  Zn  Zn7  1  0.659190  0.829594  0.247830  1
  Zn  Zn8  1  0.170406  0.829594  0.247830  1
  Zn  Zn9  1  0.829093  0.658189  0.750568  1
  Ru  Ru10  1  0.666667  0.333333  0.064122  1
  Rh  Rh11  1  0.333333  0.666667  0.566279  1
