# generated using pymatgen
data_Pr2TlBr7
_symmetry_space_group_name_H-M   'P 1'
_cell_length_a   7.53537382
_cell_length_b   8.86822394
_cell_length_c   7.91901800
_cell_angle_alpha   70.32458106
_cell_angle_beta   61.87894545
_cell_angle_gamma   88.88807910
_symmetry_Int_Tables_number   1
_chemical_formula_structural   Pr2TlBr7
_chemical_formula_sum   'Pr2 Tl1 Br7'
_cell_volume   433.24711588
_cell_formula_units_Z   1
loop_
 _symmetry_equiv_pos_site_id
 _symmetry_equiv_pos_as_xyz
  1  'x, y, z'
loop_
 _atom_site_type_symbol
 _atom_site_label
 _atom_site_symmetry_multiplicity
 _atom_site_fract_x
 _atom_site_fract_y
 _atom_site_fract_z
 _atom_site_occupancy
  Pr  Pr0  1  0.613986  0.041194  0.164162  1
  Pr  Pr1  1  0.309508  0.046223  0.766663  1
  Tl  Tl2  1  0.777242  0.635312  0.793296  1
  Br  Br3  1  0.907546  0.815221  0.071514  1
  Br  Br4  1  0.430006  0.287357  0.347719  1
  Br  Br5  1  0.738240  0.998630  0.490567  1
  Br  Br6  1  0.263273  0.826469  0.568282  1
  Br  Br7  1  0.407875  0.814726  0.070291  1
  Br  Br8  1  0.011861  0.267801  0.891145  1
  Br  Br9  1  0.540466  0.267066  0.836359  1
