# generated using pymatgen
data_Zr4Ga18RuRh5
_symmetry_space_group_name_H-M   'P 1'
_cell_length_a   7.47709623
_cell_length_b   7.47709585
_cell_length_c   9.37347102
_cell_angle_alpha   89.99650393
_cell_angle_beta   89.99650685
_cell_angle_gamma   120.05177314
_symmetry_Int_Tables_number   1
_chemical_formula_structural   Zr4Ga18RuRh5
_chemical_formula_sum   'Zr4 Ga18 Ru1 Rh5'
_cell_volume   453.59700652
_cell_formula_units_Z   1
loop_
 _symmetry_equiv_pos_site_id
 _symmetry_equiv_pos_as_xyz
  1  'x, y, z'
loop_
 _atom_site_type_symbol
 _atom_site_label
 _atom_site_symmetry_multiplicity
 _atom_site_fract_x
 _atom_site_fract_y
 _atom_site_fract_z
 _atom_site_occupancy
  Zr  Zr0  1  0.996081  0.669639  0.249929  1
  Zr  Zr1  1  0.004663  0.330403  0.750622  1
  Zr  Zr2  1  0.669597  0.995337  0.249378  1
  Zr  Zr3  1  0.330361  0.003919  0.750071  1
  Ga  Ga4  1  0.331084  0.331364  0.572861  1
  Ga  Ga5  1  0.668636  0.668916  0.427139  1
  Ga  Ga6  1  0.668821  0.666881  0.070144  1
  Ga  Ga7  1  0.333119  0.331179  0.929856  1
  Ga  Ga8  1  0.335006  0.550281  0.249933  1
  Ga  Ga9  1  0.664101  0.448942  0.751081  1
  Ga  Ga10  1  0.551058  0.335899  0.248919  1
  Ga  Ga11  1  0.449719  0.664994  0.750067  1
  Ga  Ga12  1  0.995925  0.334088  0.079393  1
  Ga  Ga13  1  0.002378  0.665055  0.920745  1
  Ga  Ga14  1  0.003669  0.666350  0.580655  1
  Ga  Ga15  1  0.333650  0.996331  0.419345  1
  Ga  Ga16  1  0.996310  0.333953  0.420245  1
  Ga  Ga17  1  0.666047  0.003690  0.579755  1
  Ga  Ga18  1  0.665912  0.004075  0.920607  1
  Ga  Ga19  1  0.334945  0.997622  0.079255  1
  Ga  Ga20  1  0.123271  0.124285  0.250107  1
  Ga  Ga21  1  0.875715  0.876729  0.749893  1
  Ru  Ru22  1  0.672268  0.327732  0.000000  1
  Rh  Rh23  1  0.000032  0.999968  0.000000  1
  Rh  Rh24  1  0.000044  0.999956  0.500000  1
  Rh  Rh25  1  0.328070  0.671930  0.000000  1
  Rh  Rh26  1  0.328164  0.671836  0.500000  1
  Rh  Rh27  1  0.671352  0.328648  0.500000  1
