# generated using pymatgen
data_Rb6SrI8
_symmetry_space_group_name_H-M   'P 1'
_cell_length_a   10.53022667
_cell_length_b   10.53022627
_cell_length_c   10.53022700
_cell_angle_alpha   60.00000085
_cell_angle_beta   60.00000211
_cell_angle_gamma   60.00000377
_symmetry_Int_Tables_number   1
_chemical_formula_structural   Rb6SrI8
_chemical_formula_sum   'Rb6 Sr1 I8'
_cell_volume   825.65417394
_cell_formula_units_Z   1
loop_
 _symmetry_equiv_pos_site_id
 _symmetry_equiv_pos_as_xyz
  1  'x, y, z'
loop_
 _atom_site_type_symbol
 _atom_site_label
 _atom_site_symmetry_multiplicity
 _atom_site_fract_x
 _atom_site_fract_y
 _atom_site_fract_z
 _atom_site_occupancy
  Rb  Rb0  1  0.500000  0.500000  0.000000  1
  Rb  Rb1  1  0.000000  0.500000  0.000000  1
  Rb  Rb2  1  0.500000  0.000000  0.000000  1
  Rb  Rb3  1  0.000000  0.500000  0.500000  1
  Rb  Rb4  1  0.500000  0.000000  0.500000  1
  Rb  Rb5  1  0.000000  0.000000  0.500000  1
  Sr  Sr6  1  0.000000  0.000000  0.000000  1
  I  I7  1  0.777413  0.222587  0.777413  1
  I  I8  1  0.250000  0.250000  0.250000  1
  I  I9  1  0.750000  0.750000  0.750000  1
  I  I10  1  0.222587  0.777413  0.222587  1
  I  I11  1  0.222587  0.777413  0.777413  1
  I  I12  1  0.777413  0.222587  0.222587  1
  I  I13  1  0.777413  0.777413  0.222587  1
  I  I14  1  0.222587  0.222587  0.777413  1
