# generated using pymatgen
data_ErLu9(ZnIn3)2
_symmetry_space_group_name_H-M   'P 1'
_cell_length_a   8.96384500
_cell_length_b   8.97054300
_cell_length_c   6.60159300
_cell_angle_alpha   90.00000000
_cell_angle_beta   90.00000000
_cell_angle_gamma   119.97529986
_symmetry_Int_Tables_number   1
_chemical_formula_structural   ErLu9(ZnIn3)2
_chemical_formula_sum   'Er1 Lu9 Zn2 In6'
_cell_volume   459.83337362
_cell_formula_units_Z   1
loop_
 _symmetry_equiv_pos_site_id
 _symmetry_equiv_pos_as_xyz
  1  'x, y, z'
loop_
 _atom_site_type_symbol
 _atom_site_label
 _atom_site_symmetry_multiplicity
 _atom_site_fract_x
 _atom_site_fract_y
 _atom_site_fract_z
 _atom_site_occupancy
  Er  Er0  1  0.269773  0.000000  0.750000  1
  Lu  Lu1  1  0.334196  0.665629  0.500170  1
  Lu  Lu2  1  0.668568  0.334371  0.500170  1
  Lu  Lu3  1  0.668568  0.334371  0.999830  1
  Lu  Lu4  1  0.334196  0.665629  0.999830  1
  Lu  Lu5  1  0.721603  0.000000  0.250000  1
  Lu  Lu6  1  0.001771  0.272761  0.750000  1
  Lu  Lu7  1  0.001247  0.726629  0.250000  1
  Lu  Lu8  1  0.729009  0.727239  0.750000  1
  Lu  Lu9  1  0.274618  0.273371  0.250000  1
  Zn  Zn10  1  0.994969  0.000000  0.494528  1
  Zn  Zn11  1  0.994969  0.000000  0.005472  1
  In  In12  1  0.621371  0.000000  0.750000  1
  In  In13  1  0.380690  0.000000  0.250000  1
  In  In14  1  0.999694  0.617352  0.750000  1
  In  In15  1  0.000497  0.378578  0.250000  1
  In  In16  1  0.382341  0.382648  0.750000  1
  In  In17  1  0.621919  0.621422  0.250000  1
