# generated using pymatgen
data_Tb5Y3(CdNi)2
_symmetry_space_group_name_H-M   'P 1'
_cell_length_a   9.59168176
_cell_length_b   9.59168152
_cell_length_c   9.59168200
_cell_angle_alpha   59.99999834
_cell_angle_beta   59.99999917
_cell_angle_gamma   59.99999861
_symmetry_Int_Tables_number   1
_chemical_formula_structural   Tb5Y3(CdNi)2
_chemical_formula_sum   'Tb10 Y6 Cd4 Ni4'
_cell_volume   623.97799213
_cell_formula_units_Z   2
loop_
 _symmetry_equiv_pos_site_id
 _symmetry_equiv_pos_as_xyz
  1  'x, y, z'
loop_
 _atom_site_type_symbol
 _atom_site_label
 _atom_site_symmetry_multiplicity
 _atom_site_fract_x
 _atom_site_fract_y
 _atom_site_fract_z
 _atom_site_occupancy
  Tb  Tb0  1  0.598635  0.598635  0.598635  1
  Tb  Tb1  1  0.598635  0.598635  0.204095  1
  Tb  Tb2  1  0.598635  0.204095  0.598635  1
  Tb  Tb3  1  0.204095  0.598635  0.598635  1
  Tb  Tb4  1  0.060749  0.439251  0.439251  1
  Tb  Tb5  1  0.439251  0.060749  0.060749  1
  Tb  Tb6  1  0.439251  0.060749  0.439251  1
  Tb  Tb7  1  0.060749  0.439251  0.060749  1
  Tb  Tb8  1  0.439251  0.439251  0.060749  1
  Tb  Tb9  1  0.060749  0.060749  0.439251  1
  Y  Y10  1  0.186455  0.813545  0.813545  1
  Y  Y11  1  0.813545  0.186455  0.186455  1
  Y  Y12  1  0.813545  0.186455  0.813545  1
  Y  Y13  1  0.186455  0.813545  0.186455  1
  Y  Y14  1  0.813545  0.813545  0.186455  1
  Y  Y15  1  0.186455  0.186455  0.813545  1
  Cd  Cd16  1  0.831123  0.831123  0.831123  1
  Cd  Cd17  1  0.831123  0.831123  0.506630  1
  Cd  Cd18  1  0.831123  0.506630  0.831123  1
  Cd  Cd19  1  0.506630  0.831123  0.831123  1
  Ni  Ni20  1  0.392718  0.392718  0.392718  1
  Ni  Ni21  1  0.392718  0.392718  0.821846  1
  Ni  Ni22  1  0.392718  0.821846  0.392718  1
  Ni  Ni23  1  0.821846  0.392718  0.392718  1
