# generated using pymatgen
data_K4MnCr7F24
_symmetry_space_group_name_H-M   'P 1'
_cell_length_a   10.16932784
_cell_length_b   7.14987863
_cell_length_c   7.48635823
_cell_angle_alpha   87.78024208
_cell_angle_beta   89.17708536
_cell_angle_gamma   89.73213407
_symmetry_Int_Tables_number   1
_chemical_formula_structural   K4MnCr7F24
_chemical_formula_sum   'K4 Mn1 Cr7 F24'
_cell_volume   543.85988787
_cell_formula_units_Z   1
loop_
 _symmetry_equiv_pos_site_id
 _symmetry_equiv_pos_as_xyz
  1  'x, y, z'
loop_
 _atom_site_type_symbol
 _atom_site_label
 _atom_site_symmetry_multiplicity
 _atom_site_fract_x
 _atom_site_fract_y
 _atom_site_fract_z
 _atom_site_occupancy
  K  K0  1  0.112311  0.495443  0.247158  1
  K  K1  1  0.613040  0.000131  0.757515  1
  K  K2  1  0.888241  0.505462  0.753394  1
  K  K3  1  0.388014  0.991186  0.243008  1
  Mn  Mn4  1  0.732728  0.187064  0.250609  1
  Cr  Cr5  1  0.999170  0.000624  0.502495  1
  Cr  Cr6  1  0.500764  0.500108  0.497723  1
  Cr  Cr7  1  0.000128  0.001350  0.002953  1
  Cr  Cr8  1  0.498606  0.500379  0.997412  1
  Cr  Cr9  1  0.236644  0.318614  0.747730  1
  Cr  Cr10  1  0.261481  0.819246  0.748072  1
  Cr  Cr11  1  0.765902  0.681571  0.251724  1
  F  F12  1  0.830058  0.124818  0.987903  1
  F  F13  1  0.328099  0.381931  0.023846  1
  F  F14  1  0.168936  0.877626  0.024247  1
  F  F15  1  0.668976  0.617355  0.970282  1
  F  F16  1  0.180110  0.906937  0.499753  1
  F  F17  1  0.679899  0.594946  0.497704  1
  F  F18  1  0.818943  0.091862  0.506424  1
  F  F19  1  0.322865  0.400914  0.499073  1
  F  F20  1  0.660313  0.917615  0.244512  1
  F  F21  1  0.161446  0.577549  0.752991  1
  F  F22  1  0.338236  0.076402  0.753147  1
  F  F23  1  0.846450  0.426998  0.244841  1
  F  F24  1  0.989150  0.920031  0.756042  1
  F  F25  1  0.488627  0.582022  0.245446  1
  F  F26  1  0.010119  0.082347  0.249434  1
  F  F27  1  0.510156  0.416032  0.749936  1
  F  F28  1  0.914924  0.765131  0.067045  1
  F  F29  1  0.415647  0.738764  0.931415  1
  F  F30  1  0.084689  0.237392  0.933728  1
  F  F31  1  0.578597  0.261479  0.065353  1
  F  F32  1  0.436574  0.744702  0.556223  1
  F  F33  1  0.940060  0.753248  0.446767  1
  F  F34  1  0.569414  0.254965  0.436357  1
  F  F35  1  0.060686  0.247757  0.557740  1
