# generated using pymatgen
data_NaTa2Nb2Tl3P2O17
_symmetry_space_group_name_H-M   'P 1'
_cell_length_a   11.93337000
_cell_length_b   11.93336973
_cell_length_c   7.47781500
_cell_angle_alpha   90.00000000
_cell_angle_beta   90.00000000
_cell_angle_gamma   130.05342638
_symmetry_Int_Tables_number   1
_chemical_formula_structural   NaTa2Nb2Tl3P2O17
_chemical_formula_sum   'Na2 Ta4 Nb4 Tl6 P4 O34'
_cell_volume   815.10725403
_cell_formula_units_Z   2
loop_
 _symmetry_equiv_pos_site_id
 _symmetry_equiv_pos_as_xyz
  1  'x, y, z'
loop_
 _atom_site_type_symbol
 _atom_site_label
 _atom_site_symmetry_multiplicity
 _atom_site_fract_x
 _atom_site_fract_y
 _atom_site_fract_z
 _atom_site_occupancy
  Na  Na0  1  0.633193  0.632994  0.000229  1
  Na  Na1  1  0.633193  0.632994  0.499771  1
  Ta  Ta2  1  0.039981  0.348112  0.501086  1
  Ta  Ta3  1  0.146644  0.674379  0.750000  1
  Ta  Ta4  1  0.039981  0.348112  0.998914  1
  Ta  Ta5  1  0.680760  0.151027  0.250000  1
  Nb  Nb6  1  0.003344  0.003136  0.500325  1
  Nb  Nb7  1  0.349445  0.037769  0.001044  1
  Nb  Nb8  1  0.003344  0.003136  0.999675  1
  Nb  Nb9  1  0.349445  0.037769  0.498956  1
  Tl  Tl10  1  0.965155  0.688695  0.250000  1
  Tl  Tl11  1  0.318228  0.713765  0.250000  1
  Tl  Tl12  1  0.712725  0.317543  0.750000  1
  Tl  Tl13  1  0.310273  0.365794  0.250000  1
  Tl  Tl14  1  0.366755  0.308673  0.750000  1
  Tl  Tl15  1  0.689211  0.965791  0.750000  1
  P  P16  1  0.580584  0.350401  0.250000  1
  P  P17  1  0.863334  0.687738  0.750000  1
  P  P18  1  0.348740  0.579640  0.750000  1
  P  P19  1  0.687247  0.863420  0.250000  1
  O  O20  1  0.415447  0.114874  0.750000  1
  O  O21  1  0.509872  0.650508  0.750000  1
  O  O22  1  0.776530  0.900057  0.424271  1
  O  O23  1  0.191265  0.061295  0.959137  1
  O  O24  1  0.529821  0.073500  0.063353  1
  O  O25  1  0.191265  0.061295  0.540863  1
  O  O26  1  0.944592  0.000708  0.750000  1
  O  O27  1  0.484359  0.271755  0.079520  1
  O  O28  1  0.529821  0.073500  0.436647  1
  O  O29  1  0.776530  0.900057  0.075729  1
  O  O30  1  0.990247  0.285517  0.750000  1
  O  O31  1  0.112571  0.414385  0.250000  1
  O  O32  1  0.073233  0.528723  0.937732  1
  O  O33  1  0.839655  0.236289  0.068312  1
  O  O34  1  0.000795  0.945550  0.250000  1
  O  O35  1  0.268523  0.482667  0.579655  1
  O  O36  1  0.549555  0.701816  0.250000  1
  O  O37  1  0.059716  0.192498  0.459942  1
  O  O38  1  0.900449  0.777318  0.575801  1
  O  O39  1  0.900449  0.777318  0.924199  1
  O  O40  1  0.640679  0.960344  0.250000  1
  O  O41  1  0.333718  0.702124  0.750000  1
  O  O42  1  0.701858  0.550418  0.750000  1
  O  O43  1  0.283394  0.989781  0.250000  1
  O  O44  1  0.235660  0.838304  0.930470  1
  O  O45  1  0.059716  0.192498  0.040058  1
  O  O46  1  0.653911  0.512593  0.250000  1
  O  O47  1  0.484359  0.271755  0.420480  1
  O  O48  1  0.235660  0.838304  0.569530  1
  O  O49  1  0.839655  0.236289  0.431688  1
  O  O50  1  0.073233  0.528723  0.562268  1
  O  O51  1  0.959619  0.640528  0.750000  1
  O  O52  1  0.268523  0.482667  0.920345  1
  O  O53  1  0.702724  0.334140  0.250000  1
