# generated using pymatgen
data_DyHo15In4Ir3Pt
_symmetry_space_group_name_H-M   'P 1'
_cell_length_a   9.63846167
_cell_length_b   9.65058233
_cell_length_c   9.62757500
_cell_angle_alpha   60.07883540
_cell_angle_beta   60.03736005
_cell_angle_gamma   60.06304556
_symmetry_Int_Tables_number   1
_chemical_formula_structural   DyHo15In4Ir3Pt
_chemical_formula_sum   'Dy1 Ho15 In4 Ir3 Pt1'
_cell_volume   634.08973569
_cell_formula_units_Z   1
loop_
 _symmetry_equiv_pos_site_id
 _symmetry_equiv_pos_as_xyz
  1  'x, y, z'
loop_
 _atom_site_type_symbol
 _atom_site_label
 _atom_site_symmetry_multiplicity
 _atom_site_fract_x
 _atom_site_fract_y
 _atom_site_fract_z
 _atom_site_occupancy
  Dy  Dy0  1  0.439353  0.434746  0.062951  1
  Ho  Ho1  1  0.653006  0.648806  0.047573  1
  Ho  Ho2  1  0.188064  0.809177  0.193923  1
  Ho  Ho3  1  0.060584  0.438561  0.060706  1
  Ho  Ho4  1  0.188064  0.809177  0.808836  1
  Ho  Ho5  1  0.060584  0.438561  0.440149  1
  Ho  Ho6  1  0.810344  0.190964  0.190100  1
  Ho  Ho7  1  0.653006  0.648806  0.650617  1
  Ho  Ho8  1  0.810344  0.190964  0.808593  1
  Ho  Ho9  1  0.188023  0.194982  0.808497  1
  Ho  Ho10  1  0.046018  0.650834  0.651574  1
  Ho  Ho11  1  0.441085  0.059862  0.061202  1
  Ho  Ho12  1  0.060751  0.059361  0.439944  1
  Ho  Ho13  1  0.652092  0.051207  0.648351  1
  Ho  Ho14  1  0.810332  0.808671  0.190499  1
  Ho  Ho15  1  0.441085  0.059862  0.437851  1
  In  In16  1  0.416774  0.417521  0.416785  1
  In  In17  1  0.416774  0.417521  0.748921  1
  In  In18  1  0.416864  0.748948  0.417095  1
  In  In19  1  0.749135  0.416946  0.416960  1
  Ir  Ir20  1  0.857107  0.859964  0.858089  1
  Ir  Ir21  1  0.858346  0.424520  0.858567  1
  Ir  Ir22  1  0.857107  0.859964  0.424840  1
  Pt  Pt23  1  0.425157  0.860079  0.857381  1
