# generated using pymatgen
data_Tb2HoTh(Al3Ir)6
_symmetry_space_group_name_H-M   'P 1'
_cell_length_a   7.58040407
_cell_length_b   7.59123724
_cell_length_c   9.48450900
_cell_angle_alpha   90.00000000
_cell_angle_beta   90.00000000
_cell_angle_gamma   119.52357854
_symmetry_Int_Tables_number   1
_chemical_formula_structural   Tb2HoTh(Al3Ir)6
_chemical_formula_sum   'Tb2 Ho1 Th1 Al18 Ir6'
_cell_volume   474.91445049
_cell_formula_units_Z   1
loop_
 _symmetry_equiv_pos_site_id
 _symmetry_equiv_pos_as_xyz
  1  'x, y, z'
loop_
 _atom_site_type_symbol
 _atom_site_label
 _atom_site_symmetry_multiplicity
 _atom_site_fract_x
 _atom_site_fract_y
 _atom_site_fract_z
 _atom_site_occupancy
  Tb  Tb0  1  0.004145  0.329150  0.750000  1
  Tb  Tb1  1  0.671792  0.994810  0.250000  1
  Ho  Ho2  1  0.328287  0.004607  0.750000  1
  Th  Th3  1  0.995061  0.670726  0.250000  1
  Al  Al4  1  0.131410  0.132902  0.250000  1
  Al  Al5  1  0.871511  0.873653  0.750000  1
  Al  Al6  1  0.001639  0.331086  0.072222  1
  Al  Al7  1  0.999225  0.664842  0.918694  1
  Al  Al8  1  0.999225  0.664842  0.581306  1
  Al  Al9  1  0.339606  0.005132  0.428091  1
  Al  Al10  1  0.001639  0.331086  0.427778  1
  Al  Al11  1  0.664609  0.000104  0.575690  1
  Al  Al12  1  0.664609  0.000104  0.924310  1
  Al  Al13  1  0.339606  0.005132  0.071909  1
  Al  Al14  1  0.332606  0.332415  0.555305  1
  Al  Al15  1  0.662973  0.666172  0.453802  1
  Al  Al16  1  0.662973  0.666172  0.046198  1
  Al  Al17  1  0.332606  0.332415  0.944695  1
  Al  Al18  1  0.343815  0.547960  0.250000  1
  Al  Al19  1  0.657930  0.449321  0.750000  1
  Al  Al20  1  0.543900  0.337006  0.250000  1
  Al  Al21  1  0.450547  0.661087  0.750000  1
  Ir  Ir22  1  0.673113  0.329661  0.000340  1
  Ir  Ir23  1  0.326595  0.671556  0.000395  1
  Ir  Ir24  1  0.326595  0.671556  0.499605  1
  Ir  Ir25  1  0.673113  0.329661  0.499660  1
  Ir  Ir26  1  0.000435  0.998420  0.000586  1
  Ir  Ir27  1  0.000435  0.998420  0.499414  1
