# generated using pymatgen
data_Sm3Lu(B4Mo)4
_symmetry_space_group_name_H-M   'P 1'
_cell_length_a   3.65309900
_cell_length_b   6.06065973
_cell_length_c   11.71614463
_cell_angle_alpha   89.86841178
_cell_angle_beta   90.00000000
_cell_angle_gamma   90.00000000
_symmetry_Int_Tables_number   1
_chemical_formula_structural   Sm3Lu(B4Mo)4
_chemical_formula_sum   'Sm3 Lu1 B16 Mo4'
_cell_volume   259.39698416
_cell_formula_units_Z   1
loop_
 _symmetry_equiv_pos_site_id
 _symmetry_equiv_pos_as_xyz
  1  'x, y, z'
loop_
 _atom_site_type_symbol
 _atom_site_label
 _atom_site_symmetry_multiplicity
 _atom_site_fract_x
 _atom_site_fract_y
 _atom_site_fract_z
 _atom_site_occupancy
  Sm  Sm0  1  0.000000  0.626443  0.349891  1
  Sm  Sm1  1  0.000000  0.373585  0.650867  1
  Sm  Sm2  1  0.000000  0.126378  0.149576  1
  Lu  Lu3  1  0.000000  0.873554  0.850687  1
  B  B4  1  0.500000  0.784440  0.184633  1
  B  B5  1  0.500000  0.211602  0.814850  1
  B  B6  1  0.500000  0.284425  0.314397  1
  B  B7  1  0.500000  0.716155  0.687833  1
  B  B8  1  0.500000  0.866111  0.029662  1
  B  B9  1  0.500000  0.133355  0.966262  1
  B  B10  1  0.500000  0.365070  0.468551  1
  B  B11  1  0.500000  0.635294  0.533013  1
  B  B12  1  0.500000  0.886822  0.453976  1
  B  B13  1  0.500000  0.112079  0.547912  1
  B  B14  1  0.500000  0.388026  0.045344  1
  B  B15  1  0.500000  0.616206  0.950967  1
  B  B16  1  0.500000  0.975657  0.307851  1
  B  B17  1  0.500000  0.021905  0.695047  1
  B  B18  1  0.500000  0.475917  0.191457  1
  B  B19  1  0.500000  0.526466  0.807408  1
  Mo  Mo20  1  0.000000  0.629886  0.081621  1
  Mo  Mo21  1  0.000000  0.371198  0.915574  1
  Mo  Mo22  1  0.000000  0.128504  0.417384  1
  Mo  Mo23  1  0.000000  0.870920  0.585234  1
