# generated using pymatgen
data_Be2Nb10Ga5Ge
_symmetry_space_group_name_H-M   'P 1'
_cell_length_a   7.85983615
_cell_length_b   7.86644910
_cell_length_c   5.41131200
_cell_angle_alpha   90.00000000
_cell_angle_beta   90.00000000
_cell_angle_gamma   120.02783114
_symmetry_Int_Tables_number   1
_chemical_formula_structural   Be2Nb10Ga5Ge
_chemical_formula_sum   'Be2 Nb10 Ga5 Ge1'
_cell_volume   289.67003491
_cell_formula_units_Z   1
loop_
 _symmetry_equiv_pos_site_id
 _symmetry_equiv_pos_as_xyz
  1  'x, y, z'
loop_
 _atom_site_type_symbol
 _atom_site_label
 _atom_site_symmetry_multiplicity
 _atom_site_fract_x
 _atom_site_fract_y
 _atom_site_fract_z
 _atom_site_occupancy
  Be  Be0  1  0.000000  0.998896  0.498192  1
  Be  Be1  1  0.000000  0.998896  0.001808  1
  Nb  Nb2  1  0.667667  0.333737  0.499490  1
  Nb  Nb3  1  0.332333  0.666071  0.499490  1
  Nb  Nb4  1  0.332333  0.666071  0.000510  1
  Nb  Nb5  1  0.667667  0.333737  0.000510  1
  Nb  Nb6  1  0.740942  0.740601  0.250000  1
  Nb  Nb7  1  0.259058  0.999659  0.250000  1
  Nb  Nb8  1  0.000000  0.259071  0.250000  1
  Nb  Nb9  1  0.257058  0.258218  0.750000  1
  Nb  Nb10  1  0.742942  0.001160  0.750000  1
  Nb  Nb11  1  0.000000  0.741085  0.750000  1
  Ga  Ga12  1  0.391047  0.390281  0.250000  1
  Ga  Ga13  1  0.608953  0.999235  0.250000  1
  Ga  Ga14  1  0.000000  0.611181  0.250000  1
  Ga  Ga15  1  0.609145  0.609643  0.750000  1
  Ga  Ga16  1  0.390855  0.000498  0.750000  1
  Ge  Ge17  1  0.000000  0.391958  0.750000  1
