# generated using pymatgen
data_Sc12Zn2CdI16
_symmetry_space_group_name_H-M   'P 1'
_cell_length_a   9.30286623
_cell_length_b   12.27012699
_cell_length_c   12.92913500
_cell_angle_alpha   116.85436966
_cell_angle_beta   101.14929801
_cell_angle_gamma   100.54010382
_symmetry_Int_Tables_number   1
_chemical_formula_structural   Sc12Zn2CdI16
_chemical_formula_sum   'Sc12 Zn2 Cd1 I16'
_cell_volume   1228.69751126
_cell_formula_units_Z   1
loop_
 _symmetry_equiv_pos_site_id
 _symmetry_equiv_pos_as_xyz
  1  'x, y, z'
loop_
 _atom_site_type_symbol
 _atom_site_label
 _atom_site_symmetry_multiplicity
 _atom_site_fract_x
 _atom_site_fract_y
 _atom_site_fract_z
 _atom_site_occupancy
  Sc  Sc0  1  0.096379  0.267882  0.357840  1
  Sc  Sc1  1  0.903621  0.732118  0.642160  1
  Sc  Sc2  1  0.771802  0.536607  0.327185  1
  Sc  Sc3  1  0.228198  0.463393  0.672815  1
  Sc  Sc4  1  0.284890  0.732407  0.641856  1
  Sc  Sc5  1  0.715110  0.267593  0.358144  1
  Sc  Sc6  1  0.153135  0.536932  0.327102  1
  Sc  Sc7  1  0.846865  0.463068  0.672898  1
  Sc  Sc8  1  0.409903  0.366225  0.284400  1
  Sc  Sc9  1  0.590097  0.633775  0.715600  1
  Sc  Sc10  1  0.460967  0.315902  0.521144  1
  Sc  Sc11  1  0.539033  0.684098  0.478856  1
  Zn  Zn12  1  0.338166  0.500150  0.499932  1
  Zn  Zn13  1  0.661835  0.499850  0.500068  1
  Cd  Cd14  1  0.000000  0.500000  0.500000  1
  I  I15  1  0.393863  0.731150  0.872168  1
  I  I16  1  0.606137  0.268850  0.127832  1
  I  I17  1  0.182051  0.949492  0.774594  1
  I  I18  1  0.817949  0.050508  0.225406  1
  I  I19  1  0.341065  0.107422  0.260281  1
  I  I20  1  0.658935  0.892578  0.739719  1
  I  I21  1  0.562483  0.437343  0.791853  1
  I  I22  1  0.437517  0.562657  0.208147  1
  I  I23  1  0.305354  0.818231  0.463167  1
  I  I24  1  0.694646  0.181769  0.536833  1
  I  I25  1  0.170717  0.182171  0.536443  1
  I  I26  1  0.829283  0.817829  0.463557  1
  I  I27  1  0.927309  0.571995  0.166432  1
  I  I28  1  0.072691  0.428005  0.833568  1
  I  I29  1  0.917268  0.730690  0.872267  1
  I  I30  1  0.082732  0.269310  0.127733  1
