# generated using pymatgen
data_MgGa2Pd7
_symmetry_space_group_name_H-M   'P 1'
_cell_length_a   7.34061341
_cell_length_b   7.34061388
_cell_length_c   5.53786772
_cell_angle_alpha   72.64747422
_cell_angle_beta   72.64747538
_cell_angle_gamma   32.71577126
_symmetry_Int_Tables_number   1
_chemical_formula_structural   MgGa2Pd7
_chemical_formula_sum   'Mg1 Ga2 Pd7'
_cell_volume   153.29094829
_cell_formula_units_Z   1
loop_
 _symmetry_equiv_pos_site_id
 _symmetry_equiv_pos_as_xyz
  1  'x, y, z'
loop_
 _atom_site_type_symbol
 _atom_site_label
 _atom_site_symmetry_multiplicity
 _atom_site_fract_x
 _atom_site_fract_y
 _atom_site_fract_z
 _atom_site_occupancy
  Mg  Mg0  1  0.000000  0.000000  0.000000  1
  Ga  Ga1  1  0.189323  0.189323  0.346363  1
  Ga  Ga2  1  0.810677  0.810677  0.653637  1
  Pd  Pd3  1  0.000000  0.000000  0.500000  1
  Pd  Pd4  1  0.209389  0.209389  0.856868  1
  Pd  Pd5  1  0.790611  0.790611  0.143132  1
  Pd  Pd6  1  0.378919  0.378919  0.363721  1
  Pd  Pd7  1  0.621081  0.621081  0.636279  1
  Pd  Pd8  1  0.409664  0.409664  0.841533  1
  Pd  Pd9  1  0.590336  0.590336  0.158467  1
