# generated using pymatgen
data_Ca10Cd2Cu2NiIr
_symmetry_space_group_name_H-M   'P 1'
_cell_length_a   9.17561519
_cell_length_b   9.17561520
_cell_length_c   9.26380702
_cell_angle_alpha   129.75130305
_cell_angle_beta   129.75130067
_cell_angle_gamma   73.06987211
_symmetry_Int_Tables_number   1
_chemical_formula_structural   Ca10Cd2Cu2NiIr
_chemical_formula_sum   'Ca10 Cd2 Cu2 Ni1 Ir1'
_cell_volume   451.78568666
_cell_formula_units_Z   1
loop_
 _symmetry_equiv_pos_site_id
 _symmetry_equiv_pos_as_xyz
  1  'x, y, z'
loop_
 _atom_site_type_symbol
 _atom_site_label
 _atom_site_symmetry_multiplicity
 _atom_site_fract_x
 _atom_site_fract_y
 _atom_site_fract_z
 _atom_site_occupancy
  Ca  Ca0  1  0.530405  0.026072  0.826211  1
  Ca  Ca1  1  0.204195  0.699861  0.173789  1
  Ca  Ca2  1  0.040415  0.189936  0.500000  1
  Ca  Ca3  1  0.685894  0.547568  0.500000  1
  Ca  Ca4  1  0.473928  0.969595  0.173789  1
  Ca  Ca5  1  0.800139  0.295805  0.826211  1
  Ca  Ca6  1  0.952432  0.814106  0.500000  1
  Ca  Ca7  1  0.310064  0.459585  0.500000  1
  Ca  Ca8  1  0.501291  0.503062  0.004354  1
  Ca  Ca9  1  0.996938  0.998709  0.995646  1
  Cd  Cd10  1  0.253032  0.246968  0.000000  1
  Cd  Cd11  1  0.753032  0.746968  0.000000  1
  Cu  Cu12  1  0.111892  0.612074  0.723965  1
  Cu  Cu13  1  0.887926  0.388108  0.276035  1
  Ni  Ni14  1  0.383854  0.116146  0.500000  1
  Ir  Ir15  1  0.614565  0.885435  0.500000  1
