# generated using pymatgen
data_Nd2Cd3InPd2
_symmetry_space_group_name_H-M   'P 1'
_cell_length_a   5.55388311
_cell_length_b   5.55388337
_cell_length_c   8.37028037
_cell_angle_alpha   89.85396215
_cell_angle_beta   90.14603792
_cell_angle_gamma   133.78264640
_symmetry_Int_Tables_number   1
_chemical_formula_structural   Nd2Cd3InPd2
_chemical_formula_sum   'Nd2 Cd3 In1 Pd2'
_cell_volume   186.40213279
_cell_formula_units_Z   1
loop_
 _symmetry_equiv_pos_site_id
 _symmetry_equiv_pos_as_xyz
  1  'x, y, z'
loop_
 _atom_site_type_symbol
 _atom_site_label
 _atom_site_symmetry_multiplicity
 _atom_site_fract_x
 _atom_site_fract_y
 _atom_site_fract_z
 _atom_site_occupancy
  Nd  Nd0  1  0.934186  0.065814  0.244173  1
  Nd  Nd1  1  0.065519  0.934481  0.754517  1
  Cd  Cd2  1  0.358787  0.641213  0.553359  1
  Cd  Cd3  1  0.643163  0.356837  0.047924  1
  Cd  Cd4  1  0.356960  0.643040  0.950134  1
  In  In5  1  0.644972  0.355028  0.449254  1
  Pd  Pd6  1  0.222061  0.777939  0.253821  1
  Pd  Pd7  1  0.774352  0.225648  0.746818  1
