# generated using pymatgen
data_RbSr2Cd2Sb3
_symmetry_space_group_name_H-M   'P 1'
_cell_length_a   4.94459000
_cell_length_b   12.99666300
_cell_length_c   16.61989600
_cell_angle_alpha   90.00000000
_cell_angle_beta   90.00000000
_cell_angle_gamma   90.00000000
_symmetry_Int_Tables_number   1
_chemical_formula_structural   RbSr2Cd2Sb3
_chemical_formula_sum   'Rb4 Sr8 Cd8 Sb12'
_cell_volume   1068.04720042
_cell_formula_units_Z   4
loop_
 _symmetry_equiv_pos_site_id
 _symmetry_equiv_pos_as_xyz
  1  'x, y, z'
loop_
 _atom_site_type_symbol
 _atom_site_label
 _atom_site_symmetry_multiplicity
 _atom_site_fract_x
 _atom_site_fract_y
 _atom_site_fract_z
 _atom_site_occupancy
  Rb  Rb0  1  0.750000  0.090017  0.040655  1
  Rb  Rb1  1  0.750000  0.590017  0.459345  1
  Rb  Rb2  1  0.250000  0.909983  0.959345  1
  Rb  Rb3  1  0.250000  0.409983  0.540655  1
  Sr  Sr4  1  0.750000  0.402206  0.923175  1
  Sr  Sr5  1  0.750000  0.902206  0.576825  1
  Sr  Sr6  1  0.250000  0.597794  0.076825  1
  Sr  Sr7  1  0.250000  0.097794  0.423175  1
  Sr  Sr8  1  0.750000  0.140866  0.777755  1
  Sr  Sr9  1  0.750000  0.640866  0.722245  1
  Sr  Sr10  1  0.250000  0.859134  0.222245  1
  Sr  Sr11  1  0.250000  0.359134  0.277755  1
  Cd  Cd12  1  0.750000  0.201681  0.574635  1
  Cd  Cd13  1  0.750000  0.701681  0.925365  1
  Cd  Cd14  1  0.250000  0.798319  0.425365  1
  Cd  Cd15  1  0.250000  0.298319  0.074635  1
  Cd  Cd16  1  0.750000  0.122747  0.279324  1
  Cd  Cd17  1  0.750000  0.622747  0.220676  1
  Cd  Cd18  1  0.250000  0.877253  0.720676  1
  Cd  Cd19  1  0.250000  0.377253  0.779324  1
  Sb  Sb20  1  0.750000  0.416221  0.127605  1
  Sb  Sb21  1  0.750000  0.916221  0.372395  1
  Sb  Sb22  1  0.250000  0.583779  0.872395  1
  Sb  Sb23  1  0.250000  0.083779  0.627605  1
  Sb  Sb24  1  0.750000  0.383042  0.690810  1
  Sb  Sb25  1  0.750000  0.883042  0.809190  1
  Sb  Sb26  1  0.250000  0.616958  0.309190  1
  Sb  Sb27  1  0.250000  0.116958  0.190810  1
  Sb  Sb28  1  0.750000  0.782619  0.090356  1
  Sb  Sb29  1  0.750000  0.282619  0.409644  1
  Sb  Sb30  1  0.250000  0.217381  0.909644  1
  Sb  Sb31  1  0.250000  0.717381  0.590356  1
