# generated using pymatgen
data_Tb3YErRu2
_symmetry_space_group_name_H-M   'P 1'
_cell_length_a   6.36530333
_cell_length_b   7.29926125
_cell_length_c   8.50142537
_cell_angle_alpha   96.70001659
_cell_angle_beta   111.98518522
_cell_angle_gamma   90.00000041
_symmetry_Int_Tables_number   1
_chemical_formula_structural   Tb3YErRu2
_chemical_formula_sum   'Tb6 Y2 Er2 Ru4'
_cell_volume   363.35894080
_cell_formula_units_Z   2
loop_
 _symmetry_equiv_pos_site_id
 _symmetry_equiv_pos_as_xyz
  1  'x, y, z'
loop_
 _atom_site_type_symbol
 _atom_site_label
 _atom_site_symmetry_multiplicity
 _atom_site_fract_x
 _atom_site_fract_y
 _atom_site_fract_z
 _atom_site_occupancy
  Tb  Tb0  1  0.207113  0.415517  0.185646  1
  Tb  Tb1  1  0.021467  0.084483  0.814354  1
  Tb  Tb2  1  0.206993  0.685461  0.567264  1
  Tb  Tb3  1  0.639728  0.814539  0.432736  1
  Tb  Tb4  1  0.793295  0.314805  0.432989  1
  Tb  Tb5  1  0.360307  0.185195  0.567011  1
  Y  Y6  1  0.792551  0.583530  0.814514  1
  Y  Y7  1  0.978038  0.916470  0.185486  1
  Er  Er8  1  0.422137  0.750000  0.000000  1
  Er  Er9  1  0.577573  0.250000  0.000000  1
  Ru  Ru10  1  0.602298  0.926218  0.781104  1
  Ru  Ru11  1  0.821194  0.573782  0.218896  1
  Ru  Ru12  1  0.398155  0.075800  0.219005  1
  Ru  Ru13  1  0.179152  0.424200  0.780995  1
