# generated using pymatgen
data_Nd2Sm4PtI10
_symmetry_space_group_name_H-M   'P 1'
_cell_length_a   7.90846781
_cell_length_b   9.94926668
_cell_length_c   10.03542180
_cell_angle_alpha   107.39972759
_cell_angle_beta   96.75790003
_cell_angle_gamma   105.11721995
_symmetry_Int_Tables_number   1
_chemical_formula_structural   Nd2Sm4PtI10
_chemical_formula_sum   'Nd2 Sm4 Pt1 I10'
_cell_volume   710.81830911
_cell_formula_units_Z   1
loop_
 _symmetry_equiv_pos_site_id
 _symmetry_equiv_pos_as_xyz
  1  'x, y, z'
loop_
 _atom_site_type_symbol
 _atom_site_label
 _atom_site_symmetry_multiplicity
 _atom_site_fract_x
 _atom_site_fract_y
 _atom_site_fract_z
 _atom_site_occupancy
  Nd  Nd0  1  0.881723  0.958128  0.245032  1
  Nd  Nd1  1  0.118277  0.041872  0.754968  1
  Sm  Sm2  1  0.351772  0.127037  0.166017  1
  Sm  Sm3  1  0.648228  0.872963  0.833983  1
  Sm  Sm4  1  0.970538  0.289213  0.087683  1
  Sm  Sm5  1  0.029462  0.710787  0.912317  1
  Pt  Pt6  1  0.000000  0.000000  0.000000  1
  I  I7  1  0.354546  0.452959  0.271542  1
  I  I8  1  0.645454  0.547041  0.728458  1
  I  I9  1  0.915449  0.627469  0.177502  1
  I  I10  1  0.084551  0.372531  0.822498  1
  I  I11  1  0.450934  0.816662  0.089827  1
  I  I12  1  0.549066  0.183338  0.910173  1
  I  I13  1  0.264057  0.087855  0.458425  1
  I  I14  1  0.735943  0.912145  0.541575  1
  I  I15  1  0.779081  0.260674  0.345127  1
  I  I16  1  0.220919  0.739326  0.654873  1
