# generated using pymatgen
data_Sr4Al2CrCuH20
_symmetry_space_group_name_H-M   'P 1'
_cell_length_a   4.52930472
_cell_length_b   5.10652235
_cell_length_c   12.37371283
_cell_angle_alpha   94.34529300
_cell_angle_beta   90.50476780
_cell_angle_gamma   90.47927513
_symmetry_Int_Tables_number   1
_chemical_formula_structural   Sr4Al2CrCuH20
_chemical_formula_sum   'Sr4 Al2 Cr1 Cu1 H20'
_cell_volume   285.34612620
_cell_formula_units_Z   1
loop_
 _symmetry_equiv_pos_site_id
 _symmetry_equiv_pos_as_xyz
  1  'x, y, z'
loop_
 _atom_site_type_symbol
 _atom_site_label
 _atom_site_symmetry_multiplicity
 _atom_site_fract_x
 _atom_site_fract_y
 _atom_site_fract_z
 _atom_site_occupancy
  Sr  Sr0  1  0.276098  0.176500  0.657096  1
  Sr  Sr1  1  0.777070  0.320411  0.336422  1
  Sr  Sr2  1  0.220225  0.786384  0.145652  1
  Sr  Sr3  1  0.745646  0.712915  0.854840  1
  Al  Al4  1  0.174685  0.846970  0.408858  1
  Al  Al5  1  0.671193  0.649182  0.585002  1
  Cr  Cr6  1  0.759663  0.268025  0.057187  1
  Cu  Cu7  1  0.278313  0.210746  0.918237  1
  H  H8  1  0.526579  0.389029  0.508723  1
  H  H9  1  0.023678  0.104261  0.482046  1
  H  H10  1  0.950401  0.512266  0.013619  1
  H  H11  1  0.513148  0.040576  0.010418  1
  H  H12  1  0.256664  0.950825  0.831152  1
  H  H13  1  0.672868  0.496498  0.155153  1
  H  H14  1  0.316031  0.056344  0.318170  1
  H  H15  1  0.813659  0.440465  0.676789  1
  H  H16  1  0.248630  0.449559  0.835269  1
  H  H17  1  0.700414  0.057889  0.152341  1
  H  H18  1  0.294877  0.573422  0.331475  1
  H  H19  1  0.797670  0.925521  0.660972  1
  H  H20  1  0.747715  0.247661  0.925036  1
  H  H21  1  0.042250  0.293870  0.143290  1
  H  H22  1  0.868174  0.822461  0.320036  1
  H  H23  1  0.363347  0.670865  0.664801  1
  H  H24  1  0.002248  0.047322  0.004861  1
  H  H25  1  0.492105  0.451059  0.012086  1
  H  H26  1  0.486007  0.868657  0.496044  1
  H  H27  1  0.980643  0.630320  0.494426  1
