# generated using pymatgen
data_Ca5GeP11Ir19
_symmetry_space_group_name_H-M   'P 1'
_cell_length_a   12.62614700
_cell_length_b   12.61993355
_cell_length_c   3.96066100
_cell_angle_alpha   90.00000000
_cell_angle_beta   90.00000000
_cell_angle_gamma   119.98372469
_symmetry_Int_Tables_number   1
_chemical_formula_structural   Ca5GeP11Ir19
_chemical_formula_sum   'Ca5 Ge1 P11 Ir19'
_cell_volume   546.63497357
_cell_formula_units_Z   1
loop_
 _symmetry_equiv_pos_site_id
 _symmetry_equiv_pos_as_xyz
  1  'x, y, z'
loop_
 _atom_site_type_symbol
 _atom_site_label
 _atom_site_symmetry_multiplicity
 _atom_site_fract_x
 _atom_site_fract_y
 _atom_site_fract_z
 _atom_site_occupancy
  Ca  Ca0  1  0.330837  0.664797  0.500000  1
  Ca  Ca1  1  0.669163  0.333958  0.500000  1
  Ca  Ca2  1  0.000000  0.820356  0.000000  1
  Ca  Ca3  1  0.182502  0.180147  0.000000  1
  Ca  Ca4  1  0.817498  0.997645  0.000000  1
  Ge  Ge5  1  0.000000  0.643597  0.500000  1
  P  P6  1  0.357524  0.358062  0.500000  1
  P  P7  1  0.642476  0.000537  0.500000  1
  P  P8  1  0.511831  0.689437  0.000000  1
  P  P9  1  0.311141  0.825978  0.000000  1
  P  P10  1  0.169125  0.481597  0.000000  1
  P  P11  1  0.488169  0.177604  0.000000  1
  P  P12  1  0.688859  0.514837  0.000000  1
  P  P13  1  0.830875  0.312471  0.000000  1
  P  P14  1  0.000000  0.175512  0.500000  1
  P  P15  1  0.816834  0.818598  0.500000  1
  P  P16  1  0.183166  0.001763  0.500000  1
  Ir  Ir17  1  0.508938  0.873167  0.000000  1
  Ir  Ir18  1  0.131367  0.638561  0.000000  1
  Ir  Ir19  1  0.357869  0.491606  0.000000  1
  Ir  Ir20  1  0.491062  0.364228  0.000000  1
  Ir  Ir21  1  0.868633  0.507193  0.000000  1
  Ir  Ir22  1  0.642131  0.133737  0.000000  1
  Ir  Ir23  1  0.000000  0.449920  0.500000  1
  Ir  Ir24  1  0.535317  0.542262  0.500000  1
  Ir  Ir25  1  0.464683  0.006946  0.500000  1
  Ir  Ir26  1  0.000000  0.282609  0.000000  1
  Ir  Ir27  1  0.707391  0.712022  0.000000  1
  Ir  Ir28  1  0.292609  0.004630  0.000000  1
  Ir  Ir29  1  0.620009  0.804263  0.500000  1
  Ir  Ir30  1  0.208139  0.826868  0.500000  1
  Ir  Ir31  1  0.179995  0.373074  0.500000  1
  Ir  Ir32  1  0.379991  0.184254  0.500000  1
  Ir  Ir33  1  0.791861  0.618729  0.500000  1
  Ir  Ir34  1  0.820005  0.193079  0.500000  1
  Ir  Ir35  1  0.000000  0.995956  0.500000  1
