# generated using pymatgen
data_Np3ScBi3Sb2
_symmetry_space_group_name_H-M   'P 1'
_cell_length_a   9.48426093
_cell_length_b   9.39914445
_cell_length_c   6.37206100
_cell_angle_alpha   90.00000000
_cell_angle_beta   90.00000000
_cell_angle_gamma   119.70357027
_symmetry_Int_Tables_number   1
_chemical_formula_structural   Np3ScBi3Sb2
_chemical_formula_sum   'Np6 Sc2 Bi6 Sb4'
_cell_volume   493.39175442
_cell_formula_units_Z   2
loop_
 _symmetry_equiv_pos_site_id
 _symmetry_equiv_pos_as_xyz
  1  'x, y, z'
loop_
 _atom_site_type_symbol
 _atom_site_label
 _atom_site_symmetry_multiplicity
 _atom_site_fract_x
 _atom_site_fract_y
 _atom_site_fract_z
 _atom_site_occupancy
  Np  Np0  1  0.369810  0.998255  0.750000  1
  Np  Np1  1  0.369810  0.371555  0.250000  1
  Np  Np2  1  0.006690  0.619628  0.250000  1
  Np  Np3  1  0.006690  0.387062  0.750000  1
  Np  Np4  1  0.618592  0.613139  0.750000  1
  Np  Np5  1  0.618592  0.005453  0.250000  1
  Sc  Sc6  1  0.005771  0.002885  0.000000  1
  Sc  Sc7  1  0.005771  0.002885  0.500000  1
  Bi  Bi8  1  0.667002  0.333501  0.500000  1
  Bi  Bi9  1  0.336902  0.668451  0.000000  1
  Bi  Bi10  1  0.731515  0.000802  0.750000  1
  Bi  Bi11  1  0.731515  0.730713  0.250000  1
  Bi  Bi12  1  0.336902  0.668451  0.500000  1
  Bi  Bi13  1  0.667002  0.333501  0.000000  1
  Sb  Sb14  1  0.265889  0.998575  0.250000  1
  Sb  Sb15  1  0.265889  0.267314  0.750000  1
  Sb  Sb16  1  0.997829  0.730755  0.750000  1
  Sb  Sb17  1  0.997829  0.267074  0.250000  1
