# generated using pymatgen
data_YLu3Zn4Si3Ge
_symmetry_space_group_name_H-M   'P 1'
_cell_length_a   4.15851000
_cell_length_b   4.15851110
_cell_length_c   15.25473000
_cell_angle_alpha   90.00000000
_cell_angle_beta   90.00000000
_cell_angle_gamma   120.00000712
_symmetry_Int_Tables_number   1
_chemical_formula_structural   YLu3Zn4Si3Ge
_chemical_formula_sum   'Y1 Lu3 Zn4 Si3 Ge1'
_cell_volume   228.46029935
_cell_formula_units_Z   1
loop_
 _symmetry_equiv_pos_site_id
 _symmetry_equiv_pos_as_xyz
  1  'x, y, z'
loop_
 _atom_site_type_symbol
 _atom_site_label
 _atom_site_symmetry_multiplicity
 _atom_site_fract_x
 _atom_site_fract_y
 _atom_site_fract_z
 _atom_site_occupancy
  Y  Y0  1  0.000000  0.000000  0.000586  1
  Lu  Lu1  1  0.000000  0.000000  0.749774  1
  Lu  Lu2  1  0.000000  0.000000  0.252105  1
  Lu  Lu3  1  0.000000  0.000000  0.498098  1
  Zn  Zn4  1  0.666667  0.333333  0.854918  1
  Zn  Zn5  1  0.666667  0.333333  0.646409  1
  Zn  Zn6  1  0.333333  0.666667  0.145829  1
  Zn  Zn7  1  0.333333  0.666667  0.357324  1
  Si  Si8  1  0.666667  0.333333  0.120694  1
  Si  Si9  1  0.666667  0.333333  0.383601  1
  Si  Si10  1  0.333333  0.666667  0.879629  1
  Ge  Ge11  1  0.333333  0.666667  0.611034  1
