# generated using pymatgen
data_Dy4CoAg
_symmetry_space_group_name_H-M   'P 1'
_cell_length_a   9.41781695
_cell_length_b   9.41781656
_cell_length_c   9.41781700
_cell_angle_alpha   60.00000196
_cell_angle_beta   60.00000333
_cell_angle_gamma   59.99999882
_symmetry_Int_Tables_number   1
_chemical_formula_structural   Dy4CoAg
_chemical_formula_sum   'Dy16 Co4 Ag4'
_cell_volume   590.65751625
_cell_formula_units_Z   4
loop_
 _symmetry_equiv_pos_site_id
 _symmetry_equiv_pos_as_xyz
  1  'x, y, z'
loop_
 _atom_site_type_symbol
 _atom_site_label
 _atom_site_symmetry_multiplicity
 _atom_site_fract_x
 _atom_site_fract_y
 _atom_site_fract_z
 _atom_site_occupancy
  Dy  Dy0  1  0.152733  0.541800  0.152733  1
  Dy  Dy1  1  0.688155  0.311845  0.688155  1
  Dy  Dy2  1  0.688155  0.311845  0.311845  1
  Dy  Dy3  1  0.937660  0.562340  0.562340  1
  Dy  Dy4  1  0.541800  0.152733  0.152733  1
  Dy  Dy5  1  0.152733  0.152733  0.541800  1
  Dy  Dy6  1  0.937660  0.937660  0.562340  1
  Dy  Dy7  1  0.311845  0.688155  0.311845  1
  Dy  Dy8  1  0.562340  0.937660  0.937660  1
  Dy  Dy9  1  0.562340  0.937660  0.562340  1
  Dy  Dy10  1  0.688155  0.688155  0.311845  1
  Dy  Dy11  1  0.562340  0.562340  0.937660  1
  Dy  Dy12  1  0.937660  0.562340  0.937660  1
  Dy  Dy13  1  0.311845  0.688155  0.688155  1
  Dy  Dy14  1  0.152733  0.152733  0.152733  1
  Dy  Dy15  1  0.311845  0.311845  0.688155  1
  Co  Co16  1  0.359017  0.359017  0.922949  1
  Co  Co17  1  0.359017  0.922949  0.359017  1
  Co  Co18  1  0.922949  0.359017  0.359017  1
  Co  Co19  1  0.359017  0.359017  0.359017  1
  Ag  Ag20  1  0.918839  0.243484  0.918839  1
  Ag  Ag21  1  0.918839  0.918839  0.918839  1
  Ag  Ag22  1  0.918839  0.918839  0.243484  1
  Ag  Ag23  1  0.243484  0.918839  0.918839  1
