# generated using pymatgen
data_BaEu2(AlH6)2
_symmetry_space_group_name_H-M   'P 1'
_cell_length_a   5.09282100
_cell_length_b   5.09282130
_cell_length_c   8.64484600
_cell_angle_alpha   90.00000000
_cell_angle_beta   90.00000000
_cell_angle_gamma   119.99999154
_symmetry_Int_Tables_number   1
_chemical_formula_structural   BaEu2(AlH6)2
_chemical_formula_sum   'Ba1 Eu2 Al2 H12'
_cell_volume   194.18012651
_cell_formula_units_Z   1
loop_
 _symmetry_equiv_pos_site_id
 _symmetry_equiv_pos_as_xyz
  1  'x, y, z'
loop_
 _atom_site_type_symbol
 _atom_site_label
 _atom_site_symmetry_multiplicity
 _atom_site_fract_x
 _atom_site_fract_y
 _atom_site_fract_z
 _atom_site_occupancy
  Ba  Ba0  1  0.000000  0.000000  0.000000  1
  Eu  Eu1  1  0.666667  0.333333  0.371278  1
  Eu  Eu2  1  0.333333  0.666667  0.628722  1
  Al  Al3  1  0.666667  0.333333  0.746873  1
  Al  Al4  1  0.333333  0.666667  0.253127  1
  H  H5  1  0.177286  0.822714  0.381413  1
  H  H6  1  0.645429  0.822714  0.381413  1
  H  H7  1  0.177286  0.354571  0.381413  1
  H  H8  1  0.822714  0.177286  0.618587  1
  H  H9  1  0.354571  0.177286  0.618587  1
  H  H10  1  0.822714  0.645429  0.618587  1
  H  H11  1  0.499967  0.999933  0.852399  1
  H  H12  1  0.499967  0.500033  0.852399  1
  H  H13  1  0.000067  0.500033  0.852399  1
  H  H14  1  0.500033  0.000067  0.147601  1
  H  H15  1  0.500033  0.499967  0.147601  1
  H  H16  1  0.999933  0.499967  0.147601  1
