# generated using pymatgen
data_Hf6Zn22FePd
_symmetry_space_group_name_H-M   'P 1'
_cell_length_a   8.73950482
_cell_length_b   8.73950354
_cell_length_c   8.73950500
_cell_angle_alpha   60.00000581
_cell_angle_beta   60.00001066
_cell_angle_gamma   60.00000226
_symmetry_Int_Tables_number   1
_chemical_formula_structural   Hf6Zn22FePd
_chemical_formula_sum   'Hf6 Zn22 Fe1 Pd1'
_cell_volume   472.00379152
_cell_formula_units_Z   1
loop_
 _symmetry_equiv_pos_site_id
 _symmetry_equiv_pos_as_xyz
  1  'x, y, z'
loop_
 _atom_site_type_symbol
 _atom_site_label
 _atom_site_symmetry_multiplicity
 _atom_site_fract_x
 _atom_site_fract_y
 _atom_site_fract_z
 _atom_site_occupancy
  Hf  Hf0  1  0.697829  0.302171  0.302171  1
  Hf  Hf1  1  0.302171  0.697829  0.697829  1
  Hf  Hf2  1  0.302171  0.697829  0.302171  1
  Hf  Hf3  1  0.697829  0.302171  0.697829  1
  Hf  Hf4  1  0.302171  0.302171  0.697829  1
  Hf  Hf5  1  0.697829  0.697829  0.302171  1
  Zn  Zn6  1  0.120978  0.120978  0.120978  1
  Zn  Zn7  1  0.879022  0.879022  0.879022  1
  Zn  Zn8  1  0.120978  0.120978  0.637067  1
  Zn  Zn9  1  0.120978  0.637067  0.120978  1
  Zn  Zn10  1  0.879022  0.879022  0.362933  1
  Zn  Zn11  1  0.879022  0.362933  0.879022  1
  Zn  Zn12  1  0.637067  0.120978  0.120978  1
  Zn  Zn13  1  0.362933  0.879022  0.879022  1
  Zn  Zn14  1  0.500000  0.000000  0.000000  1
  Zn  Zn15  1  0.000000  0.500000  0.500000  1
  Zn  Zn16  1  0.000000  0.500000  0.000000  1
  Zn  Zn17  1  0.500000  0.000000  0.500000  1
  Zn  Zn18  1  0.000000  0.000000  0.500000  1
  Zn  Zn19  1  0.500000  0.500000  0.000000  1
  Zn  Zn20  1  0.333250  0.333250  0.333250  1
  Zn  Zn21  1  0.666750  0.666750  0.666750  1
  Zn  Zn22  1  0.333250  0.333250  0.000251  1
  Zn  Zn23  1  0.333250  0.000251  0.333250  1
  Zn  Zn24  1  0.666750  0.666750  0.999749  1
  Zn  Zn25  1  0.666750  0.999749  0.666750  1
  Zn  Zn26  1  0.000251  0.333250  0.333250  1
  Zn  Zn27  1  0.999749  0.666750  0.666750  1
  Fe  Fe28  1  0.500000  0.500000  0.500000  1
  Pd  Pd29  1  0.000000  0.000000  0.000000  1
