# generated using pymatgen
data_Hf2Co3Os
_symmetry_space_group_name_H-M   'P 1'
_cell_length_a   4.91009200
_cell_length_b   4.91014106
_cell_length_c   8.17931700
_cell_angle_alpha   89.99999206
_cell_angle_beta   90.00005136
_cell_angle_gamma   120.00055757
_symmetry_Int_Tables_number   1
_chemical_formula_structural   Hf2Co3Os
_chemical_formula_sum   'Hf4 Co6 Os2'
_cell_volume   170.77678362
_cell_formula_units_Z   2
loop_
 _symmetry_equiv_pos_site_id
 _symmetry_equiv_pos_as_xyz
  1  'x, y, z'
loop_
 _atom_site_type_symbol
 _atom_site_label
 _atom_site_symmetry_multiplicity
 _atom_site_fract_x
 _atom_site_fract_y
 _atom_site_fract_z
 _atom_site_occupancy
  Hf  Hf0  1  0.666665  0.333333  0.067664  1
  Hf  Hf1  1  0.666665  0.333332  0.432331  1
  Hf  Hf2  1  0.333335  0.666667  0.567668  1
  Hf  Hf3  1  0.333335  0.666666  0.932335  1
  Co  Co4  1  0.171516  0.343034  0.250000  1
  Co  Co5  1  0.171517  0.828482  0.250001  1
  Co  Co6  1  0.656969  0.828484  0.250001  1
  Co  Co7  1  0.343032  0.171518  0.749999  1
  Co  Co8  1  0.828484  0.171520  0.749999  1
  Co  Co9  1  0.828483  0.656966  0.750000  1
  Os  Os10  1  0.000000  0.000000  0.000000  1
  Os  Os11  1  0.000000  0.000000  0.500000  1
