# generated using pymatgen
data_Dy2Ho8(SnSb)3
_symmetry_space_group_name_H-M   'P 1'
_cell_length_a   6.38393800
_cell_length_b   8.96608403
_cell_length_c   8.96112045
_cell_angle_alpha   120.01833150
_cell_angle_beta   90.00005614
_cell_angle_gamma   89.99987492
_symmetry_Int_Tables_number   1
_chemical_formula_structural   Dy2Ho8(SnSb)3
_chemical_formula_sum   'Dy2 Ho8 Sn3 Sb3'
_cell_volume   444.12391459
_cell_formula_units_Z   1
loop_
 _symmetry_equiv_pos_site_id
 _symmetry_equiv_pos_as_xyz
  1  'x, y, z'
loop_
 _atom_site_type_symbol
 _atom_site_label
 _atom_site_symmetry_multiplicity
 _atom_site_fract_x
 _atom_site_fract_y
 _atom_site_fract_z
 _atom_site_occupancy
  Dy  Dy0  1  0.250001  0.241951  0.241928  1
  Dy  Dy1  1  0.250001  0.000022  0.758072  1
  Ho  Ho2  1  0.500789  0.333315  0.666628  1
  Ho  Ho3  1  0.500789  0.666687  0.333372  1
  Ho  Ho4  1  0.999217  0.666692  0.333379  1
  Ho  Ho5  1  0.999217  0.333313  0.666621  1
  Ho  Ho6  1  0.749993  0.241525  0.000000  1
  Ho  Ho7  1  0.750001  0.758587  0.758655  1
  Ho  Ho8  1  0.750001  0.999933  0.241345  1
  Ho  Ho9  1  0.249997  0.758004  0.000000  1
  Sn  Sn10  1  0.750002  0.607144  0.000000  1
  Sn  Sn11  1  0.750000  0.392867  0.392869  1
  Sn  Sn12  1  0.750000  0.999998  0.607131  1
  Sb  Sb13  1  0.249990  0.391842  0.000000  1
  Sb  Sb14  1  0.250003  0.608372  0.608620  1
  Sb  Sb15  1  0.250003  0.999751  0.391380  1
