# generated using pymatgen
data_La3Nd5GePd24
_symmetry_space_group_name_H-M   'P 1'
_cell_length_a   8.51395332
_cell_length_b   8.51395332
_cell_length_c   8.51355310
_cell_angle_alpha   89.98780407
_cell_angle_beta   89.98780407
_cell_angle_gamma   89.97083312
_symmetry_Int_Tables_number   1
_chemical_formula_structural   La3Nd5GePd24
_chemical_formula_sum   'La3 Nd5 Ge1 Pd24'
_cell_volume   617.12523105
_cell_formula_units_Z   1
loop_
 _symmetry_equiv_pos_site_id
 _symmetry_equiv_pos_as_xyz
  1  'x, y, z'
loop_
 _atom_site_type_symbol
 _atom_site_label
 _atom_site_symmetry_multiplicity
 _atom_site_fract_x
 _atom_site_fract_y
 _atom_site_fract_z
 _atom_site_occupancy
  La  La0  1  0.253420  0.253420  0.253401  1
  La  La1  1  0.746631  0.746631  0.746763  1
  La  La2  1  0.746586  0.746586  0.253252  1
  Nd  Nd3  1  0.746879  0.252975  0.746918  1
  Nd  Nd4  1  0.253074  0.253074  0.747103  1
  Nd  Nd5  1  0.252924  0.747121  0.253013  1
  Nd  Nd6  1  0.252975  0.746879  0.746918  1
  Nd  Nd7  1  0.747121  0.252924  0.253013  1
  Ge  Ge8  1  0.000113  0.000113  0.999925  1
  Pd  Pd9  1  0.259994  0.500224  0.999733  1
  Pd  Pd10  1  0.739990  0.499480  0.999932  1
  Pd  Pd11  1  0.999810  0.260001  0.500302  1
  Pd  Pd12  1  0.500224  0.259994  0.999733  1
  Pd  Pd13  1  0.000493  0.740018  0.500041  1
  Pd  Pd14  1  0.499480  0.739990  0.999932  1
  Pd  Pd15  1  0.499972  0.000066  0.259988  1
  Pd  Pd16  1  0.260001  0.999810  0.500302  1
  Pd  Pd17  1  0.499711  0.000270  0.740012  1
  Pd  Pd18  1  0.740018  0.000493  0.500041  1
  Pd  Pd19  1  0.000066  0.499972  0.259988  1
  Pd  Pd20  1  0.000270  0.499711  0.740012  1
  Pd  Pd21  1  0.253056  0.500230  0.500290  1
  Pd  Pd22  1  0.746945  0.499446  0.500046  1
  Pd  Pd23  1  0.500230  0.253056  0.500290  1
  Pd  Pd24  1  0.499446  0.746945  0.500046  1
  Pd  Pd25  1  0.499956  0.499956  0.253031  1
  Pd  Pd26  1  0.499712  0.499712  0.746965  1
  Pd  Pd27  1  0.290712  0.999587  0.999503  1
  Pd  Pd28  1  0.709163  0.000918  0.999937  1
  Pd  Pd29  1  0.999587  0.290712  0.999503  1
  Pd  Pd30  1  0.000918  0.709163  0.999937  1
  Pd  Pd31  1  0.000044  0.000044  0.290844  1
  Pd  Pd32  1  0.000481  0.000481  0.709288  1
