# generated using pymatgen
data_Pa(S2O7)2
_symmetry_space_group_name_H-M   'P 1'
_cell_length_a   6.96286813
_cell_length_b   6.96898272
_cell_length_c   12.24455777
_cell_angle_alpha   78.79407861
_cell_angle_beta   78.62250657
_cell_angle_gamma   78.74715564
_symmetry_Int_Tables_number   1
_chemical_formula_structural   Pa(S2O7)2
_chemical_formula_sum   'Pa2 S8 O28'
_cell_volume   563.72877490
_cell_formula_units_Z   2
loop_
 _symmetry_equiv_pos_site_id
 _symmetry_equiv_pos_as_xyz
  1  'x, y, z'
loop_
 _atom_site_type_symbol
 _atom_site_label
 _atom_site_symmetry_multiplicity
 _atom_site_fract_x
 _atom_site_fract_y
 _atom_site_fract_z
 _atom_site_occupancy
  Pa  Pa0  1  0.990408  0.007692  0.752398  1
  Pa  Pa1  1  0.012866  0.989852  0.249948  1
  S  S2  1  0.449498  0.952096  0.851956  1
  S  S3  1  0.963629  0.444362  0.348271  1
  S  S4  1  0.194691  0.708967  0.006284  1
  S  S5  1  0.284478  0.804112  0.498689  1
  S  S6  1  0.715905  0.191817  0.505891  1
  S  S7  1  0.806600  0.284802  0.997924  1
  S  S8  1  0.184315  0.506589  0.688717  1
  S  S9  1  0.552481  0.040299  0.154940  1
  O  O10  1  0.663990  0.908564  0.812025  1
  O  O11  1  0.920127  0.659714  0.312060  1
  O  O12  1  0.337604  0.953563  0.759866  1
  O  O13  1  0.416638  0.740957  0.936783  1
  O  O14  1  0.622989  0.872925  0.098241  1
  O  O15  1  0.828280  0.203568  0.892079  1
  O  O16  1  0.493269  0.775086  0.494900  1
  O  O17  1  0.949138  0.336546  0.257127  1
  O  O18  1  0.164404  0.947149  0.570208  1
  O  O19  1  0.759601  0.413750  0.440580  1
  O  O20  1  0.055510  0.834054  0.934346  1
  O  O21  1  0.219188  0.838096  0.387653  1
  O  O22  1  0.797101  0.493028  0.983240  1
  O  O23  1  0.793298  0.166817  0.613080  1
  O  O24  1  0.376666  0.467787  0.719718  1
  O  O25  1  0.200558  0.500894  0.023471  1
  O  O26  1  0.946177  0.160111  0.070088  1
  O  O27  1  0.041938  0.665423  0.741488  1
  O  O28  1  0.200749  0.593652  0.552556  1
  O  O29  1  0.840028  0.051546  0.433674  1
  O  O30  1  0.175828  0.792364  0.111673  1
  O  O31  1  0.507024  0.205645  0.518021  1
  O  O32  1  0.377823  0.112090  0.914250  1
  O  O33  1  0.664105  0.044870  0.246251  1
  O  O34  1  0.585571  0.246903  0.066427  1
  O  O35  1  0.086420  0.335699  0.694408  1
  O  O36  1  0.133416  0.367983  0.401832  1
  O  O37  1  0.337861  0.088364  0.193044  1
