# generated using pymatgen
data_HoErLu6(CdPt)2
_symmetry_space_group_name_H-M   'P 1'
_cell_length_a   9.51951570
_cell_length_b   9.51172130
_cell_length_c   9.50977501
_cell_angle_alpha   60.06099154
_cell_angle_beta   59.97963918
_cell_angle_gamma   59.95936963
_symmetry_Int_Tables_number   1
_chemical_formula_structural   HoErLu6(CdPt)2
_chemical_formula_sum   'Ho2 Er2 Lu12 Cd4 Pt4'
_cell_volume   608.87543274
_cell_formula_units_Z   2
loop_
 _symmetry_equiv_pos_site_id
 _symmetry_equiv_pos_as_xyz
  1  'x, y, z'
loop_
 _atom_site_type_symbol
 _atom_site_label
 _atom_site_symmetry_multiplicity
 _atom_site_fract_x
 _atom_site_fract_y
 _atom_site_fract_z
 _atom_site_occupancy
  Ho  Ho0  1  0.815073  0.815073  0.184927  1
  Ho  Ho1  1  0.184927  0.184927  0.815073  1
  Er  Er2  1  0.814337  0.185663  0.814337  1
  Er  Er3  1  0.185663  0.814337  0.185663  1
  Lu  Lu4  1  0.603125  0.602705  0.602477  1
  Lu  Lu5  1  0.602705  0.603125  0.191693  1
  Lu  Lu6  1  0.602477  0.191693  0.603125  1
  Lu  Lu7  1  0.191693  0.602477  0.602705  1
  Lu  Lu8  1  0.060542  0.439458  0.439458  1
  Lu  Lu9  1  0.439458  0.060542  0.060542  1
  Lu  Lu10  1  0.439153  0.060847  0.439153  1
  Lu  Lu11  1  0.060847  0.439153  0.060847  1
  Lu  Lu12  1  0.439201  0.439201  0.060799  1
  Lu  Lu13  1  0.060799  0.060799  0.439201  1
  Lu  Lu14  1  0.187857  0.812143  0.812143  1
  Lu  Lu15  1  0.812143  0.187857  0.187857  1
  Cd  Cd16  1  0.833144  0.831421  0.831182  1
  Cd  Cd17  1  0.831421  0.833144  0.504253  1
  Cd  Cd18  1  0.831182  0.504253  0.833144  1
  Cd  Cd19  1  0.504253  0.831182  0.831421  1
  Pt  Pt20  1  0.394265  0.393324  0.392831  1
  Pt  Pt21  1  0.393324  0.394265  0.819579  1
  Pt  Pt22  1  0.392831  0.819579  0.394265  1
  Pt  Pt23  1  0.819579  0.392831  0.393324  1
