# generated using pymatgen
data_Pr4Y6Si7Ir
_symmetry_space_group_name_H-M   'P 1'
_cell_length_a   7.49226516
_cell_length_b   7.88950689
_cell_length_c   14.92588100
_cell_angle_alpha   90.00000000
_cell_angle_beta   90.00000000
_cell_angle_gamma   90.23025151
_symmetry_Int_Tables_number   1
_chemical_formula_structural   Pr4Y6Si7Ir
_chemical_formula_sum   'Pr8 Y12 Si14 Ir2'
_cell_volume   882.26584513
_cell_formula_units_Z   2
loop_
 _symmetry_equiv_pos_site_id
 _symmetry_equiv_pos_as_xyz
  1  'x, y, z'
loop_
 _atom_site_type_symbol
 _atom_site_label
 _atom_site_symmetry_multiplicity
 _atom_site_fract_x
 _atom_site_fract_y
 _atom_site_fract_z
 _atom_site_occupancy
  Pr  Pr0  1  0.022781  0.179095  0.403244  1
  Pr  Pr1  1  0.519355  0.325151  0.403492  1
  Pr  Pr2  1  0.475004  0.682887  0.904013  1
  Pr  Pr3  1  0.475004  0.682887  0.595987  1
  Pr  Pr4  1  0.980271  0.822257  0.596700  1
  Pr  Pr5  1  0.980271  0.822257  0.903300  1
  Pr  Pr6  1  0.519355  0.325151  0.096508  1
  Pr  Pr7  1  0.022781  0.179095  0.096756  1
  Y  Y8  1  0.316184  0.177927  0.623407  1
  Y  Y9  1  0.674155  0.817200  0.375392  1
  Y  Y10  1  0.638186  0.977346  0.750000  1
  Y  Y11  1  0.187275  0.675213  0.374546  1
  Y  Y12  1  0.821319  0.321283  0.876368  1
  Y  Y13  1  0.821319  0.321283  0.623632  1
  Y  Y14  1  0.838140  0.492772  0.250000  1
  Y  Y15  1  0.354506  0.010567  0.250000  1
  Y  Y16  1  0.316184  0.177927  0.876593  1
  Y  Y17  1  0.187275  0.675213  0.125454  1
  Y  Y18  1  0.674155  0.817200  0.124608  1
  Y  Y19  1  0.160842  0.525321  0.750000  1
  Si  Si20  1  0.024750  0.104121  0.750000  1
  Si  Si21  1  0.530484  0.388493  0.750000  1
  Si  Si22  1  0.144937  0.469057  0.537889  1
  Si  Si23  1  0.975865  0.893976  0.250000  1
  Si  Si24  1  0.737627  0.119207  0.250000  1
  Si  Si25  1  0.856593  0.528110  0.039554  1
  Si  Si26  1  0.353589  0.975185  0.039897  1
  Si  Si27  1  0.144937  0.469057  0.962111  1
  Si  Si28  1  0.646304  0.034929  0.537346  1
  Si  Si29  1  0.353589  0.975185  0.460103  1
  Si  Si30  1  0.856593  0.528110  0.460446  1
  Si  Si31  1  0.769276  0.614937  0.750000  1
  Si  Si32  1  0.228767  0.373759  0.250000  1
  Si  Si33  1  0.646304  0.034929  0.962654  1
  Ir  Ir34  1  0.270193  0.876904  0.750000  1
  Ir  Ir35  1  0.475830  0.606008  0.250000  1
