# generated using pymatgen
data_TmNb5(SiTc)6
_symmetry_space_group_name_H-M   'P 1'
_cell_length_a   7.61227796
_cell_length_b   7.56997082
_cell_length_c   7.61227800
_cell_angle_alpha   126.97593016
_cell_angle_beta   125.05392415
_cell_angle_gamma   80.01166109
_symmetry_Int_Tables_number   1
_chemical_formula_structural   TmNb5(SiTc)6
_chemical_formula_sum   'Tm1 Nb5 Si6 Tc6'
_cell_volume   276.77088775
_cell_formula_units_Z   1
loop_
 _symmetry_equiv_pos_site_id
 _symmetry_equiv_pos_as_xyz
  1  'x, y, z'
loop_
 _atom_site_type_symbol
 _atom_site_label
 _atom_site_symmetry_multiplicity
 _atom_site_fract_x
 _atom_site_fract_y
 _atom_site_fract_z
 _atom_site_occupancy
  Tm  Tm0  1  0.535757  0.064018  0.028261  1
  Nb  Nb1  1  0.461485  0.494079  0.532594  1
  Nb  Nb2  1  0.945581  0.485557  0.039976  1
  Nb  Nb3  1  0.053700  0.101653  0.547952  1
  Nb  Nb4  1  0.744605  0.904304  0.659698  1
  Nb  Nb5  1  0.252675  0.911414  0.158739  1
  Si  Si6  1  0.733950  0.483010  0.249060  1
  Si  Si7  1  0.276668  0.543193  0.766525  1
  Si  Si8  1  0.320464  0.821245  0.477201  1
  Si  Si9  1  0.673840  0.161541  0.506568  1
  Si  Si10  1  0.844043  0.821245  0.000780  1
  Si  Si11  1  0.154972  0.161541  0.987701  1
  Tc  Tc12  1  0.488903  0.248206  0.735419  1
  Tc  Tc13  1  0.012786  0.248206  0.259301  1
  Tc  Tc14  1  0.088226  0.749326  0.586394  1
  Tc  Tc15  1  0.900565  0.497169  0.648321  1
  Tc  Tc16  1  0.662931  0.749326  0.161099  1
  Tc  Tc17  1  0.348848  0.497169  0.096605  1
