# generated using pymatgen
data_TbHf7Ti7Nb5Si16
_symmetry_space_group_name_H-M   'P 1'
_cell_length_a   6.85771363
_cell_length_b   6.85854213
_cell_length_c   12.63077754
_cell_angle_alpha   89.97368200
_cell_angle_beta   89.89188513
_cell_angle_gamma   89.94941570
_symmetry_Int_Tables_number   1
_chemical_formula_structural   TbHf7Ti7Nb5Si16
_chemical_formula_sum   'Tb1 Hf7 Ti7 Nb5 Si16'
_cell_volume   594.07360196
_cell_formula_units_Z   1
loop_
 _symmetry_equiv_pos_site_id
 _symmetry_equiv_pos_as_xyz
  1  'x, y, z'
loop_
 _atom_site_type_symbol
 _atom_site_label
 _atom_site_symmetry_multiplicity
 _atom_site_fract_x
 _atom_site_fract_y
 _atom_site_fract_z
 _atom_site_occupancy
  Tb  Tb0  1  0.997395  0.660904  0.031245  1
  Hf  Hf1  1  0.342176  0.997545  0.469700  1
  Hf  Hf2  1  0.500420  0.843020  0.717953  1
  Hf  Hf3  1  0.497119  0.158763  0.221865  1
  Hf  Hf4  1  0.842341  0.501438  0.282311  1
  Hf  Hf5  1  0.159633  0.497458  0.780170  1
  Hf  Hf6  1  0.652974  0.004064  0.967030  1
  Hf  Hf7  1  0.997481  0.342849  0.530444  1
  Ti  Ti8  1  0.496697  0.651851  0.124402  1
  Ti  Ti9  1  0.503865  0.348970  0.621597  1
  Ti  Ti10  1  0.651938  0.491492  0.875185  1
  Ti  Ti11  1  0.348197  0.504103  0.379095  1
  Ti  Ti12  1  0.848065  0.996470  0.374233  1
  Ti  Ti13  1  0.006134  0.152611  0.129034  1
  Ti  Ti14  1  0.995289  0.848998  0.625809  1
  Nb  Nb15  1  0.332184  0.326875  0.999517  1
  Nb  Nb16  1  0.171030  0.831491  0.251864  1
  Nb  Nb17  1  0.829532  0.170133  0.747899  1
  Nb  Nb18  1  0.670572  0.670506  0.499774  1
  Nb  Nb19  1  0.155584  0.002686  0.870060  1
  Si  Si20  1  0.209054  0.135721  0.673866  1
  Si  Si21  1  0.372214  0.705711  0.926182  1
  Si  Si22  1  0.634417  0.292239  0.426775  1
  Si  Si23  1  0.703574  0.359970  0.073474  1
  Si  Si24  1  0.292074  0.635101  0.573346  1
  Si  Si25  1  0.789029  0.869897  0.181860  1
  Si  Si26  1  0.134824  0.207661  0.324768  1
  Si  Si27  1  0.859589  0.793307  0.818598  1
  Si  Si28  1  0.300234  0.955398  0.065196  1
  Si  Si29  1  0.544465  0.795497  0.314201  1
  Si  Si30  1  0.455245  0.206751  0.810224  1
  Si  Si31  1  0.795929  0.545807  0.685889  1
  Si  Si32  1  0.207482  0.452178  0.189856  1
  Si  Si33  1  0.704541  0.046446  0.562369  1
  Si  Si34  1  0.952664  0.291253  0.936913  1
  Si  Si35  1  0.046038  0.704843  0.437302  1
