# generated using pymatgen
data_Ac3In3CuRh2
_symmetry_space_group_name_H-M   'P 1'
_cell_length_a   7.86348400
_cell_length_b   7.86348322
_cell_length_c   4.14604700
_cell_angle_alpha   90.00000000
_cell_angle_beta   90.00000000
_cell_angle_gamma   120.00000330
_symmetry_Int_Tables_number   1
_chemical_formula_structural   Ac3In3CuRh2
_chemical_formula_sum   'Ac3 In3 Cu1 Rh2'
_cell_volume   222.02138617
_cell_formula_units_Z   1
loop_
 _symmetry_equiv_pos_site_id
 _symmetry_equiv_pos_as_xyz
  1  'x, y, z'
loop_
 _atom_site_type_symbol
 _atom_site_label
 _atom_site_symmetry_multiplicity
 _atom_site_fract_x
 _atom_site_fract_y
 _atom_site_fract_z
 _atom_site_occupancy
  Ac  Ac0  1  0.000000  0.582511  0.500000  1
  Ac  Ac1  1  0.417489  0.417489  0.500000  1
  Ac  Ac2  1  0.582511  0.000000  0.500000  1
  In  In3  1  0.758962  0.758962  0.000000  1
  In  In4  1  0.000000  0.241038  0.000000  1
  In  In5  1  0.241038  0.000000  0.000000  1
  Cu  Cu6  1  0.000000  0.000000  0.500000  1
  Rh  Rh7  1  0.333333  0.666667  0.000000  1
  Rh  Rh8  1  0.666667  0.333333  0.000000  1
