# generated using pymatgen
data_CaCe8Tm(Sn3H)2
_symmetry_space_group_name_H-M   'P 1'
_cell_length_a   8.96807752
_cell_length_b   8.96807645
_cell_length_c   8.96807778
_cell_angle_alpha   124.64281335
_cell_angle_beta   124.64281960
_cell_angle_gamma   82.13048435
_symmetry_Int_Tables_number   1
_chemical_formula_structural   CaCe8Tm(Sn3H)2
_chemical_formula_sum   'Ca1 Ce8 Tm1 Sn6 H2'
_cell_volume   469.35328125
_cell_formula_units_Z   1
loop_
 _symmetry_equiv_pos_site_id
 _symmetry_equiv_pos_as_xyz
  1  'x, y, z'
loop_
 _atom_site_type_symbol
 _atom_site_label
 _atom_site_symmetry_multiplicity
 _atom_site_fract_x
 _atom_site_fract_y
 _atom_site_fract_z
 _atom_site_occupancy
  Ca  Ca0  1  0.500000  0.500000  0.000000  1
  Ce  Ce1  1  0.511458  0.010831  0.844537  1
  Ce  Ce2  1  0.166294  0.666922  0.155463  1
  Ce  Ce3  1  0.010831  0.166294  0.499373  1
  Ce  Ce4  1  0.666922  0.511458  0.500627  1
  Ce  Ce5  1  0.488542  0.989169  0.155463  1
  Ce  Ce6  1  0.833706  0.333078  0.844537  1
  Ce  Ce7  1  0.989169  0.833706  0.500627  1
  Ce  Ce8  1  0.333078  0.488542  0.499373  1
  Tm  Tm9  1  0.000000  0.000000  0.000000  1
  Sn  Sn10  1  0.247223  0.247223  0.000000  1
  Sn  Sn11  1  0.752777  0.752777  0.000000  1
  Sn  Sn12  1  0.873961  0.368813  0.242775  1
  Sn  Sn13  1  0.126039  0.631187  0.757225  1
  Sn  Sn14  1  0.368813  0.126039  0.494852  1
  Sn  Sn15  1  0.631187  0.873961  0.505148  1
  H  H16  1  0.250000  0.750000  0.500000  1
  H  H17  1  0.750000  0.250000  0.500000  1
