# generated using pymatgen
data_TaNb11Al6(AuN2)2
_symmetry_space_group_name_H-M   'P 1'
_cell_length_a   7.08338552
_cell_length_b   7.09025695
_cell_length_c   7.10016785
_cell_angle_alpha   90.10196850
_cell_angle_beta   90.08633908
_cell_angle_gamma   90.38184853
_symmetry_Int_Tables_number   1
_chemical_formula_structural   TaNb11Al6(AuN2)2
_chemical_formula_sum   'Ta1 Nb11 Al6 Au2 N4'
_cell_volume   356.58300102
_cell_formula_units_Z   1
loop_
 _symmetry_equiv_pos_site_id
 _symmetry_equiv_pos_as_xyz
  1  'x, y, z'
loop_
 _atom_site_type_symbol
 _atom_site_label
 _atom_site_symmetry_multiplicity
 _atom_site_fract_x
 _atom_site_fract_y
 _atom_site_fract_z
 _atom_site_occupancy
  Ta  Ta0  1  0.787883  0.957305  0.376610  1
  Nb  Nb1  1  0.712633  0.042343  0.876977  1
  Nb  Nb2  1  0.203264  0.453033  0.127062  1
  Nb  Nb3  1  0.296320  0.547367  0.627293  1
  Nb  Nb4  1  0.953533  0.381359  0.789753  1
  Nb  Nb5  1  0.040434  0.866059  0.709512  1
  Nb  Nb6  1  0.459594  0.134098  0.209265  1
  Nb  Nb7  1  0.546506  0.617676  0.290859  1
  Nb  Nb8  1  0.383109  0.787600  0.954099  1
  Nb  Nb9  1  0.871302  0.706289  0.042210  1
  Nb  Nb10  1  0.118081  0.212811  0.452783  1
  Nb  Nb11  1  0.628547  0.293349  0.541981  1
  Al  Al12  1  0.823736  0.321321  0.175604  1
  Al  Al13  1  0.676373  0.678721  0.675682  1
  Al  Al14  1  0.567808  0.424759  0.927472  1
  Al  Al15  1  0.424297  0.931717  0.570709  1
  Al  Al16  1  0.932040  0.575537  0.427465  1
  Al  Al17  1  0.075705  0.068468  0.070480  1
  Au  Au18  1  0.182073  0.822247  0.317225  1
  Au  Au19  1  0.316853  0.177985  0.817045  1
  N  N20  1  0.877454  0.121612  0.626497  1
  N  N21  1  0.622341  0.878213  0.131724  1
  N  N22  1  0.128255  0.623883  0.880929  1
  N  N23  1  0.371861  0.376248  0.380764  1
