# generated using pymatgen
data_CaTb6NiBr12
_symmetry_space_group_name_H-M   'P 1'
_cell_length_a   9.24612615
_cell_length_b   9.24612527
_cell_length_c   9.24612492
_cell_angle_alpha   106.48688748
_cell_angle_beta   106.48688184
_cell_angle_gamma   106.48687879
_symmetry_Int_Tables_number   1
_chemical_formula_structural   CaTb6NiBr12
_chemical_formula_sum   'Ca1 Tb6 Ni1 Br12'
_cell_volume   667.30186549
_cell_formula_units_Z   1
loop_
 _symmetry_equiv_pos_site_id
 _symmetry_equiv_pos_as_xyz
  1  'x, y, z'
loop_
 _atom_site_type_symbol
 _atom_site_label
 _atom_site_symmetry_multiplicity
 _atom_site_fract_x
 _atom_site_fract_y
 _atom_site_fract_z
 _atom_site_occupancy
  Ca  Ca0  1  0.500000  0.500000  0.500000  1
  Tb  Tb1  1  0.099611  0.022821  0.306384  1
  Tb  Tb2  1  0.022821  0.306384  0.099611  1
  Tb  Tb3  1  0.306384  0.099611  0.022821  1
  Tb  Tb4  1  0.900388  0.977179  0.693616  1
  Tb  Tb5  1  0.977179  0.693616  0.900388  1
  Tb  Tb6  1  0.693616  0.900388  0.977179  1
  Ni  Ni7  1  0.000000  0.000000  0.000000  1
  Br  Br8  1  0.074493  0.679003  0.220864  1
  Br  Br9  1  0.679003  0.220864  0.074493  1
  Br  Br10  1  0.220864  0.074493  0.679003  1
  Br  Br11  1  0.925507  0.320997  0.779136  1
  Br  Br12  1  0.320997  0.779136  0.925507  1
  Br  Br13  1  0.779136  0.925507  0.320997  1
  Br  Br14  1  0.450737  0.153562  0.374681  1
  Br  Br15  1  0.153562  0.374681  0.450737  1
  Br  Br16  1  0.374681  0.450737  0.153562  1
  Br  Br17  1  0.549263  0.846438  0.625319  1
  Br  Br18  1  0.846438  0.625319  0.549263  1
  Br  Br19  1  0.625319  0.549263  0.846438  1
