# generated using pymatgen
data_DyY3AgIr
_symmetry_space_group_name_H-M   'P 1'
_cell_length_a   9.58071648
_cell_length_b   9.58071598
_cell_length_c   9.58071700
_cell_angle_alpha   59.99999992
_cell_angle_beta   60.00000167
_cell_angle_gamma   60.00000336
_symmetry_Int_Tables_number   1
_chemical_formula_structural   DyY3AgIr
_chemical_formula_sum   'Dy4 Y12 Ag4 Ir4'
_cell_volume   621.84047220
_cell_formula_units_Z   4
loop_
 _symmetry_equiv_pos_site_id
 _symmetry_equiv_pos_as_xyz
  1  'x, y, z'
loop_
 _atom_site_type_symbol
 _atom_site_label
 _atom_site_symmetry_multiplicity
 _atom_site_fract_x
 _atom_site_fract_y
 _atom_site_fract_z
 _atom_site_occupancy
  Dy  Dy0  1  0.351745  0.351745  0.351745  1
  Dy  Dy1  1  0.351745  0.351745  0.944765  1
  Dy  Dy2  1  0.351745  0.944765  0.351745  1
  Dy  Dy3  1  0.944765  0.351745  0.351745  1
  Y  Y4  1  0.810629  0.189371  0.189371  1
  Y  Y5  1  0.189371  0.810629  0.810629  1
  Y  Y6  1  0.189371  0.810629  0.189371  1
  Y  Y7  1  0.810629  0.189371  0.810629  1
  Y  Y8  1  0.189371  0.189371  0.810629  1
  Y  Y9  1  0.810629  0.810629  0.189371  1
  Y  Y10  1  0.936859  0.563141  0.563141  1
  Y  Y11  1  0.563141  0.936859  0.936859  1
  Y  Y12  1  0.563141  0.936859  0.563141  1
  Y  Y13  1  0.936859  0.563141  0.936859  1
  Y  Y14  1  0.563141  0.563141  0.936859  1
  Y  Y15  1  0.936859  0.936859  0.563141  1
  Ag  Ag16  1  0.581322  0.581322  0.581322  1
  Ag  Ag17  1  0.581322  0.581322  0.256036  1
  Ag  Ag18  1  0.581322  0.256036  0.581322  1
  Ag  Ag19  1  0.256036  0.581322  0.581322  1
  Ir  Ir20  1  0.142873  0.142873  0.142873  1
  Ir  Ir21  1  0.142873  0.142873  0.571382  1
  Ir  Ir22  1  0.142873  0.571382  0.142873  1
  Ir  Ir23  1  0.571382  0.142873  0.142873  1
