# generated using pymatgen
data_Y2Lu2B12MoRu
_symmetry_space_group_name_H-M   'P 1'
_cell_length_a   3.62611000
_cell_length_b   9.14484554
_cell_length_c   11.54753506
_cell_angle_alpha   89.76115807
_cell_angle_beta   90.00000000
_cell_angle_gamma   90.00000000
_symmetry_Int_Tables_number   1
_chemical_formula_structural   Y2Lu2B12MoRu
_chemical_formula_sum   'Y4 Lu4 B24 Mo2 Ru2'
_cell_volume   382.91542820
_cell_formula_units_Z   2
loop_
 _symmetry_equiv_pos_site_id
 _symmetry_equiv_pos_as_xyz
  1  'x, y, z'
loop_
 _atom_site_type_symbol
 _atom_site_label
 _atom_site_symmetry_multiplicity
 _atom_site_fract_x
 _atom_site_fract_y
 _atom_site_fract_z
 _atom_site_occupancy
  Y  Y0  1  0.000000  0.321431  0.414731  1
  Y  Y1  1  0.000000  0.678569  0.585269  1
  Y  Y2  1  0.000000  0.821403  0.085353  1
  Y  Y3  1  0.000000  0.178597  0.914647  1
  Lu  Lu4  1  0.000000  0.944823  0.371034  1
  Lu  Lu5  1  0.000000  0.055177  0.628966  1
  Lu  Lu6  1  0.000000  0.442032  0.128435  1
  Lu  Lu7  1  0.000000  0.557968  0.871565  1
  B  B8  1  0.500000  0.552295  0.433546  1
  B  B9  1  0.500000  0.447705  0.566454  1
  B  B10  1  0.500000  0.054720  0.067476  1
  B  B11  1  0.500000  0.945280  0.932524  1
  B  B12  1  0.500000  0.752264  0.419736  1
  B  B13  1  0.500000  0.247736  0.580264  1
  B  B14  1  0.500000  0.250045  0.081823  1
  B  B15  1  0.500000  0.749955  0.918177  1
  B  B16  1  0.500000  0.795696  0.263846  1
  B  B17  1  0.500000  0.204304  0.736154  1
  B  B18  1  0.500000  0.291148  0.234013  1
  B  B19  1  0.500000  0.708852  0.765987  1
  B  B20  1  0.500000  0.630406  0.181890  1
  B  B21  1  0.500000  0.369594  0.818110  1
  B  B22  1  0.500000  0.129658  0.314242  1
  B  B23  1  0.500000  0.870342  0.685758  1
  B  B24  1  0.500000  0.983327  0.212317  1
  B  B25  1  0.500000  0.016673  0.787683  1
  B  B26  1  0.500000  0.478389  0.286191  1
  B  B27  1  0.500000  0.521611  0.713809  1
  B  B28  1  0.500000  0.600096  0.026977  1
  B  B29  1  0.500000  0.399904  0.973023  1
  B  B30  1  0.500000  0.100108  0.471866  1
  B  B31  1  0.500000  0.899892  0.528134  1
  Mo  Mo32  1  0.000000  0.639701  0.318067  1
  Mo  Mo33  1  0.000000  0.360299  0.681933  1
  Ru  Ru34  1  0.000000  0.139047  0.179383  1
  Ru  Ru35  1  0.000000  0.860953  0.820617  1
