# generated using pymatgen
data_Np2Fe3Si
_symmetry_space_group_name_H-M   'P 1'
_cell_length_a   5.16597627
_cell_length_b   5.13586127
_cell_length_c   7.48343600
_cell_angle_alpha   90.00000000
_cell_angle_beta   90.00000000
_cell_angle_gamma   60.19265058
_symmetry_Int_Tables_number   1
_chemical_formula_structural   Np2Fe3Si
_chemical_formula_sum   'Np4 Fe6 Si2'
_cell_volume   172.28092200
_cell_formula_units_Z   2
loop_
 _symmetry_equiv_pos_site_id
 _symmetry_equiv_pos_as_xyz
  1  'x, y, z'
loop_
 _atom_site_type_symbol
 _atom_site_label
 _atom_site_symmetry_multiplicity
 _atom_site_fract_x
 _atom_site_fract_y
 _atom_site_fract_z
 _atom_site_occupancy
  Np  Np0  1  0.337079  0.331460  0.565052  1
  Np  Np1  1  0.662921  0.668540  0.434948  1
  Np  Np2  1  0.662921  0.668540  0.065052  1
  Np  Np3  1  0.337079  0.331460  0.934948  1
  Fe  Fe4  1  0.832293  0.338359  0.750000  1
  Fe  Fe5  1  0.337169  0.831415  0.750000  1
  Fe  Fe6  1  0.832293  0.829347  0.750000  1
  Fe  Fe7  1  0.167707  0.661641  0.250000  1
  Fe  Fe8  1  0.662831  0.168585  0.250000  1
  Fe  Fe9  1  0.167707  0.170653  0.250000  1
  Si  Si10  1  0.000000  0.000000  0.500000  1
  Si  Si11  1  0.000000  0.000000  0.000000  1
