# generated using pymatgen
data_Mg4Ge3PIr4
_symmetry_space_group_name_H-M   'P 1'
_cell_length_a   4.12482300
_cell_length_b   6.63377739
_cell_length_c   7.18691693
_cell_angle_alpha   89.94874667
_cell_angle_beta   90.00000000
_cell_angle_gamma   90.00000000
_symmetry_Int_Tables_number   1
_chemical_formula_structural   Mg4Ge3PIr4
_chemical_formula_sum   'Mg4 Ge3 P1 Ir4'
_cell_volume   196.65666184
_cell_formula_units_Z   1
loop_
 _symmetry_equiv_pos_site_id
 _symmetry_equiv_pos_as_xyz
  1  'x, y, z'
loop_
 _atom_site_type_symbol
 _atom_site_label
 _atom_site_symmetry_multiplicity
 _atom_site_fract_x
 _atom_site_fract_y
 _atom_site_fract_z
 _atom_site_occupancy
  Mg  Mg0  1  0.250000  0.015586  0.328693  1
  Mg  Mg1  1  0.250000  0.515058  0.169616  1
  Mg  Mg2  1  0.750000  0.990496  0.677179  1
  Mg  Mg3  1  0.750000  0.486886  0.828731  1
  Ge  Ge4  1  0.250000  0.789403  0.864714  1
  Ge  Ge5  1  0.750000  0.711977  0.369492  1
  Ge  Ge6  1  0.750000  0.213038  0.132565  1
  P  P7  1  0.250000  0.293415  0.631360  1
  Ir  Ir8  1  0.250000  0.166189  0.937222  1
  Ir  Ir9  1  0.250000  0.640033  0.545371  1
  Ir  Ir10  1  0.750000  0.843464  0.046892  1
  Ir  Ir11  1  0.750000  0.334457  0.468164  1
