# generated using pymatgen
data_YTm7(Hf3Si4)4
_symmetry_space_group_name_H-M   'P 1'
_cell_length_a   7.24508697
_cell_length_b   7.24371803
_cell_length_c   13.30038903
_cell_angle_alpha   89.99912801
_cell_angle_beta   89.95178509
_cell_angle_gamma   90.00310838
_symmetry_Int_Tables_number   1
_chemical_formula_structural   YTm7(Hf3Si4)4
_chemical_formula_sum   'Y1 Tm7 Hf12 Si16'
_cell_volume   698.02235118
_cell_formula_units_Z   1
loop_
 _symmetry_equiv_pos_site_id
 _symmetry_equiv_pos_as_xyz
  1  'x, y, z'
loop_
 _atom_site_type_symbol
 _atom_site_label
 _atom_site_symmetry_multiplicity
 _atom_site_fract_x
 _atom_site_fract_y
 _atom_site_fract_z
 _atom_site_occupancy
  Y  Y0  1  0.656235  0.004682  0.284760  1
  Tm  Tm1  1  0.996977  0.344706  0.214911  1
  Tm  Tm2  1  0.003496  0.655495  0.715209  1
  Tm  Tm3  1  0.155730  0.496690  0.465422  1
  Tm  Tm4  1  0.503159  0.843921  0.034377  1
  Tm  Tm5  1  0.844521  0.503363  0.965004  1
  Tm  Tm6  1  0.496494  0.155616  0.535226  1
  Tm  Tm7  1  0.344360  0.996500  0.784854  1
  Hf  Hf8  1  0.174375  0.174645  0.999708  1
  Hf  Hf9  1  0.825762  0.825346  0.500327  1
  Hf  Hf10  1  0.325112  0.673910  0.250039  1
  Hf  Hf11  1  0.674598  0.325480  0.749984  1
  Hf  Hf12  1  0.149075  0.996744  0.374593  1
  Hf  Hf13  1  0.851730  0.003170  0.874316  1
  Hf  Hf14  1  0.503043  0.648121  0.624871  1
  Hf  Hf15  1  0.351608  0.496979  0.875363  1
  Hf  Hf16  1  0.495858  0.351869  0.123942  1
  Hf  Hf17  1  0.648302  0.503561  0.375850  1
  Hf  Hf18  1  0.997006  0.148424  0.625796  1
  Hf  Hf19  1  0.003230  0.851056  0.125191  1
  Si  Si20  1  0.359963  0.296070  0.317837  1
  Si  Si21  1  0.639065  0.704989  0.817991  1
  Si  Si22  1  0.205184  0.860900  0.568072  1
  Si  Si23  1  0.138988  0.794812  0.931920  1
  Si  Si24  1  0.795298  0.139022  0.067536  1
  Si  Si25  1  0.862447  0.206159  0.433146  1
  Si  Si26  1  0.295018  0.360988  0.682069  1
  Si  Si27  1  0.705456  0.637551  0.181590  1
  Si  Si28  1  0.295603  0.048460  0.184975  1
  Si  Si29  1  0.702802  0.951986  0.685492  1
  Si  Si30  1  0.450849  0.796284  0.436235  1
  Si  Si31  1  0.202658  0.548127  0.064387  1
  Si  Si32  1  0.547964  0.202788  0.935306  1
  Si  Si33  1  0.797390  0.452164  0.564631  1
  Si  Si34  1  0.047896  0.297294  0.814541  1
  Si  Si35  1  0.952750  0.702130  0.314534  1
