# generated using pymatgen
data_SmTi8(In2Co)7
_symmetry_space_group_name_H-M   'P 1'
_cell_length_a   9.22859567
_cell_length_b   9.23244042
_cell_length_c   9.22806114
_cell_angle_alpha   60.00633190
_cell_angle_beta   60.04718557
_cell_angle_gamma   59.99348653
_symmetry_Int_Tables_number   1
_chemical_formula_structural   SmTi8(In2Co)7
_chemical_formula_sum   'Sm1 Ti8 In14 Co7'
_cell_volume   556.16239804
_cell_formula_units_Z   1
loop_
 _symmetry_equiv_pos_site_id
 _symmetry_equiv_pos_as_xyz
  1  'x, y, z'
loop_
 _atom_site_type_symbol
 _atom_site_label
 _atom_site_symmetry_multiplicity
 _atom_site_fract_x
 _atom_site_fract_y
 _atom_site_fract_z
 _atom_site_occupancy
  Sm  Sm0  1  0.500000  0.500000  0.500000  1
  Ti  Ti1  1  0.116303  0.651119  0.116295  1
  Ti  Ti2  1  0.348904  0.883701  0.883806  1
  Ti  Ti3  1  0.883569  0.883705  0.883581  1
  Ti  Ti4  1  0.651096  0.116299  0.116194  1
  Ti  Ti5  1  0.883801  0.883705  0.348884  1
  Ti  Ti6  1  0.116431  0.116295  0.116419  1
  Ti  Ti7  1  0.883697  0.348881  0.883705  1
  Ti  Ti8  1  0.116199  0.116295  0.651116  1
  In  In9  1  0.499873  0.848098  0.151900  1
  In  In10  1  0.499967  0.848025  0.500163  1
  In  In11  1  0.500033  0.151975  0.499837  1
  In  In12  1  0.500107  0.500037  0.848034  1
  In  In13  1  0.151951  0.500072  0.499801  1
  In  In14  1  0.848070  0.151925  0.500051  1
  In  In15  1  0.151930  0.848075  0.499949  1
  In  In16  1  0.500127  0.151902  0.848100  1
  In  In17  1  0.151912  0.500101  0.848084  1
  In  In18  1  0.499893  0.499963  0.151966  1
  In  In19  1  0.848049  0.499928  0.500199  1
  In  In20  1  0.848088  0.499899  0.151916  1
  In  In21  1  0.250354  0.250297  0.250374  1
  In  In22  1  0.749646  0.749703  0.749626  1
  Co  Co23  1  0.788303  0.788337  0.211619  1
  Co  Co24  1  0.000000  0.000000  0.000000  1
  Co  Co25  1  0.211954  0.788131  0.211925  1
  Co  Co26  1  0.211638  0.788314  0.788292  1
  Co  Co27  1  0.211697  0.211663  0.788381  1
  Co  Co28  1  0.788046  0.211869  0.788075  1
  Co  Co29  1  0.788362  0.211686  0.211708  1
