# generated using pymatgen
data_Ho4Al18PtRh5
_symmetry_space_group_name_H-M   'P 1'
_cell_length_a   7.55992359
_cell_length_b   7.55992318
_cell_length_c   9.45234102
_cell_angle_alpha   89.99076283
_cell_angle_beta   89.99076375
_cell_angle_gamma   119.50226660
_symmetry_Int_Tables_number   1
_chemical_formula_structural   Ho4Al18PtRh5
_chemical_formula_sum   'Ho4 Al18 Pt1 Rh5'
_cell_volume   470.17680716
_cell_formula_units_Z   1
loop_
 _symmetry_equiv_pos_site_id
 _symmetry_equiv_pos_as_xyz
  1  'x, y, z'
loop_
 _atom_site_type_symbol
 _atom_site_label
 _atom_site_symmetry_multiplicity
 _atom_site_fract_x
 _atom_site_fract_y
 _atom_site_fract_z
 _atom_site_occupancy
  Ho  Ho0  1  0.994494  0.669882  0.250123  1
  Ho  Ho1  1  0.004324  0.328900  0.750123  1
  Ho  Ho2  1  0.671100  0.995676  0.249877  1
  Ho  Ho3  1  0.330118  0.005506  0.749877  1
  Al  Al4  1  0.127096  0.126380  0.250250  1
  Al  Al5  1  0.873620  0.872904  0.749750  1
  Al  Al6  1  0.004695  0.335257  0.076754  1
  Al  Al7  1  0.002657  0.668491  0.923341  1
  Al  Al8  1  0.000231  0.664899  0.574953  1
  Al  Al9  1  0.335101  0.999769  0.425047  1
  Al  Al10  1  0.000993  0.334856  0.424630  1
  Al  Al11  1  0.665144  0.999007  0.575370  1
  Al  Al12  1  0.664743  0.995305  0.923246  1
  Al  Al13  1  0.331509  0.997343  0.076659  1
  Al  Al14  1  0.332572  0.332580  0.551322  1
  Al  Al15  1  0.667420  0.667428  0.448678  1
  Al  Al16  1  0.666438  0.669754  0.053747  1
  Al  Al17  1  0.330246  0.333562  0.946253  1
  Al  Al18  1  0.340048  0.550454  0.250289  1
  Al  Al19  1  0.660341  0.453561  0.746804  1
  Al  Al20  1  0.546439  0.339659  0.253196  1
  Al  Al21  1  0.449546  0.659952  0.749711  1
  Pt  Pt22  1  0.672310  0.327690  0.000000  1
  Rh  Rh23  1  0.327974  0.672026  0.000000  1
  Rh  Rh24  1  0.328176  0.671824  0.500000  1
  Rh  Rh25  1  0.672458  0.327542  0.500000  1
  Rh  Rh26  1  0.000072  0.999928  0.000000  1
  Rh  Rh27  1  0.000136  0.999864  0.500000  1
