# generated using pymatgen
data_Er8Be3Si13Mo12
_symmetry_space_group_name_H-M   'P 1'
_cell_length_a   6.69248604
_cell_length_b   6.85135349
_cell_length_c   12.87515900
_cell_angle_alpha   90.00000000
_cell_angle_beta   90.00000000
_cell_angle_gamma   90.09424167
_symmetry_Int_Tables_number   1
_chemical_formula_structural   Er8Be3Si13Mo12
_chemical_formula_sum   'Er8 Be3 Si13 Mo12'
_cell_volume   590.35855700
_cell_formula_units_Z   1
loop_
 _symmetry_equiv_pos_site_id
 _symmetry_equiv_pos_as_xyz
  1  'x, y, z'
loop_
 _atom_site_type_symbol
 _atom_site_label
 _atom_site_symmetry_multiplicity
 _atom_site_fract_x
 _atom_site_fract_y
 _atom_site_fract_z
 _atom_site_occupancy
  Er  Er0  1  0.498859  0.334191  0.093392  1
  Er  Er1  1  0.000532  0.169756  0.405397  1
  Er  Er2  1  0.498451  0.667686  0.596821  1
  Er  Er3  1  0.999119  0.832887  0.903243  1
  Er  Er4  1  0.498451  0.667686  0.903179  1
  Er  Er5  1  0.999119  0.832887  0.596757  1
  Er  Er6  1  0.498859  0.334191  0.406608  1
  Er  Er7  1  0.000532  0.169756  0.094603  1
  Be  Be8  1  0.540633  0.368266  0.750000  1
  Be  Be9  1  0.041630  0.132137  0.750000  1
  Be  Be10  1  0.458507  0.634634  0.250000  1
  Si  Si11  1  0.661435  0.043451  0.544202  1
  Si  Si12  1  0.160906  0.455407  0.954537  1
  Si  Si13  1  0.338741  0.956735  0.043836  1
  Si  Si14  1  0.837962  0.541752  0.457093  1
  Si  Si15  1  0.338741  0.956735  0.456164  1
  Si  Si16  1  0.837962  0.541752  0.042907  1
  Si  Si17  1  0.661435  0.043451  0.955798  1
  Si  Si18  1  0.160906  0.455407  0.545463  1
  Si  Si19  1  0.964057  0.867753  0.250000  1
  Si  Si20  1  0.794580  0.620012  0.750000  1
  Si  Si21  1  0.294743  0.879516  0.750000  1
  Si  Si22  1  0.205173  0.378178  0.250000  1
  Si  Si23  1  0.697205  0.131020  0.250000  1
  Mo  Mo24  1  0.836512  0.329200  0.628290  1
  Mo  Mo25  1  0.337192  0.169518  0.871901  1
  Mo  Mo26  1  0.167945  0.665231  0.125070  1
  Mo  Mo27  1  0.665169  0.830102  0.373121  1
  Mo  Mo28  1  0.167945  0.665231  0.374930  1
  Mo  Mo29  1  0.665169  0.830102  0.126879  1
  Mo  Mo30  1  0.836512  0.329200  0.871710  1
  Mo  Mo31  1  0.337192  0.169518  0.628099  1
  Mo  Mo32  1  0.664899  0.012294  0.750000  1
  Mo  Mo33  1  0.163725  0.487694  0.750000  1
  Mo  Mo34  1  0.335614  0.993369  0.250000  1
  Mo  Mo35  1  0.833588  0.503295  0.250000  1
