# generated using pymatgen
data_Ti(SeF6)2
_symmetry_space_group_name_H-M   'P 1'
_cell_length_a   6.22476400
_cell_length_b   7.72085400
_cell_length_c   9.85716400
_cell_angle_alpha   90.00000000
_cell_angle_beta   90.00000000
_cell_angle_gamma   90.00000000
_symmetry_Int_Tables_number   1
_chemical_formula_structural   Ti(SeF6)2
_chemical_formula_sum   'Ti2 Se4 F24'
_cell_volume   473.74017156
_cell_formula_units_Z   2
loop_
 _symmetry_equiv_pos_site_id
 _symmetry_equiv_pos_as_xyz
  1  'x, y, z'
loop_
 _atom_site_type_symbol
 _atom_site_label
 _atom_site_symmetry_multiplicity
 _atom_site_fract_x
 _atom_site_fract_y
 _atom_site_fract_z
 _atom_site_occupancy
  Ti  Ti0  1  0.000000  0.500000  0.000000  1
  Ti  Ti1  1  0.500000  0.000000  0.500000  1
  Se  Se2  1  0.500000  0.583240  0.238761  1
  Se  Se3  1  0.500000  0.416760  0.761239  1
  Se  Se4  1  0.000000  0.083240  0.261239  1
  Se  Se5  1  0.000000  0.916760  0.738761  1
  F  F6  1  0.215959  0.369137  0.910986  1
  F  F7  1  0.215959  0.630863  0.089014  1
  F  F8  1  0.284041  0.869137  0.589014  1
  F  F9  1  0.284041  0.130863  0.410986  1
  F  F10  1  0.784041  0.630863  0.089014  1
  F  F11  1  0.784041  0.369137  0.910986  1
  F  F12  1  0.798177  0.970684  0.853225  1
  F  F13  1  0.798177  0.029316  0.146775  1
  F  F14  1  0.701823  0.470684  0.646775  1
  F  F15  1  0.701823  0.529316  0.353225  1
  F  F16  1  0.201823  0.029316  0.146775  1
  F  F17  1  0.201823  0.970684  0.853225  1
  F  F18  1  0.298177  0.529316  0.353225  1
  F  F19  1  0.298177  0.470684  0.646775  1
  F  F20  1  0.000000  0.658053  0.853578  1
  F  F21  1  0.000000  0.341947  0.146422  1
  F  F22  1  0.500000  0.158053  0.646422  1
  F  F23  1  0.500000  0.841947  0.353578  1
  F  F24  1  0.500000  0.624968  0.830466  1
  F  F25  1  0.500000  0.375032  0.169534  1
  F  F26  1  0.000000  0.124968  0.669534  1
  F  F27  1  0.000000  0.875032  0.330466  1
  F  F28  1  0.715959  0.869137  0.589014  1
  F  F29  1  0.715959  0.130863  0.410986  1
