# generated using pymatgen
data_LaNd2Zn3Pd2Ru
_symmetry_space_group_name_H-M   'P 1'
_cell_length_a   7.36754761
_cell_length_b   7.37130658
_cell_length_c   4.03288100
_cell_angle_alpha   90.00000000
_cell_angle_beta   90.00000000
_cell_angle_gamma   119.41419120
_symmetry_Int_Tables_number   1
_chemical_formula_structural   LaNd2Zn3Pd2Ru
_chemical_formula_sum   'La1 Nd2 Zn3 Pd2 Ru1'
_cell_volume   190.78619896
_cell_formula_units_Z   1
loop_
 _symmetry_equiv_pos_site_id
 _symmetry_equiv_pos_as_xyz
  1  'x, y, z'
loop_
 _atom_site_type_symbol
 _atom_site_label
 _atom_site_symmetry_multiplicity
 _atom_site_fract_x
 _atom_site_fract_y
 _atom_site_fract_z
 _atom_site_occupancy
  La  La0  1  0.423459  0.408958  0.000000  1
  Nd  Nd1  1  0.593933  0.010090  0.000000  1
  Nd  Nd2  1  0.989761  0.580916  0.000000  1
  Zn  Zn3  1  0.762209  0.759139  0.500000  1
  Zn  Zn4  1  0.245609  0.998710  0.500000  1
  Zn  Zn5  1  0.993120  0.242671  0.500000  1
  Pd  Pd6  1  0.000987  0.000301  0.000000  1
  Pd  Pd7  1  0.331957  0.665647  0.500000  1
  Ru  Ru8  1  0.658966  0.333568  0.500000  1
