# generated using pymatgen
data_Er3Tm5Sc12Si15Os
_symmetry_space_group_name_H-M   'P 1'
_cell_length_a   7.04805148
_cell_length_b   7.40288670
_cell_length_c   13.88616711
_cell_angle_alpha   90.00993534
_cell_angle_beta   89.98946895
_cell_angle_gamma   90.18936648
_symmetry_Int_Tables_number   1
_chemical_formula_structural   Er3Tm5Sc12Si15Os
_chemical_formula_sum   'Er3 Tm5 Sc12 Si15 Os1'
_cell_volume   724.51965504
_cell_formula_units_Z   1
loop_
 _symmetry_equiv_pos_site_id
 _symmetry_equiv_pos_as_xyz
  1  'x, y, z'
loop_
 _atom_site_type_symbol
 _atom_site_label
 _atom_site_symmetry_multiplicity
 _atom_site_fract_x
 _atom_site_fract_y
 _atom_site_fract_z
 _atom_site_occupancy
  Er  Er0  1  0.011839  0.179944  0.403835  1
  Er  Er1  1  0.511581  0.322713  0.403983  1
  Er  Er2  1  0.488205  0.677098  0.595303  1
  Tm  Tm3  1  0.011973  0.180191  0.096278  1
  Tm  Tm4  1  0.990311  0.827605  0.904487  1
  Tm  Tm5  1  0.488120  0.677403  0.904589  1
  Tm  Tm6  1  0.990316  0.827590  0.595646  1
  Tm  Tm7  1  0.511608  0.322466  0.096116  1
  Sc  Sc8  1  0.156224  0.499031  0.750038  1
  Sc  Sc9  1  0.838928  0.495497  0.249881  1
  Sc  Sc10  1  0.340159  0.006806  0.249900  1
  Sc  Sc11  1  0.667760  0.995957  0.750044  1
  Sc  Sc12  1  0.316439  0.171230  0.627431  1
  Sc  Sc13  1  0.672753  0.826237  0.373746  1
  Sc  Sc14  1  0.171879  0.678339  0.374033  1
  Sc  Sc15  1  0.672692  0.826126  0.126122  1
  Sc  Sc16  1  0.837409  0.318599  0.627672  1
  Sc  Sc17  1  0.316439  0.171380  0.872677  1
  Sc  Sc18  1  0.837486  0.318498  0.872454  1
  Sc  Sc19  1  0.171898  0.678262  0.125841  1
  Si  Si20  1  0.970023  0.887240  0.249886  1
  Si  Si21  1  0.470527  0.613201  0.249883  1
  Si  Si22  1  0.528476  0.389794  0.750134  1
  Si  Si23  1  0.285369  0.863468  0.750192  1
  Si  Si24  1  0.714241  0.132740  0.249694  1
  Si  Si25  1  0.214815  0.369639  0.249681  1
  Si  Si26  1  0.778313  0.628037  0.750173  1
  Si  Si27  1  0.160212  0.469174  0.537143  1
  Si  Si28  1  0.843511  0.535989  0.461612  1
  Si  Si29  1  0.344006  0.966498  0.459858  1
  Si  Si30  1  0.843124  0.535503  0.038493  1
  Si  Si31  1  0.655837  0.033864  0.538432  1
  Si  Si32  1  0.160698  0.469059  0.962918  1
  Si  Si33  1  0.655741  0.033835  0.961615  1
  Si  Si34  1  0.343786  0.966776  0.040207  1
  Os  Os35  1  0.027301  0.104206  0.750000  1
