# generated using pymatgen
data_Ba2(B2Pt3)3
_symmetry_space_group_name_H-M   'P 1'
_cell_length_a   8.24070726
_cell_length_b   8.24070772
_cell_length_c   8.24070779
_cell_angle_alpha   82.51759219
_cell_angle_beta   82.51758925
_cell_angle_gamma   82.51759163
_symmetry_Int_Tables_number   1
_chemical_formula_structural   Ba2(B2Pt3)3
_chemical_formula_sum   'Ba4 B12 Pt18'
_cell_volume   546.46674777
_cell_formula_units_Z   2
loop_
 _symmetry_equiv_pos_site_id
 _symmetry_equiv_pos_as_xyz
  1  'x, y, z'
loop_
 _atom_site_type_symbol
 _atom_site_label
 _atom_site_symmetry_multiplicity
 _atom_site_fract_x
 _atom_site_fract_y
 _atom_site_fract_z
 _atom_site_occupancy
  Ba  Ba0  1  0.631964  0.631964  0.631964  1
  Ba  Ba1  1  0.868036  0.868036  0.868036  1
  Ba  Ba2  1  0.368036  0.368036  0.368036  1
  Ba  Ba3  1  0.131964  0.131964  0.131964  1
  B  B4  1  0.537292  0.189357  0.847261  1
  B  B5  1  0.847261  0.537292  0.189357  1
  B  B6  1  0.189357  0.847261  0.537292  1
  B  B7  1  0.962708  0.652739  0.310643  1
  B  B8  1  0.462708  0.810643  0.152739  1
  B  B9  1  0.152739  0.462708  0.810643  1
  B  B10  1  0.810643  0.152739  0.462708  1
  B  B11  1  0.037292  0.347261  0.689357  1
  B  B12  1  0.689357  0.037292  0.347261  1
  B  B13  1  0.347261  0.689357  0.037292  1
  B  B14  1  0.310643  0.962708  0.652739  1
  B  B15  1  0.652739  0.310643  0.962708  1
  Pt  Pt16  1  0.421180  0.928311  0.398638  1
  Pt  Pt17  1  0.078820  0.101362  0.571689  1
  Pt  Pt18  1  0.928311  0.398638  0.421180  1
  Pt  Pt19  1  0.571689  0.078820  0.101362  1
  Pt  Pt20  1  0.601362  0.578820  0.071689  1
  Pt  Pt21  1  0.578820  0.071689  0.601362  1
  Pt  Pt22  1  0.071689  0.601362  0.578820  1
  Pt  Pt23  1  0.921180  0.898638  0.428311  1
  Pt  Pt24  1  0.898638  0.428311  0.921180  1
  Pt  Pt25  1  0.428311  0.921180  0.898638  1
  Pt  Pt26  1  0.750000  0.279627  0.220373  1
  Pt  Pt27  1  0.220373  0.750000  0.279627  1
  Pt  Pt28  1  0.279627  0.220373  0.750000  1
  Pt  Pt29  1  0.250000  0.720373  0.779627  1
  Pt  Pt30  1  0.779627  0.250000  0.720373  1
  Pt  Pt31  1  0.720373  0.779627  0.250000  1
  Pt  Pt32  1  0.101362  0.571689  0.078820  1
  Pt  Pt33  1  0.398638  0.421180  0.928311  1
