# generated using pymatgen
data_Ru2Rh2Pb4O13
_symmetry_space_group_name_H-M   'P 1'
_cell_length_a   7.35856455
_cell_length_b   7.31509428
_cell_length_c   7.31509416
_cell_angle_alpha   59.64267752
_cell_angle_beta   59.80323495
_cell_angle_gamma   59.80322894
_symmetry_Int_Tables_number   1
_chemical_formula_structural   Ru2Rh2Pb4O13
_chemical_formula_sum   'Ru2 Rh2 Pb4 O13'
_cell_volume   276.84731823
_cell_formula_units_Z   1
loop_
 _symmetry_equiv_pos_site_id
 _symmetry_equiv_pos_as_xyz
  1  'x, y, z'
loop_
 _atom_site_type_symbol
 _atom_site_label
 _atom_site_symmetry_multiplicity
 _atom_site_fract_x
 _atom_site_fract_y
 _atom_site_fract_z
 _atom_site_occupancy
  Ru  Ru0  1  0.872354  0.876997  0.876997  1
  Ru  Ru1  1  0.373651  0.876997  0.876997  1
  Rh  Rh2  1  0.874177  0.375940  0.875706  1
  Rh  Rh3  1  0.874177  0.875706  0.375940  1
  Pb  Pb4  1  0.878498  0.373266  0.373266  1
  Pb  Pb5  1  0.374971  0.373266  0.373266  1
  Pb  Pb6  1  0.370310  0.377463  0.881917  1
  Pb  Pb7  1  0.370310  0.881917  0.377463  1
  O  O8  1  0.202352  0.797648  0.797648  1
  O  O9  1  0.204351  0.800943  0.198410  1
  O  O10  1  0.562239  0.937761  0.937761  1
  O  O11  1  0.545221  0.946748  0.552986  1
  O  O12  1  0.955046  0.946748  0.552986  1
  O  O13  1  0.796296  0.800943  0.198410  1
  O  O14  1  0.545221  0.552986  0.946748  1
  O  O15  1  0.796296  0.198410  0.800943  1
  O  O16  1  0.791764  0.208236  0.208236  1
  O  O17  1  0.955046  0.552986  0.946748  1
  O  O18  1  0.954990  0.545010  0.545010  1
  O  O19  1  0.204351  0.198410  0.800943  1
  O  O20  1  0.498381  0.501619  0.501619  1
