# generated using pymatgen
data_CsGe2HO5
_symmetry_space_group_name_H-M   'P 1'
_cell_length_a   5.16183700
_cell_length_b   8.96041400
_cell_length_c   13.18686600
_cell_angle_alpha   90.00000000
_cell_angle_beta   90.00000000
_cell_angle_gamma   90.00000000
_symmetry_Int_Tables_number   1
_chemical_formula_structural   CsGe2HO5
_chemical_formula_sum   'Cs4 Ge8 H4 O20'
_cell_volume   609.92151772
_cell_formula_units_Z   4
loop_
 _symmetry_equiv_pos_site_id
 _symmetry_equiv_pos_as_xyz
  1  'x, y, z'
loop_
 _atom_site_type_symbol
 _atom_site_label
 _atom_site_symmetry_multiplicity
 _atom_site_fract_x
 _atom_site_fract_y
 _atom_site_fract_z
 _atom_site_occupancy
  Cs  Cs0  1  0.008641  0.250000  0.528885  1
  Cs  Cs1  1  0.491359  0.250000  0.028885  1
  Cs  Cs2  1  0.991359  0.750000  0.471115  1
  Cs  Cs3  1  0.508641  0.750000  0.971115  1
  Ge  Ge4  1  0.501938  0.566808  0.689760  1
  Ge  Ge5  1  0.998062  0.933192  0.189760  1
  Ge  Ge6  1  0.498062  0.066808  0.310240  1
  Ge  Ge7  1  0.001938  0.433192  0.810240  1
  Ge  Ge8  1  0.498062  0.433192  0.310240  1
  Ge  Ge9  1  0.001938  0.066808  0.810240  1
  Ge  Ge10  1  0.501938  0.933192  0.689760  1
  Ge  Ge11  1  0.998062  0.566808  0.189760  1
  H  H12  1  0.500000  0.000000  0.500000  1
  H  H13  1  0.000000  0.500000  0.000000  1
  H  H14  1  0.500000  0.500000  0.500000  1
  H  H15  1  0.000000  0.000000  0.000000  1
  O  O16  1  0.272862  0.555028  0.791061  1
  O  O17  1  0.227138  0.944972  0.291061  1
  O  O18  1  0.727138  0.055028  0.208939  1
  O  O19  1  0.772862  0.444972  0.708939  1
  O  O20  1  0.727138  0.444972  0.208939  1
  O  O21  1  0.772862  0.055028  0.708939  1
  O  O22  1  0.272862  0.944972  0.791061  1
  O  O23  1  0.227138  0.555028  0.291061  1
  O  O24  1  0.363804  0.527494  0.572947  1
  O  O25  1  0.136196  0.972506  0.072947  1
  O  O26  1  0.636196  0.027494  0.427053  1
  O  O27  1  0.863804  0.472506  0.927053  1
  O  O28  1  0.636196  0.472506  0.427053  1
  O  O29  1  0.863804  0.027494  0.927053  1
  O  O30  1  0.363804  0.972506  0.572947  1
  O  O31  1  0.136196  0.527494  0.072947  1
  O  O32  1  0.141088  0.250000  0.798047  1
  O  O33  1  0.358912  0.250000  0.298047  1
  O  O34  1  0.858912  0.750000  0.201953  1
  O  O35  1  0.641088  0.750000  0.701953  1
