# generated using pymatgen
data_Nd2SnRhF14
_symmetry_space_group_name_H-M   'P 1'
_cell_length_a   5.68442300
_cell_length_b   9.22919009
_cell_length_c   12.35707300
_cell_angle_alpha   62.23330969
_cell_angle_beta   90.00000000
_cell_angle_gamma   90.00000000
_symmetry_Int_Tables_number   1
_chemical_formula_structural   Nd2SnRhF14
_chemical_formula_sum   'Nd4 Sn2 Rh2 F28'
_cell_volume   573.63575297
_cell_formula_units_Z   2
loop_
 _symmetry_equiv_pos_site_id
 _symmetry_equiv_pos_as_xyz
  1  'x, y, z'
loop_
 _atom_site_type_symbol
 _atom_site_label
 _atom_site_symmetry_multiplicity
 _atom_site_fract_x
 _atom_site_fract_y
 _atom_site_fract_z
 _atom_site_occupancy
  Nd  Nd0  1  0.761288  0.811323  0.767742  1
  Nd  Nd1  1  0.261288  0.188677  0.732258  1
  Nd  Nd2  1  0.239666  0.189634  0.237988  1
  Nd  Nd3  1  0.739666  0.810366  0.262012  1
  Sn  Sn4  1  0.754724  0.273665  0.958568  1
  Sn  Sn5  1  0.254724  0.726335  0.541432  1
  Rh  Rh6  1  0.243294  0.725820  0.043574  1
  Rh  Rh7  1  0.743294  0.274180  0.456426  1
  F  F8  1  0.433553  0.709940  0.918772  1
  F  F9  1  0.933553  0.290060  0.581228  1
  F  F10  1  0.552152  0.293013  0.083357  1
  F  F11  1  0.052152  0.706987  0.416643  1
  F  F12  1  0.453304  0.282346  0.541687  1
  F  F13  1  0.953304  0.717654  0.958313  1
  F  F14  1  0.547839  0.715466  0.454888  1
  F  F15  1  0.047839  0.284534  0.045112  1
  F  F16  1  0.766019  0.517085  0.861936  1
  F  F17  1  0.266019  0.482915  0.638064  1
  F  F18  1  0.236463  0.490472  0.139989  1
  F  F19  1  0.736463  0.509528  0.360011  1
  F  F20  1  0.760789  0.029830  0.052784  1
  F  F21  1  0.260789  0.970170  0.447216  1
  F  F22  1  0.240765  0.961488  0.950356  1
  F  F23  1  0.740765  0.038512  0.549644  1
  F  F24  1  0.970438  0.731787  0.634945  1
  F  F25  1  0.470438  0.268213  0.865055  1
  F  F26  1  0.026957  0.271200  0.366423  1
  F  F27  1  0.526957  0.728800  0.133577  1
  F  F28  1  0.055724  0.741866  0.169299  1
  F  F29  1  0.555724  0.258134  0.330701  1
  F  F30  1  0.951271  0.255588  0.830294  1
  F  F31  1  0.451271  0.744412  0.669706  1
  F  F32  1  0.412576  0.969774  0.233150  1
  F  F33  1  0.912576  0.030226  0.266850  1
  F  F34  1  0.593177  0.031368  0.772317  1
  F  F35  1  0.093177  0.968632  0.727683  1
