# generated using pymatgen
data_Y14Ho2Cd2In2RuRh3
_symmetry_space_group_name_H-M   'P 1'
_cell_length_a   9.69699097
_cell_length_b   9.71418127
_cell_length_c   9.69699900
_cell_angle_alpha   59.85517992
_cell_angle_beta   59.77475560
_cell_angle_gamma   59.85518273
_symmetry_Int_Tables_number   1
_chemical_formula_structural   Y14Ho2Cd2In2RuRh3
_chemical_formula_sum   'Y14 Ho2 Cd2 In2 Ru1 Rh3'
_cell_volume   643.38350234
_cell_formula_units_Z   1
loop_
 _symmetry_equiv_pos_site_id
 _symmetry_equiv_pos_as_xyz
  1  'x, y, z'
loop_
 _atom_site_type_symbol
 _atom_site_label
 _atom_site_symmetry_multiplicity
 _atom_site_fract_x
 _atom_site_fract_y
 _atom_site_fract_z
 _atom_site_occupancy
  Y  Y0  1  0.187657  0.188002  0.811960  1
  Y  Y1  1  0.599499  0.600174  0.201677  1
  Y  Y2  1  0.440321  0.056695  0.441371  1
  Y  Y3  1  0.441897  0.442732  0.056786  1
  Y  Y4  1  0.811941  0.188375  0.812354  1
  Y  Y5  1  0.187448  0.813127  0.189943  1
  Y  Y6  1  0.438646  0.057678  0.060944  1
  Y  Y7  1  0.187849  0.814246  0.809785  1
  Y  Y8  1  0.059342  0.439467  0.058814  1
  Y  Y9  1  0.809461  0.814234  0.188724  1
  Y  Y10  1  0.202375  0.599918  0.599683  1
  Y  Y11  1  0.057990  0.440911  0.441298  1
  Y  Y12  1  0.061971  0.058759  0.437935  1
  Y  Y13  1  0.811610  0.186972  0.189009  1
  Ho  Ho14  1  0.599142  0.202521  0.600008  1
  Ho  Ho15  1  0.598401  0.599492  0.598597  1
  Cd  Cd16  1  0.831912  0.832085  0.830994  1
  Cd  Cd17  1  0.831930  0.832563  0.503067  1
  In  In18  1  0.503425  0.832678  0.830923  1
  In  In19  1  0.832117  0.504351  0.830331  1
  Ru  Ru20  1  0.393925  0.823723  0.393793  1
  Rh  Rh21  1  0.393498  0.389331  0.393334  1
  Rh  Rh22  1  0.822974  0.391235  0.394974  1
  Rh  Rh23  1  0.394669  0.390732  0.823698  1
