# generated using pymatgen
data_Sm3V(Co4P3)2
_symmetry_space_group_name_H-M   'P 1'
_cell_length_a   3.72885700
_cell_length_b   10.64634200
_cell_length_c   12.34200300
_cell_angle_alpha   90.00000000
_cell_angle_beta   90.00000000
_cell_angle_gamma   90.00000000
_symmetry_Int_Tables_number   1
_chemical_formula_structural   Sm3V(Co4P3)2
_chemical_formula_sum   'Sm6 V2 Co16 P12'
_cell_volume   489.96131271
_cell_formula_units_Z   2
loop_
 _symmetry_equiv_pos_site_id
 _symmetry_equiv_pos_as_xyz
  1  'x, y, z'
loop_
 _atom_site_type_symbol
 _atom_site_label
 _atom_site_symmetry_multiplicity
 _atom_site_fract_x
 _atom_site_fract_y
 _atom_site_fract_z
 _atom_site_occupancy
  Sm  Sm0  1  0.000000  0.500000  0.523128  1
  Sm  Sm1  1  0.500000  0.000000  0.476872  1
  Sm  Sm2  1  0.500000  0.818049  0.204596  1
  Sm  Sm3  1  0.500000  0.181951  0.204596  1
  Sm  Sm4  1  0.000000  0.681951  0.795404  1
  Sm  Sm5  1  0.000000  0.318049  0.795404  1
  V  V6  1  0.500000  0.500000  0.153230  1
  V  V7  1  0.000000  0.000000  0.846770  1
  Co  Co8  1  0.500000  0.500000  0.702863  1
  Co  Co9  1  0.000000  0.000000  0.297137  1
  Co  Co10  1  0.000000  0.500000  0.987232  1
  Co  Co11  1  0.500000  0.000000  0.012768  1
  Co  Co12  1  0.500000  0.332575  0.993691  1
  Co  Co13  1  0.500000  0.667425  0.993691  1
  Co  Co14  1  0.000000  0.167425  0.006309  1
  Co  Co15  1  0.000000  0.832575  0.006309  1
  Co  Co16  1  0.500000  0.295931  0.430955  1
  Co  Co17  1  0.500000  0.704069  0.430955  1
  Co  Co18  1  0.000000  0.204069  0.569045  1
  Co  Co19  1  0.000000  0.795931  0.569045  1
  Co  Co20  1  0.500000  0.880213  0.708355  1
  Co  Co21  1  0.500000  0.119787  0.708355  1
  Co  Co22  1  0.000000  0.619787  0.291645  1
  Co  Co23  1  0.000000  0.380213  0.291645  1
  P  P24  1  0.500000  0.500000  0.884276  1
  P  P25  1  0.000000  0.000000  0.115724  1
  P  P26  1  0.500000  0.500000  0.344503  1
  P  P27  1  0.000000  0.000000  0.655497  1
  P  P28  1  0.500000  0.308602  0.614897  1
  P  P29  1  0.500000  0.691398  0.614897  1
  P  P30  1  0.000000  0.191398  0.385103  1
  P  P31  1  0.000000  0.808602  0.385103  1
  P  P32  1  0.500000  0.847377  0.893553  1
  P  P33  1  0.500000  0.152623  0.893553  1
  P  P34  1  0.000000  0.652623  0.106447  1
  P  P35  1  0.000000  0.347377  0.106447  1
