# generated using pymatgen
data_EuNi5GeP2
_symmetry_space_group_name_H-M   'P 1'
_cell_length_a   6.17729965
_cell_length_b   6.17729952
_cell_length_c   11.59804100
_cell_angle_alpha   90.00000000
_cell_angle_beta   90.00000000
_cell_angle_gamma   145.24536934
_symmetry_Int_Tables_number   1
_chemical_formula_structural   EuNi5GeP2
_chemical_formula_sum   'Eu2 Ni10 Ge2 P4'
_cell_volume   252.29285355
_cell_formula_units_Z   2
loop_
 _symmetry_equiv_pos_site_id
 _symmetry_equiv_pos_as_xyz
  1  'x, y, z'
loop_
 _atom_site_type_symbol
 _atom_site_label
 _atom_site_symmetry_multiplicity
 _atom_site_fract_x
 _atom_site_fract_y
 _atom_site_fract_z
 _atom_site_occupancy
  Eu  Eu0  1  0.156936  0.843064  0.250000  1
  Eu  Eu1  1  0.843064  0.156936  0.750000  1
  Ni  Ni2  1  0.454163  0.545837  0.141720  1
  Ni  Ni3  1  0.454163  0.545837  0.358280  1
  Ni  Ni4  1  0.198823  0.801177  0.940956  1
  Ni  Ni5  1  0.545837  0.454163  0.858280  1
  Ni  Ni6  1  0.801177  0.198823  0.440956  1
  Ni  Ni7  1  0.545837  0.454163  0.641720  1
  Ni  Ni8  1  0.198823  0.801177  0.559044  1
  Ni  Ni9  1  0.000000  0.000000  0.000000  1
  Ni  Ni10  1  0.000000  0.000000  0.500000  1
  Ni  Ni11  1  0.801177  0.198823  0.059044  1
  Ge  Ge12  1  0.117961  0.882039  0.750000  1
  Ge  Ge13  1  0.882039  0.117961  0.250000  1
  P  P14  1  0.381525  0.618475  0.962194  1
  P  P15  1  0.381525  0.618475  0.537806  1
  P  P16  1  0.618475  0.381525  0.462194  1
  P  P17  1  0.618475  0.381525  0.037806  1
