# generated using pymatgen
data_Na4YUO6
_symmetry_space_group_name_H-M   'P 1'
_cell_length_a   5.85460879
_cell_length_b   5.85463796
_cell_length_c   5.94886500
_cell_angle_alpha   99.61981527
_cell_angle_beta   99.62063790
_cell_angle_gamma   119.89919607
_symmetry_Int_Tables_number   1
_chemical_formula_structural   Na4YUO6
_chemical_formula_sum   'Na4 Y1 U1 O6'
_cell_volume   166.63367651
_cell_formula_units_Z   1
loop_
 _symmetry_equiv_pos_site_id
 _symmetry_equiv_pos_as_xyz
  1  'x, y, z'
loop_
 _atom_site_type_symbol
 _atom_site_label
 _atom_site_symmetry_multiplicity
 _atom_site_fract_x
 _atom_site_fract_y
 _atom_site_fract_z
 _atom_site_occupancy
  Na  Na0  1  0.499790  0.500211  0.000002  1
  Na  Na1  1  0.003793  0.996189  0.499996  1
  Na  Na2  1  0.658079  0.341923  0.499999  1
  Na  Na3  1  0.339774  0.660232  0.499995  1
  Y  Y4  1  0.833090  0.166892  0.999996  1
  U  U5  1  0.167096  0.832921  0.000017  1
  O  O6  1  0.943285  0.588080  0.213473  1
  O  O7  1  0.558001  0.928746  0.216771  1
  O  O8  1  0.217757  0.203709  0.219303  1
  O  O9  1  0.796258  0.782253  0.780683  1
  O  O10  1  0.071277  0.442048  0.783245  1
  O  O11  1  0.411885  0.056716  0.786522  1
