# generated using pymatgen
data_Ho2Si2RuRh
_symmetry_space_group_name_H-M   'P 1'
_cell_length_a   4.31477400
_cell_length_b   6.93556384
_cell_length_c   7.18849793
_cell_angle_alpha   90.05740685
_cell_angle_beta   90.00000000
_cell_angle_gamma   90.00000000
_symmetry_Int_Tables_number   1
_chemical_formula_structural   Ho2Si2RuRh
_chemical_formula_sum   'Ho4 Si4 Ru2 Rh2'
_cell_volume   215.11850004
_cell_formula_units_Z   2
loop_
 _symmetry_equiv_pos_site_id
 _symmetry_equiv_pos_as_xyz
  1  'x, y, z'
loop_
 _atom_site_type_symbol
 _atom_site_label
 _atom_site_symmetry_multiplicity
 _atom_site_fract_x
 _atom_site_fract_y
 _atom_site_fract_z
 _atom_site_occupancy
  Ho  Ho0  1  0.250000  0.986376  0.811942  1
  Ho  Ho1  1  0.750000  0.013624  0.188058  1
  Ho  Ho2  1  0.250000  0.492721  0.686025  1
  Ho  Ho3  1  0.750000  0.507279  0.313975  1
  Si  Si4  1  0.250000  0.302132  0.099796  1
  Si  Si5  1  0.750000  0.697868  0.900204  1
  Si  Si6  1  0.250000  0.799548  0.385653  1
  Si  Si7  1  0.750000  0.200452  0.614347  1
  Ru  Ru8  1  0.750000  0.345942  0.931792  1
  Ru  Ru9  1  0.250000  0.654058  0.068208  1
  Rh  Rh10  1  0.750000  0.846807  0.565440  1
  Rh  Rh11  1  0.250000  0.153193  0.434560  1
