# generated using pymatgen
data_Pr2Ga5CoPt2
_symmetry_space_group_name_H-M   'P 1'
_cell_length_a   8.64338965
_cell_length_b   8.64338940
_cell_length_c   8.64338818
_cell_angle_alpha   140.60775538
_cell_angle_beta   107.04703937
_cell_angle_gamma   86.21709405
_symmetry_Int_Tables_number   1
_chemical_formula_structural   Pr2Ga5CoPt2
_chemical_formula_sum   'Pr4 Ga10 Co2 Pt4'
_cell_volume   377.82270280
_cell_formula_units_Z   2
loop_
 _symmetry_equiv_pos_site_id
 _symmetry_equiv_pos_as_xyz
  1  'x, y, z'
loop_
 _atom_site_type_symbol
 _atom_site_label
 _atom_site_symmetry_multiplicity
 _atom_site_fract_x
 _atom_site_fract_y
 _atom_site_fract_z
 _atom_site_occupancy
  Pr  Pr0  1  0.863210  0.636959  0.226250  1
  Pr  Pr1  1  0.136790  0.363041  0.773750  1
  Pr  Pr2  1  0.410710  0.136959  0.273750  1
  Pr  Pr3  1  0.589290  0.863041  0.726250  1
  Ga  Ga4  1  0.500000  0.750000  0.250000  1
  Ga  Ga5  1  0.500000  0.250000  0.750000  1
  Ga  Ga6  1  0.205621  0.955621  0.750000  1
  Ga  Ga7  1  0.794379  0.544379  0.750000  1
  Ga  Ga8  1  0.794379  0.044379  0.250000  1
  Ga  Ga9  1  0.205621  0.455621  0.250000  1
  Ga  Ga10  1  0.068039  0.912008  0.156032  1
  Ga  Ga11  1  0.931961  0.087992  0.843968  1
  Ga  Ga12  1  0.755975  0.412008  0.343968  1
  Ga  Ga13  1  0.244025  0.587992  0.656032  1
  Co  Co14  1  0.000000  0.750000  0.750000  1
  Co  Co15  1  0.000000  0.250000  0.250000  1
  Pt  Pt16  1  0.250418  0.854204  0.396216  1
  Pt  Pt17  1  0.749582  0.145796  0.603784  1
  Pt  Pt18  1  0.457987  0.354204  0.103784  1
  Pt  Pt19  1  0.542013  0.645796  0.896216  1
