# generated using pymatgen
data_HoTh7(Si3Pd)4
_symmetry_space_group_name_H-M   'P 1'
_cell_length_a   8.23176100
_cell_length_b   8.23176149
_cell_length_c   8.46998900
_cell_angle_alpha   90.00000000
_cell_angle_beta   90.00000000
_cell_angle_gamma   119.99999401
_symmetry_Int_Tables_number   1
_chemical_formula_structural   HoTh7(Si3Pd)4
_chemical_formula_sum   'Ho1 Th7 Si12 Pd4'
_cell_volume   497.04880674
_cell_formula_units_Z   1
loop_
 _symmetry_equiv_pos_site_id
 _symmetry_equiv_pos_as_xyz
  1  'x, y, z'
loop_
 _atom_site_type_symbol
 _atom_site_label
 _atom_site_symmetry_multiplicity
 _atom_site_fract_x
 _atom_site_fract_y
 _atom_site_fract_z
 _atom_site_occupancy
  Ho  Ho0  1  0.000000  0.000000  0.750000  1
  Th  Th1  1  0.500155  0.000308  0.250000  1
  Th  Th2  1  0.499891  0.999783  0.750000  1
  Th  Th3  1  0.999692  0.499845  0.250000  1
  Th  Th4  1  0.000217  0.500109  0.750000  1
  Th  Th5  1  0.500155  0.499845  0.250000  1
  Th  Th6  1  0.499891  0.500109  0.750000  1
  Th  Th7  1  0.000000  0.000000  0.250000  1
  Si  Si8  1  0.165243  0.330484  0.997073  1
  Si  Si9  1  0.834771  0.669543  0.996119  1
  Si  Si10  1  0.669516  0.834757  0.997073  1
  Si  Si11  1  0.834771  0.669543  0.503881  1
  Si  Si12  1  0.330457  0.165229  0.996119  1
  Si  Si13  1  0.165243  0.330484  0.502927  1
  Si  Si14  1  0.165243  0.834757  0.997073  1
  Si  Si15  1  0.330457  0.165229  0.503881  1
  Si  Si16  1  0.834771  0.165229  0.996119  1
  Si  Si17  1  0.669516  0.834757  0.502927  1
  Si  Si18  1  0.834771  0.165229  0.503881  1
  Si  Si19  1  0.165243  0.834757  0.502927  1
  Pd  Pd20  1  0.333333  0.666667  0.001550  1
  Pd  Pd21  1  0.666667  0.333333  0.001291  1
  Pd  Pd22  1  0.666667  0.333333  0.498709  1
  Pd  Pd23  1  0.333333  0.666667  0.498450  1
