# generated using pymatgen
data_HoTm4Pa3(ReB6)4
_symmetry_space_group_name_H-M   'P 1'
_cell_length_a   3.68917400
_cell_length_b   9.12759081
_cell_length_c   11.48655903
_cell_angle_alpha   90.13756344
_cell_angle_beta   90.00000000
_cell_angle_gamma   90.00000000
_symmetry_Int_Tables_number   1
_chemical_formula_structural   HoTm4Pa3(ReB6)4
_chemical_formula_sum   'Ho1 Tm4 Pa3 Re4 B24'
_cell_volume   386.78889684
_cell_formula_units_Z   1
loop_
 _symmetry_equiv_pos_site_id
 _symmetry_equiv_pos_as_xyz
  1  'x, y, z'
loop_
 _atom_site_type_symbol
 _atom_site_label
 _atom_site_symmetry_multiplicity
 _atom_site_fract_x
 _atom_site_fract_y
 _atom_site_fract_z
 _atom_site_occupancy
  Ho  Ho0  1  0.000000  0.179495  0.913093  1
  Tm  Tm1  1  0.000000  0.945485  0.374509  1
  Tm  Tm2  1  0.000000  0.055517  0.627349  1
  Tm  Tm3  1  0.000000  0.443512  0.124923  1
  Tm  Tm4  1  0.000000  0.553791  0.874047  1
  Pa  Pa5  1  0.000000  0.321112  0.413325  1
  Pa  Pa6  1  0.000000  0.678248  0.587355  1
  Pa  Pa7  1  0.000000  0.823177  0.085932  1
  Re  Re8  1  0.000000  0.638589  0.321394  1
  Re  Re9  1  0.000000  0.363595  0.676011  1
  Re  Re10  1  0.000000  0.138059  0.180918  1
  Re  Re11  1  0.000000  0.859444  0.821114  1
  B  B12  1  0.500000  0.553780  0.432475  1
  B  B13  1  0.500000  0.446657  0.566637  1
  B  B14  1  0.500000  0.053297  0.067734  1
  B  B15  1  0.500000  0.945667  0.933079  1
  B  B16  1  0.500000  0.749663  0.420207  1
  B  B17  1  0.500000  0.250812  0.580597  1
  B  B18  1  0.500000  0.248730  0.079420  1
  B  B19  1  0.500000  0.751268  0.920227  1
  B  B20  1  0.500000  0.792941  0.265486  1
  B  B21  1  0.500000  0.207488  0.734336  1
  B  B22  1  0.500000  0.292773  0.233337  1
  B  B23  1  0.500000  0.706948  0.765991  1
  B  B24  1  0.500000  0.632109  0.184353  1
  B  B25  1  0.500000  0.367914  0.814862  1
  B  B26  1  0.500000  0.132286  0.315373  1
  B  B27  1  0.500000  0.868107  0.685803  1
  B  B28  1  0.500000  0.982594  0.213235  1
  B  B29  1  0.500000  0.018106  0.786855  1
  B  B30  1  0.500000  0.482645  0.285508  1
  B  B31  1  0.500000  0.516887  0.714126  1
  B  B32  1  0.500000  0.607519  0.029800  1
  B  B33  1  0.500000  0.391612  0.969746  1
  B  B34  1  0.500000  0.108209  0.470515  1
  B  B35  1  0.500000  0.891965  0.530334  1
