# generated using pymatgen
data_Sr12In5Ge3Pt8
_symmetry_space_group_name_H-M   'P 1'
_cell_length_a   6.10933226
_cell_length_b   8.67651133
_cell_length_c   14.38503200
_cell_angle_alpha   90.00000000
_cell_angle_beta   90.00000000
_cell_angle_gamma   89.92124851
_symmetry_Int_Tables_number   1
_chemical_formula_structural   Sr12In5Ge3Pt8
_chemical_formula_sum   'Sr12 In5 Ge3 Pt8'
_cell_volume   762.51660454
_cell_formula_units_Z   1
loop_
 _symmetry_equiv_pos_site_id
 _symmetry_equiv_pos_as_xyz
  1  'x, y, z'
loop_
 _atom_site_type_symbol
 _atom_site_label
 _atom_site_symmetry_multiplicity
 _atom_site_fract_x
 _atom_site_fract_y
 _atom_site_fract_z
 _atom_site_occupancy
  Sr  Sr0  1  0.148760  0.603468  0.101203  1
  Sr  Sr1  1  0.147237  0.899931  0.905100  1
  Sr  Sr2  1  0.849910  0.104606  0.397427  1
  Sr  Sr3  1  0.846004  0.392367  0.595974  1
  Sr  Sr4  1  0.846004  0.392367  0.904026  1
  Sr  Sr5  1  0.849910  0.104606  0.102573  1
  Sr  Sr6  1  0.147237  0.899931  0.594900  1
  Sr  Sr7  1  0.148760  0.603468  0.398797  1
  Sr  Sr8  1  0.354004  0.251867  0.250000  1
  Sr  Sr9  1  0.360292  0.244351  0.750000  1
  Sr  Sr10  1  0.647551  0.750825  0.250000  1
  Sr  Sr11  1  0.636020  0.755652  0.750000  1
  In  In12  1  0.366470  0.247961  0.002314  1
  In  In13  1  0.634937  0.752842  0.498292  1
  In  In14  1  0.634937  0.752842  0.001708  1
  In  In15  1  0.366470  0.247961  0.497686  1
  In  In16  1  0.143376  0.599810  0.750000  1
  Ge  Ge17  1  0.844318  0.401377  0.250000  1
  Ge  Ge18  1  0.848499  0.100011  0.750000  1
  Ge  Ge19  1  0.158983  0.898881  0.250000  1
  Pt  Pt20  1  0.635502  0.460849  0.102338  1
  Pt  Pt21  1  0.638787  0.040080  0.899924  1
  Pt  Pt22  1  0.364063  0.961611  0.398255  1
  Pt  Pt23  1  0.371809  0.534898  0.591562  1
  Pt  Pt24  1  0.371809  0.534898  0.908438  1
  Pt  Pt25  1  0.364063  0.961611  0.101745  1
  Pt  Pt26  1  0.638787  0.040080  0.600076  1
  Pt  Pt27  1  0.635502  0.460849  0.397662  1
