# generated using pymatgen
data_DyHo4(Cd2Pd)2
_symmetry_space_group_name_H-M   'P 1'
_cell_length_a   3.64689100
_cell_length_b   7.97083500
_cell_length_c   18.29511500
_cell_angle_alpha   90.00000000
_cell_angle_beta   90.00000000
_cell_angle_gamma   90.00000000
_symmetry_Int_Tables_number   1
_chemical_formula_structural   DyHo4(Cd2Pd)2
_chemical_formula_sum   'Dy2 Ho8 Cd8 Pd4'
_cell_volume   531.81642463
_cell_formula_units_Z   2
loop_
 _symmetry_equiv_pos_site_id
 _symmetry_equiv_pos_as_xyz
  1  'x, y, z'
loop_
 _atom_site_type_symbol
 _atom_site_label
 _atom_site_symmetry_multiplicity
 _atom_site_fract_x
 _atom_site_fract_y
 _atom_site_fract_z
 _atom_site_occupancy
  Dy  Dy0  1  0.000000  0.500000  0.500000  1
  Dy  Dy1  1  0.000000  0.000000  0.000000  1
  Ho  Ho2  1  0.000000  0.739354  0.281954  1
  Ho  Ho3  1  0.000000  0.260646  0.718046  1
  Ho  Ho4  1  0.000000  0.760646  0.781954  1
  Ho  Ho5  1  0.000000  0.239354  0.218046  1
  Ho  Ho6  1  0.000000  0.614585  0.084414  1
  Ho  Ho7  1  0.000000  0.385415  0.915586  1
  Ho  Ho8  1  0.000000  0.885415  0.584414  1
  Ho  Ho9  1  0.000000  0.114585  0.415586  1
  Cd  Cd10  1  0.500000  0.712835  0.932929  1
  Cd  Cd11  1  0.500000  0.287165  0.067071  1
  Cd  Cd12  1  0.500000  0.787165  0.432929  1
  Cd  Cd13  1  0.500000  0.212835  0.567071  1
  Cd  Cd14  1  0.500000  0.576592  0.648397  1
  Cd  Cd15  1  0.500000  0.423408  0.351603  1
  Cd  Cd16  1  0.500000  0.923408  0.148397  1
  Cd  Cd17  1  0.500000  0.076592  0.851603  1
  Pd  Pd18  1  0.500000  0.525303  0.195759  1
  Pd  Pd19  1  0.500000  0.474697  0.804241  1
  Pd  Pd20  1  0.500000  0.974697  0.695759  1
  Pd  Pd21  1  0.500000  0.025303  0.304241  1
