# generated using pymatgen
data_PuPa4Mn7
_symmetry_space_group_name_H-M   'P 1'
_cell_length_a   5.25742700
_cell_length_b   5.25742596
_cell_length_c   8.07040600
_cell_angle_alpha   90.00000000
_cell_angle_beta   90.00000000
_cell_angle_gamma   119.99998770
_symmetry_Int_Tables_number   1
_chemical_formula_structural   PuPa4Mn7
_chemical_formula_sum   'Pu1 Pa4 Mn7'
_cell_volume   193.18459198
_cell_formula_units_Z   1
loop_
 _symmetry_equiv_pos_site_id
 _symmetry_equiv_pos_as_xyz
  1  'x, y, z'
loop_
 _atom_site_type_symbol
 _atom_site_label
 _atom_site_symmetry_multiplicity
 _atom_site_fract_x
 _atom_site_fract_y
 _atom_site_fract_z
 _atom_site_occupancy
  Pu  Pu0  1  0.000000  0.000000  0.000000  1
  Pa  Pa1  1  0.666667  0.333333  0.079903  1
  Pa  Pa2  1  0.333333  0.666667  0.920097  1
  Pa  Pa3  1  0.333333  0.666667  0.553953  1
  Pa  Pa4  1  0.666667  0.333333  0.446047  1
  Mn  Mn5  1  0.663621  0.831810  0.250142  1
  Mn  Mn6  1  0.168190  0.831810  0.250142  1
  Mn  Mn7  1  0.168190  0.336379  0.250142  1
  Mn  Mn8  1  0.336379  0.168190  0.749858  1
  Mn  Mn9  1  0.831810  0.168190  0.749858  1
  Mn  Mn10  1  0.831810  0.663621  0.749858  1
  Mn  Mn11  1  0.000000  0.000000  0.500000  1
