# generated using pymatgen
data_Tb4Nd(Hg2Pd)2
_symmetry_space_group_name_H-M   'P 1'
_cell_length_a   7.98740000
_cell_length_b   18.42894900
_cell_length_c   3.70354900
_cell_angle_alpha   90.00000000
_cell_angle_beta   90.00000000
_cell_angle_gamma   90.00000000
_symmetry_Int_Tables_number   1
_chemical_formula_structural   Tb4Nd(Hg2Pd)2
_chemical_formula_sum   'Tb8 Nd2 Hg8 Pd4'
_cell_volume   545.16014342
_cell_formula_units_Z   2
loop_
 _symmetry_equiv_pos_site_id
 _symmetry_equiv_pos_as_xyz
  1  'x, y, z'
loop_
 _atom_site_type_symbol
 _atom_site_label
 _atom_site_symmetry_multiplicity
 _atom_site_fract_x
 _atom_site_fract_y
 _atom_site_fract_z
 _atom_site_occupancy
  Tb  Tb0  1  0.735816  0.284213  0.000000  1
  Tb  Tb1  1  0.264184  0.715787  0.000000  1
  Tb  Tb2  1  0.764184  0.784213  0.000000  1
  Tb  Tb3  1  0.235816  0.215787  0.000000  1
  Tb  Tb4  1  0.615051  0.085651  0.000000  1
  Tb  Tb5  1  0.384949  0.914349  0.000000  1
  Tb  Tb6  1  0.884949  0.585651  0.000000  1
  Tb  Tb7  1  0.115051  0.414349  0.000000  1
  Nd  Nd8  1  0.500000  0.500000  0.000000  1
  Nd  Nd9  1  0.000000  0.000000  0.000000  1
  Hg  Hg10  1  0.705128  0.933398  0.500000  1
  Hg  Hg11  1  0.294872  0.066602  0.500000  1
  Hg  Hg12  1  0.794872  0.433398  0.500000  1
  Hg  Hg13  1  0.205128  0.566602  0.500000  1
  Hg  Hg14  1  0.582401  0.650056  0.500000  1
  Hg  Hg15  1  0.417599  0.349944  0.500000  1
  Hg  Hg16  1  0.917599  0.150056  0.500000  1
  Hg  Hg17  1  0.082401  0.849944  0.500000  1
  Pd  Pd18  1  0.525175  0.196310  0.500000  1
  Pd  Pd19  1  0.474825  0.803690  0.500000  1
  Pd  Pd20  1  0.974825  0.696310  0.500000  1
  Pd  Pd21  1  0.025175  0.303690  0.500000  1
