# generated using pymatgen
data_V3Cr(WO4)4
_symmetry_space_group_name_H-M   'P 1'
_cell_length_a   5.69268506
_cell_length_b   5.69264146
_cell_length_c   9.29550800
_cell_angle_alpha   91.86295592
_cell_angle_beta   88.13792439
_cell_angle_gamma   109.36404407
_symmetry_Int_Tables_number   1
_chemical_formula_structural   V3Cr(WO4)4
_chemical_formula_sum   'V3 Cr1 W4 O16'
_cell_volume   283.96801396
_cell_formula_units_Z   1
loop_
 _symmetry_equiv_pos_site_id
 _symmetry_equiv_pos_as_xyz
  1  'x, y, z'
loop_
 _atom_site_type_symbol
 _atom_site_label
 _atom_site_symmetry_multiplicity
 _atom_site_fract_x
 _atom_site_fract_y
 _atom_site_fract_z
 _atom_site_occupancy
  V  V0  1  0.124553  0.875469  0.375420  1
  V  V1  1  0.625440  0.374567  0.874575  1
  V  V2  1  0.375099  0.624936  0.124994  1
  Cr  Cr3  1  0.874841  0.124970  0.625026  1
  W  W4  1  0.999681  0.000335  0.999083  1
  W  W5  1  0.249317  0.750637  0.749241  1
  W  W6  1  0.500553  0.499422  0.500751  1
  W  W7  1  0.750420  0.249581  0.250913  1
  O  O8  1  0.028704  0.971248  0.777950  1
  O  O9  1  0.278073  0.722096  0.527785  1
  O  O10  1  0.777981  0.221980  0.028304  1
  O  O11  1  0.528150  0.471950  0.279040  1
  O  O12  1  0.721160  0.278811  0.472078  1
  O  O13  1  0.972082  0.027828  0.221707  1
  O  O14  1  0.471915  0.528229  0.722196  1
  O  O15  1  0.222051  0.777955  0.970931  1
  O  O16  1  0.549943  0.045871  0.747825  1
  O  O17  1  0.795726  0.800125  0.502117  1
  O  O18  1  0.296712  0.296520  0.000121  1
  O  O19  1  0.046735  0.546502  0.249891  1
  O  O20  1  0.954129  0.449985  0.747785  1
  O  O21  1  0.199844  0.204401  0.502184  1
  O  O22  1  0.703476  0.703258  0.000118  1
  O  O23  1  0.453414  0.953325  0.249954  1
