# generated using pymatgen
data_CaYb11Ir4
_symmetry_space_group_name_H-M   'P 1'
_cell_length_a   6.26174745
_cell_length_b   7.68845604
_cell_length_c   9.15624021
_cell_angle_alpha   90.06456301
_cell_angle_beta   89.87096345
_cell_angle_gamma   89.82662248
_symmetry_Int_Tables_number   1
_chemical_formula_structural   CaYb11Ir4
_chemical_formula_sum   'Ca1 Yb11 Ir4'
_cell_volume   440.80700990
_cell_formula_units_Z   1
loop_
 _symmetry_equiv_pos_site_id
 _symmetry_equiv_pos_as_xyz
  1  'x, y, z'
loop_
 _atom_site_type_symbol
 _atom_site_label
 _atom_site_symmetry_multiplicity
 _atom_site_fract_x
 _atom_site_fract_y
 _atom_site_fract_z
 _atom_site_occupancy
  Ca  Ca0  1  0.153779  0.169024  0.063712  1
  Yb  Yb1  1  0.343664  0.667565  0.064927  1
  Yb  Yb2  1  0.157212  0.166328  0.435501  1
  Yb  Yb3  1  0.655825  0.332049  0.564425  1
  Yb  Yb4  1  0.843540  0.832000  0.935478  1
  Yb  Yb5  1  0.654736  0.333398  0.934883  1
  Yb  Yb6  1  0.844656  0.833116  0.564171  1
  Yb  Yb7  1  0.346100  0.667685  0.435618  1
  Yb  Yb8  1  0.870069  0.538078  0.251158  1
  Yb  Yb9  1  0.629697  0.038163  0.250309  1
  Yb  Yb10  1  0.128752  0.462671  0.748432  1
  Yb  Yb11  1  0.370722  0.961597  0.749374  1
  Ir  Ir12  1  0.047076  0.874098  0.252523  1
  Ir  Ir13  1  0.454245  0.377827  0.251072  1
  Ir  Ir14  1  0.949992  0.123244  0.748893  1
  Ir  Ir15  1  0.549935  0.623155  0.749525  1
