# generated using pymatgen
data_Dy2ErLu3MnBi2
_symmetry_space_group_name_H-M   'P 1'
_cell_length_a   8.17420700
_cell_length_b   8.18268977
_cell_length_c   4.26331400
_cell_angle_alpha   90.00000000
_cell_angle_beta   90.00000000
_cell_angle_gamma   119.96571710
_symmetry_Int_Tables_number   1
_chemical_formula_structural   Dy2ErLu3MnBi2
_chemical_formula_sum   'Dy2 Er1 Lu3 Mn1 Bi2'
_cell_volume   247.04131829
_cell_formula_units_Z   1
loop_
 _symmetry_equiv_pos_site_id
 _symmetry_equiv_pos_as_xyz
  1  'x, y, z'
loop_
 _atom_site_type_symbol
 _atom_site_label
 _atom_site_symmetry_multiplicity
 _atom_site_fract_x
 _atom_site_fract_y
 _atom_site_fract_z
 _atom_site_occupancy
  Dy  Dy0  1  0.000141  0.611520  0.000000  1
  Dy  Dy1  1  0.388621  0.388480  0.000000  1
  Er  Er2  1  0.612339  0.000000  0.000000  1
  Lu  Lu3  1  0.229719  0.000000  0.500000  1
  Lu  Lu4  1  0.999408  0.229303  0.500000  1
  Lu  Lu5  1  0.770105  0.770697  0.500000  1
  Mn  Mn6  1  0.999146  0.000000  0.000000  1
  Bi  Bi7  1  0.333908  0.667297  0.500000  1
  Bi  Bi8  1  0.666612  0.332703  0.500000  1
