# generated using pymatgen
data_Mn3CrFe8(W6C)2
_symmetry_space_group_name_H-M   'P 1'
_cell_length_a   7.73410694
_cell_length_b   7.73410711
_cell_length_c   7.73410491
_cell_angle_alpha   60.23736895
_cell_angle_beta   60.23736887
_cell_angle_gamma   60.23736409
_symmetry_Int_Tables_number   1
_chemical_formula_structural   Mn3CrFe8(W6C)2
_chemical_formula_sum   'Mn3 Cr1 Fe8 W12 C2'
_cell_volume   328.88411116
_cell_formula_units_Z   1
loop_
 _symmetry_equiv_pos_site_id
 _symmetry_equiv_pos_as_xyz
  1  'x, y, z'
loop_
 _atom_site_type_symbol
 _atom_site_label
 _atom_site_symmetry_multiplicity
 _atom_site_fract_x
 _atom_site_fract_y
 _atom_site_fract_z
 _atom_site_occupancy
  Mn  Mn0  1  0.124983  0.124983  0.625046  1
  Mn  Mn1  1  0.124983  0.625046  0.124983  1
  Mn  Mn2  1  0.625046  0.124983  0.124983  1
  Cr  Cr3  1  0.124971  0.124971  0.124971  1
  Fe  Fe4  1  0.921844  0.234296  0.921844  1
  Fe  Fe5  1  0.328166  0.015674  0.328166  1
  Fe  Fe6  1  0.328291  0.328291  0.328291  1
  Fe  Fe7  1  0.015674  0.328166  0.328166  1
  Fe  Fe8  1  0.921844  0.921844  0.234296  1
  Fe  Fe9  1  0.234296  0.921844  0.921844  1
  Fe  Fe10  1  0.328166  0.328166  0.015674  1
  Fe  Fe11  1  0.921711  0.921711  0.921711  1
  W  W12  1  0.302755  0.697337  0.697337  1
  W  W13  1  0.303079  0.303079  0.695729  1
  W  W14  1  0.552677  0.947237  0.552677  1
  W  W15  1  0.947237  0.552677  0.552677  1
  W  W16  1  0.554288  0.946912  0.946912  1
  W  W17  1  0.695729  0.303079  0.303079  1
  W  W18  1  0.946912  0.554288  0.946912  1
  W  W19  1  0.303079  0.695729  0.303079  1
  W  W20  1  0.552677  0.552677  0.947237  1
  W  W21  1  0.697337  0.302755  0.697337  1
  W  W22  1  0.697337  0.697337  0.302755  1
  W  W23  1  0.946912  0.946912  0.554288  1
  C  C24  1  0.749817  0.749817  0.749817  1
  C  C25  1  0.500188  0.500188  0.500188  1
