# generated using pymatgen
data_Tb12GaCo4Hg
_symmetry_space_group_name_H-M   'P 1'
_cell_length_a   8.32842082
_cell_length_b   8.32839279
_cell_length_c   8.32841992
_cell_angle_alpha   112.26082161
_cell_angle_beta   109.42802507
_cell_angle_gamma   106.77155673
_symmetry_Int_Tables_number   1
_chemical_formula_structural   Tb12GaCo4Hg
_chemical_formula_sum   'Tb12 Ga1 Co4 Hg1'
_cell_volume   443.67505088
_cell_formula_units_Z   1
loop_
 _symmetry_equiv_pos_site_id
 _symmetry_equiv_pos_as_xyz
  1  'x, y, z'
loop_
 _atom_site_type_symbol
 _atom_site_label
 _atom_site_symmetry_multiplicity
 _atom_site_fract_x
 _atom_site_fract_y
 _atom_site_fract_z
 _atom_site_occupancy
  Tb  Tb0  1  0.035749  0.734397  0.301354  1
  Tb  Tb1  1  0.964251  0.265603  0.698646  1
  Tb  Tb2  1  0.566957  0.265603  0.301351  1
  Tb  Tb3  1  0.433043  0.734397  0.698649  1
  Tb  Tb4  1  0.674604  0.861671  0.187066  1
  Tb  Tb5  1  0.325395  0.512460  0.187063  1
  Tb  Tb6  1  0.325396  0.138329  0.812934  1
  Tb  Tb7  1  0.674605  0.487540  0.812937  1
  Tb  Tb8  1  0.180623  0.217678  0.398303  1
  Tb  Tb9  1  0.819375  0.217678  0.037054  1
  Tb  Tb10  1  0.180625  0.782322  0.962946  1
  Tb  Tb11  1  0.819377  0.782322  0.601697  1
  Ga  Ga12  1  0.000000  0.500000  0.500000  1
  Co  Co13  1  0.660870  0.500000  0.160870  1
  Co  Co14  1  0.339130  0.500000  0.839130  1
  Co  Co15  1  0.886646  0.886647  0.000001  1
  Co  Co16  1  0.113354  0.113353  0.999999  1
  Hg  Hg17  1  0.500000  0.000000  0.500000  1
