# generated using pymatgen
data_Hf2CuRh5
_symmetry_space_group_name_H-M   'P 1'
_cell_length_a   3.99111000
_cell_length_b   5.53243900
_cell_length_c   11.04735700
_cell_angle_alpha   90.00000000
_cell_angle_beta   90.00000000
_cell_angle_gamma   90.00000000
_symmetry_Int_Tables_number   1
_chemical_formula_structural   Hf2CuRh5
_chemical_formula_sum   'Hf4 Cu2 Rh10'
_cell_volume   243.93196847
_cell_formula_units_Z   2
loop_
 _symmetry_equiv_pos_site_id
 _symmetry_equiv_pos_as_xyz
  1  'x, y, z'
loop_
 _atom_site_type_symbol
 _atom_site_label
 _atom_site_symmetry_multiplicity
 _atom_site_fract_x
 _atom_site_fract_y
 _atom_site_fract_z
 _atom_site_occupancy
  Hf  Hf0  1  0.500000  0.225132  0.629249  1
  Hf  Hf1  1  0.500000  0.774868  0.370751  1
  Hf  Hf2  1  0.500000  0.725132  0.870751  1
  Hf  Hf3  1  0.500000  0.274868  0.129249  1
  Cu  Cu4  1  0.000000  0.500000  0.500000  1
  Cu  Cu5  1  0.000000  0.000000  0.000000  1
  Rh  Rh6  1  0.500000  0.223673  0.880462  1
  Rh  Rh7  1  0.500000  0.776327  0.119538  1
  Rh  Rh8  1  0.500000  0.723673  0.619538  1
  Rh  Rh9  1  0.500000  0.276327  0.380462  1
  Rh  Rh10  1  0.000000  0.472633  0.750614  1
  Rh  Rh11  1  0.000000  0.527367  0.249386  1
  Rh  Rh12  1  0.000000  0.000000  0.500000  1
  Rh  Rh13  1  0.000000  0.500000  0.000000  1
  Rh  Rh14  1  0.000000  0.027367  0.250614  1
  Rh  Rh15  1  0.000000  0.972633  0.749386  1
