# generated using pymatgen
data_Sc2Ti3(Re7Tc)3
_symmetry_space_group_name_H-M   'P 1'
_cell_length_a   8.40268824
_cell_length_b   8.39252776
_cell_length_c   8.39111652
_cell_angle_alpha   109.44147674
_cell_angle_beta   109.47922423
_cell_angle_gamma   109.50571287
_symmetry_Int_Tables_number   1
_chemical_formula_structural   Sc2Ti3(Re7Tc)3
_chemical_formula_sum   'Sc2 Ti3 Re21 Tc3'
_cell_volume   455.44970833
_cell_formula_units_Z   1
loop_
 _symmetry_equiv_pos_site_id
 _symmetry_equiv_pos_as_xyz
  1  'x, y, z'
loop_
 _atom_site_type_symbol
 _atom_site_label
 _atom_site_symmetry_multiplicity
 _atom_site_fract_x
 _atom_site_fract_y
 _atom_site_fract_z
 _atom_site_occupancy
  Sc  Sc0  1  0.000082  0.000002  0.999973  1
  Sc  Sc1  1  0.630064  0.999981  0.999981  1
  Ti  Ti2  1  0.999678  0.630808  0.000012  1
  Ti  Ti3  1  0.999726  0.000003  0.630777  1
  Ti  Ti4  1  0.368800  0.369197  0.369204  1
  Re  Re5  1  0.681330  0.399392  0.000040  1
  Re  Re6  1  0.999795  0.401459  0.681443  1
  Re  Re7  1  0.318309  0.719950  0.318518  1
  Re  Re8  1  0.318400  0.318567  0.719988  1
  Re  Re9  1  0.999834  0.681422  0.401431  1
  Re  Re10  1  0.681350  0.000025  0.399381  1
  Re  Re11  1  0.598340  0.598527  0.279984  1
  Re  Re12  1  0.281948  0.600621  0.600635  1
  Re  Re13  1  0.598364  0.280043  0.598554  1
  Re  Re14  1  0.375791  0.193723  0.000009  1
  Re  Re15  1  0.182054  0.806270  0.806279  1
  Re  Re16  1  0.375800  0.000008  0.193712  1
  Re  Re17  1  0.194320  0.377334  0.000042  1
  Re  Re18  1  0.002343  0.378731  0.193539  1
  Re  Re19  1  0.808797  0.185143  0.806439  1
  Re  Re20  1  0.808849  0.806506  0.185245  1
  Re  Re21  1  0.002307  0.193503  0.378740  1
  Re  Re22  1  0.194279  0.000010  0.377303  1
  Re  Re23  1  0.623624  0.621265  0.814805  1
  Re  Re24  1  0.817012  0.622666  0.622699  1
  Re  Re25  1  0.623648  0.814880  0.621300  1
  Tc  Tc26  1  0.397554  0.677422  0.000011  1
  Tc  Tc27  1  0.720042  0.322542  0.322542  1
  Tc  Tc28  1  0.397555  0.999999  0.677414  1
