# generated using pymatgen
data_HoLu3(GaCo)4
_symmetry_space_group_name_H-M   'P 1'
_cell_length_a   4.33361200
_cell_length_b   6.89656906
_cell_length_c   6.88505506
_cell_angle_alpha   90.01462579
_cell_angle_beta   90.00000000
_cell_angle_gamma   90.00000000
_symmetry_Int_Tables_number   1
_chemical_formula_structural   HoLu3(GaCo)4
_chemical_formula_sum   'Ho1 Lu3 Ga4 Co4'
_cell_volume   205.77400845
_cell_formula_units_Z   1
loop_
 _symmetry_equiv_pos_site_id
 _symmetry_equiv_pos_as_xyz
  1  'x, y, z'
loop_
 _atom_site_type_symbol
 _atom_site_label
 _atom_site_symmetry_multiplicity
 _atom_site_fract_x
 _atom_site_fract_y
 _atom_site_fract_z
 _atom_site_occupancy
  Ho  Ho0  1  0.750000  0.804752  0.982440  1
  Lu  Lu1  1  0.250000  0.302531  0.519032  1
  Lu  Lu2  1  0.250000  0.198986  0.018489  1
  Lu  Lu3  1  0.750000  0.697212  0.482122  1
  Ga  Ga4  1  0.250000  0.895296  0.696284  1
  Ga  Ga5  1  0.250000  0.603744  0.199949  1
  Ga  Ga6  1  0.750000  0.105993  0.302310  1
  Ga  Ga7  1  0.750000  0.393628  0.801387  1
  Co  Co8  1  0.250000  0.938708  0.342377  1
  Co  Co9  1  0.250000  0.559636  0.841053  1
  Co  Co10  1  0.750000  0.062540  0.655368  1
  Co  Co11  1  0.750000  0.436973  0.159187  1
