# generated using pymatgen
data_Dy5Co19(As3P)3
_symmetry_space_group_name_H-M   'P 1'
_cell_length_a   12.33518500
_cell_length_b   12.33518462
_cell_length_c   3.77433400
_cell_angle_alpha   90.00000000
_cell_angle_beta   90.00000000
_cell_angle_gamma   119.99999297
_symmetry_Int_Tables_number   1
_chemical_formula_structural   Dy5Co19(As3P)3
_chemical_formula_sum   'Dy5 Co19 As9 P3'
_cell_volume   497.35021852
_cell_formula_units_Z   1
loop_
 _symmetry_equiv_pos_site_id
 _symmetry_equiv_pos_as_xyz
  1  'x, y, z'
loop_
 _atom_site_type_symbol
 _atom_site_label
 _atom_site_symmetry_multiplicity
 _atom_site_fract_x
 _atom_site_fract_y
 _atom_site_fract_z
 _atom_site_occupancy
  Dy  Dy0  1  0.666667  0.333333  0.000000  1
  Dy  Dy1  1  0.333333  0.666667  0.000000  1
  Dy  Dy2  1  0.181508  0.181508  0.500000  1
  Dy  Dy3  1  0.818492  0.000000  0.500000  1
  Dy  Dy4  1  0.000000  0.818492  0.500000  1
  Co  Co5  1  0.555665  0.555665  0.000000  1
  Co  Co6  1  0.444335  0.000000  0.000000  1
  Co  Co7  1  0.000000  0.444335  0.000000  1
  Co  Co8  1  0.828580  0.198235  0.000000  1
  Co  Co9  1  0.801765  0.630345  0.000000  1
  Co  Co10  1  0.369655  0.171420  0.000000  1
  Co  Co11  1  0.198235  0.828580  0.000000  1
  Co  Co12  1  0.630345  0.801765  0.000000  1
  Co  Co13  1  0.171420  0.369655  0.000000  1
  Co  Co14  1  0.645951  0.125215  0.500000  1
  Co  Co15  1  0.874785  0.520736  0.500000  1
  Co  Co16  1  0.479264  0.354049  0.500000  1
  Co  Co17  1  0.125215  0.645951  0.500000  1
  Co  Co18  1  0.520736  0.874785  0.500000  1
  Co  Co19  1  0.354049  0.479264  0.500000  1
  Co  Co20  1  0.725081  0.725081  0.500000  1
  Co  Co21  1  0.274919  0.000000  0.500000  1
  Co  Co22  1  0.000000  0.274919  0.500000  1
  Co  Co23  1  0.000000  0.000000  0.000000  1
  As  As24  1  0.363904  0.363904  0.000000  1
  As  As25  1  0.636096  0.000000  0.000000  1
  As  As26  1  0.000000  0.636096  0.000000  1
  As  As27  1  0.837767  0.317091  0.500000  1
  As  As28  1  0.682909  0.520676  0.500000  1
  As  As29  1  0.479324  0.162233  0.500000  1
  As  As30  1  0.317091  0.837767  0.500000  1
  As  As31  1  0.520676  0.682909  0.500000  1
  As  As32  1  0.162233  0.479324  0.500000  1
  P  P33  1  0.822435  0.822435  0.000000  1
  P  P34  1  0.177565  0.000000  0.000000  1
  P  P35  1  0.000000  0.177565  0.000000  1
