# generated using pymatgen
data_Pr3HgRh2Pb3
_symmetry_space_group_name_H-M   'P 1'
_cell_length_a   8.04793700
_cell_length_b   8.04793735
_cell_length_c   4.09774900
_cell_angle_alpha   90.00000000
_cell_angle_beta   90.00000000
_cell_angle_gamma   120.00000269
_symmetry_Int_Tables_number   1
_chemical_formula_structural   Pr3HgRh2Pb3
_chemical_formula_sum   'Pr3 Hg1 Rh2 Pb3'
_cell_volume   229.85032787
_cell_formula_units_Z   1
loop_
 _symmetry_equiv_pos_site_id
 _symmetry_equiv_pos_as_xyz
  1  'x, y, z'
loop_
 _atom_site_type_symbol
 _atom_site_label
 _atom_site_symmetry_multiplicity
 _atom_site_fract_x
 _atom_site_fract_y
 _atom_site_fract_z
 _atom_site_occupancy
  Pr  Pr0  1  0.975848  0.584609  0.500000  1
  Pr  Pr1  1  0.415391  0.391239  0.500000  1
  Pr  Pr2  1  0.608761  0.024152  0.500000  1
  Hg  Hg3  1  0.333333  0.666667  0.000000  1
  Rh  Rh4  1  0.000000  0.000000  0.500000  1
  Rh  Rh5  1  0.666667  0.333333  0.000000  1
  Pb  Pb6  1  0.751768  0.747367  0.000000  1
  Pb  Pb7  1  0.995598  0.248232  0.000000  1
  Pb  Pb8  1  0.252633  0.004402  0.000000  1
