# generated using pymatgen
data_Ba4TbTl(FeO5)2
_symmetry_space_group_name_H-M   'P 1'
_cell_length_a   6.11927900
_cell_length_b   8.04534577
_cell_length_c   12.76508224
_cell_angle_alpha   91.68616017
_cell_angle_beta   90.00000000
_cell_angle_gamma   90.00000000
_symmetry_Int_Tables_number   1
_chemical_formula_structural   Ba4TbTl(FeO5)2
_chemical_formula_sum   'Ba8 Tb2 Tl2 Fe4 O20'
_cell_volume   628.17477685
_cell_formula_units_Z   2
loop_
 _symmetry_equiv_pos_site_id
 _symmetry_equiv_pos_as_xyz
  1  'x, y, z'
loop_
 _atom_site_type_symbol
 _atom_site_label
 _atom_site_symmetry_multiplicity
 _atom_site_fract_x
 _atom_site_fract_y
 _atom_site_fract_z
 _atom_site_occupancy
  Ba  Ba0  1  0.762800  0.483355  0.344814  1
  Ba  Ba1  1  0.737200  0.983355  0.844814  1
  Ba  Ba2  1  0.229837  0.513695  0.652422  1
  Ba  Ba3  1  0.270163  0.013695  0.152422  1
  Ba  Ba4  1  0.759624  0.993447  0.379063  1
  Ba  Ba5  1  0.740376  0.493447  0.879063  1
  Ba  Ba6  1  0.233719  0.007771  0.621616  1
  Ba  Ba7  1  0.266281  0.507771  0.121616  1
  Tb  Tb8  1  0.249171  0.733433  0.372958  1
  Tb  Tb9  1  0.250829  0.233433  0.872958  1
  Tl  Tl10  1  0.745928  0.267420  0.628072  1
  Tl  Tl11  1  0.754072  0.767420  0.128072  1
  Fe  Fe12  1  0.731806  0.741835  0.582430  1
  Fe  Fe13  1  0.768194  0.241835  0.082430  1
  Fe  Fe14  1  0.265609  0.255923  0.416019  1
  Fe  Fe15  1  0.234391  0.755923  0.916019  1
  O  O16  1  0.772974  0.962403  0.634396  1
  O  O17  1  0.727026  0.462403  0.134396  1
  O  O18  1  0.234106  0.028789  0.369361  1
  O  O19  1  0.265894  0.528789  0.869361  1
  O  O20  1  0.727631  0.073998  0.180872  1
  O  O21  1  0.772369  0.573998  0.680872  1
  O  O22  1  0.264892  0.939464  0.827167  1
  O  O23  1  0.235108  0.439464  0.327167  1
  O  O24  1  0.541353  0.747658  0.271617  1
  O  O25  1  0.958647  0.247658  0.771617  1
  O  O26  1  0.451214  0.253591  0.725367  1
  O  O27  1  0.048786  0.753591  0.225367  1
  O  O28  1  0.557689  0.219792  0.971987  1
  O  O29  1  0.942311  0.719792  0.471987  1
  O  O30  1  0.446518  0.778378  0.024833  1
  O  O31  1  0.053482  0.278378  0.524833  1
  O  O32  1  0.055191  0.232852  0.023677  1
  O  O33  1  0.444809  0.732852  0.523677  1
  O  O34  1  0.945703  0.766197  0.973329  1
  O  O35  1  0.554297  0.266197  0.473329  1
