# generated using pymatgen
data_Pr6Er9Tm(CdIr)4
_symmetry_space_group_name_H-M   'P 1'
_cell_length_a   9.73301482
_cell_length_b   9.73301491
_cell_length_c   9.73990600
_cell_angle_alpha   59.97657639
_cell_angle_beta   59.97657607
_cell_angle_gamma   59.94278458
_symmetry_Int_Tables_number   1
_chemical_formula_structural   Pr6Er9Tm(CdIr)4
_chemical_formula_sum   'Pr6 Er9 Tm1 Cd4 Ir4'
_cell_volume   651.91755773
_cell_formula_units_Z   1
loop_
 _symmetry_equiv_pos_site_id
 _symmetry_equiv_pos_as_xyz
  1  'x, y, z'
loop_
 _atom_site_type_symbol
 _atom_site_label
 _atom_site_symmetry_multiplicity
 _atom_site_fract_x
 _atom_site_fract_y
 _atom_site_fract_z
 _atom_site_occupancy
  Pr  Pr0  1  0.941367  0.558350  0.558098  1
  Pr  Pr1  1  0.558350  0.941367  0.942185  1
  Pr  Pr2  1  0.558350  0.941367  0.558098  1
  Pr  Pr3  1  0.941367  0.558350  0.942185  1
  Pr  Pr4  1  0.558596  0.558596  0.941404  1
  Pr  Pr5  1  0.942084  0.942084  0.557916  1
  Er  Er6  1  0.346892  0.346892  0.345839  1
  Er  Er7  1  0.346892  0.346892  0.960377  1
  Er  Er8  1  0.347606  0.959911  0.346242  1
  Er  Er9  1  0.959911  0.347606  0.346242  1
  Er  Er10  1  0.812648  0.185708  0.187658  1
  Er  Er11  1  0.185708  0.812648  0.813985  1
  Er  Er12  1  0.185708  0.812648  0.187658  1
  Er  Er13  1  0.812648  0.185708  0.813985  1
  Er  Er14  1  0.186872  0.186872  0.813128  1
  Tm  Tm15  1  0.813362  0.813362  0.186638  1
  Cd  Cd16  1  0.579230  0.579230  0.578810  1
  Cd  Cd17  1  0.579230  0.579230  0.262729  1
  Cd  Cd18  1  0.579455  0.262196  0.579174  1
  Cd  Cd19  1  0.262196  0.579455  0.579174  1
  Ir  Ir20  1  0.141527  0.141527  0.140473  1
  Ir  Ir21  1  0.141527  0.141527  0.576471  1
  Ir  Ir22  1  0.141325  0.577145  0.140764  1
  Ir  Ir23  1  0.577145  0.141325  0.140764  1
