# generated using pymatgen
data_Nd4Al17GaIr2Pd3Rh
_symmetry_space_group_name_H-M   'P 1'
_cell_length_a   7.64858301
_cell_length_b   7.64858569
_cell_length_c   9.58361000
_cell_angle_alpha   90.00297394
_cell_angle_beta   90.00304136
_cell_angle_gamma   119.47067359
_symmetry_Int_Tables_number   1
_chemical_formula_structural   Nd4Al17GaIr2Pd3Rh
_chemical_formula_sum   'Nd4 Al17 Ga1 Ir2 Pd3 Rh1'
_cell_volume   488.10551823
_cell_formula_units_Z   1
loop_
 _symmetry_equiv_pos_site_id
 _symmetry_equiv_pos_as_xyz
  1  'x, y, z'
loop_
 _atom_site_type_symbol
 _atom_site_label
 _atom_site_symmetry_multiplicity
 _atom_site_fract_x
 _atom_site_fract_y
 _atom_site_fract_z
 _atom_site_occupancy
  Nd  Nd0  1  0.994435  0.672939  0.750006  1
  Nd  Nd1  1  0.003995  0.328389  0.250076  1
  Nd  Nd2  1  0.673751  0.995799  0.749927  1
  Nd  Nd3  1  0.329175  0.005609  0.249983  1
  Al  Al4  1  0.866397  0.865215  0.249307  1
  Al  Al5  1  0.007007  0.339410  0.575767  1
  Al  Al6  1  0.000457  0.664828  0.424806  1
  Al  Al7  1  0.998162  0.660810  0.073073  1
  Al  Al8  1  0.339714  0.002140  0.927068  1
  Al  Al9  1  0.001671  0.339631  0.926332  1
  Al  Al10  1  0.660791  0.998328  0.073745  1
  Al  Al11  1  0.660709  0.993088  0.424276  1
  Al  Al12  1  0.335618  0.999857  0.575058  1
  Al  Al13  1  0.337042  0.337008  0.050757  1
  Al  Al14  1  0.662310  0.662250  0.950883  1
  Al  Al15  1  0.661197  0.664077  0.553313  1
  Al  Al16  1  0.335232  0.338126  0.445042  1
  Al  Al17  1  0.339237  0.548772  0.750627  1
  Al  Al18  1  0.661327  0.453644  0.246200  1
  Al  Al19  1  0.546596  0.337705  0.753816  1
  Al  Al20  1  0.451657  0.660056  0.249366  1
  Ga  Ga21  1  0.136996  0.135924  0.750632  1
  Ir  Ir22  1  0.328576  0.670512  0.500146  1
  Ir  Ir23  1  0.328633  0.670531  0.999784  1
  Pd  Pd24  1  0.671055  0.328224  0.500138  1
  Pd  Pd25  1  0.998818  0.999315  0.497819  1
  Pd  Pd26  1  0.998951  0.999105  0.002132  1
  Rh  Rh27  1  0.670490  0.328709  0.999924  1
