# generated using pymatgen
data_La4Ga10Pd5Rh
_symmetry_space_group_name_H-M   'P 1'
_cell_length_a   8.81289759
_cell_length_b   8.81289867
_cell_length_c   8.81289826
_cell_angle_alpha   140.87952867
_cell_angle_beta   107.62011305
_cell_angle_gamma   85.49618173
_symmetry_Int_Tables_number   1
_chemical_formula_structural   La4Ga10Pd5Rh
_chemical_formula_sum   'La4 Ga10 Pd5 Rh1'
_cell_volume   397.45901334
_cell_formula_units_Z   1
loop_
 _symmetry_equiv_pos_site_id
 _symmetry_equiv_pos_as_xyz
  1  'x, y, z'
loop_
 _atom_site_type_symbol
 _atom_site_label
 _atom_site_symmetry_multiplicity
 _atom_site_fract_x
 _atom_site_fract_y
 _atom_site_fract_z
 _atom_site_occupancy
  La  La0  1  0.362254  0.136290  0.225092  1
  La  La1  1  0.637746  0.862838  0.774036  1
  La  La2  1  0.088803  0.363710  0.725964  1
  La  La3  1  0.911197  0.637162  0.274908  1
  Ga  Ga4  1  0.000000  0.250000  0.250000  1
  Ga  Ga5  1  0.000000  0.750000  0.750000  1
  Ga  Ga6  1  0.710018  0.960018  0.250000  1
  Ga  Ga7  1  0.289982  0.539982  0.250000  1
  Ga  Ga8  1  0.292056  0.042056  0.750000  1
  Ga  Ga9  1  0.707944  0.457944  0.750000  1
  Ga  Ga10  1  0.567626  0.401491  0.159147  1
  Ga  Ga11  1  0.242344  0.908479  0.340853  1
  Ga  Ga12  1  0.757656  0.098509  0.666134  1
  Ga  Ga13  1  0.432374  0.591521  0.833866  1
  Pd  Pd14  1  0.953369  0.854551  0.097015  1
  Pd  Pd15  1  0.500000  0.750000  0.250000  1
  Pd  Pd16  1  0.757536  0.356355  0.402985  1
  Pd  Pd17  1  0.242464  0.645449  0.598818  1
  Pd  Pd18  1  0.046631  0.143645  0.901182  1
  Rh  Rh19  1  0.500000  0.250000  0.750000  1
