# generated using pymatgen
data_BaFe3As12Pt
_symmetry_space_group_name_H-M   'P 1'
_cell_length_a   7.36563451
_cell_length_b   7.36563395
_cell_length_c   7.36563427
_cell_angle_alpha   109.56593414
_cell_angle_beta   109.56592573
_cell_angle_gamma   109.56594118
_symmetry_Int_Tables_number   1
_chemical_formula_structural   BaFe3As12Pt
_chemical_formula_sum   'Ba1 Fe3 As12 Pt1'
_cell_volume   306.53229468
_cell_formula_units_Z   1
loop_
 _symmetry_equiv_pos_site_id
 _symmetry_equiv_pos_as_xyz
  1  'x, y, z'
loop_
 _atom_site_type_symbol
 _atom_site_label
 _atom_site_symmetry_multiplicity
 _atom_site_fract_x
 _atom_site_fract_y
 _atom_site_fract_z
 _atom_site_occupancy
  Ba  Ba0  1  0.000000  0.000000  0.000000  1
  Fe  Fe1  1  0.500000  0.000000  0.000000  1
  Fe  Fe2  1  0.000000  0.500000  0.000000  1
  Fe  Fe3  1  0.000000  0.000000  0.500000  1
  As  As4  1  0.861431  0.660544  0.497344  1
  As  As5  1  0.138569  0.339456  0.502656  1
  As  As6  1  0.157798  0.656394  0.813004  1
  As  As7  1  0.842202  0.343606  0.186996  1
  As  As8  1  0.660544  0.497344  0.861431  1
  As  As9  1  0.339456  0.502656  0.138569  1
  As  As10  1  0.656394  0.813004  0.157798  1
  As  As11  1  0.343606  0.186996  0.842202  1
  As  As12  1  0.497344  0.861431  0.660544  1
  As  As13  1  0.502656  0.138569  0.339456  1
  As  As14  1  0.186996  0.842202  0.343606  1
  As  As15  1  0.813004  0.157798  0.656394  1
  Pt  Pt16  1  0.500000  0.500000  0.500000  1
