# generated using pymatgen
data_TiNb3(GaRh5)2
_symmetry_space_group_name_H-M   'P 1'
_cell_length_a   4.01853400
_cell_length_b   5.49392658
_cell_length_c   10.82740752
_cell_angle_alpha   90.36995882
_cell_angle_beta   90.00000000
_cell_angle_gamma   90.00000000
_symmetry_Int_Tables_number   1
_chemical_formula_structural   TiNb3(GaRh5)2
_chemical_formula_sum   'Ti1 Nb3 Ga2 Rh10'
_cell_volume   239.03743960
_cell_formula_units_Z   1
loop_
 _symmetry_equiv_pos_site_id
 _symmetry_equiv_pos_as_xyz
  1  'x, y, z'
loop_
 _atom_site_type_symbol
 _atom_site_label
 _atom_site_symmetry_multiplicity
 _atom_site_fract_x
 _atom_site_fract_y
 _atom_site_fract_z
 _atom_site_occupancy
  Ti  Ti0  1  0.500000  0.184351  0.640062  1
  Nb  Nb1  1  0.500000  0.313249  0.139100  1
  Nb  Nb2  1  0.500000  0.686786  0.857337  1
  Nb  Nb3  1  0.500000  0.816501  0.363192  1
  Ga  Ga4  1  0.000000  0.999236  0.999508  1
  Ga  Ga5  1  0.000000  0.498425  0.501445  1
  Rh  Rh6  1  0.000000  0.004643  0.501998  1
  Rh  Rh7  1  0.000000  0.498869  0.999566  1
  Rh  Rh8  1  0.000000  0.062841  0.246620  1
  Rh  Rh9  1  0.000000  0.935239  0.754778  1
  Rh  Rh10  1  0.000000  0.562702  0.253667  1
  Rh  Rh11  1  0.000000  0.433777  0.744018  1
  Rh  Rh12  1  0.500000  0.302836  0.389304  1
  Rh  Rh13  1  0.500000  0.700766  0.609895  1
  Rh  Rh14  1  0.500000  0.799762  0.111133  1
  Rh  Rh15  1  0.500000  0.200019  0.888376  1
