# generated using pymatgen
data_Tb9Y3Ni6Bi
_symmetry_space_group_name_H-M   'P 1'
_cell_length_a   8.50273278
_cell_length_b   8.50349434
_cell_length_c   8.52041030
_cell_angle_alpha   109.51771035
_cell_angle_beta   109.46192730
_cell_angle_gamma   109.46536074
_symmetry_Int_Tables_number   1
_chemical_formula_structural   Tb9Y3Ni6Bi
_chemical_formula_sum   'Tb9 Y3 Ni6 Bi1'
_cell_volume   474.05246356
_cell_formula_units_Z   1
loop_
 _symmetry_equiv_pos_site_id
 _symmetry_equiv_pos_as_xyz
  1  'x, y, z'
loop_
 _atom_site_type_symbol
 _atom_site_label
 _atom_site_symmetry_multiplicity
 _atom_site_fract_x
 _atom_site_fract_y
 _atom_site_fract_z
 _atom_site_occupancy
  Tb  Tb0  1  0.812451  0.504404  0.691689  1
  Tb  Tb1  1  0.691955  0.187494  0.879187  1
  Tb  Tb2  1  0.187883  0.879364  0.691718  1
  Tb  Tb3  1  0.308434  0.187468  0.496024  1
  Tb  Tb4  1  0.691239  0.812045  0.503547  1
  Tb  Tb5  1  0.495503  0.307860  0.187292  1
  Tb  Tb6  1  0.812650  0.121008  0.308517  1
  Tb  Tb7  1  0.879266  0.691808  0.187616  1
  Tb  Tb8  1  0.120581  0.308530  0.812337  1
  Y  Y9  1  0.307114  0.812564  0.119757  1
  Y  Y10  1  0.505636  0.693145  0.812673  1
  Y  Y11  1  0.187441  0.494482  0.307135  1
  Ni  Ni12  1  0.624094  0.124111  0.500281  1
  Ni  Ni13  1  0.499559  0.622156  0.123828  1
  Ni  Ni14  1  0.499978  0.375851  0.876242  1
  Ni  Ni15  1  0.377391  0.877209  0.501285  1
  Ni  Ni16  1  0.122949  0.500354  0.624267  1
  Ni  Ni17  1  0.875870  0.500125  0.376195  1
  Bi  Bi18  1  0.000006  0.000023  0.000410  1
