# generated using pymatgen
data_Li4TmNi9AsP6
_symmetry_space_group_name_H-M   'P 1'
_cell_length_a   9.13249600
_cell_length_b   9.13249430
_cell_length_c   3.66755000
_cell_angle_alpha   90.00000000
_cell_angle_beta   90.00000000
_cell_angle_gamma   120.00000711
_symmetry_Int_Tables_number   1
_chemical_formula_structural   Li4TmNi9AsP6
_chemical_formula_sum   'Li4 Tm1 Ni9 As1 P6'
_cell_volume   264.90218746
_cell_formula_units_Z   1
loop_
 _symmetry_equiv_pos_site_id
 _symmetry_equiv_pos_as_xyz
  1  'x, y, z'
loop_
 _atom_site_type_symbol
 _atom_site_label
 _atom_site_symmetry_multiplicity
 _atom_site_fract_x
 _atom_site_fract_y
 _atom_site_fract_z
 _atom_site_occupancy
  Li  Li0  1  0.777085  0.558954  0.500000  1
  Li  Li1  1  0.441046  0.218131  0.500000  1
  Li  Li2  1  0.781869  0.222915  0.500000  1
  Li  Li3  1  0.000000  0.000000  0.500000  1
  Tm  Tm4  1  0.333333  0.666667  0.000000  1
  Ni  Ni5  1  0.270088  0.376590  0.500000  1
  Ni  Ni6  1  0.623410  0.893497  0.500000  1
  Ni  Ni7  1  0.106503  0.729912  0.500000  1
  Ni  Ni8  1  0.491786  0.453982  0.000000  1
  Ni  Ni9  1  0.546018  0.037803  0.000000  1
  Ni  Ni10  1  0.962197  0.508214  0.000000  1
  Ni  Ni11  1  0.725099  0.762007  0.000000  1
  Ni  Ni12  1  0.237993  0.963094  0.000000  1
  Ni  Ni13  1  0.036906  0.274901  0.000000  1
  As  As14  1  0.666667  0.333333  0.000000  1
  P  P15  1  0.970649  0.758277  0.000000  1
  P  P16  1  0.241723  0.212372  0.000000  1
  P  P17  1  0.787628  0.029351  0.000000  1
  P  P18  1  0.542182  0.618225  0.500000  1
  P  P19  1  0.381775  0.923956  0.500000  1
  P  P20  1  0.076044  0.457818  0.500000  1
