# generated using pymatgen
data_Ta2V2GaP
_symmetry_space_group_name_H-M   'P 1'
_cell_length_a   3.36085800
_cell_length_b   6.64947225
_cell_length_c   7.93792797
_cell_angle_alpha   89.50570636
_cell_angle_beta   90.00000000
_cell_angle_gamma   90.00000000
_symmetry_Int_Tables_number   1
_chemical_formula_structural   Ta2V2GaP
_chemical_formula_sum   'Ta4 V4 Ga2 P2'
_cell_volume   177.38967318
_cell_formula_units_Z   2
loop_
 _symmetry_equiv_pos_site_id
 _symmetry_equiv_pos_as_xyz
  1  'x, y, z'
loop_
 _atom_site_type_symbol
 _atom_site_label
 _atom_site_symmetry_multiplicity
 _atom_site_fract_x
 _atom_site_fract_y
 _atom_site_fract_z
 _atom_site_occupancy
  Ta  Ta0  1  0.250000  0.559719  0.171676  1
  Ta  Ta1  1  0.750000  0.440281  0.828324  1
  Ta  Ta2  1  0.750000  0.972795  0.659121  1
  Ta  Ta3  1  0.250000  0.027205  0.340879  1
  V  V4  1  0.250000  0.627064  0.555378  1
  V  V5  1  0.750000  0.372936  0.444622  1
  V  V6  1  0.750000  0.869062  0.069233  1
  V  V7  1  0.250000  0.130938  0.930767  1
  Ga  Ga8  1  0.250000  0.752350  0.857480  1
  Ga  Ga9  1  0.750000  0.247650  0.142520  1
  P  P10  1  0.750000  0.740508  0.364256  1
  P  P11  1  0.250000  0.259492  0.635744  1
