# generated using pymatgen
data_La2FeRuF14
_symmetry_space_group_name_H-M   'P 1'
_cell_length_a   5.80820700
_cell_length_b   9.26174995
_cell_length_c   12.53662843
_cell_angle_alpha   62.06038165
_cell_angle_beta   90.00000000
_cell_angle_gamma   90.00000000
_symmetry_Int_Tables_number   1
_chemical_formula_structural   La2FeRuF14
_chemical_formula_sum   'La4 Fe2 Ru2 F28'
_cell_volume   595.79089840
_cell_formula_units_Z   2
loop_
 _symmetry_equiv_pos_site_id
 _symmetry_equiv_pos_as_xyz
  1  'x, y, z'
loop_
 _atom_site_type_symbol
 _atom_site_label
 _atom_site_symmetry_multiplicity
 _atom_site_fract_x
 _atom_site_fract_y
 _atom_site_fract_z
 _atom_site_occupancy
  La  La0  1  0.753341  0.825057  0.272286  1
  La  La1  1  0.253341  0.174943  0.227714  1
  La  La2  1  0.238380  0.202810  0.743368  1
  La  La3  1  0.738380  0.797190  0.756632  1
  Fe  Fe4  1  0.239215  0.731618  0.535620  1
  Fe  Fe5  1  0.739215  0.268382  0.964380  1
  Ru  Ru6  1  0.754671  0.283279  0.447968  1
  Ru  Ru7  1  0.254671  0.716721  0.052032  1
  F  F8  1  0.967749  0.714690  0.449441  1
  F  F9  1  0.467749  0.285310  0.050559  1
  F  F10  1  0.028551  0.288659  0.529147  1
  F  F11  1  0.528551  0.711341  0.970853  1
  F  F12  1  0.075068  0.697865  0.933524  1
  F  F13  1  0.575068  0.302135  0.566476  1
  F  F14  1  0.948873  0.278278  0.083609  1
  F  F15  1  0.448873  0.721722  0.416391  1
  F  F16  1  0.736919  0.509318  0.870569  1
  F  F17  1  0.236919  0.490682  0.629431  1
  F  F18  1  0.264675  0.485474  0.145491  1
  F  F19  1  0.764675  0.514526  0.354509  1
  F  F20  1  0.718008  0.029091  0.066186  1
  F  F21  1  0.218008  0.970909  0.433814  1
  F  F22  1  0.247698  0.946568  0.965851  1
  F  F23  1  0.747698  0.053432  0.534149  1
  F  F24  1  0.038937  0.753050  0.654843  1
  F  F25  1  0.538937  0.246950  0.845157  1
  F  F26  1  0.937619  0.272021  0.326119  1
  F  F27  1  0.437619  0.727979  0.173881  1
  F  F28  1  0.000180  0.250750  0.871809  1
  F  F29  1  0.500180  0.749250  0.628191  1
  F  F30  1  0.981374  0.716948  0.135140  1
  F  F31  1  0.481374  0.283052  0.364860  1
  F  F32  1  0.118845  0.950421  0.218399  1
  F  F33  1  0.618845  0.049579  0.281601  1
  F  F34  1  0.949897  0.014519  0.757730  1
  F  F35  1  0.449897  0.985481  0.742270  1
