# generated using pymatgen
data_Ca2MgCdAu2
_symmetry_space_group_name_H-M   'P 1'
_cell_length_a   4.29847600
_cell_length_b   7.60598121
_cell_length_c   8.90880529
_cell_angle_alpha   90.47612000
_cell_angle_beta   90.00000000
_cell_angle_gamma   90.00000000
_symmetry_Int_Tables_number   1
_chemical_formula_structural   Ca2MgCdAu2
_chemical_formula_sum   'Ca4 Mg2 Cd2 Au4'
_cell_volume   291.25556107
_cell_formula_units_Z   2
loop_
 _symmetry_equiv_pos_site_id
 _symmetry_equiv_pos_as_xyz
  1  'x, y, z'
loop_
 _atom_site_type_symbol
 _atom_site_label
 _atom_site_symmetry_multiplicity
 _atom_site_fract_x
 _atom_site_fract_y
 _atom_site_fract_z
 _atom_site_occupancy
  Ca  Ca0  1  0.250000  0.041790  0.327481  1
  Ca  Ca1  1  0.750000  0.463901  0.817866  1
  Ca  Ca2  1  0.750000  0.958210  0.672519  1
  Ca  Ca3  1  0.250000  0.536099  0.182134  1
  Mg  Mg4  1  0.750000  0.862618  0.062854  1
  Mg  Mg5  1  0.250000  0.137382  0.937146  1
  Cd  Cd6  1  0.250000  0.641838  0.563999  1
  Cd  Cd7  1  0.750000  0.358162  0.436001  1
  Au  Au8  1  0.250000  0.250667  0.641515  1
  Au  Au9  1  0.250000  0.765054  0.880614  1
  Au  Au10  1  0.750000  0.749333  0.358485  1
  Au  Au11  1  0.750000  0.234946  0.119386  1
