# generated using pymatgen
data_Ce4Cu3GeRh9
_symmetry_space_group_name_H-M   'P 1'
_cell_length_a   7.17271514
_cell_length_b   7.17271529
_cell_length_c   7.30839700
_cell_angle_alpha   109.85486584
_cell_angle_beta   109.85486626
_cell_angle_gamma   109.08486496
_symmetry_Int_Tables_number   1
_chemical_formula_structural   Ce4Cu3GeRh9
_chemical_formula_sum   'Ce4 Cu3 Ge1 Rh9'
_cell_volume   288.06415808
_cell_formula_units_Z   1
loop_
 _symmetry_equiv_pos_site_id
 _symmetry_equiv_pos_as_xyz
  1  'x, y, z'
loop_
 _atom_site_type_symbol
 _atom_site_label
 _atom_site_symmetry_multiplicity
 _atom_site_fract_x
 _atom_site_fract_y
 _atom_site_fract_z
 _atom_site_occupancy
  Ce  Ce0  1  0.000000  0.000000  0.500000  1
  Ce  Ce1  1  0.025074  0.512537  0.012537  1
  Ce  Ce2  1  0.487463  0.974926  0.987463  1
  Ce  Ce3  1  0.487463  0.512537  0.500000  1
  Cu  Cu4  1  0.747533  0.252467  0.500000  1
  Cu  Cu5  1  0.747533  0.495066  0.247533  1
  Cu  Cu6  1  0.504934  0.252467  0.752467  1
  Ge  Ge7  1  0.000000  0.000000  0.000000  1
  Rh  Rh8  1  0.242466  0.484932  0.742466  1
  Rh  Rh9  1  0.242466  0.757534  0.500000  1
  Rh  Rh10  1  0.515068  0.757534  0.257534  1
  Rh  Rh11  1  0.723499  0.697157  0.000456  1
  Rh  Rh12  1  0.302843  0.026344  0.303300  1
  Rh  Rh13  1  0.973656  0.276501  0.276956  1
  Rh  Rh14  1  0.302843  0.276501  0.999544  1
  Rh  Rh15  1  0.723499  0.026344  0.723044  1
  Rh  Rh16  1  0.973656  0.697157  0.696700  1
