# generated using pymatgen
data_Ca2Si7(NiRu2)4
_symmetry_space_group_name_H-M   'P 1'
_cell_length_a   9.53889917
_cell_length_b   9.54924763
_cell_length_c   3.78953700
_cell_angle_alpha   90.00000000
_cell_angle_beta   90.00000000
_cell_angle_gamma   120.33868287
_symmetry_Int_Tables_number   1
_chemical_formula_structural   Ca2Si7(NiRu2)4
_chemical_formula_sum   'Ca2 Si7 Ni4 Ru8'
_cell_volume   297.91467736
_cell_formula_units_Z   1
loop_
 _symmetry_equiv_pos_site_id
 _symmetry_equiv_pos_as_xyz
  1  'x, y, z'
loop_
 _atom_site_type_symbol
 _atom_site_label
 _atom_site_symmetry_multiplicity
 _atom_site_fract_x
 _atom_site_fract_y
 _atom_site_fract_z
 _atom_site_occupancy
  Ca  Ca0  1  0.999633  0.999551  0.000000  1
  Ca  Ca1  1  0.668244  0.331888  0.500000  1
  Si  Si2  1  0.626843  0.562818  0.000000  1
  Si  Si3  1  0.933994  0.373542  0.000000  1
  Si  Si4  1  0.440303  0.066094  0.000000  1
  Si  Si5  1  0.725213  0.955108  0.500000  1
  Si  Si6  1  0.229234  0.275074  0.500000  1
  Si  Si7  1  0.045116  0.768016  0.500000  1
  Si  Si8  1  0.334132  0.666065  0.000000  1
  Ni  Ni9  1  0.701347  0.092578  0.000000  1
  Ni  Ni10  1  0.607147  0.793791  0.000000  1
  Ni  Ni11  1  0.181039  0.391267  0.000000  1
  Ni  Ni12  1  0.211593  0.814632  0.000000  1
  Ru  Ru13  1  0.394598  0.297217  0.000000  1
  Ru  Ru14  1  0.903729  0.606228  0.000000  1
  Ru  Ru15  1  0.768436  0.725652  0.500000  1
  Ru  Ru16  1  0.948020  0.226926  0.500000  1
  Ru  Ru17  1  0.274539  0.043233  0.500000  1
  Ru  Ru18  1  0.429200  0.560738  0.500000  1
  Ru  Ru19  1  0.131884  0.571396  0.500000  1
  Ru  Ru20  1  0.445757  0.878191  0.500000  1
