# generated using pymatgen
data_Pr9Dy11Ga7Sn9
_symmetry_space_group_name_H-M   'P 1'
_cell_length_a   7.77334400
_cell_length_b   8.29409430
_cell_length_c   15.64556400
_cell_angle_alpha   90.00000000
_cell_angle_beta   90.00000000
_cell_angle_gamma   90.18936993
_symmetry_Int_Tables_number   1
_chemical_formula_structural   Pr9Dy11Ga7Sn9
_chemical_formula_sum   'Pr9 Dy11 Ga7 Sn9'
_cell_volume   1008.70856287
_cell_formula_units_Z   1
loop_
 _symmetry_equiv_pos_site_id
 _symmetry_equiv_pos_as_xyz
  1  'x, y, z'
loop_
 _atom_site_type_symbol
 _atom_site_label
 _atom_site_symmetry_multiplicity
 _atom_site_fract_x
 _atom_site_fract_y
 _atom_site_fract_z
 _atom_site_occupancy
  Pr  Pr0  1  0.497518  0.316405  0.902874  1
  Pr  Pr1  1  0.003284  0.177933  0.596727  1
  Pr  Pr2  1  0.501215  0.680708  0.401777  1
  Pr  Pr3  1  0.997932  0.815509  0.096976  1
  Pr  Pr4  1  0.501215  0.680708  0.098223  1
  Pr  Pr5  1  0.997932  0.815509  0.403024  1
  Pr  Pr6  1  0.497518  0.316405  0.597126  1
  Pr  Pr7  1  0.003284  0.177933  0.903273  1
  Pr  Pr8  1  0.306705  0.977991  0.250000  1
  Dy  Dy9  1  0.332000  0.831068  0.869331  1
  Dy  Dy10  1  0.841606  0.675791  0.628891  1
  Dy  Dy11  1  0.659786  0.172270  0.368787  1
  Dy  Dy12  1  0.165115  0.329526  0.130634  1
  Dy  Dy13  1  0.659786  0.172270  0.131213  1
  Dy  Dy14  1  0.165115  0.329526  0.369366  1
  Dy  Dy15  1  0.332000  0.831068  0.630669  1
  Dy  Dy16  1  0.841606  0.675791  0.871109  1
  Dy  Dy17  1  0.193184  0.487751  0.750000  1
  Dy  Dy18  1  0.675045  0.002700  0.750000  1
  Dy  Dy19  1  0.821257  0.515113  0.250000  1
  Ga  Ga20  1  0.544770  0.626039  0.750000  1
  Ga  Ga21  1  0.040213  0.892377  0.750000  1
  Ga  Ga22  1  0.460632  0.393041  0.250000  1
  Ga  Ga23  1  0.949880  0.122073  0.250000  1
  Ga  Ga24  1  0.292955  0.125631  0.750000  1
  Ga  Ga25  1  0.718559  0.875249  0.250000  1
  Ga  Ga26  1  0.207386  0.616198  0.250000  1
  Sn  Sn27  1  0.322948  0.039072  0.037089  1
  Sn  Sn28  1  0.822661  0.459140  0.462278  1
  Sn  Sn29  1  0.675520  0.961874  0.537894  1
  Sn  Sn30  1  0.177568  0.538229  0.961411  1
  Sn  Sn31  1  0.675520  0.961874  0.962106  1
  Sn  Sn32  1  0.177568  0.538229  0.538589  1
  Sn  Sn33  1  0.322948  0.039072  0.462911  1
  Sn  Sn34  1  0.822661  0.459140  0.037722  1
  Sn  Sn35  1  0.795109  0.370788  0.750000  1
