# generated using pymatgen
data_Ti24Si5As3
_symmetry_space_group_name_H-M   'P 1'
_cell_length_a   10.17489229
_cell_length_b   10.13616014
_cell_length_c   5.09224821
_cell_angle_alpha   89.98099585
_cell_angle_beta   90.02707853
_cell_angle_gamma   90.00102357
_symmetry_Int_Tables_number   1
_chemical_formula_structural   Ti24Si5As3
_chemical_formula_sum   'Ti24 Si5 As3'
_cell_volume   525.18555864
_cell_formula_units_Z   1
loop_
 _symmetry_equiv_pos_site_id
 _symmetry_equiv_pos_as_xyz
  1  'x, y, z'
loop_
 _atom_site_type_symbol
 _atom_site_label
 _atom_site_symmetry_multiplicity
 _atom_site_fract_x
 _atom_site_fract_y
 _atom_site_fract_z
 _atom_site_occupancy
  Ti  Ti0  1  0.893612  0.579697  0.040408  1
  Ti  Ti1  1  0.105314  0.419186  0.035203  1
  Ti  Ti2  1  0.917825  0.394443  0.524246  1
  Ti  Ti3  1  0.081366  0.605234  0.532886  1
  Ti  Ti4  1  0.605620  0.918856  0.467133  1
  Ti  Ti5  1  0.393226  0.081252  0.467269  1
  Ti  Ti6  1  0.582643  0.106814  0.966555  1
  Ti  Ti7  1  0.417902  0.893971  0.965427  1
  Ti  Ti8  1  0.855701  0.028586  0.717576  1
  Ti  Ti9  1  0.143683  0.971103  0.717270  1
  Ti  Ti10  1  0.472981  0.356516  0.216379  1
  Ti  Ti11  1  0.529607  0.642736  0.217284  1
  Ti  Ti12  1  0.641842  0.471971  0.783072  1
  Ti  Ti13  1  0.359296  0.527663  0.782725  1
  Ti  Ti14  1  0.027735  0.139919  0.281698  1
  Ti  Ti15  1  0.972732  0.860078  0.282431  1
  Ti  Ti16  1  0.285048  0.181146  0.997463  1
  Ti  Ti17  1  0.715007  0.818270  0.999292  1
  Ti  Ti18  1  0.319661  0.785338  0.497589  1
  Ti  Ti19  1  0.680995  0.216746  0.496067  1
  Ti  Ti20  1  0.218306  0.316519  0.502003  1
  Ti  Ti21  1  0.781330  0.682736  0.498985  1
  Ti  Ti22  1  0.182412  0.717358  0.002939  1
  Ti  Ti23  1  0.817755  0.284368  0.006405  1
  Si  Si24  1  0.794066  0.042044  0.213545  1
  Si  Si25  1  0.206139  0.957815  0.212984  1
  Si  Si26  1  0.458396  0.294290  0.712600  1
  Si  Si27  1  0.542041  0.705630  0.712939  1
  Si  Si28  1  0.704058  0.458044  0.288317  1
  As  As29  1  0.295154  0.542038  0.287348  1
  As  As30  1  0.041320  0.205909  0.786327  1
  As  As31  1  0.957227  0.793724  0.787635  1
