# generated using pymatgen
data_Sm5Dy11(MgSn4)4
_symmetry_space_group_name_H-M   'P 1'
_cell_length_a   7.70135972
_cell_length_b   8.25390155
_cell_length_c   15.26977700
_cell_angle_alpha   89.96528476
_cell_angle_beta   89.97515141
_cell_angle_gamma   89.99436914
_symmetry_Int_Tables_number   1
_chemical_formula_structural   Sm5Dy11(MgSn4)4
_chemical_formula_sum   'Sm5 Dy11 Mg4 Sn16'
_cell_volume   970.64241718
_cell_formula_units_Z   1
loop_
 _symmetry_equiv_pos_site_id
 _symmetry_equiv_pos_as_xyz
  1  'x, y, z'
loop_
 _atom_site_type_symbol
 _atom_site_label
 _atom_site_symmetry_multiplicity
 _atom_site_fract_x
 _atom_site_fract_y
 _atom_site_fract_z
 _atom_site_occupancy
  Sm  Sm0  1  0.999725  0.182435  0.093819  1
  Sm  Sm1  1  0.000831  0.817780  0.905454  1
  Sm  Sm2  1  0.500003  0.681798  0.907202  1
  Sm  Sm3  1  0.000560  0.816206  0.591425  1
  Sm  Sm4  1  0.500269  0.317723  0.093813  1
  Dy  Dy5  1  0.998555  0.184708  0.408154  1
  Dy  Dy6  1  0.497505  0.315948  0.408188  1
  Dy  Dy7  1  0.500940  0.683824  0.590861  1
  Dy  Dy8  1  0.336725  0.169304  0.627135  1
  Dy  Dy9  1  0.663909  0.830091  0.372407  1
  Dy  Dy10  1  0.163759  0.669048  0.372502  1
  Dy  Dy11  1  0.664615  0.830092  0.129812  1
  Dy  Dy12  1  0.836221  0.330593  0.626933  1
  Dy  Dy13  1  0.335913  0.169681  0.871295  1
  Dy  Dy14  1  0.835022  0.329979  0.871224  1
  Dy  Dy15  1  0.164536  0.669895  0.129620  1
  Mg  Mg16  1  0.160968  0.504487  0.749375  1
  Mg  Mg17  1  0.839715  0.495538  0.251136  1
  Mg  Mg18  1  0.339787  0.004998  0.250788  1
  Mg  Mg19  1  0.661449  0.995998  0.749651  1
  Sn  Sn20  1  0.024662  0.097309  0.748857  1
  Sn  Sn21  1  0.977076  0.905427  0.251730  1
  Sn  Sn22  1  0.476822  0.594493  0.251652  1
  Sn  Sn23  1  0.522970  0.403842  0.748361  1
  Sn  Sn24  1  0.182858  0.461665  0.538442  1
  Sn  Sn25  1  0.816761  0.535078  0.460008  1
  Sn  Sn26  1  0.318550  0.964300  0.459635  1
  Sn  Sn27  1  0.821742  0.539406  0.038337  1
  Sn  Sn28  1  0.679074  0.038439  0.537987  1
  Sn  Sn29  1  0.178247  0.461258  0.962023  1
  Sn  Sn30  1  0.678890  0.038297  0.962193  1
  Sn  Sn31  1  0.321305  0.961181  0.038707  1
  Sn  Sn32  1  0.304446  0.851333  0.747735  1
  Sn  Sn33  1  0.698277  0.149627  0.252838  1
  Sn  Sn34  1  0.197760  0.350749  0.252498  1
  Sn  Sn35  1  0.799551  0.647471  0.748203  1
