# generated using pymatgen
data_Gd9Ho11Pb16
_symmetry_space_group_name_H-M   'P 1'
_cell_length_a   8.21271700
_cell_length_b   8.28528323
_cell_length_c   15.62887800
_cell_angle_alpha   90.00000000
_cell_angle_beta   90.00000000
_cell_angle_gamma   89.98638364
_symmetry_Int_Tables_number   1
_chemical_formula_structural   Gd9Ho11Pb16
_chemical_formula_sum   'Gd9 Ho11 Pb16'
_cell_volume   1063.46207329
_cell_formula_units_Z   1
loop_
 _symmetry_equiv_pos_site_id
 _symmetry_equiv_pos_as_xyz
  1  'x, y, z'
loop_
 _atom_site_type_symbol
 _atom_site_label
 _atom_site_symmetry_multiplicity
 _atom_site_fract_x
 _atom_site_fract_y
 _atom_site_fract_z
 _atom_site_occupancy
  Gd  Gd0  1  0.531477  0.322501  0.901590  1
  Gd  Gd1  1  0.031619  0.177226  0.598845  1
  Gd  Gd2  1  0.469275  0.678206  0.402328  1
  Gd  Gd3  1  0.969237  0.821602  0.097379  1
  Gd  Gd4  1  0.469275  0.678206  0.097672  1
  Gd  Gd5  1  0.969237  0.821602  0.402621  1
  Gd  Gd6  1  0.531477  0.322501  0.598410  1
  Gd  Gd7  1  0.031619  0.177226  0.901155  1
  Gd  Gd8  1  0.293719  0.004264  0.250000  1
  Ho  Ho9  1  0.373293  0.842735  0.878140  1
  Ho  Ho10  1  0.873409  0.657060  0.621213  1
  Ho  Ho11  1  0.625880  0.157759  0.379248  1
  Ho  Ho12  1  0.126172  0.342250  0.120585  1
  Ho  Ho13  1  0.625880  0.157759  0.120752  1
  Ho  Ho14  1  0.126172  0.342250  0.379415  1
  Ho  Ho15  1  0.373293  0.842735  0.621860  1
  Ho  Ho16  1  0.873409  0.657060  0.878787  1
  Ho  Ho17  1  0.206430  0.503843  0.750000  1
  Ho  Ho18  1  0.706706  0.996158  0.750000  1
  Ho  Ho19  1  0.793065  0.494872  0.250000  1
  Pb  Pb20  1  0.285827  0.036656  0.042281  1
  Pb  Pb21  1  0.785335  0.463732  0.456770  1
  Pb  Pb22  1  0.714195  0.963803  0.543465  1
  Pb  Pb23  1  0.214640  0.536593  0.956524  1
  Pb  Pb24  1  0.714195  0.963803  0.956535  1
  Pb  Pb25  1  0.214640  0.536593  0.543476  1
  Pb  Pb26  1  0.285827  0.036656  0.457719  1
  Pb  Pb27  1  0.785335  0.463732  0.043230  1
  Pb  Pb28  1  0.568874  0.626957  0.750000  1
  Pb  Pb29  1  0.068439  0.872768  0.750000  1
  Pb  Pb30  1  0.430616  0.376521  0.250000  1
  Pb  Pb31  1  0.928869  0.126325  0.250000  1
  Pb  Pb32  1  0.343565  0.152527  0.750000  1
  Pb  Pb33  1  0.843023  0.347921  0.750000  1
  Pb  Pb34  1  0.660218  0.847968  0.250000  1
  Pb  Pb35  1  0.155760  0.649630  0.250000  1
