# generated using pymatgen
data_ErMgTl(Si3Pd10)2
_symmetry_space_group_name_H-M   'P 1'
_cell_length_a   8.67203062
_cell_length_b   8.67203000
_cell_length_c   8.67203100
_cell_angle_alpha   60.00000001
_cell_angle_beta   60.00000237
_cell_angle_gamma   60.00000363
_symmetry_Int_Tables_number   1
_chemical_formula_structural   ErMgTl(Si3Pd10)2
_chemical_formula_sum   'Er1 Mg1 Tl1 Si6 Pd20'
_cell_volume   461.15552698
_cell_formula_units_Z   1
loop_
 _symmetry_equiv_pos_site_id
 _symmetry_equiv_pos_as_xyz
  1  'x, y, z'
loop_
 _atom_site_type_symbol
 _atom_site_label
 _atom_site_symmetry_multiplicity
 _atom_site_fract_x
 _atom_site_fract_y
 _atom_site_fract_z
 _atom_site_occupancy
  Er  Er0  1  0.750000  0.750000  0.750000  1
  Mg  Mg1  1  0.000000  0.000000  0.000000  1
  Tl  Tl2  1  0.250000  0.250000  0.250000  1
  Si  Si3  1  0.730500  0.269500  0.269500  1
  Si  Si4  1  0.269500  0.730500  0.730500  1
  Si  Si5  1  0.269500  0.730500  0.269500  1
  Si  Si6  1  0.730500  0.269500  0.730500  1
  Si  Si7  1  0.269500  0.269500  0.730500  1
  Si  Si8  1  0.730500  0.730500  0.269500  1
  Pd  Pd9  1  0.344574  0.996976  0.996976  1
  Pd  Pd10  1  0.661474  0.996976  0.996976  1
  Pd  Pd11  1  0.996976  0.344574  0.661474  1
  Pd  Pd12  1  0.996976  0.661474  0.344574  1
  Pd  Pd13  1  0.996976  0.344574  0.996976  1
  Pd  Pd14  1  0.661474  0.996976  0.344574  1
  Pd  Pd15  1  0.996976  0.661474  0.996976  1
  Pd  Pd16  1  0.344574  0.996976  0.661474  1
  Pd  Pd17  1  0.996976  0.996976  0.344574  1
  Pd  Pd18  1  0.996976  0.996976  0.661474  1
  Pd  Pd19  1  0.661474  0.344574  0.996976  1
  Pd  Pd20  1  0.344574  0.661474  0.996976  1
  Pd  Pd21  1  0.380603  0.380603  0.380603  1
  Pd  Pd22  1  0.616066  0.616066  0.616066  1
  Pd  Pd23  1  0.380603  0.380603  0.858192  1
  Pd  Pd24  1  0.380603  0.858192  0.380603  1
  Pd  Pd25  1  0.616066  0.616066  0.151800  1
  Pd  Pd26  1  0.616066  0.151800  0.616066  1
  Pd  Pd27  1  0.858192  0.380603  0.380603  1
  Pd  Pd28  1  0.151800  0.616066  0.616066  1
