# generated using pymatgen
data_Yb3Er(Al3Pd)6
_symmetry_space_group_name_H-M   'P 1'
_cell_length_a   7.64826958
_cell_length_b   7.64478021
_cell_length_c   9.47354100
_cell_angle_alpha   90.00000000
_cell_angle_beta   90.00000000
_cell_angle_gamma   119.56712675
_symmetry_Int_Tables_number   1
_chemical_formula_structural   Yb3Er(Al3Pd)6
_chemical_formula_sum   'Yb3 Er1 Al18 Pd6'
_cell_volume   481.78030285
_cell_formula_units_Z   1
loop_
 _symmetry_equiv_pos_site_id
 _symmetry_equiv_pos_as_xyz
  1  'x, y, z'
loop_
 _atom_site_type_symbol
 _atom_site_label
 _atom_site_symmetry_multiplicity
 _atom_site_fract_x
 _atom_site_fract_y
 _atom_site_fract_z
 _atom_site_occupancy
  Yb  Yb0  1  0.995111  0.669448  0.250000  1
  Yb  Yb1  1  0.003655  0.330181  0.750000  1
  Yb  Yb2  1  0.671574  0.996761  0.250000  1
  Er  Er3  1  0.329968  0.002973  0.750000  1
  Al  Al4  1  0.131849  0.131505  0.250000  1
  Al  Al5  1  0.872091  0.870045  0.750000  1
  Al  Al6  1  0.001027  0.334891  0.075592  1
  Al  Al7  1  0.999744  0.665246  0.921813  1
  Al  Al8  1  0.999744  0.665246  0.578187  1
  Al  Al9  1  0.334665  0.000154  0.424510  1
  Al  Al10  1  0.001027  0.334891  0.424408  1
  Al  Al11  1  0.665156  0.999879  0.577944  1
  Al  Al12  1  0.665156  0.999879  0.922056  1
  Al  Al13  1  0.334665  0.000154  0.075490  1
  Al  Al14  1  0.332537  0.331912  0.559049  1
  Al  Al15  1  0.666624  0.666680  0.445207  1
  Al  Al16  1  0.666624  0.666680  0.054793  1
  Al  Al17  1  0.332537  0.331912  0.940951  1
  Al  Al18  1  0.339961  0.546939  0.250000  1
  Al  Al19  1  0.656760  0.451896  0.750000  1
  Al  Al20  1  0.544582  0.339834  0.250000  1
  Al  Al21  1  0.455235  0.663474  0.750000  1
  Pd  Pd22  1  0.671669  0.327694  0.999520  1
  Pd  Pd23  1  0.327761  0.671831  0.998954  1
  Pd  Pd24  1  0.327761  0.671831  0.501046  1
  Pd  Pd25  1  0.671669  0.327694  0.500480  1
  Pd  Pd26  1  0.000425  0.000186  0.999319  1
  Pd  Pd27  1  0.000425  0.000186  0.500681  1
