# generated using pymatgen
data_Ce4In2CuIrRh2
_symmetry_space_group_name_H-M   'P 1'
_cell_length_a   7.70637752
_cell_length_b   7.70637787
_cell_length_c   3.74469800
_cell_angle_alpha   90.00000000
_cell_angle_beta   90.00000000
_cell_angle_gamma   89.70590652
_symmetry_Int_Tables_number   1
_chemical_formula_structural   Ce4In2CuIrRh2
_chemical_formula_sum   'Ce4 In2 Cu1 Ir1 Rh2'
_cell_volume   222.38815811
_cell_formula_units_Z   1
loop_
 _symmetry_equiv_pos_site_id
 _symmetry_equiv_pos_as_xyz
  1  'x, y, z'
loop_
 _atom_site_type_symbol
 _atom_site_label
 _atom_site_symmetry_multiplicity
 _atom_site_fract_x
 _atom_site_fract_y
 _atom_site_fract_z
 _atom_site_occupancy
  Ce  Ce0  1  0.675945  0.175945  0.500000  1
  Ce  Ce1  1  0.338376  0.838376  0.500000  1
  Ce  Ce2  1  0.165980  0.317496  0.500000  1
  Ce  Ce3  1  0.817496  0.665980  0.500000  1
  In  In4  1  0.000781  0.993633  0.000000  1
  In  In5  1  0.493633  0.500781  0.000000  1
  Cu  Cu6  1  0.128091  0.628091  0.000000  1
  Ir  Ir7  1  0.878849  0.378849  0.000000  1
  Rh  Rh8  1  0.636963  0.863886  0.000000  1
  Rh  Rh9  1  0.363886  0.136963  0.000000  1
