# generated using pymatgen
data_Tm12Co2Ni2SnPt
_symmetry_space_group_name_H-M   'P 1'
_cell_length_a   8.19354344
_cell_length_b   8.19354245
_cell_length_c   8.19354227
_cell_angle_alpha   111.54665829
_cell_angle_beta   109.49658292
_cell_angle_gamma   107.39697820
_symmetry_Int_Tables_number   1
_chemical_formula_structural   Tm12Co2Ni2SnPt
_chemical_formula_sum   'Tm12 Co2 Ni2 Sn1 Pt1'
_cell_volume   422.88627837
_cell_formula_units_Z   1
loop_
 _symmetry_equiv_pos_site_id
 _symmetry_equiv_pos_as_xyz
  1  'x, y, z'
loop_
 _atom_site_type_symbol
 _atom_site_label
 _atom_site_symmetry_multiplicity
 _atom_site_fract_x
 _atom_site_fract_y
 _atom_site_fract_z
 _atom_site_occupancy
  Tm  Tm0  1  0.418632  0.222583  0.196049  1
  Tm  Tm1  1  0.581368  0.777417  0.803951  1
  Tm  Tm2  1  0.026534  0.222583  0.803951  1
  Tm  Tm3  1  0.973466  0.777417  0.196049  1
  Tm  Tm4  1  0.181422  0.285706  0.467129  1
  Tm  Tm5  1  0.818578  0.714294  0.532871  1
  Tm  Tm6  1  0.181422  0.714294  0.895716  1
  Tm  Tm7  1  0.818578  0.285706  0.104284  1
  Tm  Tm8  1  0.319748  0.628982  0.309233  1
  Tm  Tm9  1  0.680252  0.371018  0.690767  1
  Tm  Tm10  1  0.319748  0.010515  0.690767  1
  Tm  Tm11  1  0.680252  0.989485  0.309233  1
  Co  Co12  1  0.115027  0.615027  0.500000  1
  Co  Co13  1  0.884973  0.384973  0.500000  1
  Ni  Ni14  1  0.358454  0.000000  0.358454  1
  Ni  Ni15  1  0.641546  0.000000  0.641546  1
  Sn  Sn16  1  0.500000  0.500000  0.000000  1
  Pt  Pt17  1  0.000000  0.000000  0.000000  1
