# generated using pymatgen
data_Er6GaSi5Rh2
_symmetry_space_group_name_H-M   'P 1'
_cell_length_a   5.67676318
_cell_length_b   5.67676282
_cell_length_c   13.52798780
_cell_angle_alpha   109.10499071
_cell_angle_beta   109.10499029
_cell_angle_gamma   43.54611970
_symmetry_Int_Tables_number   1
_chemical_formula_structural   Er6GaSi5Rh2
_chemical_formula_sum   'Er6 Ga1 Si5 Rh2'
_cell_volume   281.06931487
_cell_formula_units_Z   1
loop_
 _symmetry_equiv_pos_site_id
 _symmetry_equiv_pos_as_xyz
  1  'x, y, z'
loop_
 _atom_site_type_symbol
 _atom_site_label
 _atom_site_symmetry_multiplicity
 _atom_site_fract_x
 _atom_site_fract_y
 _atom_site_fract_z
 _atom_site_occupancy
  Er  Er0  1  0.399845  0.399845  0.078874  1
  Er  Er1  1  0.744285  0.744285  0.233029  1
  Er  Er2  1  0.521917  0.521917  0.376580  1
  Er  Er3  1  0.477291  0.477291  0.624568  1
  Er  Er4  1  0.255394  0.255394  0.770619  1
  Er  Er5  1  0.600792  0.600792  0.915791  1
  Ga  Ga6  1  0.115816  0.115816  0.074362  1
  Si  Si7  1  0.044462  0.044462  0.238128  1
  Si  Si8  1  0.871718  0.871718  0.458635  1
  Si  Si9  1  0.129059  0.129059  0.543793  1
  Si  Si10  1  0.952681  0.952681  0.762141  1
  Si  Si11  1  0.886483  0.886483  0.923115  1
  Rh  Rh12  1  0.248579  0.248579  0.414988  1
  Rh  Rh13  1  0.751676  0.751676  0.585377  1
