# generated using pymatgen
data_Li8Nd8GaPt7
_symmetry_space_group_name_H-M   'P 1'
_cell_length_a   4.11062900
_cell_length_b   7.41421223
_cell_length_c   16.92323000
_cell_angle_alpha   89.67235363
_cell_angle_beta   90.00000000
_cell_angle_gamma   90.00000000
_symmetry_Int_Tables_number   1
_chemical_formula_structural   Li8Nd8GaPt7
_chemical_formula_sum   'Li8 Nd8 Ga1 Pt7'
_cell_volume   515.76213019
_cell_formula_units_Z   1
loop_
 _symmetry_equiv_pos_site_id
 _symmetry_equiv_pos_as_xyz
  1  'x, y, z'
loop_
 _atom_site_type_symbol
 _atom_site_label
 _atom_site_symmetry_multiplicity
 _atom_site_fract_x
 _atom_site_fract_y
 _atom_site_fract_z
 _atom_site_occupancy
  Li  Li0  1  0.250000  0.632036  0.348627  1
  Li  Li1  1  0.750000  0.370495  0.652867  1
  Li  Li2  1  0.750000  0.870063  0.854438  1
  Li  Li3  1  0.250000  0.125966  0.148734  1
  Li  Li4  1  0.250000  0.490785  0.059222  1
  Li  Li5  1  0.750000  0.510275  0.941203  1
  Li  Li6  1  0.750000  0.004696  0.561456  1
  Li  Li7  1  0.250000  0.990733  0.435594  1
  Nd  Nd8  1  0.250000  0.547876  0.785785  1
  Nd  Nd9  1  0.750000  0.449168  0.211458  1
  Nd  Nd10  1  0.750000  0.949210  0.283488  1
  Nd  Nd11  1  0.250000  0.045977  0.720817  1
  Nd  Nd12  1  0.250000  0.664002  0.561709  1
  Nd  Nd13  1  0.750000  0.345722  0.431535  1
  Nd  Nd14  1  0.750000  0.836855  0.061337  1
  Nd  Nd15  1  0.250000  0.164954  0.940023  1
  Ga  Ga16  1  0.250000  0.248035  0.562295  1
  Pt  Pt17  1  0.250000  0.747613  0.187179  1
  Pt  Pt18  1  0.750000  0.252271  0.814469  1
  Pt  Pt19  1  0.750000  0.753648  0.690515  1
  Pt  Pt20  1  0.250000  0.248325  0.308758  1
  Pt  Pt21  1  0.250000  0.754517  0.938289  1
  Pt  Pt22  1  0.750000  0.245576  0.061973  1
  Pt  Pt23  1  0.750000  0.751204  0.438230  1
