# generated using pymatgen
data_Zr5InBSb2
_symmetry_space_group_name_H-M   'P 1'
_cell_length_a   8.56314567
_cell_length_b   8.56314536
_cell_length_c   5.80173500
_cell_angle_alpha   90.00000000
_cell_angle_beta   90.00000000
_cell_angle_gamma   119.92370363
_symmetry_Int_Tables_number   1
_chemical_formula_structural   Zr5InBSb2
_chemical_formula_sum   'Zr10 In2 B2 Sb4'
_cell_volume   368.71308128
_cell_formula_units_Z   2
loop_
 _symmetry_equiv_pos_site_id
 _symmetry_equiv_pos_as_xyz
  1  'x, y, z'
loop_
 _atom_site_type_symbol
 _atom_site_label
 _atom_site_symmetry_multiplicity
 _atom_site_fract_x
 _atom_site_fract_y
 _atom_site_fract_z
 _atom_site_occupancy
  Zr  Zr0  1  0.666619  0.335142  0.999979  1
  Zr  Zr1  1  0.335142  0.666619  0.999979  1
  Zr  Zr2  1  0.335142  0.666619  0.500021  1
  Zr  Zr3  1  0.666619  0.335142  0.500021  1
  Zr  Zr4  1  0.767883  0.767883  0.750000  1
  Zr  Zr5  1  0.229247  0.999435  0.750000  1
  Zr  Zr6  1  0.999435  0.229247  0.750000  1
  Zr  Zr7  1  0.231448  0.231448  0.250000  1
  Zr  Zr8  1  0.768173  0.999844  0.250000  1
  Zr  Zr9  1  0.999844  0.768173  0.250000  1
  In  In10  1  0.398335  0.000338  0.250000  1
  In  In11  1  0.000338  0.398335  0.250000  1
  B  B12  1  0.000590  0.000590  0.001733  1
  B  B13  1  0.000590  0.000590  0.498267  1
  Sb  Sb14  1  0.397637  0.397637  0.750000  1
  Sb  Sb15  1  0.599424  0.001395  0.750000  1
  Sb  Sb16  1  0.001395  0.599424  0.750000  1
  Sb  Sb17  1  0.602138  0.602138  0.250000  1
