# generated using pymatgen
data_Sr4Y5ErSn8
_symmetry_space_group_name_H-M   'P 1'
_cell_length_a   7.97707100
_cell_length_b   8.48966478
_cell_length_c   16.01868900
_cell_angle_alpha   90.11048608
_cell_angle_beta   90.00000000
_cell_angle_gamma   90.00000000
_symmetry_Int_Tables_number   1
_chemical_formula_structural   Sr4Y5ErSn8
_chemical_formula_sum   'Sr8 Y10 Er2 Sn16'
_cell_volume   1084.82619183
_cell_formula_units_Z   2
loop_
 _symmetry_equiv_pos_site_id
 _symmetry_equiv_pos_as_xyz
  1  'x, y, z'
loop_
 _atom_site_type_symbol
 _atom_site_label
 _atom_site_symmetry_multiplicity
 _atom_site_fract_x
 _atom_site_fract_y
 _atom_site_fract_z
 _atom_site_occupancy
  Sr  Sr0  1  0.499176  0.322842  0.906977  1
  Sr  Sr1  1  0.999176  0.177158  0.593023  1
  Sr  Sr2  1  0.500810  0.677690  0.407430  1
  Sr  Sr3  1  0.000810  0.822310  0.092570  1
  Sr  Sr4  1  0.500828  0.677657  0.092324  1
  Sr  Sr5  1  0.000828  0.822343  0.407676  1
  Sr  Sr6  1  0.498788  0.322597  0.593022  1
  Sr  Sr7  1  0.998788  0.177403  0.906978  1
  Y  Y8  1  0.673028  0.165669  0.376365  1
  Y  Y9  1  0.173028  0.334331  0.123635  1
  Y  Y10  1  0.672732  0.165392  0.123628  1
  Y  Y11  1  0.172732  0.334608  0.376372  1
  Y  Y12  1  0.326924  0.834557  0.623881  1
  Y  Y13  1  0.826924  0.665443  0.876119  1
  Y  Y14  1  0.162761  0.493286  0.750123  1
  Y  Y15  1  0.662761  0.006714  0.749877  1
  Y  Y16  1  0.837639  0.507031  0.250259  1
  Y  Y17  1  0.337639  0.992969  0.249741  1
  Er  Er18  1  0.327401  0.834665  0.875175  1
  Er  Er19  1  0.827401  0.665335  0.624825  1
  Sn  Sn20  1  0.334885  0.039962  0.041409  1
  Sn  Sn21  1  0.834885  0.460038  0.458591  1
  Sn  Sn22  1  0.665607  0.958442  0.542951  1
  Sn  Sn23  1  0.165607  0.541558  0.957049  1
  Sn  Sn24  1  0.662934  0.959270  0.956857  1
  Sn  Sn25  1  0.162934  0.540730  0.543143  1
  Sn  Sn26  1  0.335923  0.040507  0.457586  1
  Sn  Sn27  1  0.835923  0.459493  0.042414  1
  Sn  Sn28  1  0.527030  0.631676  0.749705  1
  Sn  Sn29  1  0.027030  0.868324  0.750295  1
  Sn  Sn30  1  0.473269  0.369520  0.250077  1
  Sn  Sn31  1  0.973269  0.130480  0.249923  1
  Sn  Sn32  1  0.292662  0.133139  0.750344  1
  Sn  Sn33  1  0.792662  0.366861  0.749656  1
  Sn  Sn34  1  0.707604  0.865983  0.250092  1
  Sn  Sn35  1  0.207604  0.634017  0.249908  1
