# generated using pymatgen
data_Dy2Si3Ir
_symmetry_space_group_name_H-M   'P 1'
_cell_length_a   8.16462200
_cell_length_b   8.16462281
_cell_length_c   7.94427900
_cell_angle_alpha   90.00000000
_cell_angle_beta   90.00000000
_cell_angle_gamma   119.99999672
_symmetry_Int_Tables_number   1
_chemical_formula_structural   Dy2Si3Ir
_chemical_formula_sum   'Dy8 Si12 Ir4'
_cell_volume   458.62459677
_cell_formula_units_Z   4
loop_
 _symmetry_equiv_pos_site_id
 _symmetry_equiv_pos_as_xyz
  1  'x, y, z'
loop_
 _atom_site_type_symbol
 _atom_site_label
 _atom_site_symmetry_multiplicity
 _atom_site_fract_x
 _atom_site_fract_y
 _atom_site_fract_z
 _atom_site_occupancy
  Dy  Dy0  1  0.000000  0.000000  0.250000  1
  Dy  Dy1  1  0.000000  0.000000  0.750000  1
  Dy  Dy2  1  0.509291  0.490709  0.250000  1
  Dy  Dy3  1  0.509291  0.018584  0.250000  1
  Dy  Dy4  1  0.981416  0.490709  0.250000  1
  Dy  Dy5  1  0.490709  0.509291  0.750000  1
  Dy  Dy6  1  0.490709  0.981416  0.750000  1
  Dy  Dy7  1  0.018584  0.509291  0.750000  1
  Si  Si8  1  0.166753  0.833247  0.499287  1
  Si  Si9  1  0.166753  0.333507  0.499287  1
  Si  Si10  1  0.666493  0.833247  0.499287  1
  Si  Si11  1  0.833247  0.166753  0.500713  1
  Si  Si12  1  0.833247  0.666493  0.500713  1
  Si  Si13  1  0.333507  0.166753  0.500713  1
  Si  Si14  1  0.833247  0.166753  0.999287  1
  Si  Si15  1  0.833247  0.666493  0.999287  1
  Si  Si16  1  0.333507  0.166753  0.999287  1
  Si  Si17  1  0.166753  0.833247  0.000713  1
  Si  Si18  1  0.166753  0.333507  0.000713  1
  Si  Si19  1  0.666493  0.833247  0.000713  1
  Ir  Ir20  1  0.333333  0.666667  0.467256  1
  Ir  Ir21  1  0.666667  0.333333  0.532744  1
  Ir  Ir22  1  0.666667  0.333333  0.967256  1
  Ir  Ir23  1  0.333333  0.666667  0.032744  1
