# generated using pymatgen
data_Ca(TcP)2
_symmetry_space_group_name_H-M   'P 1'
_cell_length_a   5.66883463
_cell_length_b   5.66883471
_cell_length_c   5.66883436
_cell_angle_alpha   136.85657973
_cell_angle_beta   136.85657750
_cell_angle_gamma   62.65879625
_symmetry_Int_Tables_number   1
_chemical_formula_structural   Ca(TcP)2
_chemical_formula_sum   'Ca1 Tc2 P2'
_cell_volume   84.14000489
_cell_formula_units_Z   1
loop_
 _symmetry_equiv_pos_site_id
 _symmetry_equiv_pos_as_xyz
  1  'x, y, z'
loop_
 _atom_site_type_symbol
 _atom_site_label
 _atom_site_symmetry_multiplicity
 _atom_site_fract_x
 _atom_site_fract_y
 _atom_site_fract_z
 _atom_site_occupancy
  Ca  Ca0  1  0.000000  0.000000  0.000000  1
  Tc  Tc1  1  0.750000  0.250000  0.500000  1
  Tc  Tc2  1  0.250000  0.750000  0.500000  1
  P  P3  1  0.634712  0.634712  0.000000  1
  P  P4  1  0.365288  0.365288  0.000000  1
