# generated using pymatgen
data_Pt2SeCl12
_symmetry_space_group_name_H-M   'P 1'
_cell_length_a   11.27284700
_cell_length_b   8.79883337
_cell_length_c   9.39679830
_cell_angle_alpha   88.34305695
_cell_angle_beta   90.00000000
_cell_angle_gamma   90.00000000
_symmetry_Int_Tables_number   1
_chemical_formula_structural   Pt2SeCl12
_chemical_formula_sum   'Pt4 Se2 Cl24'
_cell_volume   931.65899616
_cell_formula_units_Z   2
loop_
 _symmetry_equiv_pos_site_id
 _symmetry_equiv_pos_as_xyz
  1  'x, y, z'
loop_
 _atom_site_type_symbol
 _atom_site_label
 _atom_site_symmetry_multiplicity
 _atom_site_fract_x
 _atom_site_fract_y
 _atom_site_fract_z
 _atom_site_occupancy
  Pt  Pt0  1  0.250000  0.127699  0.638394  1
  Pt  Pt1  1  0.750000  0.632143  0.615614  1
  Pt  Pt2  1  0.750000  0.872301  0.361606  1
  Pt  Pt3  1  0.250000  0.367857  0.384386  1
  Se  Se4  1  0.250000  0.842128  0.924462  1
  Se  Se5  1  0.750000  0.157872  0.075538  1
  Cl  Cl6  1  0.895511  0.612146  0.786029  1
  Cl  Cl7  1  0.602529  0.165053  0.923429  1
  Cl  Cl8  1  0.250000  0.625236  0.414991  1
  Cl  Cl9  1  0.104489  0.387854  0.213971  1
  Cl  Cl10  1  0.104954  0.945330  0.682881  1
  Cl  Cl11  1  0.750000  0.374764  0.585009  1
  Cl  Cl12  1  0.390576  0.322098  0.576822  1
  Cl  Cl13  1  0.102529  0.834947  0.076571  1
  Cl  Cl14  1  0.397471  0.834947  0.076571  1
  Cl  Cl15  1  0.250000  0.604105  0.867076  1
  Cl  Cl16  1  0.250000  0.183418  0.878362  1
  Cl  Cl17  1  0.890576  0.677902  0.423178  1
  Cl  Cl18  1  0.395511  0.387854  0.213971  1
  Cl  Cl19  1  0.750000  0.395895  0.132924  1
  Cl  Cl20  1  0.395046  0.945330  0.682881  1
  Cl  Cl21  1  0.109424  0.322098  0.576822  1
  Cl  Cl22  1  0.750000  0.816582  0.121638  1
  Cl  Cl23  1  0.250000  0.092245  0.386284  1
  Cl  Cl24  1  0.604954  0.054670  0.317119  1
  Cl  Cl25  1  0.897471  0.165053  0.923429  1
  Cl  Cl26  1  0.750000  0.907755  0.613716  1
  Cl  Cl27  1  0.609424  0.677902  0.423178  1
  Cl  Cl28  1  0.604489  0.612146  0.786029  1
  Cl  Cl29  1  0.895046  0.054670  0.317119  1
