# generated using pymatgen
data_Y18Sc2Cd3Tc2Hg3
_symmetry_space_group_name_H-M   'P 1'
_cell_length_a   9.52454700
_cell_length_b   9.52454704
_cell_length_c   9.80009900
_cell_angle_alpha   90.00000000
_cell_angle_beta   90.00000000
_cell_angle_gamma   119.99999638
_symmetry_Int_Tables_number   1
_chemical_formula_structural   Y18Sc2Cd3Tc2Hg3
_chemical_formula_sum   'Y18 Sc2 Cd3 Tc2 Hg3'
_cell_volume   769.92739187
_cell_formula_units_Z   1
loop_
 _symmetry_equiv_pos_site_id
 _symmetry_equiv_pos_as_xyz
  1  'x, y, z'
loop_
 _atom_site_type_symbol
 _atom_site_label
 _atom_site_symmetry_multiplicity
 _atom_site_fract_x
 _atom_site_fract_y
 _atom_site_fract_z
 _atom_site_occupancy
  Y  Y0  1  0.208051  0.791949  0.440518  1
  Y  Y1  1  0.208051  0.416104  0.440518  1
  Y  Y2  1  0.583896  0.791949  0.440518  1
  Y  Y3  1  0.791781  0.208219  0.558411  1
  Y  Y4  1  0.791781  0.583561  0.558411  1
  Y  Y5  1  0.416439  0.208219  0.558411  1
  Y  Y6  1  0.791781  0.208219  0.941589  1
  Y  Y7  1  0.791781  0.583561  0.941589  1
  Y  Y8  1  0.416439  0.208219  0.941589  1
  Y  Y9  1  0.208051  0.791949  0.059482  1
  Y  Y10  1  0.208051  0.416104  0.059482  1
  Y  Y11  1  0.583896  0.791949  0.059482  1
  Y  Y12  1  0.540417  0.459583  0.250000  1
  Y  Y13  1  0.540417  0.080833  0.250000  1
  Y  Y14  1  0.919167  0.459583  0.250000  1
  Y  Y15  1  0.459367  0.540633  0.750000  1
  Y  Y16  1  0.459367  0.918732  0.750000  1
  Y  Y17  1  0.081268  0.540633  0.750000  1
  Sc  Sc18  1  0.000000  0.000000  0.489899  1
  Sc  Sc19  1  0.000000  0.000000  0.010101  1
  Cd  Cd20  1  0.109556  0.890444  0.750000  1
  Cd  Cd21  1  0.109556  0.219110  0.750000  1
  Cd  Cd22  1  0.780890  0.890444  0.750000  1
  Tc  Tc23  1  0.333333  0.666667  0.250000  1
  Tc  Tc24  1  0.666667  0.333333  0.750000  1
  Hg  Hg25  1  0.884299  0.115701  0.250000  1
  Hg  Hg26  1  0.884299  0.768601  0.250000  1
  Hg  Hg27  1  0.231399  0.115701  0.250000  1
