# generated using pymatgen
data_PrInGa3Pd
_symmetry_space_group_name_H-M   'P 1'
_cell_length_a   8.40516219
_cell_length_b   8.40516132
_cell_length_c   6.77458600
_cell_angle_alpha   90.00000000
_cell_angle_beta   90.00000000
_cell_angle_gamma   149.20502078
_symmetry_Int_Tables_number   1
_chemical_formula_structural   PrInGa3Pd
_chemical_formula_sum   'Pr2 In2 Ga6 Pd2'
_cell_volume   245.02894123
_cell_formula_units_Z   2
loop_
 _symmetry_equiv_pos_site_id
 _symmetry_equiv_pos_as_xyz
  1  'x, y, z'
loop_
 _atom_site_type_symbol
 _atom_site_label
 _atom_site_symmetry_multiplicity
 _atom_site_fract_x
 _atom_site_fract_y
 _atom_site_fract_z
 _atom_site_occupancy
  Pr  Pr0  1  0.121236  0.878764  0.750000  1
  Pr  Pr1  1  0.878764  0.121236  0.250000  1
  In  In2  1  0.500000  0.500000  0.500000  1
  In  In3  1  0.500000  0.500000  0.000000  1
  Ga  Ga4  1  0.683964  0.316036  0.052558  1
  Ga  Ga5  1  0.316036  0.683964  0.947442  1
  Ga  Ga6  1  0.316036  0.683964  0.552558  1
  Ga  Ga7  1  0.683964  0.316036  0.447442  1
  Ga  Ga8  1  0.067855  0.932145  0.250000  1
  Ga  Ga9  1  0.932145  0.067855  0.750000  1
  Pd  Pd10  1  0.220947  0.779053  0.250000  1
  Pd  Pd11  1  0.779053  0.220947  0.750000  1
