# generated using pymatgen
data_La15Pr5Si15Bi
_symmetry_space_group_name_H-M   'P 1'
_cell_length_a   8.07405309
_cell_length_b   8.00365064
_cell_length_c   15.47389900
_cell_angle_alpha   89.62855364
_cell_angle_beta   89.16612163
_cell_angle_gamma   90.03943161
_symmetry_Int_Tables_number   1
_chemical_formula_structural   La15Pr5Si15Bi
_chemical_formula_sum   'La15 Pr5 Si15 Bi1'
_cell_volume   999.82553867
_cell_formula_units_Z   1
loop_
 _symmetry_equiv_pos_site_id
 _symmetry_equiv_pos_as_xyz
  1  'x, y, z'
loop_
 _atom_site_type_symbol
 _atom_site_label
 _atom_site_symmetry_multiplicity
 _atom_site_fract_x
 _atom_site_fract_y
 _atom_site_fract_z
 _atom_site_occupancy
  La  La0  1  0.312774  0.310563  0.001545  1
  La  La1  1  0.190207  0.807639  0.248418  1
  La  La2  1  0.795099  0.189261  0.753787  1
  La  La3  1  0.682874  0.686491  0.494517  1
  La  La4  1  0.375364  0.010777  0.447761  1
  La  La5  1  0.497242  0.870632  0.699525  1
  La  La6  1  0.510250  0.122540  0.198441  1
  La  La7  1  0.874668  0.487712  0.299066  1
  La  La8  1  0.122587  0.516978  0.805400  1
  La  La9  1  0.629473  0.986892  0.952283  1
  La  La10  1  0.996298  0.384202  0.542287  1
  La  La11  1  0.991890  0.621723  0.053957  1
  La  La12  1  0.131515  0.986801  0.879340  1
  La  La13  1  0.517898  0.628488  0.127447  1
  La  La14  1  0.497549  0.383835  0.626513  1
  Pr  Pr15  1  0.633245  0.520268  0.878226  1
  Pr  Pr16  1  0.368473  0.481876  0.373452  1
  Pr  Pr17  1  0.871408  0.016049  0.375807  1
  Pr  Pr18  1  0.985210  0.128697  0.125761  1
  Pr  Pr19  1  0.001606  0.854836  0.618561  1
  Si  Si20  1  0.334539  0.698424  0.951589  1
  Si  Si21  1  0.661632  0.299868  0.448469  1
  Si  Si22  1  0.704380  0.334202  0.051660  1
  Si  Si23  1  0.297850  0.668719  0.547733  1
  Si  Si24  1  0.802051  0.835015  0.201688  1
  Si  Si25  1  0.164631  0.198335  0.300671  1
  Si  Si26  1  0.840165  0.801682  0.799261  1
  Si  Si27  1  0.290176  0.922441  0.059034  1
  Si  Si28  1  0.577407  0.791344  0.308474  1
  Si  Si29  1  0.439129  0.211451  0.819462  1
  Si  Si30  1  0.792746  0.576790  0.693395  1
  Si  Si31  1  0.209971  0.419897  0.192213  1
  Si  Si32  1  0.704931  0.077223  0.558388  1
  Si  Si33  1  0.925312  0.290492  0.942764  1
  Si  Si34  1  0.078000  0.714884  0.438592  1
  Bi  Bi35  1  0.191448  0.162971  0.684511  1
