# generated using pymatgen
data_NpCd2Fe3O8
_symmetry_space_group_name_H-M   'P 1'
_cell_length_a   6.50738406
_cell_length_b   6.43838451
_cell_length_c   6.43734216
_cell_angle_alpha   120.19317867
_cell_angle_beta   119.76287680
_cell_angle_gamma   89.74532833
_symmetry_Int_Tables_number   1
_chemical_formula_structural   NpCd2Fe3O8
_chemical_formula_sum   'Np1 Cd2 Fe3 O8'
_cell_volume   191.25331508
_cell_formula_units_Z   1
loop_
 _symmetry_equiv_pos_site_id
 _symmetry_equiv_pos_as_xyz
  1  'x, y, z'
loop_
 _atom_site_type_symbol
 _atom_site_label
 _atom_site_symmetry_multiplicity
 _atom_site_fract_x
 _atom_site_fract_y
 _atom_site_fract_z
 _atom_site_occupancy
  Np  Np0  1  0.500014  0.500013  0.000016  1
  Cd  Cd1  1  0.417620  0.139587  0.278055  1
  Cd  Cd2  1  0.582362  0.860423  0.721938  1
  Fe  Fe3  1  0.000021  0.500018  0.500038  1
  Fe  Fe4  1  0.000006  0.999988  0.499994  1
  Fe  Fe5  1  0.999987  0.499983  0.999969  1
  O  O6  1  0.174527  0.724408  0.450197  1
  O  O7  1  0.261077  0.271736  0.989547  1
  O  O8  1  0.260865  0.718001  0.989991  1
  O  O9  1  0.260680  0.270842  0.542688  1
  O  O10  1  0.739141  0.282008  0.010023  1
  O  O11  1  0.739324  0.729162  0.457324  1
  O  O12  1  0.825460  0.275571  0.549774  1
  O  O13  1  0.738917  0.728262  0.010445  1
