# generated using pymatgen
data_TbYPa2(Al3Ir)6
_symmetry_space_group_name_H-M   'P 1'
_cell_length_a   7.59786701
_cell_length_b   7.59980595
_cell_length_c   9.37667100
_cell_angle_alpha   90.00000000
_cell_angle_beta   90.00000000
_cell_angle_gamma   119.68428918
_symmetry_Int_Tables_number   1
_chemical_formula_structural   TbYPa2(Al3Ir)6
_chemical_formula_sum   'Tb1 Y1 Pa2 Al18 Ir6'
_cell_volume   470.37729977
_cell_formula_units_Z   1
loop_
 _symmetry_equiv_pos_site_id
 _symmetry_equiv_pos_as_xyz
  1  'x, y, z'
loop_
 _atom_site_type_symbol
 _atom_site_label
 _atom_site_symmetry_multiplicity
 _atom_site_fract_x
 _atom_site_fract_y
 _atom_site_fract_z
 _atom_site_occupancy
  Tb  Tb0  1  0.669466  0.993741  0.250000  1
  Y  Y1  1  0.330526  0.006277  0.750000  1
  Pa  Pa2  1  0.997060  0.671010  0.250000  1
  Pa  Pa3  1  0.002943  0.328996  0.750000  1
  Al  Al4  1  0.130072  0.127689  0.250000  1
  Al  Al5  1  0.869962  0.872325  0.750000  1
  Al  Al6  1  0.000574  0.331982  0.076983  1
  Al  Al7  1  0.999467  0.668069  0.923030  1
  Al  Al8  1  0.999467  0.668069  0.576970  1
  Al  Al9  1  0.337638  0.002955  0.425582  1
  Al  Al10  1  0.000574  0.331982  0.423017  1
  Al  Al11  1  0.662314  0.997028  0.574444  1
  Al  Al12  1  0.662314  0.997028  0.925556  1
  Al  Al13  1  0.337638  0.002955  0.074418  1
  Al  Al14  1  0.335361  0.333386  0.553333  1
  Al  Al15  1  0.664645  0.666581  0.446676  1
  Al  Al16  1  0.664645  0.666581  0.053324  1
  Al  Al17  1  0.335361  0.333386  0.946667  1
  Al  Al18  1  0.340237  0.547742  0.250000  1
  Al  Al19  1  0.659751  0.452222  0.750000  1
  Al  Al20  1  0.547822  0.340610  0.250000  1
  Al  Al21  1  0.452159  0.659389  0.750000  1
  Ir  Ir22  1  0.675932  0.330064  0.999802  1
  Ir  Ir23  1  0.324062  0.669937  0.000189  1
  Ir  Ir24  1  0.324062  0.669937  0.499811  1
  Ir  Ir25  1  0.675932  0.330064  0.500198  1
  Ir  Ir26  1  0.000008  0.999998  0.999994  1
  Ir  Ir27  1  0.000008  0.999998  0.500006  1
