# generated using pymatgen
data_YMnAgPt3
_symmetry_space_group_name_H-M   'P 1'
_cell_length_a   5.18033597
_cell_length_b   5.18033690
_cell_length_c   5.18033700
_cell_angle_alpha   64.06636072
_cell_angle_beta   64.06635571
_cell_angle_gamma   64.06635285
_symmetry_Int_Tables_number   1
_chemical_formula_structural   YMnAgPt3
_chemical_formula_sum   'Y1 Mn1 Ag1 Pt3'
_cell_volume   107.09988422
_cell_formula_units_Z   1
loop_
 _symmetry_equiv_pos_site_id
 _symmetry_equiv_pos_as_xyz
  1  'x, y, z'
loop_
 _atom_site_type_symbol
 _atom_site_label
 _atom_site_symmetry_multiplicity
 _atom_site_fract_x
 _atom_site_fract_y
 _atom_site_fract_z
 _atom_site_occupancy
  Y  Y0  1  0.003803  0.003803  0.003803  1
  Mn  Mn1  1  0.623277  0.623277  0.623277  1
  Ag  Ag2  1  0.251571  0.251571  0.251571  1
  Pt  Pt3  1  0.622911  0.622911  0.125524  1
  Pt  Pt4  1  0.622911  0.125524  0.622911  1
  Pt  Pt5  1  0.125524  0.622911  0.622911  1
