# generated using pymatgen
data_La2NdThTe6
_symmetry_space_group_name_H-M   'P 1'
_cell_length_a   4.49746800
_cell_length_b   12.01143148
_cell_length_c   12.34371973
_cell_angle_alpha   89.55675603
_cell_angle_beta   90.00000000
_cell_angle_gamma   90.00000000
_symmetry_Int_Tables_number   1
_chemical_formula_structural   La2NdThTe6
_chemical_formula_sum   'La4 Nd2 Th2 Te12'
_cell_volume   666.80048447
_cell_formula_units_Z   2
loop_
 _symmetry_equiv_pos_site_id
 _symmetry_equiv_pos_as_xyz
  1  'x, y, z'
loop_
 _atom_site_type_symbol
 _atom_site_label
 _atom_site_symmetry_multiplicity
 _atom_site_fract_x
 _atom_site_fract_y
 _atom_site_fract_z
 _atom_site_occupancy
  La  La0  1  0.250000  0.496537  0.697048  1
  La  La1  1  0.750000  0.503463  0.302952  1
  La  La2  1  0.750000  0.997288  0.804224  1
  La  La3  1  0.250000  0.002712  0.195776  1
  Nd  Nd4  1  0.750000  0.687827  0.983733  1
  Nd  Nd5  1  0.250000  0.312173  0.016267  1
  Th  Th6  1  0.250000  0.188137  0.515943  1
  Th  Th7  1  0.750000  0.811863  0.484057  1
  Te  Te8  1  0.250000  0.873537  0.956859  1
  Te  Te9  1  0.750000  0.126463  0.043141  1
  Te  Te10  1  0.750000  0.372822  0.544059  1
  Te  Te11  1  0.250000  0.627178  0.455941  1
  Te  Te12  1  0.250000  0.200747  0.770530  1
  Te  Te13  1  0.750000  0.799253  0.229470  1
  Te  Te14  1  0.750000  0.701835  0.723622  1
  Te  Te15  1  0.250000  0.298165  0.276378  1
  Te  Te16  1  0.250000  0.556671  0.117749  1
  Te  Te17  1  0.750000  0.443329  0.882251  1
  Te  Te18  1  0.750000  0.058561  0.383315  1
  Te  Te19  1  0.250000  0.941439  0.616685  1
