# generated using pymatgen
data_Tb5Ho15(Cd3Os)2
_symmetry_space_group_name_H-M   'P 1'
_cell_length_a   9.57889200
_cell_length_b   9.57889207
_cell_length_c   9.84265600
_cell_angle_alpha   90.00000000
_cell_angle_beta   90.00000000
_cell_angle_gamma   119.99346613
_symmetry_Int_Tables_number   1
_chemical_formula_structural   Tb5Ho15(Cd3Os)2
_chemical_formula_sum   'Tb5 Ho15 Cd6 Os2'
_cell_volume   782.17167622
_cell_formula_units_Z   1
loop_
 _symmetry_equiv_pos_site_id
 _symmetry_equiv_pos_as_xyz
  1  'x, y, z'
loop_
 _atom_site_type_symbol
 _atom_site_label
 _atom_site_symmetry_multiplicity
 _atom_site_fract_x
 _atom_site_fract_y
 _atom_site_fract_z
 _atom_site_occupancy
  Tb  Tb0  1  0.539787  0.079814  0.250000  1
  Tb  Tb1  1  0.920186  0.460213  0.250000  1
  Tb  Tb2  1  0.460205  0.539795  0.750000  1
  Tb  Tb3  1  0.460184  0.920457  0.750000  1
  Tb  Tb4  1  0.079543  0.539816  0.750000  1
  Ho  Ho5  1  0.000025  0.999975  0.499996  1
  Ho  Ho6  1  0.000025  0.999975  0.000004  1
  Ho  Ho7  1  0.209805  0.790195  0.440285  1
  Ho  Ho8  1  0.210048  0.419591  0.440245  1
  Ho  Ho9  1  0.580409  0.789952  0.440245  1
  Ho  Ho10  1  0.790209  0.209791  0.559621  1
  Ho  Ho11  1  0.790018  0.580361  0.559488  1
  Ho  Ho12  1  0.419639  0.209982  0.559488  1
  Ho  Ho13  1  0.790209  0.209791  0.940379  1
  Ho  Ho14  1  0.790018  0.580361  0.940512  1
  Ho  Ho15  1  0.419639  0.209982  0.940512  1
  Ho  Ho16  1  0.209805  0.790195  0.059715  1
  Ho  Ho17  1  0.210048  0.419591  0.059755  1
  Ho  Ho18  1  0.580409  0.789952  0.059755  1
  Ho  Ho19  1  0.539619  0.460381  0.250000  1
  Cd  Cd20  1  0.885909  0.114091  0.250000  1
  Cd  Cd21  1  0.885545  0.771484  0.250000  1
  Cd  Cd22  1  0.228516  0.114455  0.250000  1
  Cd  Cd23  1  0.114131  0.885869  0.750000  1
  Cd  Cd24  1  0.114153  0.228230  0.750000  1
  Cd  Cd25  1  0.771770  0.885847  0.750000  1
  Os  Os26  1  0.333428  0.666572  0.250000  1
  Os  Os27  1  0.666715  0.333285  0.750000  1
