# generated using pymatgen
data_TbY2Er(CuPt)2
_symmetry_space_group_name_H-M   'P 1'
_cell_length_a   4.43777200
_cell_length_b   5.52841377
_cell_length_c   7.17470246
_cell_angle_alpha   90.43089714
_cell_angle_beta   90.00000000
_cell_angle_gamma   90.00000000
_symmetry_Int_Tables_number   1
_chemical_formula_structural   TbY2Er(CuPt)2
_chemical_formula_sum   'Tb1 Y2 Er1 Cu2 Pt2'
_cell_volume   176.01802309
_cell_formula_units_Z   1
loop_
 _symmetry_equiv_pos_site_id
 _symmetry_equiv_pos_as_xyz
  1  'x, y, z'
loop_
 _atom_site_type_symbol
 _atom_site_label
 _atom_site_symmetry_multiplicity
 _atom_site_fract_x
 _atom_site_fract_y
 _atom_site_fract_z
 _atom_site_occupancy
  Tb  Tb0  1  0.500000  0.606036  0.816462  1
  Y  Y1  1  0.000000  0.116966  0.682220  1
  Y  Y2  1  0.000000  0.884028  0.184241  1
  Er  Er3  1  0.500000  0.394538  0.315967  1
  Cu  Cu4  1  0.500000  0.890366  0.463128  1
  Cu  Cu5  1  0.500000  0.110671  0.965370  1
  Pt  Pt6  1  0.000000  0.613809  0.532956  1
  Pt  Pt7  1  0.000000  0.383586  0.039658  1
