# generated using pymatgen
data_V2NiF12
_symmetry_space_group_name_H-M   'P 1'
_cell_length_a   5.37228241
_cell_length_b   10.89955408
_cell_length_c   5.39258816
_cell_angle_alpha   58.18867010
_cell_angle_beta   57.80592988
_cell_angle_gamma   58.38742507
_symmetry_Int_Tables_number   1
_chemical_formula_structural   V2NiF12
_chemical_formula_sum   'V2 Ni1 F12'
_cell_volume   213.68322766
_cell_formula_units_Z   1
loop_
 _symmetry_equiv_pos_site_id
 _symmetry_equiv_pos_as_xyz
  1  'x, y, z'
loop_
 _atom_site_type_symbol
 _atom_site_label
 _atom_site_symmetry_multiplicity
 _atom_site_fract_x
 _atom_site_fract_y
 _atom_site_fract_z
 _atom_site_occupancy
  V  V0  1  0.006623  0.005589  0.986892  1
  V  V1  1  0.993377  0.494411  0.013108  1
  Ni  Ni2  1  0.500000  0.750000  0.500000  1
  F  F3  1  0.341506  0.058522  0.774747  1
  F  F4  1  0.318543  0.577868  0.763583  1
  F  F5  1  0.124518  0.392564  0.327981  1
  F  F6  1  0.150115  0.877766  0.326508  1
  F  F7  1  0.223563  0.345017  0.860889  1
  F  F8  1  0.237057  0.833018  0.855000  1
  F  F9  1  0.875482  0.107436  0.672019  1
  F  F10  1  0.849885  0.622234  0.673492  1
  F  F11  1  0.658494  0.441478  0.225253  1
  F  F12  1  0.681457  0.922132  0.236417  1
  F  F13  1  0.776437  0.154983  0.139111  1
  F  F14  1  0.762943  0.666982  0.145000  1
