# generated using pymatgen
data_LiTb8InPtRh
_symmetry_space_group_name_H-M   'P 1'
_cell_length_a   9.72443192
_cell_length_b   9.69423643
_cell_length_c   9.69375055
_cell_angle_alpha   60.06213034
_cell_angle_beta   60.17814360
_cell_angle_gamma   59.97394085
_symmetry_Int_Tables_number   1
_chemical_formula_structural   LiTb8InPtRh
_chemical_formula_sum   'Li2 Tb16 In2 Pt2 Rh2'
_cell_volume   647.22327429
_cell_formula_units_Z   2
loop_
 _symmetry_equiv_pos_site_id
 _symmetry_equiv_pos_as_xyz
  1  'x, y, z'
loop_
 _atom_site_type_symbol
 _atom_site_label
 _atom_site_symmetry_multiplicity
 _atom_site_fract_x
 _atom_site_fract_y
 _atom_site_fract_z
 _atom_site_occupancy
  Li  Li0  1  0.427293  0.427485  0.424957  1
  Li  Li1  1  0.427480  0.427491  0.721770  1
  Tb  Tb2  1  0.805926  0.805922  0.197131  1
  Tb  Tb3  1  0.809127  0.189267  0.808350  1
  Tb  Tb4  1  0.186549  0.182111  0.817915  1
  Tb  Tb5  1  0.649930  0.044877  0.650225  1
  Tb  Tb6  1  0.062156  0.063431  0.436940  1
  Tb  Tb7  1  0.437145  0.437258  0.061120  1
  Tb  Tb8  1  0.650088  0.653603  0.648357  1
  Tb  Tb9  1  0.810840  0.185705  0.193716  1
  Tb  Tb10  1  0.192295  0.811095  0.807302  1
  Tb  Tb11  1  0.050997  0.650148  0.646235  1
  Tb  Tb12  1  0.437392  0.064023  0.061012  1
  Tb  Tb13  1  0.435057  0.065783  0.434616  1
  Tb  Tb14  1  0.063278  0.439148  0.061535  1
  Tb  Tb15  1  0.644156  0.648897  0.056432  1
  Tb  Tb16  1  0.187843  0.812384  0.189290  1
  Tb  Tb17  1  0.064228  0.437314  0.435141  1
  In  In18  1  0.414888  0.745533  0.420682  1
  In  In19  1  0.745420  0.415121  0.420462  1
  Pt  Pt20  1  0.857494  0.428674  0.858284  1
  Pt  Pt21  1  0.856808  0.853396  0.859221  1
  Rh  Rh22  1  0.856958  0.856974  0.427748  1
  Rh  Rh23  1  0.426652  0.854360  0.861560  1
