# generated using pymatgen
data_Sm3Tm3Co14(P3Rh)4
_symmetry_space_group_name_H-M   'P 1'
_cell_length_a   3.72184200
_cell_length_b   10.62931041
_cell_length_c   12.36644646
_cell_angle_alpha   89.96848223
_cell_angle_beta   90.00000000
_cell_angle_gamma   90.00000000
_symmetry_Int_Tables_number   1
_chemical_formula_structural   Sm3Tm3Co14(P3Rh)4
_chemical_formula_sum   'Sm3 Tm3 Co14 P12 Rh4'
_cell_volume   489.22413983
_cell_formula_units_Z   1
loop_
 _symmetry_equiv_pos_site_id
 _symmetry_equiv_pos_as_xyz
  1  'x, y, z'
loop_
 _atom_site_type_symbol
 _atom_site_label
 _atom_site_symmetry_multiplicity
 _atom_site_fract_x
 _atom_site_fract_y
 _atom_site_fract_z
 _atom_site_occupancy
  Sm  Sm0  1  0.000000  0.499489  0.521863  1
  Sm  Sm1  1  0.500000  0.000580  0.478804  1
  Sm  Sm2  1  0.500000  0.814810  0.205522  1
  Tm  Tm3  1  0.500000  0.186358  0.205402  1
  Tm  Tm4  1  0.000000  0.685579  0.794695  1
  Tm  Tm5  1  0.000000  0.314206  0.794006  1
  Co  Co6  1  0.000000  0.498319  0.987603  1
  Co  Co7  1  0.500000  0.001135  0.009778  1
  Co  Co8  1  0.500000  0.331521  0.993774  1
  Co  Co9  1  0.500000  0.666864  0.992365  1
  Co  Co10  1  0.000000  0.169299  0.005182  1
  Co  Co11  1  0.000000  0.831796  0.004114  1
  Co  Co12  1  0.500000  0.299927  0.428980  1
  Co  Co13  1  0.500000  0.699774  0.430911  1
  Co  Co14  1  0.000000  0.200665  0.571644  1
  Co  Co15  1  0.000000  0.799575  0.572958  1
  Co  Co16  1  0.500000  0.879903  0.712115  1
  Co  Co17  1  0.500000  0.120465  0.711219  1
  Co  Co18  1  0.000000  0.617967  0.290408  1
  Co  Co19  1  0.000000  0.379407  0.288281  1
  P  P20  1  0.500000  0.499005  0.890246  1
  P  P21  1  0.000000  0.001783  0.107730  1
  P  P22  1  0.500000  0.500297  0.348134  1
  P  P23  1  0.000000  0.000017  0.652190  1
  P  P24  1  0.500000  0.301417  0.614699  1
  P  P25  1  0.500000  0.698115  0.615869  1
  P  P26  1  0.000000  0.199611  0.385878  1
  P  P27  1  0.000000  0.801095  0.388272  1
  P  P28  1  0.500000  0.843412  0.894001  1
  P  P29  1  0.500000  0.156976  0.893353  1
  P  P30  1  0.000000  0.653668  0.103741  1
  P  P31  1  0.000000  0.343560  0.105924  1
  Rh  Rh32  1  0.500000  0.499521  0.158918  1
  Rh  Rh33  1  0.000000  0.000733  0.840479  1
  Rh  Rh34  1  0.500000  0.499662  0.706977  1
  Rh  Rh35  1  0.000000  0.003488  0.293966  1
