# generated using pymatgen
data_K2CaZr3S8
_symmetry_space_group_name_H-M   'P 1'
_cell_length_a   6.50816800
_cell_length_b   7.56136300
_cell_length_c   16.05750400
_cell_angle_alpha   90.00000000
_cell_angle_beta   90.00000000
_cell_angle_gamma   90.00000000
_symmetry_Int_Tables_number   1
_chemical_formula_structural   K2CaZr3S8
_chemical_formula_sum   'K4 Ca2 Zr6 S16'
_cell_volume   790.19973894
_cell_formula_units_Z   2
loop_
 _symmetry_equiv_pos_site_id
 _symmetry_equiv_pos_as_xyz
  1  'x, y, z'
loop_
 _atom_site_type_symbol
 _atom_site_label
 _atom_site_symmetry_multiplicity
 _atom_site_fract_x
 _atom_site_fract_y
 _atom_site_fract_z
 _atom_site_occupancy
  K  K0  1  0.331872  0.000000  0.000000  1
  K  K1  1  0.643287  0.500000  0.500000  1
  K  K2  1  0.022584  0.000000  0.500000  1
  K  K3  1  0.976632  0.500000  0.000000  1
  Ca  Ca4  1  0.002118  0.000000  0.247028  1
  Ca  Ca5  1  0.002118  0.000000  0.752972  1
  Zr  Zr6  1  0.998305  0.500000  0.253202  1
  Zr  Zr7  1  0.998305  0.500000  0.746798  1
  Zr  Zr8  1  0.499010  0.245853  0.250247  1
  Zr  Zr9  1  0.499010  0.754147  0.749753  1
  Zr  Zr10  1  0.499010  0.754147  0.250247  1
  Zr  Zr11  1  0.499010  0.245853  0.749753  1
  S  S12  1  0.825521  0.263235  0.343419  1
  S  S13  1  0.825521  0.736765  0.656581  1
  S  S14  1  0.179454  0.730725  0.157030  1
  S  S15  1  0.179454  0.269275  0.842970  1
  S  S16  1  0.179454  0.269275  0.157030  1
  S  S17  1  0.179454  0.730725  0.842970  1
  S  S18  1  0.825521  0.736765  0.343419  1
  S  S19  1  0.825521  0.263235  0.656581  1
  S  S20  1  0.640021  0.000000  0.156696  1
  S  S21  1  0.640021  0.000000  0.843304  1
  S  S22  1  0.331302  0.500000  0.340871  1
  S  S23  1  0.331302  0.500000  0.659129  1
  S  S24  1  0.361559  0.000000  0.344325  1
  S  S25  1  0.361559  0.000000  0.655675  1
  S  S26  1  0.671537  0.500000  0.161577  1
  S  S27  1  0.671537  0.500000  0.838423  1
