# generated using pymatgen
data_Zr3Ti3BBr12
_symmetry_space_group_name_H-M   'P 1'
_cell_length_a   8.57430482
_cell_length_b   8.57171112
_cell_length_c   8.61921775
_cell_angle_alpha   106.93145945
_cell_angle_beta   106.66553888
_cell_angle_gamma   106.91709194
_symmetry_Int_Tables_number   1
_chemical_formula_structural   Zr3Ti3BBr12
_chemical_formula_sum   'Zr3 Ti3 B1 Br12'
_cell_volume   529.88080945
_cell_formula_units_Z   1
loop_
 _symmetry_equiv_pos_site_id
 _symmetry_equiv_pos_as_xyz
  1  'x, y, z'
loop_
 _atom_site_type_symbol
 _atom_site_label
 _atom_site_symmetry_multiplicity
 _atom_site_fract_x
 _atom_site_fract_y
 _atom_site_fract_z
 _atom_site_occupancy
  Zr  Zr0  1  0.906521  0.970763  0.709440  1
  Zr  Zr1  1  0.707118  0.903279  0.971088  1
  Zr  Zr2  1  0.029949  0.293038  0.097353  1
  Ti  Ti3  1  0.974062  0.729012  0.911552  1
  Ti  Ti4  1  0.270817  0.088961  0.027870  1
  Ti  Ti5  1  0.090169  0.025401  0.267528  1
  B  B6  1  0.995740  0.001504  0.997354  1
  Br  Br7  1  0.923402  0.310337  0.775484  1
  Br  Br8  1  0.692259  0.227624  0.084220  1
  Br  Br9  1  0.423967  0.132302  0.350192  1
  Br  Br10  1  0.866851  0.632701  0.573070  1
  Br  Br11  1  0.233815  0.080005  0.709202  1
  Br  Br12  1  0.645980  0.559848  0.861364  1
  Br  Br13  1  0.367943  0.430458  0.139038  1
  Br  Br14  1  0.791931  0.922785  0.313393  1
  Br  Br15  1  0.142463  0.352856  0.439229  1
  Br  Br16  1  0.555115  0.856028  0.631681  1
  Br  Br17  1  0.304182  0.785649  0.927478  1
  Br  Br18  1  0.077715  0.697450  0.213465  1
