# generated using pymatgen
data_Th6TcIrAu6
_symmetry_space_group_name_H-M   'P 1'
_cell_length_a   8.28593613
_cell_length_b   8.28593631
_cell_length_c   8.28593629
_cell_angle_alpha   114.12694690
_cell_angle_beta   114.12694318
_cell_angle_gamma   114.12693323
_symmetry_Int_Tables_number   1
_chemical_formula_structural   Th6TcIrAu6
_chemical_formula_sum   'Th6 Tc1 Ir1 Au6'
_cell_volume   342.34986100
_cell_formula_units_Z   1
loop_
 _symmetry_equiv_pos_site_id
 _symmetry_equiv_pos_as_xyz
  1  'x, y, z'
loop_
 _atom_site_type_symbol
 _atom_site_label
 _atom_site_symmetry_multiplicity
 _atom_site_fract_x
 _atom_site_fract_y
 _atom_site_fract_z
 _atom_site_occupancy
  Th  Th0  1  0.048071  0.395554  0.286343  1
  Th  Th1  1  0.395554  0.286343  0.048071  1
  Th  Th2  1  0.713657  0.951929  0.604446  1
  Th  Th3  1  0.286343  0.048071  0.395554  1
  Th  Th4  1  0.604446  0.713657  0.951929  1
  Th  Th5  1  0.951929  0.604446  0.713657  1
  Tc  Tc6  1  0.500000  0.500000  0.500000  1
  Ir  Ir7  1  0.000000  0.000000  0.000000  1
  Au  Au8  1  0.431857  0.938217  0.772706  1
  Au  Au9  1  0.938217  0.772706  0.431857  1
  Au  Au10  1  0.227294  0.568143  0.061783  1
  Au  Au11  1  0.772706  0.431857  0.938217  1
  Au  Au12  1  0.061783  0.227294  0.568143  1
  Au  Au13  1  0.568143  0.061783  0.227294  1
