# generated using pymatgen
data_Lu16CdIn3Ir3Rh
_symmetry_space_group_name_H-M   'P 1'
_cell_length_a   9.46016384
_cell_length_b   9.48396315
_cell_length_c   9.48396354
_cell_angle_alpha   59.93605104
_cell_angle_beta   59.86549825
_cell_angle_gamma   59.86549462
_symmetry_Int_Tables_number   1
_chemical_formula_structural   Lu16CdIn3Ir3Rh
_chemical_formula_sum   'Lu16 Cd1 In3 Ir3 Rh1'
_cell_volume   600.16130503
_cell_formula_units_Z   1
loop_
 _symmetry_equiv_pos_site_id
 _symmetry_equiv_pos_as_xyz
  1  'x, y, z'
loop_
 _atom_site_type_symbol
 _atom_site_label
 _atom_site_symmetry_multiplicity
 _atom_site_fract_x
 _atom_site_fract_y
 _atom_site_fract_z
 _atom_site_occupancy
  Lu  Lu0  1  0.597298  0.599045  0.599045  1
  Lu  Lu1  1  0.600206  0.600532  0.201395  1
  Lu  Lu2  1  0.600206  0.201395  0.600532  1
  Lu  Lu3  1  0.202477  0.600188  0.600188  1
  Lu  Lu4  1  0.057723  0.441485  0.441485  1
  Lu  Lu5  1  0.440134  0.058665  0.058665  1
  Lu  Lu6  1  0.441676  0.057333  0.441881  1
  Lu  Lu7  1  0.059279  0.439588  0.059235  1
  Lu  Lu8  1  0.441676  0.441881  0.057333  1
  Lu  Lu9  1  0.059279  0.059235  0.439588  1
  Lu  Lu10  1  0.186341  0.812090  0.812090  1
  Lu  Lu11  1  0.809199  0.189317  0.189317  1
  Lu  Lu12  1  0.810803  0.186821  0.813424  1
  Lu  Lu13  1  0.190270  0.809913  0.190364  1
  Lu  Lu14  1  0.810803  0.813424  0.186821  1
  Lu  Lu15  1  0.190270  0.190364  0.809913  1
  Cd  Cd16  1  0.832671  0.833365  0.833365  1
  In  In17  1  0.834526  0.833702  0.500203  1
  In  In18  1  0.834526  0.500203  0.833702  1
  In  In19  1  0.500414  0.833326  0.833326  1
  Ir  Ir20  1  0.391610  0.390891  0.390891  1
  Ir  Ir21  1  0.391236  0.390099  0.826499  1
  Ir  Ir22  1  0.391236  0.826499  0.390099  1
  Rh  Rh23  1  0.826142  0.390642  0.390642  1
