# generated using pymatgen
data_Sr6Sn8PBr
_symmetry_space_group_name_H-M   'P 1'
_cell_length_a   8.94820387
_cell_length_b   8.94820285
_cell_length_c   8.94820280
_cell_angle_alpha   120.19270357
_cell_angle_beta   120.19269822
_cell_angle_gamma   89.66654942
_symmetry_Int_Tables_number   1
_chemical_formula_structural   Sr6Sn8PBr
_chemical_formula_sum   'Sr6 Sn8 P1 Br1'
_cell_volume   505.14697737
_cell_formula_units_Z   1
loop_
 _symmetry_equiv_pos_site_id
 _symmetry_equiv_pos_as_xyz
  1  'x, y, z'
loop_
 _atom_site_type_symbol
 _atom_site_label
 _atom_site_symmetry_multiplicity
 _atom_site_fract_x
 _atom_site_fract_y
 _atom_site_fract_z
 _atom_site_occupancy
  Sr  Sr0  1  0.263757  0.263757  0.000000  1
  Sr  Sr1  1  0.736243  0.736243  0.000000  1
  Sr  Sr2  1  0.185772  0.648056  0.833829  1
  Sr  Sr3  1  0.814228  0.351944  0.166171  1
  Sr  Sr4  1  0.648056  0.814228  0.462284  1
  Sr  Sr5  1  0.351944  0.185772  0.537716  1
  Sn  Sn6  1  0.834574  0.327761  0.784008  1
  Sn  Sn7  1  0.165426  0.672239  0.215992  1
  Sn  Sn8  1  0.543754  0.050566  0.215992  1
  Sn  Sn9  1  0.327761  0.543754  0.493187  1
  Sn  Sn10  1  0.949434  0.165426  0.493187  1
  Sn  Sn11  1  0.456246  0.949434  0.784008  1
  Sn  Sn12  1  0.672239  0.456246  0.506813  1
  Sn  Sn13  1  0.050566  0.834574  0.506813  1
  P  P14  1  0.500000  0.500000  0.000000  1
  Br  Br15  1  0.000000  0.000000  0.000000  1
