# generated using pymatgen
data_LiLu9Cd3Os
_symmetry_space_group_name_H-M   'P 1'
_cell_length_a   9.24298100
_cell_length_b   9.24298181
_cell_length_c   9.57529800
_cell_angle_alpha   90.00000000
_cell_angle_beta   90.00000000
_cell_angle_gamma   120.00000068
_symmetry_Int_Tables_number   1
_chemical_formula_structural   LiLu9Cd3Os
_chemical_formula_sum   'Li2 Lu18 Cd6 Os2'
_cell_volume   708.44654438
_cell_formula_units_Z   2
loop_
 _symmetry_equiv_pos_site_id
 _symmetry_equiv_pos_as_xyz
  1  'x, y, z'
loop_
 _atom_site_type_symbol
 _atom_site_label
 _atom_site_symmetry_multiplicity
 _atom_site_fract_x
 _atom_site_fract_y
 _atom_site_fract_z
 _atom_site_occupancy
  Li  Li0  1  0.000000  0.000000  0.500000  1
  Li  Li1  1  0.000000  0.000000  0.000000  1
  Lu  Lu2  1  0.208322  0.791678  0.442996  1
  Lu  Lu3  1  0.208322  0.416643  0.442996  1
  Lu  Lu4  1  0.583357  0.791678  0.442996  1
  Lu  Lu5  1  0.791678  0.208322  0.557004  1
  Lu  Lu6  1  0.791678  0.583357  0.557004  1
  Lu  Lu7  1  0.416643  0.208322  0.557004  1
  Lu  Lu8  1  0.791678  0.208322  0.942996  1
  Lu  Lu9  1  0.791678  0.583357  0.942996  1
  Lu  Lu10  1  0.416643  0.208322  0.942996  1
  Lu  Lu11  1  0.208322  0.791678  0.057004  1
  Lu  Lu12  1  0.208322  0.416643  0.057004  1
  Lu  Lu13  1  0.583357  0.791678  0.057004  1
  Lu  Lu14  1  0.541030  0.458970  0.250000  1
  Lu  Lu15  1  0.541030  0.082061  0.250000  1
  Lu  Lu16  1  0.917939  0.458970  0.250000  1
  Lu  Lu17  1  0.458970  0.541030  0.750000  1
  Lu  Lu18  1  0.458970  0.917939  0.750000  1
  Lu  Lu19  1  0.082061  0.541030  0.750000  1
  Cd  Cd20  1  0.891866  0.108134  0.250000  1
  Cd  Cd21  1  0.891866  0.783732  0.250000  1
  Cd  Cd22  1  0.216268  0.108134  0.250000  1
  Cd  Cd23  1  0.108134  0.891866  0.750000  1
  Cd  Cd24  1  0.108134  0.216268  0.750000  1
  Cd  Cd25  1  0.783732  0.891866  0.750000  1
  Os  Os26  1  0.333333  0.666667  0.250000  1
  Os  Os27  1  0.666667  0.333333  0.750000  1
