# generated using pymatgen
data_Eu9Tm11Sn16
_symmetry_space_group_name_H-M   'P 1'
_cell_length_a   8.17763501
_cell_length_b   8.30404130
_cell_length_c   15.70695900
_cell_angle_alpha   90.00625807
_cell_angle_beta   89.99730254
_cell_angle_gamma   90.03138724
_symmetry_Int_Tables_number   1
_chemical_formula_structural   Eu9Tm11Sn16
_chemical_formula_sum   'Eu9 Tm11 Sn16'
_cell_volume   1066.61887554
_cell_formula_units_Z   1
loop_
 _symmetry_equiv_pos_site_id
 _symmetry_equiv_pos_as_xyz
  1  'x, y, z'
loop_
 _atom_site_type_symbol
 _atom_site_label
 _atom_site_symmetry_multiplicity
 _atom_site_fract_x
 _atom_site_fract_y
 _atom_site_fract_z
 _atom_site_occupancy
  Eu  Eu0  1  0.836179  0.667193  0.878249  1
  Eu  Eu1  1  0.504474  0.325409  0.906030  1
  Eu  Eu2  1  0.002715  0.176521  0.590891  1
  Eu  Eu3  1  0.496976  0.674661  0.406691  1
  Eu  Eu4  1  0.997944  0.823231  0.094694  1
  Eu  Eu5  1  0.497232  0.675231  0.095116  1
  Eu  Eu6  1  0.997895  0.824716  0.406945  1
  Eu  Eu7  1  0.501989  0.323372  0.591229  1
  Eu  Eu8  1  0.000910  0.177805  0.906978  1
  Tm  Tm9  1  0.335609  0.834828  0.874985  1
  Tm  Tm10  1  0.836273  0.664852  0.622894  1
  Tm  Tm11  1  0.665761  0.163202  0.375567  1
  Tm  Tm12  1  0.164061  0.336916  0.125810  1
  Tm  Tm13  1  0.663701  0.162942  0.126890  1
  Tm  Tm14  1  0.164150  0.335576  0.375755  1
  Tm  Tm15  1  0.336198  0.836186  0.622111  1
  Tm  Tm16  1  0.171891  0.496110  0.749870  1
  Tm  Tm17  1  0.672330  0.004173  0.749480  1
  Tm  Tm18  1  0.826941  0.503405  0.251408  1
  Tm  Tm19  1  0.327672  0.995147  0.249900  1
  Sn  Sn20  1  0.329021  0.041020  0.042643  1
  Sn  Sn21  1  0.830869  0.460213  0.457138  1
  Sn  Sn22  1  0.669789  0.959680  0.541818  1
  Sn  Sn23  1  0.179418  0.536253  0.959176  1
  Sn  Sn24  1  0.658900  0.965798  0.959425  1
  Sn  Sn25  1  0.169262  0.540017  0.542159  1
  Sn  Sn26  1  0.331518  0.039436  0.456068  1
  Sn  Sn27  1  0.832187  0.455969  0.047838  1
  Sn  Sn28  1  0.532708  0.621974  0.745676  1
  Sn  Sn29  1  0.039162  0.883583  0.746989  1
  Sn  Sn30  1  0.464541  0.375600  0.251387  1
  Sn  Sn31  1  0.965916  0.122933  0.250989  1
  Sn  Sn32  1  0.305128  0.136085  0.748542  1
  Sn  Sn33  1  0.802702  0.361563  0.746123  1
  Sn  Sn34  1  0.694587  0.861938  0.251429  1
  Sn  Sn35  1  0.193387  0.636458  0.251109  1
