# generated using pymatgen
data_Gd2CrCoB8
_symmetry_space_group_name_H-M   'P 1'
_cell_length_a   3.44092500
_cell_length_b   5.94079073
_cell_length_c   11.49605951
_cell_angle_alpha   90.28684784
_cell_angle_beta   90.00000000
_cell_angle_gamma   90.00000000
_symmetry_Int_Tables_number   1
_chemical_formula_structural   Gd2CrCoB8
_chemical_formula_sum   'Gd4 Cr2 Co2 B16'
_cell_volume   234.99738086
_cell_formula_units_Z   2
loop_
 _symmetry_equiv_pos_site_id
 _symmetry_equiv_pos_as_xyz
  1  'x, y, z'
loop_
 _atom_site_type_symbol
 _atom_site_label
 _atom_site_symmetry_multiplicity
 _atom_site_fract_x
 _atom_site_fract_y
 _atom_site_fract_z
 _atom_site_occupancy
  Gd  Gd0  1  0.000000  0.125353  0.151680  1
  Gd  Gd1  1  0.000000  0.874647  0.848320  1
  Gd  Gd2  1  0.000000  0.626964  0.350956  1
  Gd  Gd3  1  0.000000  0.373036  0.649044  1
  Cr  Cr4  1  0.000000  0.621044  0.080372  1
  Cr  Cr5  1  0.000000  0.378956  0.919628  1
  Co  Co6  1  0.000000  0.134457  0.411629  1
  Co  Co7  1  0.000000  0.865543  0.588371  1
  B  B8  1  0.500000  0.476299  0.191377  1
  B  B9  1  0.500000  0.523701  0.808623  1
  B  B10  1  0.500000  0.977287  0.310695  1
  B  B11  1  0.500000  0.022713  0.689305  1
  B  B12  1  0.500000  0.280499  0.317184  1
  B  B13  1  0.500000  0.719501  0.682816  1
  B  B14  1  0.500000  0.781574  0.184575  1
  B  B15  1  0.500000  0.218426  0.815425  1
  B  B16  1  0.500000  0.359810  0.467506  1
  B  B17  1  0.500000  0.640190  0.532494  1
  B  B18  1  0.500000  0.862384  0.033146  1
  B  B19  1  0.500000  0.137616  0.966854  1
  B  B20  1  0.500000  0.387316  0.046172  1
  B  B21  1  0.500000  0.612684  0.953828  1
  B  B22  1  0.500000  0.888437  0.454098  1
  B  B23  1  0.500000  0.111563  0.545902  1
