# generated using pymatgen
data_Dy3YTc3PtF28
_symmetry_space_group_name_H-M   'P 1'
_cell_length_a   5.58623687
_cell_length_b   8.91840030
_cell_length_c   12.02693701
_cell_angle_alpha   62.47118703
_cell_angle_beta   90.04502787
_cell_angle_gamma   90.03061263
_symmetry_Int_Tables_number   1
_chemical_formula_structural   Dy3YTc3PtF28
_chemical_formula_sum   'Dy3 Y1 Tc3 Pt1 F28'
_cell_volume   531.34471591
_cell_formula_units_Z   1
loop_
 _symmetry_equiv_pos_site_id
 _symmetry_equiv_pos_as_xyz
  1  'x, y, z'
loop_
 _atom_site_type_symbol
 _atom_site_label
 _atom_site_symmetry_multiplicity
 _atom_site_fract_x
 _atom_site_fract_y
 _atom_site_fract_z
 _atom_site_occupancy
  Dy  Dy0  1  0.259564  0.814077  0.264844  1
  Dy  Dy1  1  0.741051  0.186793  0.734965  1
  Dy  Dy2  1  0.759388  0.186010  0.235459  1
  Y  Y3  1  0.239818  0.814654  0.763021  1
  Tc  Tc4  1  0.758139  0.726789  0.042991  1
  Tc  Tc5  1  0.242184  0.273908  0.956489  1
  Tc  Tc6  1  0.258106  0.274060  0.456475  1
  Pt  Pt7  1  0.740412  0.727091  0.543034  1
  F  F8  1  0.934610  0.703254  0.415781  1
  F  F9  1  0.054939  0.292475  0.581956  1
  F  F10  1  0.445747  0.292919  0.081992  1
  F  F11  1  0.553655  0.707334  0.918217  1
  F  F12  1  0.476407  0.729795  0.139415  1
  F  F13  1  0.524548  0.270567  0.860772  1
  F  F14  1  0.975411  0.270726  0.360474  1
  F  F15  1  0.031764  0.726081  0.635343  1
  F  F16  1  0.958162  0.745532  0.171288  1
  F  F17  1  0.044149  0.254706  0.827872  1
  F  F18  1  0.456967  0.255335  0.327830  1
  F  F19  1  0.551940  0.743657  0.675594  1
  F  F20  1  0.772242  0.479332  0.140598  1
  F  F21  1  0.227717  0.521269  0.858621  1
  F  F22  1  0.270956  0.521577  0.359217  1
  F  F23  1  0.728392  0.479086  0.641953  1
  F  F24  1  0.948707  0.278904  0.046167  1
  F  F25  1  0.050725  0.721584  0.953068  1
  F  F26  1  0.441993  0.720093  0.457561  1
  F  F27  1  0.551609  0.279458  0.545777  1
  F  F28  1  0.742019  0.975322  0.449790  1
  F  F29  1  0.258707  0.027464  0.552259  1
  F  F30  1  0.242293  0.027380  0.053343  1
  F  F31  1  0.758502  0.973486  0.946661  1
  F  F32  1  0.583226  0.969751  0.232805  1
  F  F33  1  0.417215  0.029733  0.768161  1
  F  F34  1  0.082874  0.028648  0.269306  1
  F  F35  1  0.915864  0.971153  0.730904  1
