# generated using pymatgen
data_Ta3Fe2ReN
_symmetry_space_group_name_H-M   'P 1'
_cell_length_a   8.11074880
_cell_length_b   8.11107180
_cell_length_c   8.11094700
_cell_angle_alpha   60.00050491
_cell_angle_beta   59.99918756
_cell_angle_gamma   59.99973584
_symmetry_Int_Tables_number   1
_chemical_formula_structural   Ta3Fe2ReN
_chemical_formula_sum   'Ta12 Fe8 Re4 N4'
_cell_volume   377.30615185
_cell_formula_units_Z   4
loop_
 _symmetry_equiv_pos_site_id
 _symmetry_equiv_pos_as_xyz
  1  'x, y, z'
loop_
 _atom_site_type_symbol
 _atom_site_label
 _atom_site_symmetry_multiplicity
 _atom_site_fract_x
 _atom_site_fract_y
 _atom_site_fract_z
 _atom_site_occupancy
  Ta  Ta0  1  0.805625  0.805662  0.194356  1
  Ta  Ta1  1  0.194319  0.194369  0.805656  1
  Ta  Ta2  1  0.805632  0.194371  0.805664  1
  Ta  Ta3  1  0.194347  0.805652  0.194359  1
  Ta  Ta4  1  0.194347  0.805652  0.805643  1
  Ta  Ta5  1  0.805632  0.194371  0.194332  1
  Ta  Ta6  1  0.444375  0.444338  0.055644  1
  Ta  Ta7  1  0.055681  0.055631  0.444344  1
  Ta  Ta8  1  0.444368  0.055629  0.444336  1
  Ta  Ta9  1  0.055653  0.444348  0.055641  1
  Ta  Ta10  1  0.055653  0.444348  0.444357  1
  Ta  Ta11  1  0.444368  0.055629  0.055668  1
  Fe  Fe12  1  0.732797  0.422419  0.422392  1
  Fe  Fe13  1  0.422415  0.732752  0.422416  1
  Fe  Fe14  1  0.422404  0.422421  0.732769  1
  Fe  Fe15  1  0.422404  0.422421  0.422406  1
  Fe  Fe16  1  0.517203  0.827581  0.827608  1
  Fe  Fe17  1  0.827585  0.517248  0.827584  1
  Fe  Fe18  1  0.827596  0.827579  0.517231  1
  Fe  Fe19  1  0.827596  0.827579  0.827594  1
  Re  Re20  1  0.125000  0.625000  0.625000  1
  Re  Re21  1  0.625000  0.125000  0.625000  1
  Re  Re22  1  0.625000  0.625000  0.125000  1
  Re  Re23  1  0.625000  0.625000  0.625000  1
  N  N24  1  0.625000  0.125000  0.125000  1
  N  N25  1  0.125000  0.625000  0.125000  1
  N  N26  1  0.125000  0.125000  0.625000  1
  N  N27  1  0.125000  0.125000  0.125000  1
