# generated using pymatgen
data_Hf6Ga6Ir5Pt
_symmetry_space_group_name_H-M   'P 1'
_cell_length_a   7.19747000
_cell_length_b   7.19746975
_cell_length_c   6.92838300
_cell_angle_alpha   90.00000000
_cell_angle_beta   90.00000000
_cell_angle_gamma   120.00001033
_symmetry_Int_Tables_number   1
_chemical_formula_structural   Hf6Ga6Ir5Pt
_chemical_formula_sum   'Hf6 Ga6 Ir5 Pt1'
_cell_volume   310.82946842
_cell_formula_units_Z   1
loop_
 _symmetry_equiv_pos_site_id
 _symmetry_equiv_pos_as_xyz
  1  'x, y, z'
loop_
 _atom_site_type_symbol
 _atom_site_label
 _atom_site_symmetry_multiplicity
 _atom_site_fract_x
 _atom_site_fract_y
 _atom_site_fract_z
 _atom_site_occupancy
  Hf  Hf0  1  0.398504  0.389216  0.250000  1
  Hf  Hf1  1  0.592092  0.990253  0.750000  1
  Hf  Hf2  1  0.398161  0.407908  0.750000  1
  Hf  Hf3  1  0.009747  0.601839  0.750000  1
  Hf  Hf4  1  0.990712  0.601496  0.250000  1
  Hf  Hf5  1  0.610784  0.009288  0.250000  1
  Ga  Ga6  1  0.268845  0.000072  0.002125  1
  Ga  Ga7  1  0.268845  0.000072  0.497875  1
  Ga  Ga8  1  0.999928  0.268773  0.497875  1
  Ga  Ga9  1  0.999928  0.268773  0.002125  1
  Ga  Ga10  1  0.731227  0.731155  0.002125  1
  Ga  Ga11  1  0.731227  0.731155  0.497875  1
  Ir  Ir12  1  0.666667  0.333333  0.513301  1
  Ir  Ir13  1  0.666667  0.333333  0.986699  1
  Ir  Ir14  1  0.333333  0.666667  0.011837  1
  Ir  Ir15  1  0.333333  0.666667  0.488163  1
  Ir  Ir16  1  0.000000  0.000000  0.250000  1
  Pt  Pt17  1  0.000000  0.000000  0.750000  1
