# generated using pymatgen
data_Na5In13
_symmetry_space_group_name_H-M   'P 1'
_cell_length_a   17.97089685
_cell_length_b   17.97089630
_cell_length_c   7.62081182
_cell_angle_alpha   95.88449524
_cell_angle_beta   95.88449440
_cell_angle_gamma   11.47330201
_symmetry_Int_Tables_number   1
_chemical_formula_structural   Na5In13
_chemical_formula_sum   'Na5 In13'
_cell_volume   486.94776666
_cell_formula_units_Z   1
loop_
 _symmetry_equiv_pos_site_id
 _symmetry_equiv_pos_as_xyz
  1  'x, y, z'
loop_
 _atom_site_type_symbol
 _atom_site_label
 _atom_site_symmetry_multiplicity
 _atom_site_fract_x
 _atom_site_fract_y
 _atom_site_fract_z
 _atom_site_occupancy
  Na  Na0  1  0.000000  0.000000  0.000000  1
  Na  Na1  1  0.667440  0.667440  0.327681  1
  Na  Na2  1  0.890083  0.890083  0.426970  1
  Na  Na3  1  0.109917  0.109917  0.573031  1
  Na  Na4  1  0.332560  0.332560  0.672319  1
  In  In5  1  0.107926  0.107926  0.051789  1
  In  In6  1  0.223501  0.223501  0.114267  1
  In  In7  1  0.333357  0.333357  0.147617  1
  In  In8  1  0.446125  0.446125  0.223681  1
  In  In9  1  0.556874  0.556874  0.289453  1
  In  In10  1  0.778337  0.778337  0.383017  1
  In  In11  1  0.000000  0.000000  0.500000  1
  In  In12  1  0.221663  0.221663  0.616984  1
  In  In13  1  0.443126  0.443126  0.710547  1
  In  In14  1  0.553875  0.553875  0.776318  1
  In  In15  1  0.666642  0.666642  0.852383  1
  In  In16  1  0.776498  0.776498  0.885732  1
  In  In17  1  0.892075  0.892075  0.948212  1
