# generated using pymatgen
data_Tb2Sc5Co2Sn23Ru4
_symmetry_space_group_name_H-M   'P 1'
_cell_length_a   9.67967460
_cell_length_b   9.75229708
_cell_length_c   9.87077830
_cell_angle_alpha   89.99999761
_cell_angle_beta   89.99708411
_cell_angle_gamma   120.24850689
_symmetry_Int_Tables_number   1
_chemical_formula_structural   Tb2Sc5Co2Sn23Ru4
_chemical_formula_sum   'Tb2 Sc5 Co2 Sn23 Ru4'
_cell_volume   804.92743066
_cell_formula_units_Z   1
loop_
 _symmetry_equiv_pos_site_id
 _symmetry_equiv_pos_as_xyz
  1  'x, y, z'
loop_
 _atom_site_type_symbol
 _atom_site_label
 _atom_site_symmetry_multiplicity
 _atom_site_fract_x
 _atom_site_fract_y
 _atom_site_fract_z
 _atom_site_occupancy
  Tb  Tb0  1  0.001509  0.000755  0.001257  1
  Tb  Tb1  1  0.966744  0.483372  0.693310  1
  Sc  Sc2  1  0.487780  0.514172  0.305859  1
  Sc  Sc3  1  0.513443  0.485896  0.693289  1
  Sc  Sc4  1  0.487780  0.973608  0.305859  1
  Sc  Sc5  1  0.513443  0.027547  0.693289  1
  Sc  Sc6  1  0.026123  0.513061  0.306337  1
  Co  Co7  1  0.341975  0.170987  0.202361  1
  Co  Co8  1  0.656440  0.828220  0.798560  1
  Sn  Sn9  1  0.351256  0.003299  0.004873  1
  Sn  Sn10  1  0.649096  0.996457  0.995680  1
  Sn  Sn11  1  0.000605  0.349633  0.000589  1
  Sn  Sn12  1  0.000605  0.650972  0.000589  1
  Sn  Sn13  1  0.649096  0.652639  0.995680  1
  Sn  Sn14  1  0.351256  0.347957  0.004873  1
  Sn  Sn15  1  0.337612  0.668806  0.823875  1
  Sn  Sn16  1  0.663767  0.331883  0.177538  1
  Sn  Sn17  1  0.001226  0.000613  0.499340  1
  Sn  Sn18  1  0.775380  0.219378  0.462822  1
  Sn  Sn19  1  0.227094  0.781620  0.532857  1
  Sn  Sn20  1  0.775380  0.556002  0.462822  1
  Sn  Sn21  1  0.227094  0.445473  0.532857  1
  Sn  Sn22  1  0.441904  0.220952  0.457566  1
  Sn  Sn23  1  0.559209  0.779605  0.542091  1
  Sn  Sn24  1  0.333668  0.666835  0.141544  1
  Sn  Sn25  1  0.655176  0.327587  0.864351  1
  Sn  Sn26  1  0.124421  0.885633  0.277384  1
  Sn  Sn27  1  0.875982  0.110721  0.723010  1
  Sn  Sn28  1  0.124421  0.238788  0.277384  1
  Sn  Sn29  1  0.875982  0.765261  0.723010  1
  Sn  Sn30  1  0.753360  0.876680  0.276860  1
  Sn  Sn31  1  0.248413  0.124207  0.723242  1
  Ru  Ru32  1  0.827865  0.168995  0.203104  1
  Ru  Ru33  1  0.173516  0.832780  0.796416  1
  Ru  Ru34  1  0.827865  0.658870  0.203104  1
  Ru  Ru35  1  0.173516  0.340736  0.796416  1
