# generated using pymatgen
data_ErZrNb3Si4
_symmetry_space_group_name_H-M   'P 1'
_cell_length_a   6.95988610
_cell_length_b   6.96440753
_cell_length_c   12.87676300
_cell_angle_alpha   90.04876109
_cell_angle_beta   90.00957415
_cell_angle_gamma   90.00278079
_symmetry_Int_Tables_number   1
_chemical_formula_structural   ErZrNb3Si4
_chemical_formula_sum   'Er4 Zr4 Nb12 Si16'
_cell_volume   624.15556524
_cell_formula_units_Z   4
loop_
 _symmetry_equiv_pos_site_id
 _symmetry_equiv_pos_as_xyz
  1  'x, y, z'
loop_
 _atom_site_type_symbol
 _atom_site_label
 _atom_site_symmetry_multiplicity
 _atom_site_fract_x
 _atom_site_fract_y
 _atom_site_fract_z
 _atom_site_occupancy
  Er  Er0  1  0.996811  0.339773  0.219236  1
  Er  Er1  1  0.003260  0.660789  0.718210  1
  Er  Er2  1  0.160728  0.496950  0.468379  1
  Er  Er3  1  0.503145  0.839029  0.030349  1
  Zr  Zr4  1  0.845248  0.496372  0.966086  1
  Zr  Zr5  1  0.503351  0.155039  0.532331  1
  Zr  Zr6  1  0.344196  0.003887  0.783172  1
  Zr  Zr7  1  0.654560  0.996470  0.282918  1
  Nb  Nb8  1  0.168668  0.171216  0.999860  1
  Nb  Nb9  1  0.827243  0.832670  0.499743  1
  Nb  Nb10  1  0.331491  0.671430  0.249864  1
  Nb  Nb11  1  0.668390  0.328341  0.749854  1
  Nb  Nb12  1  0.153367  0.996814  0.376500  1
  Nb  Nb13  1  0.846178  0.005921  0.875560  1
  Nb  Nb14  1  0.504001  0.653750  0.626556  1
  Nb  Nb15  1  0.346697  0.493628  0.873838  1
  Nb  Nb16  1  0.496120  0.348835  0.125624  1
  Nb  Nb17  1  0.651130  0.506430  0.374819  1
  Nb  Nb18  1  0.992722  0.151866  0.624746  1
  Nb  Nb19  1  0.004690  0.849281  0.124115  1
  Si  Si20  1  0.298467  0.045007  0.186737  1
  Si  Si21  1  0.700649  0.955012  0.687004  1
  Si  Si22  1  0.454981  0.798755  0.436659  1
  Si  Si23  1  0.201562  0.544933  0.062707  1
  Si  Si24  1  0.544787  0.205104  0.936510  1
  Si  Si25  1  0.793887  0.454682  0.563079  1
  Si  Si26  1  0.045287  0.294423  0.812893  1
  Si  Si27  1  0.954808  0.706578  0.313398  1
  Si  Si28  1  0.369561  0.290501  0.320401  1
  Si  Si29  1  0.633705  0.705312  0.820828  1
  Si  Si30  1  0.209470  0.869764  0.570543  1
  Si  Si31  1  0.133261  0.794098  0.928730  1
  Si  Si32  1  0.793169  0.136326  0.069246  1
  Si  Si33  1  0.860764  0.203732  0.429460  1
  Si  Si34  1  0.296366  0.361066  0.679600  1
  Si  Si35  1  0.707285  0.636211  0.180445  1
