# generated using pymatgen
data_Ho8Ta11Si16Au
_symmetry_space_group_name_H-M   'P 1'
_cell_length_a   7.04458098
_cell_length_b   7.04458144
_cell_length_c   12.95236658
_cell_angle_alpha   90.25856506
_cell_angle_beta   89.74143502
_cell_angle_gamma   89.73680043
_symmetry_Int_Tables_number   1
_chemical_formula_structural   Ho8Ta11Si16Au
_chemical_formula_sum   'Ho8 Ta11 Si16 Au1'
_cell_volume   642.75582306
_cell_formula_units_Z   1
loop_
 _symmetry_equiv_pos_site_id
 _symmetry_equiv_pos_as_xyz
  1  'x, y, z'
loop_
 _atom_site_type_symbol
 _atom_site_label
 _atom_site_symmetry_multiplicity
 _atom_site_fract_x
 _atom_site_fract_y
 _atom_site_fract_z
 _atom_site_occupancy
  Ho  Ho0  1  0.341665  0.001893  0.467279  1
  Ho  Ho1  1  0.496424  0.841297  0.717645  1
  Ho  Ho2  1  0.503121  0.157589  0.216001  1
  Ho  Ho3  1  0.841297  0.496424  0.282355  1
  Ho  Ho4  1  0.157589  0.503121  0.783999  1
  Ho  Ho5  1  0.655557  0.001580  0.968249  1
  Ho  Ho6  1  0.001893  0.341665  0.532721  1
  Ho  Ho7  1  0.001580  0.655557  0.031751  1
  Ta  Ta8  1  0.171878  0.826240  0.249716  1
  Ta  Ta9  1  0.826240  0.171878  0.750284  1
  Ta  Ta10  1  0.671403  0.671403  0.500000  1
  Ta  Ta11  1  0.149793  0.007566  0.876303  1
  Ta  Ta12  1  0.498014  0.652475  0.122522  1
  Ta  Ta13  1  0.504469  0.349764  0.623939  1
  Ta  Ta14  1  0.652475  0.498014  0.877478  1
  Ta  Ta15  1  0.349764  0.504469  0.376061  1
  Ta  Ta16  1  0.848147  0.992169  0.373294  1
  Ta  Ta17  1  0.007566  0.149793  0.123697  1
  Ta  Ta18  1  0.992169  0.848147  0.626706  1
  Si  Si19  1  0.201594  0.136856  0.682844  1
  Si  Si20  1  0.370617  0.719297  0.928015  1
  Si  Si21  1  0.635806  0.294502  0.431445  1
  Si  Si22  1  0.719297  0.370617  0.071985  1
  Si  Si23  1  0.294502  0.635806  0.568555  1
  Si  Si24  1  0.797349  0.864271  0.180935  1
  Si  Si25  1  0.136856  0.201594  0.317156  1
  Si  Si26  1  0.864271  0.797349  0.819065  1
  Si  Si27  1  0.289516  0.940674  0.064850  1
  Si  Si28  1  0.544497  0.793592  0.312720  1
  Si  Si29  1  0.455022  0.206015  0.810512  1
  Si  Si30  1  0.793592  0.544497  0.687280  1
  Si  Si31  1  0.206015  0.455022  0.189488  1
  Si  Si32  1  0.704717  0.045329  0.563508  1
  Si  Si33  1  0.940674  0.289516  0.935150  1
  Si  Si34  1  0.045329  0.704717  0.436492  1
  Au  Au35  1  0.329300  0.329300  0.000000  1
