# generated using pymatgen
data_NdEr3Th6(Si3C)2
_symmetry_space_group_name_H-M   'P 1'
_cell_length_a   8.76915100
_cell_length_b   8.76915029
_cell_length_c   6.37483300
_cell_angle_alpha   90.00000000
_cell_angle_beta   90.00000000
_cell_angle_gamma   119.99999892
_symmetry_Int_Tables_number   1
_chemical_formula_structural   NdEr3Th6(Si3C)2
_chemical_formula_sum   'Nd1 Er3 Th6 Si6 C2'
_cell_volume   424.53598678
_cell_formula_units_Z   1
loop_
 _symmetry_equiv_pos_site_id
 _symmetry_equiv_pos_as_xyz
  1  'x, y, z'
loop_
 _atom_site_type_symbol
 _atom_site_label
 _atom_site_symmetry_multiplicity
 _atom_site_fract_x
 _atom_site_fract_y
 _atom_site_fract_z
 _atom_site_occupancy
  Nd  Nd0  1  0.666667  0.333333  0.000000  1
  Er  Er1  1  0.333333  0.666667  0.000000  1
  Er  Er2  1  0.333333  0.666667  0.500000  1
  Er  Er3  1  0.666667  0.333333  0.500000  1
  Th  Th4  1  0.766529  0.766809  0.749022  1
  Th  Th5  1  0.233191  0.999721  0.749022  1
  Th  Th6  1  0.000279  0.233471  0.749022  1
  Th  Th7  1  0.233191  0.233471  0.250978  1
  Th  Th8  1  0.766529  0.999721  0.250978  1
  Th  Th9  1  0.000279  0.766809  0.250978  1
  Si  Si10  1  0.398700  0.403602  0.745086  1
  Si  Si11  1  0.596398  0.995098  0.745086  1
  Si  Si12  1  0.004902  0.601300  0.745086  1
  Si  Si13  1  0.596398  0.601300  0.254914  1
  Si  Si14  1  0.398700  0.995098  0.254914  1
  Si  Si15  1  0.004902  0.403602  0.254914  1
  C  C16  1  0.000000  0.000000  0.000000  1
  C  C17  1  0.000000  0.000000  0.500000  1
