# generated using pymatgen
data_Ho4ErIn2(HgPd)2
_symmetry_space_group_name_H-M   'P 1'
_cell_length_a   3.61095700
_cell_length_b   8.00349817
_cell_length_c   18.25893665
_cell_angle_alpha   89.93822767
_cell_angle_beta   90.00000000
_cell_angle_gamma   90.00000000
_symmetry_Int_Tables_number   1
_chemical_formula_structural   Ho4ErIn2(HgPd)2
_chemical_formula_sum   'Ho8 Er2 In4 Hg4 Pd4'
_cell_volume   527.68821597
_cell_formula_units_Z   2
loop_
 _symmetry_equiv_pos_site_id
 _symmetry_equiv_pos_as_xyz
  1  'x, y, z'
loop_
 _atom_site_type_symbol
 _atom_site_label
 _atom_site_symmetry_multiplicity
 _atom_site_fract_x
 _atom_site_fract_y
 _atom_site_fract_z
 _atom_site_occupancy
  Ho  Ho0  1  0.000000  0.500000  0.500000  1
  Ho  Ho1  1  0.000000  0.000000  0.000000  1
  Ho  Ho2  1  0.000000  0.744025  0.285172  1
  Ho  Ho3  1  0.000000  0.255975  0.714828  1
  Ho  Ho4  1  0.000000  0.755835  0.784689  1
  Ho  Ho5  1  0.000000  0.244165  0.215311  1
  Ho  Ho6  1  0.000000  0.608911  0.083739  1
  Ho  Ho7  1  0.000000  0.391089  0.916261  1
  Er  Er8  1  0.000000  0.891434  0.583691  1
  Er  Er9  1  0.000000  0.108566  0.416309  1
  In  In10  1  0.500000  0.582146  0.648689  1
  In  In11  1  0.500000  0.417854  0.351311  1
  In  In12  1  0.500000  0.918906  0.149217  1
  In  In13  1  0.500000  0.081094  0.850783  1
  Hg  Hg14  1  0.500000  0.713065  0.933523  1
  Hg  Hg15  1  0.500000  0.286935  0.066477  1
  Hg  Hg16  1  0.500000  0.788097  0.434205  1
  Hg  Hg17  1  0.500000  0.211903  0.565795  1
  Pd  Pd18  1  0.500000  0.533164  0.198285  1
  Pd  Pd19  1  0.500000  0.466836  0.801715  1
  Pd  Pd20  1  0.500000  0.967471  0.697792  1
  Pd  Pd21  1  0.500000  0.032529  0.302208  1
