# generated using pymatgen
data_TbDy(CuP)3
_symmetry_space_group_name_H-M   'P 1'
_cell_length_a   3.86185300
_cell_length_b   10.67898600
_cell_length_c   12.95910300
_cell_angle_alpha   90.00000000
_cell_angle_beta   90.00000000
_cell_angle_gamma   90.00000000
_symmetry_Int_Tables_number   1
_chemical_formula_structural   TbDy(CuP)3
_chemical_formula_sum   'Tb4 Dy4 Cu12 P12'
_cell_volume   534.44214372
_cell_formula_units_Z   4
loop_
 _symmetry_equiv_pos_site_id
 _symmetry_equiv_pos_as_xyz
  1  'x, y, z'
loop_
 _atom_site_type_symbol
 _atom_site_label
 _atom_site_symmetry_multiplicity
 _atom_site_fract_x
 _atom_site_fract_y
 _atom_site_fract_z
 _atom_site_occupancy
  Tb  Tb0  1  0.250000  0.930318  0.792994  1
  Tb  Tb1  1  0.750000  0.430318  0.707006  1
  Tb  Tb2  1  0.250000  0.569682  0.292994  1
  Tb  Tb3  1  0.750000  0.069682  0.207006  1
  Dy  Dy4  1  0.250000  0.841324  0.502828  1
  Dy  Dy5  1  0.750000  0.341324  0.997172  1
  Dy  Dy6  1  0.250000  0.658676  0.002828  1
  Dy  Dy7  1  0.750000  0.158676  0.497172  1
  Cu  Cu8  1  0.250000  0.402704  0.513775  1
  Cu  Cu9  1  0.750000  0.902704  0.986225  1
  Cu  Cu10  1  0.250000  0.097296  0.013775  1
  Cu  Cu11  1  0.750000  0.597296  0.486225  1
  Cu  Cu12  1  0.250000  0.272884  0.332346  1
  Cu  Cu13  1  0.750000  0.772884  0.167654  1
  Cu  Cu14  1  0.250000  0.227116  0.832346  1
  Cu  Cu15  1  0.750000  0.727116  0.667654  1
  Cu  Cu16  1  0.250000  0.860513  0.279990  1
  Cu  Cu17  1  0.750000  0.360513  0.220010  1
  Cu  Cu18  1  0.250000  0.639487  0.779990  1
  Cu  Cu19  1  0.750000  0.139487  0.720010  1
  P  P20  1  0.250000  0.240387  0.643459  1
  P  P21  1  0.750000  0.740387  0.856541  1
  P  P22  1  0.250000  0.259613  0.143459  1
  P  P23  1  0.750000  0.759613  0.356541  1
  P  P24  1  0.250000  0.604198  0.600713  1
  P  P25  1  0.750000  0.104198  0.899287  1
  P  P26  1  0.250000  0.895802  0.100713  1
  P  P27  1  0.750000  0.395802  0.399287  1
  P  P28  1  0.250000  0.057187  0.369236  1
  P  P29  1  0.750000  0.557187  0.130764  1
  P  P30  1  0.250000  0.442813  0.869236  1
  P  P31  1  0.750000  0.942813  0.630764  1
