# generated using pymatgen
data_YPa3(Pd2Pb)2
_symmetry_space_group_name_H-M   'P 1'
_cell_length_a   7.89114493
_cell_length_b   7.89114493
_cell_length_c   3.68603000
_cell_angle_alpha   90.00000000
_cell_angle_beta   90.00000000
_cell_angle_gamma   89.64943501
_symmetry_Int_Tables_number   1
_chemical_formula_structural   YPa3(Pd2Pb)2
_chemical_formula_sum   'Y1 Pa3 Pd4 Pb2'
_cell_volume   229.52541195
_cell_formula_units_Z   1
loop_
 _symmetry_equiv_pos_site_id
 _symmetry_equiv_pos_as_xyz
  1  'x, y, z'
loop_
 _atom_site_type_symbol
 _atom_site_label
 _atom_site_symmetry_multiplicity
 _atom_site_fract_x
 _atom_site_fract_y
 _atom_site_fract_z
 _atom_site_occupancy
  Y  Y0  1  0.325898  0.825898  0.500000  1
  Pa  Pa1  1  0.671637  0.171637  0.500000  1
  Pa  Pa2  1  0.174195  0.326115  0.500000  1
  Pa  Pa3  1  0.826115  0.674195  0.500000  1
  Pd  Pd4  1  0.868578  0.368578  0.000000  1
  Pd  Pd5  1  0.378582  0.134972  0.000000  1
  Pd  Pd6  1  0.634972  0.878582  0.000000  1
  Pd  Pd7  1  0.115987  0.615987  0.000000  1
  Pb  Pb8  1  0.006972  0.997064  0.000000  1
  Pb  Pb9  1  0.497064  0.506972  0.000000  1
