# generated using pymatgen
data_Pr2Tm(Si3Pd10)2
_symmetry_space_group_name_H-M   'P 1'
_cell_length_a   8.75824641
_cell_length_b   8.75824693
_cell_length_c   8.75824700
_cell_angle_alpha   60.00000352
_cell_angle_beta   60.00000154
_cell_angle_gamma   60.00000301
_symmetry_Int_Tables_number   1
_chemical_formula_structural   Pr2Tm(Si3Pd10)2
_chemical_formula_sum   'Pr2 Tm1 Si6 Pd20'
_cell_volume   475.04698156
_cell_formula_units_Z   1
loop_
 _symmetry_equiv_pos_site_id
 _symmetry_equiv_pos_as_xyz
  1  'x, y, z'
loop_
 _atom_site_type_symbol
 _atom_site_label
 _atom_site_symmetry_multiplicity
 _atom_site_fract_x
 _atom_site_fract_y
 _atom_site_fract_z
 _atom_site_occupancy
  Pr  Pr0  1  0.250000  0.250000  0.250000  1
  Pr  Pr1  1  0.750000  0.750000  0.750000  1
  Tm  Tm2  1  0.000000  0.000000  0.000000  1
  Si  Si3  1  0.733689  0.266311  0.266311  1
  Si  Si4  1  0.266311  0.733689  0.733689  1
  Si  Si5  1  0.266311  0.733689  0.266311  1
  Si  Si6  1  0.733689  0.266311  0.733689  1
  Si  Si7  1  0.266311  0.266311  0.733689  1
  Si  Si8  1  0.733689  0.733689  0.266311  1
  Pd  Pd9  1  0.385543  0.385543  0.385543  1
  Pd  Pd10  1  0.614457  0.614457  0.614457  1
  Pd  Pd11  1  0.385543  0.385543  0.843372  1
  Pd  Pd12  1  0.385543  0.843372  0.385543  1
  Pd  Pd13  1  0.614457  0.614457  0.156628  1
  Pd  Pd14  1  0.614457  0.156628  0.614457  1
  Pd  Pd15  1  0.843372  0.385543  0.385543  1
  Pd  Pd16  1  0.156628  0.614457  0.614457  1
  Pd  Pd17  1  0.344642  0.000000  0.000000  1
  Pd  Pd18  1  0.655358  0.000000  0.000000  1
  Pd  Pd19  1  0.000000  0.344642  0.655358  1
  Pd  Pd20  1  0.000000  0.655358  0.344642  1
  Pd  Pd21  1  0.000000  0.344642  0.000000  1
  Pd  Pd22  1  0.655358  0.000000  0.344642  1
  Pd  Pd23  1  0.000000  0.655358  0.000000  1
  Pd  Pd24  1  0.344642  0.000000  0.655358  1
  Pd  Pd25  1  0.000000  0.000000  0.344642  1
  Pd  Pd26  1  0.000000  0.000000  0.655358  1
  Pd  Pd27  1  0.655358  0.344642  0.000000  1
  Pd  Pd28  1  0.344642  0.655358  0.000000  1
