# generated using pymatgen
data_Y6Al25Ru7
_symmetry_space_group_name_H-M   'P 1'
_cell_length_a   8.87390851
_cell_length_b   8.87390854
_cell_length_c   9.58472000
_cell_angle_alpha   90.31167142
_cell_angle_beta   89.68832840
_cell_angle_gamma   120.01531586
_symmetry_Int_Tables_number   1
_chemical_formula_structural   Y6Al25Ru7
_chemical_formula_sum   'Y6 Al25 Ru7'
_cell_volume   653.52821886
_cell_formula_units_Z   1
loop_
 _symmetry_equiv_pos_site_id
 _symmetry_equiv_pos_as_xyz
  1  'x, y, z'
loop_
 _atom_site_type_symbol
 _atom_site_label
 _atom_site_symmetry_multiplicity
 _atom_site_fract_x
 _atom_site_fract_y
 _atom_site_fract_z
 _atom_site_occupancy
  Y  Y0  1  0.806804  0.193196  0.744115  1
  Y  Y1  1  0.193196  0.806804  0.255885  1
  Y  Y2  1  0.384553  0.194173  0.755225  1
  Y  Y3  1  0.615447  0.805827  0.244775  1
  Y  Y4  1  0.805827  0.615447  0.755225  1
  Y  Y5  1  0.194173  0.384553  0.244775  1
  Al  Al6  1  0.673933  0.326067  0.978973  1
  Al  Al7  1  0.326067  0.673933  0.021027  1
  Al  Al8  1  0.333770  0.666230  0.482972  1
  Al  Al9  1  0.666230  0.333770  0.517028  1
  Al  Al10  1  0.837641  0.162359  0.421638  1
  Al  Al11  1  0.162359  0.837641  0.578362  1
  Al  Al12  1  0.324622  0.161682  0.426801  1
  Al  Al13  1  0.162273  0.837727  0.921868  1
  Al  Al14  1  0.675378  0.838318  0.573199  1
  Al  Al15  1  0.837727  0.162273  0.078132  1
  Al  Al16  1  0.838318  0.675378  0.426801  1
  Al  Al17  1  0.678537  0.852994  0.917326  1
  Al  Al18  1  0.161682  0.324622  0.573199  1
  Al  Al19  1  0.321463  0.147006  0.082674  1
  Al  Al20  1  0.147006  0.321463  0.917326  1
  Al  Al21  1  0.852994  0.678537  0.082674  1
  Al  Al22  1  0.434142  0.565858  0.740306  1
  Al  Al23  1  0.565858  0.434142  0.259694  1
  Al  Al24  1  0.120186  0.561903  0.750928  1
  Al  Al25  1  0.879814  0.438097  0.249072  1
  Al  Al26  1  0.438097  0.879814  0.750928  1
  Al  Al27  1  0.561903  0.120186  0.249072  1
  Al  Al28  1  0.000962  0.999038  0.749278  1
  Al  Al29  1  0.999038  0.000962  0.250722  1
  Al  Al30  1  0.500000  0.500000  0.000000  1
  Ru  Ru31  1  0.000000  0.500000  0.000000  1
  Ru  Ru32  1  0.500000  0.500000  0.500000  1
  Ru  Ru33  1  0.500000  0.000000  0.000000  1
  Ru  Ru34  1  0.000000  0.500000  0.500000  1
  Ru  Ru35  1  0.500000  0.000000  0.500000  1
  Ru  Ru36  1  0.000000  0.000000  0.000000  1
  Ru  Ru37  1  0.000000  0.000000  0.500000  1
