# generated using pymatgen
data_Dy3Co7MoP6Rh
_symmetry_space_group_name_H-M   'P 1'
_cell_length_a   3.71728100
_cell_length_b   10.69550700
_cell_length_c   12.36274900
_cell_angle_alpha   90.00000000
_cell_angle_beta   90.00000000
_cell_angle_gamma   90.00000000
_symmetry_Int_Tables_number   1
_chemical_formula_structural   Dy3Co7MoP6Rh
_chemical_formula_sum   'Dy6 Co14 Mo2 P12 Rh2'
_cell_volume   491.52070857
_cell_formula_units_Z   2
loop_
 _symmetry_equiv_pos_site_id
 _symmetry_equiv_pos_as_xyz
  1  'x, y, z'
loop_
 _atom_site_type_symbol
 _atom_site_label
 _atom_site_symmetry_multiplicity
 _atom_site_fract_x
 _atom_site_fract_y
 _atom_site_fract_z
 _atom_site_occupancy
  Dy  Dy0  1  0.000000  0.500000  0.520609  1
  Dy  Dy1  1  0.500000  0.000000  0.479391  1
  Dy  Dy2  1  0.500000  0.816060  0.202967  1
  Dy  Dy3  1  0.500000  0.183940  0.202967  1
  Dy  Dy4  1  0.000000  0.683940  0.797033  1
  Dy  Dy5  1  0.000000  0.316060  0.797033  1
  Co  Co6  1  0.000000  0.500000  0.988538  1
  Co  Co7  1  0.500000  0.000000  0.011462  1
  Co  Co8  1  0.500000  0.331682  0.991303  1
  Co  Co9  1  0.500000  0.668318  0.991303  1
  Co  Co10  1  0.000000  0.168318  0.008697  1
  Co  Co11  1  0.000000  0.831682  0.008697  1
  Co  Co12  1  0.500000  0.297091  0.431203  1
  Co  Co13  1  0.500000  0.702909  0.431203  1
  Co  Co14  1  0.000000  0.202909  0.568797  1
  Co  Co15  1  0.000000  0.797091  0.568797  1
  Co  Co16  1  0.500000  0.879816  0.707737  1
  Co  Co17  1  0.500000  0.120184  0.707737  1
  Co  Co18  1  0.000000  0.620184  0.292263  1
  Co  Co19  1  0.000000  0.379816  0.292263  1
  Mo  Mo20  1  0.500000  0.500000  0.155829  1
  Mo  Mo21  1  0.000000  0.000000  0.844171  1
  P  P22  1  0.500000  0.500000  0.888948  1
  P  P23  1  0.000000  0.000000  0.111052  1
  P  P24  1  0.500000  0.500000  0.347611  1
  P  P25  1  0.000000  0.000000  0.652389  1
  P  P26  1  0.500000  0.303359  0.614048  1
  P  P27  1  0.500000  0.696641  0.614048  1
  P  P28  1  0.000000  0.196641  0.385952  1
  P  P29  1  0.000000  0.803359  0.385952  1
  P  P30  1  0.500000  0.844918  0.893279  1
  P  P31  1  0.500000  0.155082  0.893279  1
  P  P32  1  0.000000  0.655082  0.106721  1
  P  P33  1  0.000000  0.344918  0.106721  1
  Rh  Rh34  1  0.500000  0.500000  0.701216  1
  Rh  Rh35  1  0.000000  0.000000  0.298784  1
