# generated using pymatgen
data_YTa2B2Ru5
_symmetry_space_group_name_H-M   'P 1'
_cell_length_a   9.57136833
_cell_length_b   9.57136833
_cell_length_c   3.08970800
_cell_angle_alpha   90.00000000
_cell_angle_beta   90.00000000
_cell_angle_gamma   90.74325929
_symmetry_Int_Tables_number   1
_chemical_formula_structural   YTa2B2Ru5
_chemical_formula_sum   'Y2 Ta4 B4 Ru10'
_cell_volume   283.02770742
_cell_formula_units_Z   2
loop_
 _symmetry_equiv_pos_site_id
 _symmetry_equiv_pos_as_xyz
  1  'x, y, z'
loop_
 _atom_site_type_symbol
 _atom_site_label
 _atom_site_symmetry_multiplicity
 _atom_site_fract_x
 _atom_site_fract_y
 _atom_site_fract_z
 _atom_site_occupancy
  Y  Y0  1  0.823761  0.676239  0.000000  1
  Y  Y1  1  0.176239  0.323761  0.000000  1
  Ta  Ta2  1  0.324123  0.824123  0.000000  1
  Ta  Ta3  1  0.675877  0.175877  0.000000  1
  Ta  Ta4  1  0.500000  0.500000  0.000000  1
  Ta  Ta5  1  0.000000  0.000000  0.000000  1
  B  B6  1  0.620450  0.879550  0.000000  1
  B  B7  1  0.379550  0.120450  0.000000  1
  B  B8  1  0.121287  0.621287  0.000000  1
  B  B9  1  0.878713  0.378713  0.000000  1
  Ru  Ru10  1  0.558726  0.723519  0.500000  1
  Ru  Ru11  1  0.441274  0.276481  0.500000  1
  Ru  Ru12  1  0.082651  0.785666  0.500000  1
  Ru  Ru13  1  0.917349  0.214334  0.500000  1
  Ru  Ru14  1  0.285666  0.582651  0.500000  1
  Ru  Ru15  1  0.714334  0.417349  0.500000  1
  Ru  Ru16  1  0.223519  0.058726  0.500000  1
  Ru  Ru17  1  0.776481  0.941274  0.500000  1
  Ru  Ru18  1  0.500000  0.000000  0.500000  1
  Ru  Ru19  1  0.000000  0.500000  0.500000  1
