# generated using pymatgen
data_Ti5NbAl4(CuC)2
_symmetry_space_group_name_H-M   'P 1'
_cell_length_a   8.18269491
_cell_length_b   8.20591997
_cell_length_c   8.18269306
_cell_angle_alpha   59.90605098
_cell_angle_beta   60.18786877
_cell_angle_gamma   59.90605530
_symmetry_Int_Tables_number   1
_chemical_formula_structural   Ti5NbAl4(CuC)2
_chemical_formula_sum   'Ti10 Nb2 Al8 Cu4 C4'
_cell_volume   388.50606145
_cell_formula_units_Z   2
loop_
 _symmetry_equiv_pos_site_id
 _symmetry_equiv_pos_as_xyz
  1  'x, y, z'
loop_
 _atom_site_type_symbol
 _atom_site_label
 _atom_site_symmetry_multiplicity
 _atom_site_fract_x
 _atom_site_fract_y
 _atom_site_fract_z
 _atom_site_occupancy
  Ti  Ti0  1  0.564095  0.935905  0.564095  1
  Ti  Ti1  1  0.317310  0.681849  0.683958  1
  Ti  Ti2  1  0.683958  0.316883  0.317310  1
  Ti  Ti3  1  0.314095  0.685905  0.314095  1
  Ti  Ti4  1  0.683958  0.681849  0.317310  1
  Ti  Ti5  1  0.317310  0.316883  0.683958  1
  Ti  Ti6  1  0.568151  0.566042  0.933117  1
  Ti  Ti7  1  0.933117  0.566042  0.568151  1
  Ti  Ti8  1  0.568151  0.932690  0.933117  1
  Ti  Ti9  1  0.933117  0.932690  0.568151  1
  Nb  Nb10  1  0.685123  0.314877  0.685123  1
  Nb  Nb11  1  0.935123  0.564877  0.935123  1
  Al  Al12  1  0.915623  0.917778  0.915623  1
  Al  Al13  1  0.999024  0.334377  0.332222  1
  Al  Al14  1  0.334021  0.997863  0.334021  1
  Al  Al15  1  0.332222  0.334377  0.999024  1
  Al  Al16  1  0.915623  0.250976  0.915623  1
  Al  Al17  1  0.915905  0.915979  0.252137  1
  Al  Al18  1  0.252137  0.915979  0.915905  1
  Al  Al19  1  0.334021  0.334095  0.334021  1
  Cu  Cu20  1  0.124739  0.124695  0.124739  1
  Cu  Cu21  1  0.624172  0.125261  0.125305  1
  Cu  Cu22  1  0.124739  0.625828  0.124739  1
  Cu  Cu23  1  0.125305  0.125261  0.624172  1
  C  C24  1  0.624741  0.630976  0.624741  1
  C  C25  1  0.130458  0.625259  0.619024  1
  C  C26  1  0.624741  0.119542  0.624741  1
  C  C27  1  0.619024  0.625259  0.130458  1
