# generated using pymatgen
data_YbLuPa2(Al8Pt3)3
_symmetry_space_group_name_H-M   'P 1'
_cell_length_a   7.55664090
_cell_length_b   7.56763587
_cell_length_c   13.10201444
_cell_angle_alpha   84.49906388
_cell_angle_beta   78.88511178
_cell_angle_gamma   59.93096714
_symmetry_Int_Tables_number   1
_chemical_formula_structural   YbLuPa2(Al8Pt3)3
_chemical_formula_sum   'Yb1 Lu1 Pa2 Al24 Pt9'
_cell_volume   636.25532423
_cell_formula_units_Z   1
loop_
 _symmetry_equiv_pos_site_id
 _symmetry_equiv_pos_as_xyz
  1  'x, y, z'
loop_
 _atom_site_type_symbol
 _atom_site_label
 _atom_site_symmetry_multiplicity
 _atom_site_fract_x
 _atom_site_fract_y
 _atom_site_fract_z
 _atom_site_occupancy
  Yb  Yb0  1  0.733760  0.498942  0.807519  1
  Lu  Lu1  1  0.265898  0.501587  0.193061  1
  Pa  Pa2  1  0.395732  0.168208  0.804667  1
  Pa  Pa3  1  0.604854  0.830978  0.194614  1
  Al  Al4  1  0.684494  0.833043  0.944314  1
  Al  Al5  1  0.315258  0.167706  0.056189  1
  Al  Al6  1  0.145569  0.832449  0.561522  1
  Al  Al7  1  0.854644  0.167558  0.438604  1
  Al  Al8  1  0.480605  0.167302  0.557909  1
  Al  Al9  1  0.519908  0.832046  0.441655  1
  Al  Al10  1  0.215037  0.168066  0.329876  1
  Al  Al11  1  0.785577  0.830710  0.669138  1
  Al  Al12  1  0.438306  0.509755  0.670443  1
  Al  Al13  1  0.562798  0.490587  0.329107  1
  Al  Al14  1  0.106279  0.160733  0.668404  1
  Al  Al15  1  0.892627  0.840132  0.330894  1
  Al  Al16  1  0.353531  0.499645  0.944166  1
  Al  Al17  1  0.646361  0.499859  0.055681  1
  Al  Al18  1  0.015229  0.168218  0.952287  1
  Al  Al19  1  0.985242  0.831418  0.047976  1
  Al  Al20  1  0.185157  0.500691  0.441352  1
  Al  Al21  1  0.814090  0.499531  0.559275  1
  Al  Al22  1  0.735524  0.162984  0.182617  1
  Al  Al23  1  0.262185  0.839490  0.817585  1
  Al  Al24  1  0.064421  0.630784  0.816440  1
  Al  Al25  1  0.937993  0.368727  0.183837  1
  Al  Al26  1  0.854806  0.039008  0.817204  1
  Al  Al27  1  0.144178  0.959416  0.183099  1
  Pt  Pt28  1  0.121324  0.490962  0.639877  1
  Pt  Pt29  1  0.880951  0.509003  0.359557  1
  Pt  Pt30  1  0.656186  0.171956  0.000713  1
  Pt  Pt31  1  0.343029  0.827921  0.000826  1
  Pt  Pt32  1  0.536880  0.167100  0.360128  1
  Pt  Pt33  1  0.461387  0.834916  0.639146  1
  Pt  Pt34  1  0.777752  0.174265  0.638500  1
  Pt  Pt35  1  0.222439  0.823870  0.360830  1
  Pt  Pt36  1  0.999989  0.500434  0.000987  1
