# generated using pymatgen
data_SmYZn2Ga7Pd3
_symmetry_space_group_name_H-M   'P 1'
_cell_length_a   7.63848202
_cell_length_b   7.67528930
_cell_length_c   9.55224200
_cell_angle_alpha   90.00000000
_cell_angle_beta   90.00000000
_cell_angle_gamma   119.32241183
_symmetry_Int_Tables_number   1
_chemical_formula_structural   SmYZn2Ga7Pd3
_chemical_formula_sum   'Sm2 Y2 Zn4 Ga14 Pd6'
_cell_volume   488.27303435
_cell_formula_units_Z   2
loop_
 _symmetry_equiv_pos_site_id
 _symmetry_equiv_pos_as_xyz
  1  'x, y, z'
loop_
 _atom_site_type_symbol
 _atom_site_label
 _atom_site_symmetry_multiplicity
 _atom_site_fract_x
 _atom_site_fract_y
 _atom_site_fract_z
 _atom_site_occupancy
  Sm  Sm0  1  0.995611  0.670524  0.250000  1
  Sm  Sm1  1  0.004389  0.329476  0.750000  1
  Y  Y2  1  0.672939  0.998005  0.250000  1
  Y  Y3  1  0.327061  0.001995  0.750000  1
  Zn  Zn4  1  0.138447  0.137946  0.250000  1
  Zn  Zn5  1  0.861553  0.862054  0.750000  1
  Zn  Zn6  1  0.342726  0.544406  0.250000  1
  Zn  Zn7  1  0.657274  0.455594  0.750000  1
  Ga  Ga8  1  0.008997  0.335727  0.085200  1
  Ga  Ga9  1  0.991003  0.664273  0.914800  1
  Ga  Ga10  1  0.991003  0.664273  0.585200  1
  Ga  Ga11  1  0.334161  0.002130  0.416432  1
  Ga  Ga12  1  0.008997  0.335727  0.414800  1
  Ga  Ga13  1  0.665839  0.997870  0.583568  1
  Ga  Ga14  1  0.665839  0.997870  0.916432  1
  Ga  Ga15  1  0.334161  0.002130  0.083568  1
  Ga  Ga16  1  0.336939  0.332967  0.563362  1
  Ga  Ga17  1  0.663061  0.667033  0.436638  1
  Ga  Ga18  1  0.663061  0.667033  0.063362  1
  Ga  Ga19  1  0.336939  0.332967  0.936638  1
  Ga  Ga20  1  0.538366  0.341252  0.250000  1
  Ga  Ga21  1  0.461634  0.658748  0.750000  1
  Pd  Pd22  1  0.674741  0.325484  0.003561  1
  Pd  Pd23  1  0.325259  0.674516  0.996439  1
  Pd  Pd24  1  0.325259  0.674516  0.503561  1
  Pd  Pd25  1  0.674741  0.325484  0.496439  1
  Pd  Pd26  1  0.000000  0.000000  0.000000  1
  Pd  Pd27  1  0.000000  0.000000  0.500000  1
