# generated using pymatgen
data_Nd20Ir5Ru2Pt5
_symmetry_space_group_name_H-M   'P 1'
_cell_length_a   11.34359002
_cell_length_b   11.34359002
_cell_length_c   6.60768801
_cell_angle_alpha   90.00342329
_cell_angle_beta   90.00342329
_cell_angle_gamma   89.86375589
_symmetry_Int_Tables_number   1
_chemical_formula_structural   Nd20Ir5Ru2Pt5
_chemical_formula_sum   'Nd20 Ir5 Ru2 Pt5'
_cell_volume   850.25529129
_cell_formula_units_Z   1
loop_
 _symmetry_equiv_pos_site_id
 _symmetry_equiv_pos_as_xyz
  1  'x, y, z'
loop_
 _atom_site_type_symbol
 _atom_site_label
 _atom_site_symmetry_multiplicity
 _atom_site_fract_x
 _atom_site_fract_y
 _atom_site_fract_z
 _atom_site_occupancy
  Nd  Nd0  1  0.088543  0.294780  0.123354  1
  Nd  Nd1  1  0.795130  0.410639  0.122924  1
  Nd  Nd2  1  0.204933  0.585069  0.122712  1
  Nd  Nd3  1  0.908122  0.703197  0.122438  1
  Nd  Nd4  1  0.414931  0.795067  0.377288  1
  Nd  Nd5  1  0.589361  0.204870  0.377076  1
  Nd  Nd6  1  0.296803  0.091878  0.377562  1
  Nd  Nd7  1  0.705220  0.911457  0.376646  1
  Nd  Nd8  1  0.410502  0.206934  0.885190  1
  Nd  Nd9  1  0.706024  0.089973  0.883829  1
  Nd  Nd10  1  0.296000  0.912018  0.879594  1
  Nd  Nd11  1  0.590370  0.793299  0.884690  1
  Nd  Nd12  1  0.087982  0.704000  0.620406  1
  Nd  Nd13  1  0.910027  0.293976  0.616171  1
  Nd  Nd14  1  0.206701  0.409630  0.615310  1
  Nd  Nd15  1  0.793066  0.589498  0.614810  1
  Nd  Nd16  1  0.998158  0.001478  0.001340  1
  Nd  Nd17  1  0.500264  0.500146  0.001780  1
  Nd  Nd18  1  0.499854  0.499736  0.498220  1
  Nd  Nd19  1  0.998522  0.001842  0.498660  1
  Ir  Ir20  1  0.346955  0.347761  0.249699  1
  Ir  Ir21  1  0.652239  0.653045  0.250301  1
  Ir  Ir22  1  0.847211  0.152789  0.250000  1
  Ir  Ir23  1  0.499499  0.999524  0.623160  1
  Ir  Ir24  1  0.000476  0.500501  0.876840  1
  Ru  Ru25  1  0.000361  0.501104  0.379229  1
  Ru  Ru26  1  0.498896  0.999639  0.120771  1
  Pt  Pt27  1  0.153776  0.846224  0.250000  1
  Pt  Pt28  1  0.345540  0.654460  0.750000  1
  Pt  Pt29  1  0.153541  0.152980  0.750003  1
  Pt  Pt30  1  0.847020  0.846459  0.749997  1
  Pt  Pt31  1  0.653972  0.346028  0.750000  1
