# generated using pymatgen
data_Fe12Mo3W9N2
_symmetry_space_group_name_H-M   'P 1'
_cell_length_a   7.70826577
_cell_length_b   7.70648889
_cell_length_c   7.71929464
_cell_angle_alpha   60.05487013
_cell_angle_beta   60.06911734
_cell_angle_gamma   60.00762660
_symmetry_Int_Tables_number   1
_chemical_formula_structural   Fe12Mo3W9N2
_chemical_formula_sum   'Fe12 Mo3 W9 N2'
_cell_volume   324.56914395
_cell_formula_units_Z   1
loop_
 _symmetry_equiv_pos_site_id
 _symmetry_equiv_pos_as_xyz
  1  'x, y, z'
loop_
 _atom_site_type_symbol
 _atom_site_label
 _atom_site_symmetry_multiplicity
 _atom_site_fract_x
 _atom_site_fract_y
 _atom_site_fract_z
 _atom_site_occupancy
  Fe  Fe0  1  0.919925  0.238916  0.920233  1
  Fe  Fe1  1  0.328918  0.011746  0.329366  1
  Fe  Fe2  1  0.328918  0.329967  0.329366  1
  Fe  Fe3  1  0.012139  0.329093  0.329672  1
  Fe  Fe4  1  0.920477  0.920213  0.239098  1
  Fe  Fe5  1  0.239410  0.919987  0.920618  1
  Fe  Fe6  1  0.329695  0.329349  0.011604  1
  Fe  Fe7  1  0.125235  0.124800  0.625166  1
  Fe  Fe8  1  0.919925  0.920928  0.920233  1
  Fe  Fe9  1  0.125058  0.625206  0.124701  1
  Fe  Fe10  1  0.125058  0.125035  0.124701  1
  Fe  Fe11  1  0.625221  0.124855  0.125068  1
  Mo  Mo12  1  0.301824  0.697786  0.697434  1
  Mo  Mo13  1  0.301824  0.302956  0.697434  1
  Mo  Mo14  1  0.550881  0.948286  0.552548  1
  W  W15  1  0.947249  0.552039  0.552531  1
  W  W16  1  0.551330  0.948115  0.948109  1
  W  W17  1  0.698294  0.301272  0.301204  1
  W  W18  1  0.948847  0.550528  0.950098  1
  W  W19  1  0.302167  0.697345  0.303144  1
  W  W20  1  0.551330  0.552447  0.948109  1
  W  W21  1  0.696592  0.303089  0.697231  1
  W  W22  1  0.698294  0.699230  0.301204  1
  W  W23  1  0.947249  0.948182  0.552531  1
  N  N24  1  0.751265  0.748540  0.751654  1
  N  N25  1  0.502874  0.500091  0.496943  1
