# generated using pymatgen
data_SrRuAuF12
_symmetry_space_group_name_H-M   'P 1'
_cell_length_a   5.58929939
_cell_length_b   5.53049988
_cell_length_c   10.13447400
_cell_angle_alpha   97.19043043
_cell_angle_beta   95.97578963
_cell_angle_gamma   118.25619691
_symmetry_Int_Tables_number   1
_chemical_formula_structural   SrRuAuF12
_chemical_formula_sum   'Sr1 Ru1 Au1 F12'
_cell_volume   268.94715640
_cell_formula_units_Z   1
loop_
 _symmetry_equiv_pos_site_id
 _symmetry_equiv_pos_as_xyz
  1  'x, y, z'
loop_
 _atom_site_type_symbol
 _atom_site_label
 _atom_site_symmetry_multiplicity
 _atom_site_fract_x
 _atom_site_fract_y
 _atom_site_fract_z
 _atom_site_occupancy
  Sr  Sr0  1  0.959374  0.940560  0.866613  1
  Ru  Ru1  1  0.388893  0.696743  0.128109  1
  Au  Au2  1  0.211606  0.500907  0.606769  1
  F  F3  1  0.411187  0.012783  0.229141  1
  F  F4  1  0.531141  0.534801  0.730840  1
  F  F5  1  0.080264  0.660086  0.999290  1
  F  F6  1  0.136993  0.455335  0.220119  1
  F  F7  1  0.351710  0.370045  0.007636  1
  F  F8  1  0.177846  0.175583  0.494619  1
  F  F9  1  0.691638  0.728563  0.238802  1
  F  F10  1  0.249419  0.835327  0.727016  1
  F  F11  1  0.900107  0.470700  0.490791  1
  F  F12  1  0.958563  0.260123  0.717356  1
  F  F13  1  0.464401  0.742112  0.505447  1
  F  F14  1  0.634854  0.926331  0.015450  1
