# generated using pymatgen
data_TmLu(TcO4)6
_symmetry_space_group_name_H-M   'P 1'
_cell_length_a   10.02069100
_cell_length_b   10.02069128
_cell_length_c   6.01604700
_cell_angle_alpha   90.00000000
_cell_angle_beta   90.00000000
_cell_angle_gamma   120.00000239
_symmetry_Int_Tables_number   1
_chemical_formula_structural   TmLu(TcO4)6
_chemical_formula_sum   'Tm1 Lu1 Tc6 O24'
_cell_volume   523.16320829
_cell_formula_units_Z   1
loop_
 _symmetry_equiv_pos_site_id
 _symmetry_equiv_pos_as_xyz
  1  'x, y, z'
loop_
 _atom_site_type_symbol
 _atom_site_label
 _atom_site_symmetry_multiplicity
 _atom_site_fract_x
 _atom_site_fract_y
 _atom_site_fract_z
 _atom_site_occupancy
  Tm  Tm0  1  0.333333  0.666667  0.250000  1
  Lu  Lu1  1  0.666667  0.333333  0.750000  1
  Tc  Tc2  1  0.088795  0.390478  0.750000  1
  Tc  Tc3  1  0.392947  0.300731  0.250000  1
  Tc  Tc4  1  0.609522  0.698314  0.750000  1
  Tc  Tc5  1  0.907781  0.607053  0.250000  1
  Tc  Tc6  1  0.301686  0.911205  0.750000  1
  Tc  Tc7  1  0.699269  0.092219  0.250000  1
  O  O8  1  0.491074  0.649990  0.514898  1
  O  O9  1  0.350010  0.841083  0.514898  1
  O  O10  1  0.842754  0.735761  0.250000  1
  O  O11  1  0.108984  0.850561  0.750000  1
  O  O12  1  0.264239  0.106994  0.250000  1
  O  O13  1  0.149439  0.258423  0.750000  1
  O  O14  1  0.511255  0.350968  0.014514  1
  O  O15  1  0.893006  0.157246  0.250000  1
  O  O16  1  0.107886  0.704282  0.250000  1
  O  O17  1  0.158917  0.508926  0.985102  1
  O  O18  1  0.158917  0.508926  0.514898  1
  O  O19  1  0.888843  0.296604  0.750000  1
  O  O20  1  0.295718  0.403604  0.250000  1
  O  O21  1  0.703396  0.592240  0.750000  1
  O  O22  1  0.839713  0.488745  0.485486  1
  O  O23  1  0.407760  0.111157  0.750000  1
  O  O24  1  0.649032  0.160287  0.014514  1
  O  O25  1  0.491074  0.649990  0.985102  1
  O  O26  1  0.350010  0.841083  0.985102  1
  O  O27  1  0.649032  0.160287  0.485486  1
  O  O28  1  0.511255  0.350968  0.485486  1
  O  O29  1  0.839713  0.488745  0.014514  1
  O  O30  1  0.741577  0.891016  0.750000  1
  O  O31  1  0.596396  0.892114  0.250000  1
