# generated using pymatgen
data_YEr4Tl2(CdPd)2
_symmetry_space_group_name_H-M   'P 1'
_cell_length_a   3.63849400
_cell_length_b   8.04079900
_cell_length_c   18.37492700
_cell_angle_alpha   90.00000000
_cell_angle_beta   90.00000000
_cell_angle_gamma   90.00000000
_symmetry_Int_Tables_number   1
_chemical_formula_structural   YEr4Tl2(CdPd)2
_chemical_formula_sum   'Y2 Er8 Tl4 Cd4 Pd4'
_cell_volume   537.58419438
_cell_formula_units_Z   2
loop_
 _symmetry_equiv_pos_site_id
 _symmetry_equiv_pos_as_xyz
  1  'x, y, z'
loop_
 _atom_site_type_symbol
 _atom_site_label
 _atom_site_symmetry_multiplicity
 _atom_site_fract_x
 _atom_site_fract_y
 _atom_site_fract_z
 _atom_site_occupancy
  Y  Y0  1  0.000000  0.500000  0.500000  1
  Y  Y1  1  0.000000  0.000000  0.000000  1
  Er  Er2  1  0.000000  0.745438  0.281744  1
  Er  Er3  1  0.000000  0.254562  0.718256  1
  Er  Er4  1  0.000000  0.754562  0.781744  1
  Er  Er5  1  0.000000  0.245438  0.218256  1
  Er  Er6  1  0.000000  0.616337  0.087127  1
  Er  Er7  1  0.000000  0.383663  0.912873  1
  Er  Er8  1  0.000000  0.883663  0.587127  1
  Er  Er9  1  0.000000  0.116337  0.412873  1
  Tl  Tl10  1  0.500000  0.710774  0.934771  1
  Tl  Tl11  1  0.500000  0.289226  0.065229  1
  Tl  Tl12  1  0.500000  0.789226  0.434771  1
  Tl  Tl13  1  0.500000  0.210774  0.565229  1
  Cd  Cd14  1  0.500000  0.579243  0.649848  1
  Cd  Cd15  1  0.500000  0.420757  0.350152  1
  Cd  Cd16  1  0.500000  0.920757  0.149848  1
  Cd  Cd17  1  0.500000  0.079243  0.850152  1
  Pd  Pd18  1  0.500000  0.531455  0.197560  1
  Pd  Pd19  1  0.500000  0.468545  0.802440  1
  Pd  Pd20  1  0.500000  0.968545  0.697560  1
  Pd  Pd21  1  0.500000  0.031455  0.302440  1
