# generated using pymatgen
data_LiZr7(Co4P3)4
_symmetry_space_group_name_H-M   'P 1'
_cell_length_a   12.07411365
_cell_length_b   12.07411475
_cell_length_c   3.66112400
_cell_angle_alpha   90.00000000
_cell_angle_beta   90.00000000
_cell_angle_gamma   120.36018569
_symmetry_Int_Tables_number   1
_chemical_formula_structural   LiZr7(Co4P3)4
_chemical_formula_sum   'Li1 Zr7 Co16 P12'
_cell_volume   460.54057615
_cell_formula_units_Z   1
loop_
 _symmetry_equiv_pos_site_id
 _symmetry_equiv_pos_as_xyz
  1  'x, y, z'
loop_
 _atom_site_type_symbol
 _atom_site_label
 _atom_site_symmetry_multiplicity
 _atom_site_fract_x
 _atom_site_fract_y
 _atom_site_fract_z
 _atom_site_occupancy
  Li  Li0  1  0.442692  0.442692  0.000000  1
  Zr  Zr1  1  0.554711  0.998138  0.000000  1
  Zr  Zr2  1  0.998138  0.554711  0.000000  1
  Zr  Zr3  1  0.664412  0.332295  0.000000  1
  Zr  Zr4  1  0.332295  0.664412  0.000000  1
  Zr  Zr5  1  0.815097  0.815097  0.500000  1
  Zr  Zr6  1  0.177232  0.999971  0.500000  1
  Zr  Zr7  1  0.999971  0.177232  0.500000  1
  Co  Co8  1  0.201724  0.376729  0.000000  1
  Co  Co9  1  0.178576  0.807723  0.000000  1
  Co  Co10  1  0.819484  0.628771  0.000000  1
  Co  Co11  1  0.807723  0.178576  0.000000  1
  Co  Co12  1  0.376729  0.201724  0.000000  1
  Co  Co13  1  0.127390  0.477319  0.500000  1
  Co  Co14  1  0.354479  0.873410  0.500000  1
  Co  Co15  1  0.517688  0.643525  0.500000  1
  Co  Co16  1  0.643525  0.517688  0.500000  1
  Co  Co17  1  0.873410  0.354479  0.500000  1
  Co  Co18  1  0.477319  0.127390  0.500000  1
  Co  Co19  1  0.002149  0.002149  0.000000  1
  Co  Co20  1  0.722741  0.000620  0.500000  1
  Co  Co21  1  0.000620  0.722741  0.500000  1
  Co  Co22  1  0.628771  0.819484  0.000000  1
  Co  Co23  1  0.284111  0.284111  0.500000  1
  P  P24  1  0.636676  0.636676  0.000000  1
  P  P25  1  0.347551  0.005850  0.000000  1
  P  P26  1  0.005850  0.347551  0.000000  1
  P  P27  1  0.482360  0.317043  0.500000  1
  P  P28  1  0.690603  0.173925  0.500000  1
  P  P29  1  0.824150  0.518394  0.500000  1
  P  P30  1  0.518394  0.824150  0.500000  1
  P  P31  1  0.173925  0.690603  0.500000  1
  P  P32  1  0.824853  0.997978  0.000000  1
  P  P33  1  0.997978  0.824853  0.000000  1
  P  P34  1  0.317043  0.482360  0.500000  1
  P  P35  1  0.179629  0.179629  0.000000  1
