# generated using pymatgen
data_Th3Hg3IrPd2
_symmetry_space_group_name_H-M   'P 1'
_cell_length_a   7.93100000
_cell_length_b   7.93100095
_cell_length_c   3.84487300
_cell_angle_alpha   90.00000000
_cell_angle_beta   90.00000000
_cell_angle_gamma   120.00000437
_symmetry_Int_Tables_number   1
_chemical_formula_structural   Th3Hg3IrPd2
_chemical_formula_sum   'Th3 Hg3 Ir1 Pd2'
_cell_volume   209.44430873
_cell_formula_units_Z   1
loop_
 _symmetry_equiv_pos_site_id
 _symmetry_equiv_pos_as_xyz
  1  'x, y, z'
loop_
 _atom_site_type_symbol
 _atom_site_label
 _atom_site_symmetry_multiplicity
 _atom_site_fract_x
 _atom_site_fract_y
 _atom_site_fract_z
 _atom_site_occupancy
  Th  Th0  1  0.412723  0.398503  0.500000  1
  Th  Th1  1  0.601497  0.014220  0.500000  1
  Th  Th2  1  0.985780  0.587277  0.500000  1
  Hg  Hg3  1  0.733678  0.743394  0.000000  1
  Hg  Hg4  1  0.256606  0.990284  0.000000  1
  Hg  Hg5  1  0.009716  0.266322  0.000000  1
  Ir  Ir6  1  0.666667  0.333333  0.000000  1
  Pd  Pd7  1  0.333333  0.666667  0.000000  1
  Pd  Pd8  1  0.000000  0.000000  0.500000  1
