# generated using pymatgen
data_Zn12FeAg
_symmetry_space_group_name_H-M   'P 1'
_cell_length_a   6.69360618
_cell_length_b   6.69360623
_cell_length_c   5.07803496
_cell_angle_alpha   80.63340948
_cell_angle_beta   80.63340805
_cell_angle_gamma   71.23631107
_symmetry_Int_Tables_number   1
_chemical_formula_structural   Zn12FeAg
_chemical_formula_sum   'Zn12 Fe1 Ag1'
_cell_volume   211.06473398
_cell_formula_units_Z   1
loop_
 _symmetry_equiv_pos_site_id
 _symmetry_equiv_pos_as_xyz
  1  'x, y, z'
loop_
 _atom_site_type_symbol
 _atom_site_label
 _atom_site_symmetry_multiplicity
 _atom_site_fract_x
 _atom_site_fract_y
 _atom_site_fract_z
 _atom_site_occupancy
  Zn  Zn0  1  0.999820  0.999820  0.999747  1
  Zn  Zn1  1  0.616859  0.616859  0.061919  1
  Zn  Zn2  1  0.775650  0.775650  0.377211  1
  Zn  Zn3  1  0.221653  0.221653  0.616635  1
  Zn  Zn4  1  0.212160  0.639597  0.318271  1
  Zn  Zn5  1  0.362259  0.790181  0.687611  1
  Zn  Zn6  1  0.790181  0.362259  0.687611  1
  Zn  Zn7  1  0.639597  0.212160  0.318271  1
  Zn  Zn8  1  0.000315  0.646725  0.800615  1
  Zn  Zn9  1  0.355615  0.993859  0.198090  1
  Zn  Zn10  1  0.993859  0.355615  0.198090  1
  Zn  Zn11  1  0.646725  0.000315  0.800615  1
  Fe  Fe12  1  0.999790  0.999790  0.498745  1
  Ag  Ag13  1  0.385516  0.385516  0.936569  1
