# generated using pymatgen
data_La8PrNd11Sn16
_symmetry_space_group_name_H-M   'P 1'
_cell_length_a   8.38557735
_cell_length_b   8.53592718
_cell_length_c   16.20663772
_cell_angle_alpha   90.01817338
_cell_angle_beta   90.04774670
_cell_angle_gamma   90.05657590
_symmetry_Int_Tables_number   1
_chemical_formula_structural   La8PrNd11Sn16
_chemical_formula_sum   'La8 Pr1 Nd11 Sn16'
_cell_volume   1160.04867131
_cell_formula_units_Z   1
loop_
 _symmetry_equiv_pos_site_id
 _symmetry_equiv_pos_as_xyz
  1  'x, y, z'
loop_
 _atom_site_type_symbol
 _atom_site_label
 _atom_site_symmetry_multiplicity
 _atom_site_fract_x
 _atom_site_fract_y
 _atom_site_fract_z
 _atom_site_occupancy
  La  La0  1  0.868403  0.663412  0.880082  1
  La  La1  1  0.517583  0.318939  0.900722  1
  La  La2  1  0.017962  0.180549  0.598994  1
  La  La3  1  0.482158  0.680527  0.400744  1
  La  La4  1  0.982099  0.819666  0.099587  1
  La  La5  1  0.482117  0.680316  0.099408  1
  La  La6  1  0.982172  0.819519  0.400652  1
  La  La7  1  0.517786  0.319239  0.599081  1
  Pr  Pr8  1  0.018162  0.180293  0.900390  1
  Nd  Nd9  1  0.366961  0.837426  0.879330  1
  Nd  Nd10  1  0.867221  0.662912  0.620440  1
  Nd  Nd11  1  0.632734  0.162746  0.379318  1
  Nd  Nd12  1  0.132405  0.337339  0.120556  1
  Nd  Nd13  1  0.632249  0.162728  0.121222  1
  Nd  Nd14  1  0.132649  0.337018  0.379309  1
  Nd  Nd15  1  0.367535  0.837127  0.620414  1
  Nd  Nd16  1  0.199064  0.501875  0.750067  1
  Nd  Nd17  1  0.698935  0.998234  0.749850  1
  Nd  Nd18  1  0.801020  0.498010  0.250220  1
  Nd  Nd19  1  0.300903  0.002021  0.250052  1
  Sn  Sn20  1  0.292619  0.037112  0.041742  1
  Sn  Sn21  1  0.793299  0.463025  0.457984  1
  Sn  Sn22  1  0.706842  0.963102  0.541990  1
  Sn  Sn23  1  0.209199  0.535782  0.958243  1
  Sn  Sn24  1  0.705469  0.965788  0.958064  1
  Sn  Sn25  1  0.206650  0.536891  0.542009  1
  Sn  Sn26  1  0.293243  0.036973  0.457967  1
  Sn  Sn27  1  0.793022  0.461760  0.043094  1
  Sn  Sn28  1  0.565834  0.619123  0.749241  1
  Sn  Sn29  1  0.067712  0.882051  0.749525  1
  Sn  Sn30  1  0.433072  0.380666  0.250024  1
  Sn  Sn31  1  0.933259  0.119463  0.250028  1
  Sn  Sn32  1  0.323360  0.141589  0.749965  1
  Sn  Sn33  1  0.823644  0.356845  0.749576  1
  Sn  Sn34  1  0.676325  0.858284  0.250061  1
  Sn  Sn35  1  0.176328  0.641645  0.250046  1
