# generated using pymatgen
data_La2Pr8C4Br15
_symmetry_space_group_name_H-M   'P 1'
_cell_length_a   9.31604573
_cell_length_b   10.31398556
_cell_length_c   11.25946636
_cell_angle_alpha   70.03875698
_cell_angle_beta   66.14738503
_cell_angle_gamma   70.89093102
_symmetry_Int_Tables_number   1
_chemical_formula_structural   La2Pr8C4Br15
_chemical_formula_sum   'La2 Pr8 C4 Br15'
_cell_volume   907.19119806
_cell_formula_units_Z   1
loop_
 _symmetry_equiv_pos_site_id
 _symmetry_equiv_pos_as_xyz
  1  'x, y, z'
loop_
 _atom_site_type_symbol
 _atom_site_label
 _atom_site_symmetry_multiplicity
 _atom_site_fract_x
 _atom_site_fract_y
 _atom_site_fract_z
 _atom_site_occupancy
  La  La0  1  0.336313  0.751486  0.830277  1
  La  La1  1  0.663687  0.248514  0.169723  1
  Pr  Pr2  1  0.169274  0.429783  0.046029  1
  Pr  Pr3  1  0.830726  0.570217  0.953971  1
  Pr  Pr4  1  0.078258  0.180587  0.889357  1
  Pr  Pr5  1  0.921742  0.819413  0.110643  1
  Pr  Pr6  1  0.245442  0.540647  0.646059  1
  Pr  Pr7  1  0.754558  0.459353  0.353941  1
  Pr  Pr8  1  0.028129  0.105767  0.264565  1
  Pr  Pr9  1  0.971871  0.894233  0.735435  1
  C  C10  1  0.879886  0.359707  0.170879  1
  C  C11  1  0.120114  0.640293  0.829121  1
  C  C12  1  0.955353  0.296498  0.061954  1
  C  C13  1  0.044647  0.703502  0.938046  1
  Br  Br14  1  0.500000  0.500000  0.000000  1
  Br  Br15  1  0.133589  0.813900  0.468833  1
  Br  Br16  1  0.866411  0.186100  0.531167  1
  Br  Br17  1  0.252728  0.028869  0.645843  1
  Br  Br18  1  0.747272  0.971131  0.354157  1
  Br  Br19  1  0.334061  0.168050  0.221118  1
  Br  Br20  1  0.665939  0.831950  0.778882  1
  Br  Br21  1  0.453917  0.368214  0.414447  1
  Br  Br22  1  0.546083  0.631786  0.585553  1
  Br  Br23  1  0.948158  0.443935  0.704061  1
  Br  Br24  1  0.051842  0.556065  0.295939  1
  Br  Br25  1  0.230245  0.908982  0.061976  1
  Br  Br26  1  0.769755  0.091018  0.938024  1
  Br  Br27  1  0.385169  0.272098  0.818114  1
  Br  Br28  1  0.614831  0.727902  0.181886  1
