# generated using pymatgen
data_Ac8TbThIn6
_symmetry_space_group_name_H-M   'P 1'
_cell_length_a   6.48564005
_cell_length_b   9.90561976
_cell_length_c   9.90562100
_cell_angle_alpha   83.92239239
_cell_angle_beta   70.93738688
_cell_angle_gamma   70.93738762
_symmetry_Int_Tables_number   1
_chemical_formula_structural   Ac8TbThIn6
_chemical_formula_sum   'Ac8 Tb1 Th1 In6'
_cell_volume   568.49774726
_cell_formula_units_Z   1
loop_
 _symmetry_equiv_pos_site_id
 _symmetry_equiv_pos_as_xyz
  1  'x, y, z'
loop_
 _atom_site_type_symbol
 _atom_site_label
 _atom_site_symmetry_multiplicity
 _atom_site_fract_x
 _atom_site_fract_y
 _atom_site_fract_z
 _atom_site_occupancy
  Ac  Ac0  1  0.721220  0.864914  0.693176  1
  Ac  Ac1  1  0.280775  0.135368  0.307850  1
  Ac  Ac2  1  0.778780  0.306824  0.135086  1
  Ac  Ac3  1  0.219225  0.692150  0.864632  1
  Ac  Ac4  1  0.582456  0.694381  0.135338  1
  Ac  Ac5  1  0.414136  0.305497  0.864563  1
  Ac  Ac6  1  0.085864  0.135437  0.694503  1
  Ac  Ac7  1  0.917544  0.864662  0.305619  1
  Tb  Tb8  1  0.250000  0.500205  0.499795  1
  Th  Th9  1  0.750000  0.500149  0.499851  1
  In  In10  1  0.155992  0.499822  0.189511  1
  In  In11  1  0.846393  0.500598  0.810260  1
  In  In12  1  0.344008  0.810489  0.500178  1
  In  In13  1  0.653607  0.189740  0.499402  1
  In  In14  1  0.250000  0.999786  0.000214  1
  In  In15  1  0.750000  0.999977  0.000023  1
