# generated using pymatgen
data_Hf8Nb12Si15Ge
_symmetry_space_group_name_H-M   'P 1'
_cell_length_a   6.67597602
_cell_length_b   6.86738702
_cell_length_c   13.10230200
_cell_angle_alpha   90.00000000
_cell_angle_beta   90.00000000
_cell_angle_gamma   89.99142709
_symmetry_Int_Tables_number   1
_chemical_formula_structural   Hf8Nb12Si15Ge
_chemical_formula_sum   'Hf8 Nb12 Si15 Ge1'
_cell_volume   600.69482672
_cell_formula_units_Z   1
loop_
 _symmetry_equiv_pos_site_id
 _symmetry_equiv_pos_as_xyz
  1  'x, y, z'
loop_
 _atom_site_type_symbol
 _atom_site_label
 _atom_site_symmetry_multiplicity
 _atom_site_fract_x
 _atom_site_fract_y
 _atom_site_fract_z
 _atom_site_occupancy
  Hf  Hf0  1  0.496316  0.673586  0.594069  1
  Hf  Hf1  1  0.996159  0.826221  0.906547  1
  Hf  Hf2  1  0.501586  0.326772  0.092622  1
  Hf  Hf3  1  0.006658  0.170556  0.408944  1
  Hf  Hf4  1  0.501586  0.326772  0.407378  1
  Hf  Hf5  1  0.006658  0.170556  0.091056  1
  Hf  Hf6  1  0.496316  0.673586  0.905931  1
  Hf  Hf7  1  0.996159  0.826221  0.593453  1
  Nb  Nb8  1  0.662172  0.170732  0.623704  1
  Nb  Nb9  1  0.162020  0.329312  0.876329  1
  Nb  Nb10  1  0.336963  0.830325  0.123309  1
  Nb  Nb11  1  0.838312  0.673055  0.377155  1
  Nb  Nb12  1  0.336963  0.830325  0.376691  1
  Nb  Nb13  1  0.838312  0.673055  0.122845  1
  Nb  Nb14  1  0.662172  0.170732  0.876296  1
  Nb  Nb15  1  0.162020  0.329312  0.623671  1
  Nb  Nb16  1  0.836392  0.499144  0.750000  1
  Nb  Nb17  1  0.336703  0.001729  0.750000  1
  Nb  Nb18  1  0.166299  0.502656  0.250000  1
  Nb  Nb19  1  0.661455  0.994888  0.250000  1
  Si  Si20  1  0.672067  0.963587  0.461826  1
  Si  Si21  1  0.172126  0.537066  0.038389  1
  Si  Si22  1  0.327447  0.036761  0.960845  1
  Si  Si23  1  0.826947  0.463273  0.538478  1
  Si  Si24  1  0.327447  0.036761  0.539155  1
  Si  Si25  1  0.826947  0.463273  0.961522  1
  Si  Si26  1  0.672067  0.963587  0.038174  1
  Si  Si27  1  0.172126  0.537066  0.461611  1
  Si  Si28  1  0.460922  0.387910  0.750000  1
  Si  Si29  1  0.960674  0.112989  0.750000  1
  Si  Si30  1  0.538310  0.614523  0.250000  1
  Si  Si31  1  0.038902  0.887700  0.250000  1
  Si  Si32  1  0.702880  0.861061  0.750000  1
  Si  Si33  1  0.202439  0.639316  0.750000  1
  Si  Si34  1  0.297338  0.139911  0.250000  1
  Ge  Ge35  1  0.800139  0.355677  0.250000  1
