# generated using pymatgen
data_Li3Hf5(Co4P3)4
_symmetry_space_group_name_H-M   'P 1'
_cell_length_a   11.83558400
_cell_length_b   11.83558451
_cell_length_c   3.61542300
_cell_angle_alpha   90.00000000
_cell_angle_beta   90.00000000
_cell_angle_gamma   119.99999858
_symmetry_Int_Tables_number   1
_chemical_formula_structural   Li3Hf5(Co4P3)4
_chemical_formula_sum   'Li3 Hf5 Co16 P12'
_cell_volume   438.60053515
_cell_formula_units_Z   1
loop_
 _symmetry_equiv_pos_site_id
 _symmetry_equiv_pos_as_xyz
  1  'x, y, z'
loop_
 _atom_site_type_symbol
 _atom_site_label
 _atom_site_symmetry_multiplicity
 _atom_site_fract_x
 _atom_site_fract_y
 _atom_site_fract_z
 _atom_site_occupancy
  Li  Li0  1  0.442091  0.442091  0.000000  1
  Li  Li1  1  0.557909  0.000000  0.000000  1
  Li  Li2  1  0.000000  0.557909  0.000000  1
  Hf  Hf3  1  0.666667  0.333333  0.000000  1
  Hf  Hf4  1  0.333333  0.666667  0.000000  1
  Hf  Hf5  1  0.810841  0.810841  0.500000  1
  Hf  Hf6  1  0.189159  0.000000  0.500000  1
  Hf  Hf7  1  0.000000  0.189159  0.500000  1
  Co  Co8  1  0.197154  0.375941  0.000000  1
  Co  Co9  1  0.178787  0.802846  0.000000  1
  Co  Co10  1  0.821213  0.624059  0.000000  1
  Co  Co11  1  0.802846  0.178787  0.000000  1
  Co  Co12  1  0.375941  0.197154  0.000000  1
  Co  Co13  1  0.127878  0.482548  0.500000  1
  Co  Co14  1  0.354670  0.872122  0.500000  1
  Co  Co15  1  0.517452  0.645330  0.500000  1
  Co  Co16  1  0.645330  0.517452  0.500000  1
  Co  Co17  1  0.872122  0.354670  0.500000  1
  Co  Co18  1  0.482548  0.127878  0.500000  1
  Co  Co19  1  0.000000  0.000000  0.000000  1
  Co  Co20  1  0.717860  0.000000  0.500000  1
  Co  Co21  1  0.000000  0.717860  0.500000  1
  Co  Co22  1  0.624059  0.821213  0.000000  1
  Co  Co23  1  0.282140  0.282140  0.500000  1
  P  P24  1  0.638219  0.638219  0.000000  1
  P  P25  1  0.361781  0.000000  0.000000  1
  P  P26  1  0.000000  0.361781  0.000000  1
  P  P27  1  0.484558  0.314928  0.500000  1
  P  P28  1  0.685072  0.169630  0.500000  1
  P  P29  1  0.830370  0.515442  0.500000  1
  P  P30  1  0.515442  0.830370  0.500000  1
  P  P31  1  0.169630  0.685072  0.500000  1
  P  P32  1  0.822528  0.000000  0.000000  1
  P  P33  1  0.000000  0.822528  0.000000  1
  P  P34  1  0.314928  0.484558  0.500000  1
  P  P35  1  0.177472  0.177472  0.000000  1
