# generated using pymatgen
data_Ca2P7(Rh3W)3
_symmetry_space_group_name_H-M   'P 1'
_cell_length_a   9.61998300
_cell_length_b   9.61998441
_cell_length_c   3.98038700
_cell_angle_alpha   90.00000000
_cell_angle_beta   90.00000000
_cell_angle_gamma   119.99999859
_symmetry_Int_Tables_number   1
_chemical_formula_structural   Ca2P7(Rh3W)3
_chemical_formula_sum   'Ca2 P7 Rh9 W3'
_cell_volume   319.01022966
_cell_formula_units_Z   1
loop_
 _symmetry_equiv_pos_site_id
 _symmetry_equiv_pos_as_xyz
  1  'x, y, z'
loop_
 _atom_site_type_symbol
 _atom_site_label
 _atom_site_symmetry_multiplicity
 _atom_site_fract_x
 _atom_site_fract_y
 _atom_site_fract_z
 _atom_site_occupancy
  Ca  Ca0  1  0.000000  0.000000  0.763590  1
  Ca  Ca1  1  0.333333  0.666667  0.263747  1
  P  P2  1  0.666667  0.333333  0.264113  1
  P  P3  1  0.071011  0.621969  0.763863  1
  P  P4  1  0.378031  0.449043  0.763863  1
  P  P5  1  0.550957  0.928989  0.763863  1
  P  P6  1  0.252827  0.036097  0.263643  1
  P  P7  1  0.963903  0.216730  0.263643  1
  P  P8  1  0.783270  0.747173  0.263643  1
  Rh  Rh9  1  0.506409  0.061592  0.263873  1
  Rh  Rh10  1  0.938408  0.444817  0.263873  1
  Rh  Rh11  1  0.555183  0.493591  0.263873  1
  Rh  Rh12  1  0.103695  0.382389  0.763797  1
  Rh  Rh13  1  0.617611  0.721306  0.763797  1
  Rh  Rh14  1  0.278694  0.896305  0.763797  1
  Rh  Rh15  1  0.232983  0.265833  0.263774  1
  Rh  Rh16  1  0.734167  0.967150  0.263774  1
  Rh  Rh17  1  0.032850  0.767017  0.263774  1
  W  W18  1  0.791718  0.546787  0.763880  1
  W  W19  1  0.453213  0.244931  0.763880  1
  W  W20  1  0.755069  0.208282  0.763880  1
