# generated using pymatgen
data_Dy3U5(ReB6)4
_symmetry_space_group_name_H-M   'P 1'
_cell_length_a   3.63900700
_cell_length_b   9.30316118
_cell_length_c   11.41320921
_cell_angle_alpha   89.97775255
_cell_angle_beta   90.00000000
_cell_angle_gamma   90.00000000
_symmetry_Int_Tables_number   1
_chemical_formula_structural   Dy3U5(ReB6)4
_chemical_formula_sum   'Dy3 U5 Re4 B24'
_cell_volume   386.38582168
_cell_formula_units_Z   1
loop_
 _symmetry_equiv_pos_site_id
 _symmetry_equiv_pos_as_xyz
  1  'x, y, z'
loop_
 _atom_site_type_symbol
 _atom_site_label
 _atom_site_symmetry_multiplicity
 _atom_site_fract_x
 _atom_site_fract_y
 _atom_site_fract_z
 _atom_site_occupancy
  Dy  Dy0  1  0.000000  0.336919  0.407708  1
  Dy  Dy1  1  0.000000  0.663280  0.591945  1
  Dy  Dy2  1  0.000000  0.835607  0.092988  1
  U  U3  1  0.000000  0.163388  0.907287  1
  U  U4  1  0.000000  0.956151  0.396947  1
  U  U5  1  0.000000  0.042729  0.603363  1
  U  U6  1  0.000000  0.457687  0.103689  1
  U  U7  1  0.000000  0.543625  0.896933  1
  Re  Re8  1  0.000000  0.645711  0.318932  1
  Re  Re9  1  0.000000  0.352141  0.683715  1
  Re  Re10  1  0.000000  0.146182  0.178058  1
  Re  Re11  1  0.000000  0.857355  0.819485  1
  B  B12  1  0.500000  0.551630  0.431277  1
  B  B13  1  0.500000  0.447627  0.569681  1
  B  B14  1  0.500000  0.052558  0.067591  1
  B  B15  1  0.500000  0.950207  0.930448  1
  B  B16  1  0.500000  0.743008  0.423205  1
  B  B17  1  0.500000  0.256944  0.576830  1
  B  B18  1  0.500000  0.242919  0.075891  1
  B  B19  1  0.500000  0.756553  0.922688  1
  B  B20  1  0.500000  0.802244  0.275116  1
  B  B21  1  0.500000  0.196495  0.726416  1
  B  B22  1  0.500000  0.302402  0.224935  1
  B  B23  1  0.500000  0.697980  0.774828  1
  B  B24  1  0.500000  0.643871  0.188672  1
  B  B25  1  0.500000  0.354788  0.812157  1
  B  B26  1  0.500000  0.144328  0.311035  1
  B  B27  1  0.500000  0.855248  0.688337  1
  B  B28  1  0.500000  0.989306  0.219469  1
  B  B29  1  0.500000  0.013089  0.781084  1
  B  B30  1  0.500000  0.488729  0.280823  1
  B  B31  1  0.500000  0.511153  0.719576  1
  B  B32  1  0.500000  0.640737  0.038770  1
  B  B33  1  0.500000  0.357286  0.960471  1
  B  B34  1  0.500000  0.140182  0.460823  1
  B  B35  1  0.500000  0.859942  0.538829  1
