# generated using pymatgen
data_Ca3Cd13Hg2
_symmetry_space_group_name_H-M   'P 1'
_cell_length_a   15.89959323
_cell_length_b   15.89959382
_cell_length_c   7.17930110
_cell_angle_alpha   96.70574287
_cell_angle_beta   96.70574403
_cell_angle_gamma   14.26543447
_symmetry_Int_Tables_number   1
_chemical_formula_structural   Ca3Cd13Hg2
_chemical_formula_sum   'Ca3 Cd13 Hg2'
_cell_volume   444.11148546
_cell_formula_units_Z   1
loop_
 _symmetry_equiv_pos_site_id
 _symmetry_equiv_pos_as_xyz
  1  'x, y, z'
loop_
 _atom_site_type_symbol
 _atom_site_label
 _atom_site_symmetry_multiplicity
 _atom_site_fract_x
 _atom_site_fract_y
 _atom_site_fract_z
 _atom_site_occupancy
  Ca  Ca0  1  0.003102  0.003102  0.998832  1
  Ca  Ca1  1  0.665957  0.665957  0.345734  1
  Ca  Ca2  1  0.884036  0.884036  0.440224  1
  Cd  Cd3  1  0.108490  0.108490  0.039847  1
  Cd  Cd4  1  0.224067  0.224067  0.109398  1
  Cd  Cd5  1  0.330979  0.330979  0.136430  1
  Cd  Cd6  1  0.442421  0.442421  0.215840  1
  Cd  Cd7  1  0.557212  0.557212  0.300931  1
  Cd  Cd8  1  0.774308  0.774308  0.387635  1
  Cd  Cd9  1  0.997170  0.997170  0.489313  1
  Cd  Cd10  1  0.224407  0.224407  0.639842  1
  Cd  Cd11  1  0.445808  0.445808  0.712623  1
  Cd  Cd12  1  0.558071  0.558071  0.757482  1
  Cd  Cd13  1  0.667134  0.667134  0.856165  1
  Cd  Cd14  1  0.777893  0.777893  0.887604  1
  Cd  Cd15  1  0.894094  0.894094  0.942343  1
  Hg  Hg16  1  0.113545  0.113545  0.572838  1
  Hg  Hg17  1  0.331304  0.331304  0.666921  1
