# generated using pymatgen
data_Tm2Ga2PdRh
_symmetry_space_group_name_H-M   'P 1'
_cell_length_a   4.38993700
_cell_length_b   6.80520600
_cell_length_c   7.63052300
_cell_angle_alpha   90.00000000
_cell_angle_beta   90.00000000
_cell_angle_gamma   90.00000000
_symmetry_Int_Tables_number   1
_chemical_formula_structural   Tm2Ga2PdRh
_chemical_formula_sum   'Tm4 Ga4 Pd2 Rh2'
_cell_volume   227.95749174
_cell_formula_units_Z   2
loop_
 _symmetry_equiv_pos_site_id
 _symmetry_equiv_pos_as_xyz
  1  'x, y, z'
loop_
 _atom_site_type_symbol
 _atom_site_label
 _atom_site_symmetry_multiplicity
 _atom_site_fract_x
 _atom_site_fract_y
 _atom_site_fract_z
 _atom_site_occupancy
  Tm  Tm0  1  0.250000  0.975931  0.310540  1
  Tm  Tm1  1  0.250000  0.475931  0.189460  1
  Tm  Tm2  1  0.750000  0.014941  0.697373  1
  Tm  Tm3  1  0.750000  0.514941  0.802627  1
  Ga  Ga4  1  0.250000  0.333692  0.575807  1
  Ga  Ga5  1  0.250000  0.833692  0.924193  1
  Ga  Ga6  1  0.750000  0.671311  0.428290  1
  Ga  Ga7  1  0.750000  0.171311  0.071710  1
  Pd  Pd8  1  0.750000  0.777089  0.101109  1
  Pd  Pd9  1  0.750000  0.277089  0.398891  1
  Rh  Rh10  1  0.250000  0.227036  0.899262  1
  Rh  Rh11  1  0.250000  0.727036  0.600738  1
