# generated using pymatgen
data_RuRh3Pb4O13
_symmetry_space_group_name_H-M   'P 1'
_cell_length_a   7.33104625
_cell_length_b   7.29269066
_cell_length_c   7.29269100
_cell_angle_alpha   60.00000299
_cell_angle_beta   60.17292373
_cell_angle_gamma   60.17291769
_symmetry_Int_Tables_number   1
_chemical_formula_structural   RuRh3Pb4O13
_chemical_formula_sum   'Ru1 Rh3 Pb4 O13'
_cell_volume   276.41191402
_cell_formula_units_Z   1
loop_
 _symmetry_equiv_pos_site_id
 _symmetry_equiv_pos_as_xyz
  1  'x, y, z'
loop_
 _atom_site_type_symbol
 _atom_site_label
 _atom_site_symmetry_multiplicity
 _atom_site_fract_x
 _atom_site_fract_y
 _atom_site_fract_z
 _atom_site_occupancy
  Ru  Ru0  1  0.373755  0.875415  0.875415  1
  Rh  Rh1  1  0.874672  0.375027  0.875150  1
  Rh  Rh2  1  0.874672  0.875150  0.375027  1
  Rh  Rh3  1  0.874672  0.875150  0.875150  1
  Pb  Pb4  1  0.879377  0.373541  0.373541  1
  Pb  Pb5  1  0.373519  0.372615  0.372615  1
  Pb  Pb6  1  0.373519  0.372615  0.881252  1
  Pb  Pb7  1  0.373519  0.881252  0.372615  1
  O  O8  1  0.204413  0.798342  0.798342  1
  O  O9  1  0.204413  0.798342  0.198903  1
  O  O10  1  0.547674  0.949078  0.949078  1
  O  O11  1  0.547674  0.949078  0.554169  1
  O  O12  1  0.956576  0.951180  0.546122  1
  O  O13  1  0.792329  0.795541  0.206065  1
  O  O14  1  0.547674  0.554169  0.949078  1
  O  O15  1  0.792329  0.206065  0.795541  1
  O  O16  1  0.792329  0.206065  0.206065  1
  O  O17  1  0.956576  0.546122  0.951180  1
  O  O18  1  0.956576  0.546122  0.546122  1
  O  O19  1  0.204413  0.198903  0.798342  1
  O  O20  1  0.499317  0.500228  0.500228  1
