# generated using pymatgen
data_Yb3Sc3(Si3Ru)8
_symmetry_space_group_name_H-M   'P 1'
_cell_length_a   10.08212407
_cell_length_b   10.08212521
_cell_length_c   8.07724172
_cell_angle_alpha   90.01843409
_cell_angle_beta   89.98156690
_cell_angle_gamma   132.74619235
_symmetry_Int_Tables_number   1
_chemical_formula_structural   Yb3Sc3(Si3Ru)8
_chemical_formula_sum   'Yb3 Sc3 Si24 Ru8'
_cell_volume   602.94916163
_cell_formula_units_Z   1
loop_
 _symmetry_equiv_pos_site_id
 _symmetry_equiv_pos_as_xyz
  1  'x, y, z'
loop_
 _atom_site_type_symbol
 _atom_site_label
 _atom_site_symmetry_multiplicity
 _atom_site_fract_x
 _atom_site_fract_y
 _atom_site_fract_z
 _atom_site_occupancy
  Yb  Yb0  1  0.000841  0.500841  0.250000  1
  Yb  Yb1  1  0.498938  0.998938  0.750000  1
  Yb  Yb2  1  0.997521  0.497521  0.750000  1
  Sc  Sc3  1  0.999379  0.999493  0.000162  1
  Sc  Sc4  1  0.499493  0.499379  0.499838  1
  Sc  Sc5  1  0.499042  0.999042  0.250000  1
  Si  Si6  1  0.295606  0.707788  0.001487  1
  Si  Si7  1  0.790568  0.203312  0.496737  1
  Si  Si8  1  0.703312  0.290568  0.003263  1
  Si  Si9  1  0.207788  0.795606  0.498513  1
  Si  Si10  1  0.831196  0.833982  0.332698  1
  Si  Si11  1  0.164992  0.168969  0.668140  1
  Si  Si12  1  0.668969  0.664992  0.831860  1
  Si  Si13  1  0.333982  0.331196  0.167302  1
  Si  Si14  1  0.620774  0.389106  0.228264  1
  Si  Si15  1  0.611145  0.377429  0.770879  1
  Si  Si16  1  0.111098  0.877250  0.729500  1
  Si  Si17  1  0.124632  0.892004  0.271330  1
  Si  Si18  1  0.377250  0.611098  0.770500  1
  Si  Si19  1  0.392004  0.624632  0.228670  1
  Si  Si20  1  0.889106  0.120774  0.271736  1
  Si  Si21  1  0.877429  0.111145  0.729121  1
  Si  Si22  1  0.846027  0.611850  0.003761  1
  Si  Si23  1  0.387879  0.156142  0.996999  1
  Si  Si24  1  0.887676  0.654052  0.504826  1
  Si  Si25  1  0.345330  0.112422  0.493278  1
  Si  Si26  1  0.154052  0.387676  0.995174  1
  Si  Si27  1  0.612422  0.845330  0.006722  1
  Si  Si28  1  0.111850  0.346027  0.496239  1
  Si  Si29  1  0.656142  0.887879  0.503001  1
  Ru  Ru30  1  0.171563  0.834240  0.002502  1
  Ru  Ru31  1  0.666121  0.329864  0.497116  1
  Ru  Ru32  1  0.829864  0.166121  0.002884  1
  Ru  Ru33  1  0.334240  0.671563  0.497498  1
  Ru  Ru34  1  0.627747  0.628634  0.126595  1
  Ru  Ru35  1  0.371821  0.373567  0.872356  1
  Ru  Ru36  1  0.873567  0.871821  0.627644  1
  Ru  Ru37  1  0.128634  0.127747  0.373405  1
