# generated using pymatgen
data_Ca7Ag2SnN2
_symmetry_space_group_name_H-M   'P 1'
_cell_length_a   12.51848857
_cell_length_b   12.51848866
_cell_length_c   4.80127600
_cell_angle_alpha   90.00000000
_cell_angle_beta   90.00000000
_cell_angle_gamma   157.30467099
_symmetry_Int_Tables_number   1
_chemical_formula_structural   Ca7Ag2SnN2
_chemical_formula_sum   'Ca7 Ag2 Sn1 N2'
_cell_volume   290.30692706
_cell_formula_units_Z   1
loop_
 _symmetry_equiv_pos_site_id
 _symmetry_equiv_pos_as_xyz
  1  'x, y, z'
loop_
 _atom_site_type_symbol
 _atom_site_label
 _atom_site_symmetry_multiplicity
 _atom_site_fract_x
 _atom_site_fract_y
 _atom_site_fract_z
 _atom_site_occupancy
  Ca  Ca0  1  0.903931  0.096068  0.000000  1
  Ca  Ca1  1  0.696391  0.303608  0.000000  1
  Ca  Ca2  1  0.500000  0.500000  0.000000  1
  Ca  Ca3  1  0.303608  0.696391  0.000000  1
  Ca  Ca4  1  0.096068  0.903931  0.000000  1
  Ca  Ca5  1  0.596311  0.403689  0.500001  1
  Ca  Ca6  1  0.403689  0.596311  0.500001  1
  Ag  Ag7  1  0.789575  0.210424  0.500001  1
  Ag  Ag8  1  0.210424  0.789575  0.500001  1
  Sn  Sn9  1  0.000000  0.000000  0.500001  1
  N  N10  1  0.603810  0.396189  0.000000  1
  N  N11  1  0.396189  0.603810  0.000000  1
