# generated using pymatgen
data_Y4ZnSi8Au15
_symmetry_space_group_name_H-M   'P 1'
_cell_length_a   4.36410500
_cell_length_b   4.36392500
_cell_length_c   27.52726100
_cell_angle_alpha   90.00000000
_cell_angle_beta   90.00000000
_cell_angle_gamma   90.00000000
_symmetry_Int_Tables_number   1
_chemical_formula_structural   Y4ZnSi8Au15
_chemical_formula_sum   'Y4 Zn1 Si8 Au15'
_cell_volume   524.24641566
_cell_formula_units_Z   1
loop_
 _symmetry_equiv_pos_site_id
 _symmetry_equiv_pos_as_xyz
  1  'x, y, z'
loop_
 _atom_site_type_symbol
 _atom_site_label
 _atom_site_symmetry_multiplicity
 _atom_site_fract_x
 _atom_site_fract_y
 _atom_site_fract_z
 _atom_site_occupancy
  Y  Y0  1  0.000000  0.500000  0.749935  1
  Y  Y1  1  0.500000  0.000000  0.250235  1
  Y  Y2  1  0.500000  0.500000  0.999899  1
  Y  Y3  1  0.500000  0.500000  0.500546  1
  Zn  Zn4  1  0.000000  0.000000  0.656299  1
  Si  Si5  1  0.000000  0.000000  0.957481  1
  Si  Si6  1  0.000000  0.000000  0.457574  1
  Si  Si7  1  0.500000  0.000000  0.793097  1
  Si  Si8  1  0.500000  0.000000  0.708389  1
  Si  Si9  1  0.000000  0.500000  0.207876  1
  Si  Si10  1  0.000000  0.500000  0.292894  1
  Si  Si11  1  0.000000  0.000000  0.042554  1
  Si  Si12  1  0.000000  0.000000  0.542111  1
  Au  Au13  1  0.500000  0.000000  0.086069  1
  Au  Au14  1  0.500000  0.500000  0.664208  1
  Au  Au15  1  0.500000  0.500000  0.835934  1
  Au  Au16  1  0.000000  0.500000  0.086116  1
  Au  Au17  1  0.500000  0.000000  0.914699  1
  Au  Au18  1  0.000000  0.500000  0.414589  1
  Au  Au19  1  0.500000  0.500000  0.336865  1
  Au  Au20  1  0.500000  0.000000  0.413933  1
  Au  Au21  1  0.000000  0.000000  0.335717  1
  Au  Au22  1  0.000000  0.000000  0.164600  1
  Au  Au23  1  0.500000  0.000000  0.585117  1
  Au  Au24  1  0.000000  0.000000  0.836296  1
  Au  Au25  1  0.500000  0.500000  0.164000  1
  Au  Au26  1  0.000000  0.500000  0.589213  1
  Au  Au27  1  0.000000  0.500000  0.913755  1
