# generated using pymatgen
data_Sm3Sc(WN3)4
_symmetry_space_group_name_H-M   'P 1'
_cell_length_a   7.28735060
_cell_length_b   7.28735131
_cell_length_c   6.22485683
_cell_angle_alpha   74.86888848
_cell_angle_beta   74.86890061
_cell_angle_gamma   82.48343958
_symmetry_Int_Tables_number   1
_chemical_formula_structural   Sm3Sc(WN3)4
_chemical_formula_sum   'Sm3 Sc1 W4 N12'
_cell_volume   307.35248506
_cell_formula_units_Z   1
loop_
 _symmetry_equiv_pos_site_id
 _symmetry_equiv_pos_as_xyz
  1  'x, y, z'
loop_
 _atom_site_type_symbol
 _atom_site_label
 _atom_site_symmetry_multiplicity
 _atom_site_fract_x
 _atom_site_fract_y
 _atom_site_fract_z
 _atom_site_occupancy
  Sm  Sm0  1  0.701911  0.298089  0.750000  1
  Sm  Sm1  1  0.296896  0.703104  0.250000  1
  Sm  Sm2  1  0.915309  0.084691  0.250000  1
  Sc  Sc3  1  0.092519  0.907481  0.750000  1
  W  W4  1  0.378458  0.198112  0.250946  1
  W  W5  1  0.616338  0.802151  0.758123  1
  W  W6  1  0.801888  0.621542  0.249054  1
  W  W7  1  0.197849  0.383662  0.741877  1
  N  N8  1  0.619363  0.105330  0.159921  1
  N  N9  1  0.365123  0.361572  0.457327  1
  N  N10  1  0.006102  0.213433  0.838983  1
  N  N11  1  0.370193  0.893480  0.828430  1
  N  N12  1  0.786567  0.993898  0.661017  1
  N  N13  1  0.106520  0.629807  0.671570  1
  N  N14  1  0.894670  0.380637  0.340079  1
  N  N15  1  0.645275  0.653635  0.534170  1
  N  N16  1  0.638428  0.634877  0.042673  1
  N  N17  1  0.346365  0.354725  0.965830  1
  N  N18  1  0.002884  0.782660  0.128743  1
  N  N19  1  0.217340  0.997116  0.371257  1
