# generated using pymatgen
data_CaNdAg2(Ru2O7)2
_symmetry_space_group_name_H-M   'P 1'
_cell_length_a   7.26365787
_cell_length_b   7.20283657
_cell_length_c   7.26725969
_cell_angle_alpha   60.29281557
_cell_angle_beta   61.06910916
_cell_angle_gamma   60.27660153
_symmetry_Int_Tables_number   1
_chemical_formula_structural   CaNdAg2(Ru2O7)2
_chemical_formula_sum   'Ca1 Nd1 Ag2 Ru4 O14'
_cell_volume   272.13678018
_cell_formula_units_Z   1
loop_
 _symmetry_equiv_pos_site_id
 _symmetry_equiv_pos_as_xyz
  1  'x, y, z'
loop_
 _atom_site_type_symbol
 _atom_site_label
 _atom_site_symmetry_multiplicity
 _atom_site_fract_x
 _atom_site_fract_y
 _atom_site_fract_z
 _atom_site_occupancy
  Ca  Ca0  1  0.125000  0.125000  0.625000  1
  Nd  Nd1  1  0.625000  0.125000  0.125000  1
  Ag  Ag2  1  0.125000  0.625000  0.125000  1
  Ag  Ag3  1  0.125000  0.125000  0.125000  1
  Ru  Ru4  1  0.125000  0.625000  0.625000  1
  Ru  Ru5  1  0.625000  0.125000  0.625000  1
  Ru  Ru6  1  0.625000  0.625000  0.125000  1
  Ru  Ru7  1  0.625000  0.625000  0.625000  1
  O  O8  1  0.692120  0.698830  0.305613  1
  O  O9  1  0.310167  0.306312  0.690738  1
  O  O10  1  0.702813  0.295980  0.705227  1
  O  O11  1  0.312191  0.688543  0.310724  1
  O  O12  1  0.310167  0.692782  0.690738  1
  O  O13  1  0.692120  0.303436  0.305613  1
  O  O14  1  0.557880  0.551170  0.944387  1
  O  O15  1  0.939833  0.943688  0.559262  1
  O  O16  1  0.547187  0.954020  0.544773  1
  O  O17  1  0.937809  0.561457  0.939276  1
  O  O18  1  0.939833  0.557218  0.559262  1
  O  O19  1  0.557880  0.946564  0.944387  1
  O  O20  1  0.234146  0.264149  0.237557  1
  O  O21  1  0.015854  0.985851  0.012443  1
