# generated using pymatgen
data_Tm15Lu3(ZrIr6)2
_symmetry_space_group_name_H-M   'P 1'
_cell_length_a   10.72147403
_cell_length_b   10.72373101
_cell_length_c   6.24830901
_cell_angle_alpha   89.99996547
_cell_angle_beta   89.99248888
_cell_angle_gamma   89.99508402
_symmetry_Int_Tables_number   1
_chemical_formula_structural   Tm15Lu3(ZrIr6)2
_chemical_formula_sum   'Tm15 Lu3 Zr2 Ir12'
_cell_volume   718.39434359
_cell_formula_units_Z   1
loop_
 _symmetry_equiv_pos_site_id
 _symmetry_equiv_pos_as_xyz
  1  'x, y, z'
loop_
 _atom_site_type_symbol
 _atom_site_label
 _atom_site_symmetry_multiplicity
 _atom_site_fract_x
 _atom_site_fract_y
 _atom_site_fract_z
 _atom_site_occupancy
  Tm  Tm0  1  0.289719  0.913770  0.874777  1
  Tm  Tm1  1  0.710272  0.086321  0.874722  1
  Tm  Tm2  1  0.710248  0.913680  0.374748  1
  Tm  Tm3  1  0.587531  0.792479  0.875074  1
  Tm  Tm4  1  0.587399  0.207487  0.375073  1
  Tm  Tm5  1  0.412413  0.792580  0.375057  1
  Tm  Tm6  1  0.412383  0.207495  0.875100  1
  Tm  Tm7  1  0.207554  0.412437  0.624889  1
  Tm  Tm8  1  0.207532  0.587548  0.124921  1
  Tm  Tm9  1  0.792469  0.412457  0.124911  1
  Tm  Tm10  1  0.792453  0.587544  0.624923  1
  Tm  Tm11  1  0.913678  0.710269  0.125271  1
  Tm  Tm12  1  0.913682  0.289728  0.625312  1
  Tm  Tm13  1  0.086323  0.710280  0.625242  1
  Tm  Tm14  1  0.086436  0.289639  0.125351  1
  Lu  Lu15  1  0.289951  0.086245  0.374972  1
  Lu  Lu16  1  0.499991  0.500003  0.000006  1
  Lu  Lu17  1  0.499984  0.499986  0.500001  1
  Zr  Zr18  1  0.000198  0.000077  0.499877  1
  Zr  Zr19  1  0.000030  0.000026  0.000024  1
  Ir  Ir20  1  0.853776  0.146193  0.250035  1
  Ir  Ir21  1  0.853791  0.853784  0.749994  1
  Ir  Ir22  1  0.146412  0.146090  0.749471  1
  Ir  Ir23  1  0.146322  0.853989  0.250121  1
  Ir  Ir24  1  0.654018  0.345965  0.750001  1
  Ir  Ir25  1  0.654034  0.654005  0.249988  1
  Ir  Ir26  1  0.345908  0.345685  0.250163  1
  Ir  Ir27  1  0.345988  0.654026  0.750012  1
  Ir  Ir28  1  0.499746  0.000112  0.122802  1
  Ir  Ir29  1  0.499742  0.000109  0.622260  1
  Ir  Ir30  1  0.000011  0.500012  0.877453  1
  Ir  Ir31  1  0.000008  0.499978  0.377447  1
