# generated using pymatgen
data_Ac7Pd3
_symmetry_space_group_name_H-M   'P 1'
_cell_length_a   6.94323200
_cell_length_b   10.82378474
_cell_length_c   10.82378577
_cell_angle_alpha   119.98096071
_cell_angle_beta   90.00000000
_cell_angle_gamma   90.00000000
_symmetry_Int_Tables_number   1
_chemical_formula_structural   Ac7Pd3
_chemical_formula_sum   'Ac14 Pd6'
_cell_volume   704.58587349
_cell_formula_units_Z   2
loop_
 _symmetry_equiv_pos_site_id
 _symmetry_equiv_pos_as_xyz
  1  'x, y, z'
loop_
 _atom_site_type_symbol
 _atom_site_label
 _atom_site_symmetry_multiplicity
 _atom_site_fract_x
 _atom_site_fract_y
 _atom_site_fract_z
 _atom_site_occupancy
  Ac  Ac0  1  0.457917  0.333220  0.666780  1
  Ac  Ac1  1  0.957917  0.666780  0.333220  1
  Ac  Ac2  1  0.250593  0.125408  0.874592  1
  Ac  Ac3  1  0.250704  0.749039  0.874570  1
  Ac  Ac4  1  0.250704  0.125430  0.250961  1
  Ac  Ac5  1  0.750593  0.874592  0.125408  1
  Ac  Ac6  1  0.750704  0.250961  0.125430  1
  Ac  Ac7  1  0.750704  0.874570  0.749039  1
  Ac  Ac8  1  0.438386  0.540634  0.459366  1
  Ac  Ac9  1  0.438842  0.918439  0.459325  1
  Ac  Ac10  1  0.438842  0.540675  0.081561  1
  Ac  Ac11  1  0.938386  0.459366  0.540634  1
  Ac  Ac12  1  0.938842  0.081561  0.540675  1
  Ac  Ac13  1  0.938842  0.459325  0.918439  1
  Pd  Pd14  1  0.189211  0.811944  0.188056  1
  Pd  Pd15  1  0.188900  0.376162  0.188125  1
  Pd  Pd16  1  0.188900  0.811875  0.623838  1
  Pd  Pd17  1  0.689211  0.188056  0.811944  1
  Pd  Pd18  1  0.688900  0.623838  0.811875  1
  Pd  Pd19  1  0.688900  0.188125  0.376162  1
