# generated using pymatgen
data_Sr2ZnH3Pd16
_symmetry_space_group_name_H-M   'P 1'
_cell_length_a   7.02745968
_cell_length_b   7.05504564
_cell_length_c   7.02745864
_cell_angle_alpha   83.20888266
_cell_angle_beta   82.87583382
_cell_angle_gamma   83.20889076
_symmetry_Int_Tables_number   1
_chemical_formula_structural   Sr2ZnH3Pd16
_chemical_formula_sum   'Sr2 Zn1 H3 Pd16'
_cell_volume   341.39687244
_cell_formula_units_Z   1
loop_
 _symmetry_equiv_pos_site_id
 _symmetry_equiv_pos_as_xyz
  1  'x, y, z'
loop_
 _atom_site_type_symbol
 _atom_site_label
 _atom_site_symmetry_multiplicity
 _atom_site_fract_x
 _atom_site_fract_y
 _atom_site_fract_z
 _atom_site_occupancy
  Sr  Sr0  1  0.658534  0.663696  0.658534  1
  Sr  Sr1  1  0.341466  0.336304  0.341466  1
  Zn  Zn2  1  0.000000  0.500000  0.000000  1
  H  H3  1  0.500000  0.500000  0.000000  1
  H  H4  1  0.000000  0.500000  0.500000  1
  H  H5  1  0.500000  0.000000  0.500000  1
  Pd  Pd6  1  0.000000  0.000000  0.500000  1
  Pd  Pd7  1  0.500000  0.000000  0.000000  1
  Pd  Pd8  1  0.707561  0.297898  0.001553  1
  Pd  Pd9  1  0.998447  0.702102  0.292439  1
  Pd  Pd10  1  0.294738  0.000000  0.705262  1
  Pd  Pd11  1  0.001553  0.297898  0.707561  1
  Pd  Pd12  1  0.705262  0.000000  0.294738  1
  Pd  Pd13  1  0.292439  0.702102  0.998447  1
  Pd  Pd14  1  0.345732  0.349024  0.855704  1
  Pd  Pd15  1  0.855704  0.349024  0.345732  1
  Pd  Pd16  1  0.348159  0.848697  0.348159  1
  Pd  Pd17  1  0.654268  0.650976  0.144296  1
  Pd  Pd18  1  0.144296  0.650976  0.654268  1
  Pd  Pd19  1  0.651841  0.151303  0.651841  1
  Pd  Pd20  1  0.903249  0.895282  0.903249  1
  Pd  Pd21  1  0.096751  0.104718  0.096751  1
