# generated using pymatgen
data_Sc8Cr4B23C
_symmetry_space_group_name_H-M   'P 1'
_cell_length_a   8.87489817
_cell_length_b   11.09204136
_cell_length_c   3.38159900
_cell_angle_alpha   90.00000000
_cell_angle_beta   90.00000000
_cell_angle_gamma   89.78086069
_symmetry_Int_Tables_number   1
_chemical_formula_structural   Sc8Cr4B23C
_chemical_formula_sum   'Sc8 Cr4 B23 C1'
_cell_volume   332.88466478
_cell_formula_units_Z   1
loop_
 _symmetry_equiv_pos_site_id
 _symmetry_equiv_pos_as_xyz
  1  'x, y, z'
loop_
 _atom_site_type_symbol
 _atom_site_label
 _atom_site_symmetry_multiplicity
 _atom_site_fract_x
 _atom_site_fract_y
 _atom_site_fract_z
 _atom_site_occupancy
  Sc  Sc0  1  0.828289  0.086891  0.000000  1
  Sc  Sc1  1  0.445045  0.128033  0.000000  1
  Sc  Sc2  1  0.942822  0.369246  0.000000  1
  Sc  Sc3  1  0.323170  0.413680  0.000000  1
  Sc  Sc4  1  0.676449  0.585239  0.000000  1
  Sc  Sc5  1  0.055874  0.631858  0.000000  1
  Sc  Sc6  1  0.556480  0.872100  0.000000  1
  Sc  Sc7  1  0.177121  0.914752  0.000000  1
  Cr  Cr8  1  0.142317  0.180815  0.000000  1
  Cr  Cr9  1  0.641019  0.315837  0.000000  1
  Cr  Cr10  1  0.359473  0.680806  0.000000  1
  Cr  Cr11  1  0.856569  0.822190  0.000000  1
  B  B12  1  0.056145  0.065039  0.500001  1
  B  B13  1  0.254605  0.079841  0.500001  1
  B  B14  1  0.631138  0.175642  0.500001  1
  B  B15  1  0.982629  0.211448  0.500001  1
  B  B16  1  0.295807  0.236647  0.500001  1
  B  B17  1  0.795123  0.259252  0.500001  1
  B  B18  1  0.481535  0.285282  0.500001  1
  B  B19  1  0.131509  0.318049  0.500001  1
  B  B20  1  0.751234  0.418051  0.500001  1
  B  B21  1  0.553507  0.432400  0.500001  1
  B  B22  1  0.098001  0.473843  0.500001  1
  B  B23  1  0.899980  0.527052  0.500001  1
  B  B24  1  0.446138  0.564394  0.500001  1
  B  B25  1  0.247541  0.580473  0.500001  1
  B  B26  1  0.867307  0.684075  0.500001  1
  B  B27  1  0.519181  0.711599  0.500001  1
  B  B28  1  0.204957  0.739306  0.500001  1
  B  B29  1  0.703271  0.765183  0.500001  1
  B  B30  1  0.017190  0.790268  0.500001  1
  B  B31  1  0.370684  0.818228  0.500001  1
  B  B32  1  0.742262  0.924908  0.500001  1
  B  B33  1  0.943476  0.937329  0.500001  1
  B  B34  1  0.405023  0.973856  0.500001  1
  C  C35  1  0.597132  0.026387  0.500001  1
