# generated using pymatgen
data_Tb2Fe5P6Pd5
_symmetry_space_group_name_H-M   'P 1'
_cell_length_a   3.81997500
_cell_length_b   10.64056400
_cell_length_c   12.53337400
_cell_angle_alpha   90.00000000
_cell_angle_beta   90.00000000
_cell_angle_gamma   90.00000000
_symmetry_Int_Tables_number   1
_chemical_formula_structural   Tb2Fe5P6Pd5
_chemical_formula_sum   'Tb4 Fe10 P12 Pd10'
_cell_volume   509.44014840
_cell_formula_units_Z   2
loop_
 _symmetry_equiv_pos_site_id
 _symmetry_equiv_pos_as_xyz
  1  'x, y, z'
loop_
 _atom_site_type_symbol
 _atom_site_label
 _atom_site_symmetry_multiplicity
 _atom_site_fract_x
 _atom_site_fract_y
 _atom_site_fract_z
 _atom_site_occupancy
  Tb  Tb0  1  0.250000  0.580521  0.715204  1
  Tb  Tb1  1  0.250000  0.919479  0.215204  1
  Tb  Tb2  1  0.750000  0.424261  0.285792  1
  Tb  Tb3  1  0.750000  0.075739  0.785792  1
  Fe  Fe4  1  0.750000  0.774730  0.828824  1
  Fe  Fe5  1  0.750000  0.725270  0.328824  1
  Fe  Fe6  1  0.250000  0.870717  0.695883  1
  Fe  Fe7  1  0.250000  0.629283  0.195883  1
  Fe  Fe8  1  0.750000  0.123827  0.304078  1
  Fe  Fe9  1  0.750000  0.376173  0.804078  1
  Fe  Fe10  1  0.250000  0.460673  0.933582  1
  Fe  Fe11  1  0.250000  0.039327  0.433582  1
  Fe  Fe12  1  0.750000  0.545203  0.065370  1
  Fe  Fe13  1  0.750000  0.954797  0.565370  1
  P  P14  1  0.250000  0.447449  0.109734  1
  P  P15  1  0.250000  0.052551  0.609734  1
  P  P16  1  0.750000  0.565436  0.888257  1
  P  P17  1  0.750000  0.934564  0.388257  1
  P  P18  1  0.250000  0.275806  0.861902  1
  P  P19  1  0.250000  0.224194  0.361902  1
  P  P20  1  0.750000  0.724754  0.150737  1
  P  P21  1  0.750000  0.775246  0.650737  1
  P  P22  1  0.250000  0.612525  0.370729  1
  P  P23  1  0.250000  0.887475  0.870729  1
  P  P24  1  0.750000  0.402585  0.624967  1
  P  P25  1  0.750000  0.097415  0.124967  1
  Pd  Pd26  1  0.250000  0.709229  0.985283  1
  Pd  Pd27  1  0.250000  0.790771  0.485283  1
  Pd  Pd28  1  0.750000  0.286297  0.008711  1
  Pd  Pd29  1  0.750000  0.213703  0.508711  1
  Pd  Pd30  1  0.250000  0.413815  0.470696  1
  Pd  Pd31  1  0.250000  0.086185  0.970696  1
  Pd  Pd32  1  0.750000  0.598088  0.527289  1
  Pd  Pd33  1  0.750000  0.901912  0.027289  1
  Pd  Pd34  1  0.250000  0.230079  0.172959  1
  Pd  Pd35  1  0.250000  0.269921  0.672959  1
