# generated using pymatgen
data_Sm2HoPa3(Ni3Bi4)2
_symmetry_space_group_name_H-M   'P 1'
_cell_length_a   8.36706510
_cell_length_b   8.39260614
_cell_length_c   8.36706355
_cell_angle_alpha   109.75697997
_cell_angle_beta   109.20802964
_cell_angle_gamma   109.32508141
_symmetry_Int_Tables_number   1
_chemical_formula_structural   Sm2HoPa3(Ni3Bi4)2
_chemical_formula_sum   'Sm2 Ho1 Pa3 Ni6 Bi8'
_cell_volume   452.97413863
_cell_formula_units_Z   1
loop_
 _symmetry_equiv_pos_site_id
 _symmetry_equiv_pos_as_xyz
  1  'x, y, z'
loop_
 _atom_site_type_symbol
 _atom_site_label
 _atom_site_symmetry_multiplicity
 _atom_site_fract_x
 _atom_site_fract_y
 _atom_site_fract_z
 _atom_site_occupancy
  Sm  Sm0  1  0.251284  0.125545  0.876134  1
  Sm  Sm1  1  0.750590  0.374455  0.625739  1
  Ho  Ho2  1  0.627085  0.750000  0.377085  1
  Pa  Pa3  1  0.125768  0.878821  0.249665  1
  Pa  Pa4  1  0.370844  0.621179  0.746947  1
  Pa  Pa5  1  0.872111  0.250000  0.122111  1
  Ni  Ni6  1  0.640821  0.366109  0.242402  1
  Ni  Ni7  1  0.876293  0.133891  0.774712  1
  Ni  Ni8  1  0.367304  0.250000  0.617304  1
  Ni  Ni9  1  0.129764  0.750000  0.879764  1
  Ni  Ni10  1  0.237575  0.617207  0.371614  1
  Ni  Ni11  1  0.754406  0.882793  0.120368  1
  Bi  Bi12  1  0.339123  0.337829  0.332676  1
  Bi  Bi13  1  0.168910  0.502257  0.001914  1
  Bi  Bi14  1  0.994848  0.162171  0.501294  1
  Bi  Bi15  1  0.833129  0.831101  0.830945  1
  Bi  Bi16  1  0.499657  0.997743  0.166653  1
  Bi  Bi17  1  0.663437  0.502559  0.999765  1
  Bi  Bi18  1  0.497207  0.997441  0.660879  1
  Bi  Bi19  1  0.999844  0.668899  0.502029  1
