# generated using pymatgen
data_K2CuSe(BrO2)2
_symmetry_space_group_name_H-M   'P 1'
_cell_length_a   6.49053400
_cell_length_b   8.03952400
_cell_length_c   17.40061900
_cell_angle_alpha   90.00000000
_cell_angle_beta   90.00000000
_cell_angle_gamma   90.00000000
_symmetry_Int_Tables_number   1
_chemical_formula_structural   K2CuSe(BrO2)2
_chemical_formula_sum   'K8 Cu4 Se4 Br8 O16'
_cell_volume   907.97828718
_cell_formula_units_Z   4
loop_
 _symmetry_equiv_pos_site_id
 _symmetry_equiv_pos_as_xyz
  1  'x, y, z'
loop_
 _atom_site_type_symbol
 _atom_site_label
 _atom_site_symmetry_multiplicity
 _atom_site_fract_x
 _atom_site_fract_y
 _atom_site_fract_z
 _atom_site_occupancy
  K  K0  1  0.250000  0.378081  0.902871  1
  K  K1  1  0.250000  0.883963  0.217198  1
  K  K2  1  0.750000  0.616037  0.717198  1
  K  K3  1  0.750000  0.621919  0.097129  1
  K  K4  1  0.750000  0.121919  0.402871  1
  K  K5  1  0.250000  0.383963  0.282802  1
  K  K6  1  0.750000  0.116037  0.782802  1
  K  K7  1  0.250000  0.878081  0.597129  1
  Cu  Cu8  1  0.250000  0.378501  0.539950  1
  Cu  Cu9  1  0.750000  0.621499  0.460050  1
  Cu  Cu10  1  0.250000  0.878501  0.960050  1
  Cu  Cu11  1  0.750000  0.121499  0.039950  1
  Se  Se12  1  0.250000  0.369383  0.697803  1
  Se  Se13  1  0.750000  0.630617  0.302197  1
  Se  Se14  1  0.750000  0.130617  0.197803  1
  Se  Se15  1  0.250000  0.869383  0.802197  1
  Br  Br16  1  0.250000  0.156348  0.447124  1
  Br  Br17  1  0.250000  0.603905  0.450398  1
  Br  Br18  1  0.750000  0.396095  0.549602  1
  Br  Br19  1  0.250000  0.103905  0.049602  1
  Br  Br20  1  0.750000  0.843652  0.552876  1
  Br  Br21  1  0.750000  0.896095  0.950398  1
  Br  Br22  1  0.750000  0.343652  0.947124  1
  Br  Br23  1  0.250000  0.656348  0.052876  1
  O  O24  1  0.750000  0.785026  0.369352  1
  O  O25  1  0.250000  0.714974  0.869352  1
  O  O26  1  0.959464  0.132633  0.252715  1
  O  O27  1  0.750000  0.285026  0.130648  1
  O  O28  1  0.540536  0.132633  0.252715  1
  O  O29  1  0.250000  0.033541  0.864471  1
  O  O30  1  0.040536  0.867367  0.747285  1
  O  O31  1  0.750000  0.466459  0.364471  1
  O  O32  1  0.750000  0.966459  0.135529  1
  O  O33  1  0.459464  0.867367  0.747285  1
  O  O34  1  0.540536  0.632633  0.247285  1
  O  O35  1  0.250000  0.214974  0.630648  1
  O  O36  1  0.040536  0.367367  0.752715  1
  O  O37  1  0.459464  0.367367  0.752715  1
  O  O38  1  0.959464  0.632633  0.247285  1
  O  O39  1  0.250000  0.533541  0.635529  1
