# generated using pymatgen
data_Dy12Tc3Ni2Bi
_symmetry_space_group_name_H-M   'P 1'
_cell_length_a   8.42299319
_cell_length_b   8.42296910
_cell_length_c   8.42299297
_cell_angle_alpha   113.53977046
_cell_angle_beta   109.62592572
_cell_angle_gamma   105.35141485
_symmetry_Int_Tables_number   1
_chemical_formula_structural   Dy12Tc3Ni2Bi
_chemical_formula_sum   'Dy12 Tc3 Ni2 Bi1'
_cell_volume   457.67364083
_cell_formula_units_Z   1
loop_
 _symmetry_equiv_pos_site_id
 _symmetry_equiv_pos_as_xyz
  1  'x, y, z'
loop_
 _atom_site_type_symbol
 _atom_site_label
 _atom_site_symmetry_multiplicity
 _atom_site_fract_x
 _atom_site_fract_y
 _atom_site_fract_z
 _atom_site_occupancy
  Dy  Dy0  1  0.823549  0.730479  0.554033  1
  Dy  Dy1  1  0.176451  0.269521  0.445967  1
  Dy  Dy2  1  0.176447  0.730479  0.906930  1
  Dy  Dy3  1  0.823553  0.269521  0.093070  1
  Dy  Dy4  1  0.672019  0.356139  0.684123  1
  Dy  Dy5  1  0.327981  0.643861  0.315877  1
  Dy  Dy6  1  0.672009  0.987878  0.315869  1
  Dy  Dy7  1  0.327991  0.012122  0.684131  1
  Dy  Dy8  1  0.577548  0.769641  0.807928  1
  Dy  Dy9  1  0.422452  0.230359  0.192072  1
  Dy  Dy10  1  0.961713  0.769641  0.192093  1
  Dy  Dy11  1  0.038287  0.230359  0.807907  1
  Tc  Tc12  1  0.667235  0.000000  0.667235  1
  Tc  Tc13  1  0.332765  0.000000  0.332765  1
  Tc  Tc14  1  0.000000  0.000000  0.000000  1
  Ni  Ni15  1  0.113995  0.613984  0.499989  1
  Ni  Ni16  1  0.886005  0.386016  0.500011  1
  Bi  Bi17  1  0.500000  0.500000  0.000000  1
