# generated using pymatgen
data_Ta9MnS16
_symmetry_space_group_name_H-M   'P 1'
_cell_length_a   6.66559700
_cell_length_b   6.66559696
_cell_length_c   12.52362400
_cell_angle_alpha   90.00000000
_cell_angle_beta   90.00000000
_cell_angle_gamma   120.00000515
_symmetry_Int_Tables_number   1
_chemical_formula_structural   Ta9MnS16
_chemical_formula_sum   'Ta9 Mn1 S16'
_cell_volume   481.87981221
_cell_formula_units_Z   1
loop_
 _symmetry_equiv_pos_site_id
 _symmetry_equiv_pos_as_xyz
  1  'x, y, z'
loop_
 _atom_site_type_symbol
 _atom_site_label
 _atom_site_symmetry_multiplicity
 _atom_site_fract_x
 _atom_site_fract_y
 _atom_site_fract_z
 _atom_site_occupancy
  Ta  Ta0  1  0.505634  0.494366  0.749745  1
  Ta  Ta1  1  0.011266  0.505634  0.250255  1
  Ta  Ta2  1  0.494366  0.988734  0.250255  1
  Ta  Ta3  1  0.505634  0.011266  0.749745  1
  Ta  Ta4  1  0.988734  0.494366  0.749745  1
  Ta  Ta5  1  0.494366  0.505634  0.250255  1
  Ta  Ta6  1  0.000000  0.000000  0.751112  1
  Ta  Ta7  1  0.000000  0.000000  0.248888  1
  Ta  Ta8  1  0.000000  0.000000  0.500000  1
  Mn  Mn9  1  0.000000  0.000000  0.000000  1
  S  S10  1  0.833353  0.166647  0.376347  1
  S  S11  1  0.833353  0.666706  0.376347  1
  S  S12  1  0.333294  0.166647  0.376347  1
  S  S13  1  0.662534  0.831267  0.874869  1
  S  S14  1  0.166647  0.333294  0.623653  1
  S  S15  1  0.168733  0.831267  0.874869  1
  S  S16  1  0.168733  0.337466  0.874869  1
  S  S17  1  0.831267  0.168733  0.125131  1
  S  S18  1  0.337466  0.168733  0.125131  1
  S  S19  1  0.666706  0.833353  0.623653  1
  S  S20  1  0.333333  0.666667  0.122538  1
  S  S21  1  0.666667  0.333333  0.621436  1
  S  S22  1  0.666667  0.333333  0.877462  1
  S  S23  1  0.333333  0.666667  0.378564  1
  S  S24  1  0.831267  0.662534  0.125131  1
  S  S25  1  0.166647  0.833353  0.623653  1
