# generated using pymatgen
data_Pr2Nd10Ir3Pd
_symmetry_space_group_name_H-M   'P 1'
_cell_length_a   6.58559401
_cell_length_b   7.38215691
_cell_length_c   9.92028400
_cell_angle_alpha   90.00000000
_cell_angle_beta   90.00000000
_cell_angle_gamma   90.20738799
_symmetry_Int_Tables_number   1
_chemical_formula_structural   Pr2Nd10Ir3Pd
_chemical_formula_sum   'Pr2 Nd10 Ir3 Pd1'
_cell_volume   482.28025998
_cell_formula_units_Z   1
loop_
 _symmetry_equiv_pos_site_id
 _symmetry_equiv_pos_as_xyz
  1  'x, y, z'
loop_
 _atom_site_type_symbol
 _atom_site_label
 _atom_site_symmetry_multiplicity
 _atom_site_fract_x
 _atom_site_fract_y
 _atom_site_fract_z
 _atom_site_occupancy
  Pr  Pr0  1  0.857085  0.524114  0.250000  1
  Pr  Pr1  1  0.630362  0.036048  0.250000  1
  Nd  Nd2  1  0.335300  0.671389  0.062527  1
  Nd  Nd3  1  0.170825  0.181522  0.437906  1
  Nd  Nd4  1  0.672794  0.324572  0.566084  1
  Nd  Nd5  1  0.828975  0.824918  0.931899  1
  Nd  Nd6  1  0.672794  0.324572  0.933916  1
  Nd  Nd7  1  0.828975  0.824918  0.568101  1
  Nd  Nd8  1  0.335300  0.671389  0.437473  1
  Nd  Nd9  1  0.170825  0.181522  0.062094  1
  Nd  Nd10  1  0.139132  0.464846  0.750000  1
  Nd  Nd11  1  0.361217  0.965323  0.750000  1
  Ir  Ir12  1  0.431827  0.382306  0.250000  1
  Ir  Ir13  1  0.936278  0.118978  0.750000  1
  Ir  Ir14  1  0.560243  0.618480  0.750000  1
  Pd  Pd15  1  0.068070  0.885103  0.250000  1
