# generated using pymatgen
data_Tm5Lu3Re(B8Os)3
_symmetry_space_group_name_H-M   'P 1'
_cell_length_a   3.61399500
_cell_length_b   9.05561264
_cell_length_c   11.43177300
_cell_angle_alpha   90.08068573
_cell_angle_beta   90.00000000
_cell_angle_gamma   90.00000000
_symmetry_Int_Tables_number   1
_chemical_formula_structural   Tm5Lu3Re(B8Os)3
_chemical_formula_sum   'Tm5 Lu3 Re1 B24 Os3'
_cell_volume   374.12656459
_cell_formula_units_Z   1
loop_
 _symmetry_equiv_pos_site_id
 _symmetry_equiv_pos_as_xyz
  1  'x, y, z'
loop_
 _atom_site_type_symbol
 _atom_site_label
 _atom_site_symmetry_multiplicity
 _atom_site_fract_x
 _atom_site_fract_y
 _atom_site_fract_z
 _atom_site_occupancy
  Tm  Tm0  1  0.000000  0.321531  0.414998  1
  Tm  Tm1  1  0.000000  0.681142  0.588341  1
  Tm  Tm2  1  0.000000  0.821680  0.083431  1
  Tm  Tm3  1  0.000000  0.177105  0.913146  1
  Tm  Tm4  1  0.000000  0.943643  0.372401  1
  Lu  Lu5  1  0.000000  0.055680  0.627586  1
  Lu  Lu6  1  0.000000  0.443246  0.127387  1
  Lu  Lu7  1  0.000000  0.556261  0.872995  1
  Re  Re8  1  0.000000  0.862277  0.821071  1
  B  B9  1  0.500000  0.553564  0.433817  1
  B  B10  1  0.500000  0.446552  0.566493  1
  B  B11  1  0.500000  0.053451  0.066776  1
  B  B12  1  0.500000  0.947317  0.933699  1
  B  B13  1  0.500000  0.749215  0.420067  1
  B  B14  1  0.500000  0.250575  0.579821  1
  B  B15  1  0.500000  0.249171  0.080130  1
  B  B16  1  0.500000  0.750317  0.919854  1
  B  B17  1  0.500000  0.791194  0.265496  1
  B  B18  1  0.500000  0.208208  0.733616  1
  B  B19  1  0.500000  0.292053  0.234344  1
  B  B20  1  0.500000  0.707424  0.765640  1
  B  B21  1  0.500000  0.630378  0.184495  1
  B  B22  1  0.500000  0.369067  0.815026  1
  B  B23  1  0.500000  0.131318  0.315483  1
  B  B24  1  0.500000  0.869366  0.684741  1
  B  B25  1  0.500000  0.982075  0.212733  1
  B  B26  1  0.500000  0.019080  0.786972  1
  B  B27  1  0.500000  0.481700  0.287425  1
  B  B28  1  0.500000  0.518236  0.712939  1
  B  B29  1  0.500000  0.603741  0.029375  1
  B  B30  1  0.500000  0.394629  0.971122  1
  B  B31  1  0.500000  0.105529  0.470868  1
  B  B32  1  0.500000  0.895344  0.528820  1
  Os  Os33  1  0.000000  0.637052  0.321039  1
  Os  Os34  1  0.000000  0.362579  0.678449  1
  Os  Os35  1  0.000000  0.138302  0.179398  1
