# generated using pymatgen
data_CaY2Er2P12Ir16Os3
_symmetry_space_group_name_H-M   'P 1'
_cell_length_a   12.68286100
_cell_length_b   12.68286054
_cell_length_c   3.98962800
_cell_angle_alpha   90.00000000
_cell_angle_beta   90.00000000
_cell_angle_gamma   120.00000381
_symmetry_Int_Tables_number   1
_chemical_formula_structural   CaY2Er2P12Ir16Os3
_chemical_formula_sum   'Ca1 Y2 Er2 P12 Ir16 Os3'
_cell_volume   555.77303010
_cell_formula_units_Z   1
loop_
 _symmetry_equiv_pos_site_id
 _symmetry_equiv_pos_as_xyz
  1  'x, y, z'
loop_
 _atom_site_type_symbol
 _atom_site_label
 _atom_site_symmetry_multiplicity
 _atom_site_fract_x
 _atom_site_fract_y
 _atom_site_fract_z
 _atom_site_occupancy
  Ca  Ca0  1  0.817079  0.817079  0.500000  1
  Y  Y1  1  0.182967  0.000097  0.500000  1
  Y  Y2  1  0.000097  0.182967  0.500000  1
  Er  Er3  1  0.666374  0.332850  0.000000  1
  Er  Er4  1  0.332850  0.666374  0.000000  1
  P  P5  1  0.690458  0.171524  0.500000  1
  P  P6  1  0.828233  0.519355  0.500000  1
  P  P7  1  0.481183  0.309767  0.500000  1
  P  P8  1  0.171524  0.690458  0.500000  1
  P  P9  1  0.519355  0.828233  0.500000  1
  P  P10  1  0.309767  0.481183  0.500000  1
  P  P11  1  0.641891  0.641891  0.000000  1
  P  P12  1  0.358490  0.999962  0.000000  1
  P  P13  1  0.999962  0.358490  0.000000  1
  P  P14  1  0.182056  0.182056  0.000000  1
  P  P15  1  0.818535  0.999255  0.000000  1
  P  P16  1  0.999255  0.818535  0.000000  1
  Ir  Ir17  1  0.804791  0.183300  0.000000  1
  Ir  Ir18  1  0.816853  0.619011  0.000000  1
  Ir  Ir19  1  0.378845  0.195392  0.000000  1
  Ir  Ir20  1  0.183300  0.804791  0.000000  1
  Ir  Ir21  1  0.619011  0.816853  0.000000  1
  Ir  Ir22  1  0.195392  0.378845  0.000000  1
  Ir  Ir23  1  0.460111  0.460111  0.000000  1
  Ir  Ir24  1  0.540069  0.999954  0.000000  1
  Ir  Ir25  1  0.999954  0.540069  0.000000  1
  Ir  Ir26  1  0.867679  0.363265  0.500000  1
  Ir  Ir27  1  0.636548  0.504777  0.500000  1
  Ir  Ir28  1  0.495229  0.132121  0.500000  1
  Ir  Ir29  1  0.363265  0.867679  0.500000  1
  Ir  Ir30  1  0.504777  0.636548  0.500000  1
  Ir  Ir31  1  0.132121  0.495229  0.500000  1
  Ir  Ir32  1  0.001625  0.001625  0.000000  1
  Os  Os33  1  0.286332  0.286332  0.500000  1
  Os  Os34  1  0.713206  0.000817  0.500000  1
  Os  Os35  1  0.000817  0.713206  0.500000  1
