# generated using pymatgen
data_Nd3Dy16TmBi12
_symmetry_space_group_name_H-M   'P 1'
_cell_length_a   8.35075609
_cell_length_b   9.56431500
_cell_length_c   12.24835900
_cell_angle_alpha   90.00000000
_cell_angle_beta   89.97073720
_cell_angle_gamma   90.00000000
_symmetry_Int_Tables_number   1
_chemical_formula_structural   Nd3Dy16TmBi12
_chemical_formula_sum   'Nd3 Dy16 Tm1 Bi12'
_cell_volume   978.26726308
_cell_formula_units_Z   1
loop_
 _symmetry_equiv_pos_site_id
 _symmetry_equiv_pos_as_xyz
  1  'x, y, z'
loop_
 _atom_site_type_symbol
 _atom_site_label
 _atom_site_symmetry_multiplicity
 _atom_site_fract_x
 _atom_site_fract_y
 _atom_site_fract_z
 _atom_site_occupancy
  Nd  Nd0  1  0.181310  0.250000  0.781569  1
  Nd  Nd1  1  0.819452  0.750000  0.218580  1
  Nd  Nd2  1  0.318456  0.750000  0.281100  1
  Dy  Dy3  1  0.021721  0.250000  0.514310  1
  Dy  Dy4  1  0.976446  0.750000  0.488288  1
  Dy  Dy5  1  0.479016  0.750000  0.011567  1
  Dy  Dy6  1  0.522472  0.250000  0.986670  1
  Dy  Dy7  1  0.352282  0.250000  0.283380  1
  Dy  Dy8  1  0.648427  0.750000  0.717812  1
  Dy  Dy9  1  0.147336  0.750000  0.781009  1
  Dy  Dy10  1  0.851232  0.250000  0.217619  1
  Dy  Dy11  1  0.189567  0.064379  0.061533  1
  Dy  Dy12  1  0.810724  0.936108  0.937960  1
  Dy  Dy13  1  0.308198  0.936493  0.561448  1
  Dy  Dy14  1  0.810724  0.563892  0.937960  1
  Dy  Dy15  1  0.690720  0.063623  0.439249  1
  Dy  Dy16  1  0.189567  0.435621  0.061533  1
  Dy  Dy17  1  0.690720  0.436377  0.439249  1
  Dy  Dy18  1  0.308198  0.563507  0.561448  1
  Tm  Tm19  1  0.683343  0.250000  0.715790  1
  Bi  Bi20  1  0.407788  0.250000  0.540282  1
  Bi  Bi21  1  0.594531  0.750000  0.463458  1
  Bi  Bi22  1  0.097110  0.750000  0.036126  1
  Bi  Bi23  1  0.902141  0.250000  0.961860  1
  Bi  Bi24  1  0.066556  0.008489  0.329355  1
  Bi  Bi25  1  0.929207  0.994492  0.672738  1
  Bi  Bi26  1  0.437306  0.994505  0.826544  1
  Bi  Bi27  1  0.929207  0.505508  0.672738  1
  Bi  Bi28  1  0.566189  0.008140  0.171464  1
  Bi  Bi29  1  0.066556  0.491511  0.329355  1
  Bi  Bi30  1  0.566189  0.491860  0.171464  1
  Bi  Bi31  1  0.437306  0.505495  0.826544  1
