# generated using pymatgen
data_Ho3Er5Sc12Ga7Si9
_symmetry_space_group_name_H-M   'P 1'
_cell_length_a   7.14471556
_cell_length_b   7.39719172
_cell_length_c   14.22602608
_cell_angle_alpha   90.00312541
_cell_angle_beta   89.94402911
_cell_angle_gamma   90.02959371
_symmetry_Int_Tables_number   1
_chemical_formula_structural   Ho3Er5Sc12Ga7Si9
_chemical_formula_sum   'Ho3 Er5 Sc12 Ga7 Si9'
_cell_volume   751.85683594
_cell_formula_units_Z   1
loop_
 _symmetry_equiv_pos_site_id
 _symmetry_equiv_pos_as_xyz
  1  'x, y, z'
loop_
 _atom_site_type_symbol
 _atom_site_label
 _atom_site_symmetry_multiplicity
 _atom_site_fract_x
 _atom_site_fract_y
 _atom_site_fract_z
 _atom_site_occupancy
  Ho  Ho0  1  0.012458  0.174048  0.098681  1
  Ho  Ho1  1  0.989731  0.823609  0.901509  1
  Ho  Ho2  1  0.488357  0.676443  0.901634  1
  Er  Er3  1  0.989458  0.823828  0.599537  1
  Er  Er4  1  0.510424  0.322763  0.098852  1
  Er  Er5  1  0.010272  0.175832  0.400420  1
  Er  Er6  1  0.510792  0.323702  0.400422  1
  Er  Er7  1  0.489415  0.676166  0.599457  1
  Sc  Sc8  1  0.163729  0.503214  0.749879  1
  Sc  Sc9  1  0.836889  0.497592  0.249912  1
  Sc  Sc10  1  0.336190  0.003124  0.249004  1
  Sc  Sc11  1  0.663326  0.997191  0.749654  1
  Sc  Sc12  1  0.330128  0.173838  0.625778  1
  Sc  Sc13  1  0.669578  0.826435  0.374044  1
  Sc  Sc14  1  0.169785  0.674109  0.373870  1
  Sc  Sc15  1  0.668251  0.825064  0.126140  1
  Sc  Sc16  1  0.829785  0.326130  0.626034  1
  Sc  Sc17  1  0.329583  0.174328  0.874932  1
  Sc  Sc18  1  0.829045  0.326119  0.874336  1
  Sc  Sc19  1  0.172081  0.675921  0.125114  1
  Ga  Ga20  1  0.161082  0.464003  0.539720  1
  Ga  Ga21  1  0.838971  0.535950  0.460202  1
  Ga  Ga22  1  0.338529  0.963691  0.460340  1
  Ga  Ga23  1  0.838830  0.537315  0.040181  1
  Ga  Ga24  1  0.661401  0.036162  0.539561  1
  Ga  Ga25  1  0.160584  0.463077  0.960580  1
  Ga  Ga26  1  0.659606  0.037022  0.960955  1
  Si  Si27  1  0.032043  0.113219  0.750667  1
  Si  Si28  1  0.967601  0.886010  0.249652  1
  Si  Si29  1  0.467348  0.613021  0.249544  1
  Si  Si30  1  0.532232  0.386338  0.750147  1
  Si  Si31  1  0.284235  0.873907  0.750401  1
  Si  Si32  1  0.715990  0.126395  0.249347  1
  Si  Si33  1  0.215558  0.373183  0.249677  1
  Si  Si34  1  0.784166  0.626589  0.750279  1
  Si  Si35  1  0.342547  0.964658  0.039535  1
