# generated using pymatgen
data_Ce2BPtRh5
_symmetry_space_group_name_H-M   'P 1'
_cell_length_a   5.92065780
_cell_length_b   5.86754797
_cell_length_c   5.86754757
_cell_angle_alpha   60.59975341
_cell_angle_beta   59.70012497
_cell_angle_gamma   59.70012554
_symmetry_Int_Tables_number   1
_chemical_formula_structural   Ce2BPtRh5
_chemical_formula_sum   'Ce2 B1 Pt1 Rh5'
_cell_volume   144.11076456
_cell_formula_units_Z   1
loop_
 _symmetry_equiv_pos_site_id
 _symmetry_equiv_pos_as_xyz
  1  'x, y, z'
loop_
 _atom_site_type_symbol
 _atom_site_label
 _atom_site_symmetry_multiplicity
 _atom_site_fract_x
 _atom_site_fract_y
 _atom_site_fract_z
 _atom_site_occupancy
  Ce  Ce0  1  0.250145  0.249853  0.249853  1
  Ce  Ce1  1  0.750145  0.749853  0.749853  1
  B  B2  1  0.002422  0.997578  0.997578  1
  Pt  Pt3  1  0.741360  0.258640  0.258640  1
  Rh  Rh4  1  0.744764  0.745328  0.255236  1
  Rh  Rh5  1  0.254672  0.745328  0.255236  1
  Rh  Rh6  1  0.257053  0.742947  0.742947  1
  Rh  Rh7  1  0.254672  0.255236  0.745328  1
  Rh  Rh8  1  0.744764  0.255236  0.745328  1
