# generated using pymatgen
data_Tm5Zr3(Nb2Sn5)2
_symmetry_space_group_name_H-M   'P 1'
_cell_length_a   10.85527183
_cell_length_b   10.87623142
_cell_length_c   10.87623200
_cell_angle_alpha   149.33724613
_cell_angle_beta   131.55871169
_cell_angle_gamma   58.44605290
_symmetry_Int_Tables_number   1
_chemical_formula_structural   Tm5Zr3(Nb2Sn5)2
_chemical_formula_sum   'Tm5 Zr3 Nb4 Sn10'
_cell_volume   486.23832322
_cell_formula_units_Z   1
loop_
 _symmetry_equiv_pos_site_id
 _symmetry_equiv_pos_as_xyz
  1  'x, y, z'
loop_
 _atom_site_type_symbol
 _atom_site_label
 _atom_site_symmetry_multiplicity
 _atom_site_fract_x
 _atom_site_fract_y
 _atom_site_fract_z
 _atom_site_occupancy
  Tm  Tm0  1  0.800868  0.063748  0.737119  1
  Tm  Tm1  1  0.258399  0.146411  0.111990  1
  Tm  Tm2  1  0.742576  0.854374  0.888200  1
  Tm  Tm3  1  0.034275  0.646183  0.388091  1
  Tm  Tm4  1  0.966439  0.354282  0.612157  1
  Zr  Zr5  1  0.673524  0.436400  0.237123  1
  Zr  Zr6  1  0.326104  0.563087  0.763017  1
  Zr  Zr7  1  0.201596  0.936725  0.264872  1
  Nb  Nb8  1  0.308185  0.558238  0.250024  1
  Nb  Nb9  1  0.690643  0.441510  0.748851  1
  Nb  Nb10  1  0.690643  0.941794  0.249133  1
  Nb  Nb11  1  0.308185  0.058160  0.749947  1
  Sn  Sn12  1  0.583478  0.287601  0.295877  1
  Sn  Sn13  1  0.416337  0.712595  0.703743  1
  Sn  Sn14  1  0.991044  0.787872  0.203171  1
  Sn  Sn15  1  0.010294  0.214336  0.795957  1
  Sn  Sn16  1  0.001495  0.249982  0.254018  1
  Sn  Sn17  1  0.001495  0.747477  0.751512  1
  Sn  Sn18  1  0.467652  0.070295  0.397355  1
  Sn  Sn19  1  0.527221  0.928522  0.598700  1
  Sn  Sn20  1  0.668656  0.570499  0.098157  1
  Sn  Sn21  1  0.330889  0.429905  0.900984  1
