# generated using pymatgen
data_Na4Hf6NCl18
_symmetry_space_group_name_H-M   'P 1'
_cell_length_a   9.63030509
_cell_length_b   9.61157390
_cell_length_c   9.66013356
_cell_angle_alpha   118.76166061
_cell_angle_beta   100.04793295
_cell_angle_gamma   102.72737080
_symmetry_Int_Tables_number   1
_chemical_formula_structural   Na4Hf6NCl18
_chemical_formula_sum   'Na4 Hf6 N1 Cl18'
_cell_volume   722.28927846
_cell_formula_units_Z   1
loop_
 _symmetry_equiv_pos_site_id
 _symmetry_equiv_pos_as_xyz
  1  'x, y, z'
loop_
 _atom_site_type_symbol
 _atom_site_label
 _atom_site_symmetry_multiplicity
 _atom_site_fract_x
 _atom_site_fract_y
 _atom_site_fract_z
 _atom_site_occupancy
  Na  Na0  1  0.155217  0.716431  0.551369  1
  Na  Na1  1  0.870951  0.970647  0.783313  1
  Na  Na2  1  0.129049  0.029353  0.216687  1
  Na  Na3  1  0.844783  0.283569  0.448631  1
  Hf  Hf4  1  0.348026  0.446075  0.765943  1
  Hf  Hf5  1  0.363595  0.637730  0.143258  1
  Hf  Hf6  1  0.645768  0.739902  0.042975  1
  Hf  Hf7  1  0.651974  0.553925  0.234057  1
  Hf  Hf8  1  0.354232  0.260098  0.957025  1
  Hf  Hf9  1  0.636405  0.362270  0.856742  1
  N  N10  1  0.500000  0.500000  0.000000  1
  Cl  Cl11  1  0.824014  0.409903  0.105433  1
  Cl  Cl12  1  0.519390  0.713364  0.424946  1
  Cl  Cl13  1  0.170178  0.975716  0.901630  1
  Cl  Cl14  1  0.175986  0.590097  0.894567  1
  Cl  Cl15  1  0.833859  0.835100  0.316047  1
  Cl  Cl16  1  0.506396  0.290710  0.216200  1
  Cl  Cl17  1  0.793581  0.201813  0.691287  1
  Cl  Cl18  1  0.166141  0.164900  0.683953  1
  Cl  Cl19  1  0.512507  0.924981  0.206768  1
  Cl  Cl20  1  0.817514  0.618713  0.890378  1
  Cl  Cl21  1  0.206419  0.798187  0.308713  1
  Cl  Cl22  1  0.159038  0.382160  0.489045  1
  Cl  Cl23  1  0.493604  0.709290  0.783800  1
  Cl  Cl24  1  0.829822  0.024284  0.098370  1
  Cl  Cl25  1  0.480610  0.286636  0.575054  1
  Cl  Cl26  1  0.182486  0.381287  0.109622  1
  Cl  Cl27  1  0.840962  0.617840  0.510955  1
  Cl  Cl28  1  0.487493  0.075019  0.793232  1
