# generated using pymatgen
data_Nd12Ga3AsI12
_symmetry_space_group_name_H-M   'P 1'
_cell_length_a   10.86900172
_cell_length_b   10.85425441
_cell_length_c   10.85422955
_cell_angle_alpha   109.44366222
_cell_angle_beta   109.49988039
_cell_angle_gamma   109.49938753
_symmetry_Int_Tables_number   1
_chemical_formula_structural   Nd12Ga3AsI12
_chemical_formula_sum   'Nd12 Ga3 As1 I12'
_cell_volume   985.39349597
_cell_formula_units_Z   1
loop_
 _symmetry_equiv_pos_site_id
 _symmetry_equiv_pos_as_xyz
  1  'x, y, z'
loop_
 _atom_site_type_symbol
 _atom_site_label
 _atom_site_symmetry_multiplicity
 _atom_site_fract_x
 _atom_site_fract_y
 _atom_site_fract_z
 _atom_site_occupancy
  Nd  Nd0  1  0.468739  0.484538  0.234028  1
  Nd  Nd1  1  0.750000  0.235449  0.264555  1
  Nd  Nd2  1  0.750000  0.014127  0.485872  1
  Nd  Nd3  1  0.235862  0.471742  0.485867  1
  Nd  Nd4  1  0.265262  0.749483  0.233977  1
  Nd  Nd5  1  0.031260  0.265973  0.015463  1
  Nd  Nd6  1  0.014561  0.029126  0.264563  1
  Nd  Nd7  1  0.484212  0.749475  0.015499  1
  Nd  Nd8  1  0.485439  0.235434  0.470874  1
  Nd  Nd9  1  0.015791  0.484498  0.750524  1
  Nd  Nd10  1  0.264145  0.014139  0.028261  1
  Nd  Nd11  1  0.234736  0.266022  0.750517  1
  Ga  Ga12  1  0.249997  0.250163  0.249838  1
  Ga  Ga13  1  0.499845  0.999686  0.249845  1
  Ga  Ga14  1  0.000155  0.250154  0.500312  1
  As  As15  1  0.250001  0.499993  0.000008  1
  I  I16  1  0.249994  0.756748  0.743250  1
  I  I17  1  0.514730  0.507613  0.758016  1
  I  I18  1  0.985273  0.741982  0.992387  1
  I  I19  1  0.743283  0.250405  0.758046  1
  I  I20  1  0.993274  0.986521  0.743258  1
  I  I21  1  0.249997  0.992376  0.507621  1
  I  I22  1  0.757641  0.515260  0.507648  1
  I  I23  1  0.507139  0.250407  0.992367  1
  I  I24  1  0.756715  0.741955  0.249595  1
  I  I25  1  0.742367  0.992360  0.984740  1
  I  I26  1  0.992855  0.507629  0.249587  1
  I  I27  1  0.506726  0.756741  0.513478  1
