# generated using pymatgen
data_Ac2GaSiPb
_symmetry_space_group_name_H-M   'P 1'
_cell_length_a   8.10742800
_cell_length_b   8.10742869
_cell_length_c   4.48486100
_cell_angle_alpha   90.00000000
_cell_angle_beta   90.00000000
_cell_angle_gamma   149.56112732
_symmetry_Int_Tables_number   1
_chemical_formula_structural   Ac2GaSiPb
_chemical_formula_sum   'Ac2 Ga1 Si1 Pb1'
_cell_volume   149.34701579
_cell_formula_units_Z   1
loop_
 _symmetry_equiv_pos_site_id
 _symmetry_equiv_pos_as_xyz
  1  'x, y, z'
loop_
 _atom_site_type_symbol
 _atom_site_label
 _atom_site_symmetry_multiplicity
 _atom_site_fract_x
 _atom_site_fract_y
 _atom_site_fract_z
 _atom_site_occupancy
  Ac  Ac0  1  0.365159  0.634841  0.500000  1
  Ac  Ac1  1  0.634815  0.365185  0.500000  1
  Ga  Ga2  1  0.206023  0.793977  0.000000  1
  Si  Si3  1  0.792660  0.207340  0.000000  1
  Pb  Pb4  1  0.001343  0.998657  0.000000  1
