# generated using pymatgen
data_Ho16MgCd3PdPt3
_symmetry_space_group_name_H-M   'P 1'
_cell_length_a   9.66202819
_cell_length_b   9.66202894
_cell_length_c   9.66202818
_cell_angle_alpha   59.99780497
_cell_angle_beta   59.99780375
_cell_angle_gamma   59.99780393
_symmetry_Int_Tables_number   1
_chemical_formula_structural   Ho16MgCd3PdPt3
_chemical_formula_sum   'Ho16 Mg1 Cd3 Pd1 Pt3'
_cell_volume   637.77620840
_cell_formula_units_Z   1
loop_
 _symmetry_equiv_pos_site_id
 _symmetry_equiv_pos_as_xyz
  1  'x, y, z'
loop_
 _atom_site_type_symbol
 _atom_site_label
 _atom_site_symmetry_multiplicity
 _atom_site_fract_x
 _atom_site_fract_y
 _atom_site_fract_z
 _atom_site_occupancy
  Ho  Ho0  1  0.600156  0.600156  0.600156  1
  Ho  Ho1  1  0.604089  0.604089  0.192637  1
  Ho  Ho2  1  0.604089  0.192637  0.604089  1
  Ho  Ho3  1  0.192637  0.604089  0.604089  1
  Ho  Ho4  1  0.058495  0.440859  0.440859  1
  Ho  Ho5  1  0.438736  0.061974  0.061974  1
  Ho  Ho6  1  0.440859  0.058495  0.440859  1
  Ho  Ho7  1  0.061974  0.438736  0.061974  1
  Ho  Ho8  1  0.440859  0.440859  0.058495  1
  Ho  Ho9  1  0.061974  0.061974  0.438736  1
  Ho  Ho10  1  0.184942  0.816599  0.816599  1
  Ho  Ho11  1  0.815166  0.185771  0.185771  1
  Ho  Ho12  1  0.816599  0.184942  0.816599  1
  Ho  Ho13  1  0.185771  0.815166  0.185771  1
  Ho  Ho14  1  0.816599  0.816599  0.184942  1
  Ho  Ho15  1  0.185771  0.185771  0.815166  1
  Mg  Mg16  1  0.826930  0.826930  0.826930  1
  Cd  Cd17  1  0.831326  0.831326  0.503179  1
  Cd  Cd18  1  0.831326  0.503179  0.831326  1
  Cd  Cd19  1  0.503179  0.831326  0.831326  1
  Pd  Pd20  1  0.394196  0.394196  0.394196  1
  Pt  Pt21  1  0.391832  0.391832  0.820661  1
  Pt  Pt22  1  0.391832  0.820661  0.391832  1
  Pt  Pt23  1  0.820661  0.391832  0.391832  1
