# generated using pymatgen
data_Y4Mg4Mn3H22
_symmetry_space_group_name_H-M   'P 1'
_cell_length_a   6.59831100
_cell_length_b   6.59831100
_cell_length_c   6.59831100
_cell_angle_alpha   90.00000000
_cell_angle_beta   90.00000000
_cell_angle_gamma   90.00000000
_symmetry_Int_Tables_number   1
_chemical_formula_structural   Y4Mg4Mn3H22
_chemical_formula_sum   'Y4 Mg4 Mn3 H22'
_cell_volume   287.27533796
_cell_formula_units_Z   1
loop_
 _symmetry_equiv_pos_site_id
 _symmetry_equiv_pos_as_xyz
  1  'x, y, z'
loop_
 _atom_site_type_symbol
 _atom_site_label
 _atom_site_symmetry_multiplicity
 _atom_site_fract_x
 _atom_site_fract_y
 _atom_site_fract_z
 _atom_site_occupancy
  Y  Y0  1  0.284376  0.284376  0.715624  1
  Y  Y1  1  0.284376  0.715624  0.284376  1
  Y  Y2  1  0.715624  0.284376  0.284376  1
  Y  Y3  1  0.715624  0.715624  0.715624  1
  Mg  Mg4  1  0.786460  0.786460  0.213540  1
  Mg  Mg5  1  0.786460  0.213540  0.786460  1
  Mg  Mg6  1  0.213540  0.786460  0.786460  1
  Mg  Mg7  1  0.213540  0.213540  0.213540  1
  Mn  Mn8  1  0.000000  0.000000  0.500000  1
  Mn  Mn9  1  0.000000  0.500000  0.000000  1
  Mn  Mn10  1  0.500000  0.000000  0.000000  1
  H  H11  1  0.000000  0.500000  0.248606  1
  H  H12  1  0.500000  0.751394  0.000000  1
  H  H13  1  0.751394  0.000000  0.500000  1
  H  H14  1  0.000000  0.751394  0.500000  1
  H  H15  1  0.500000  0.000000  0.248606  1
  H  H16  1  0.751394  0.500000  0.000000  1
  H  H17  1  0.000000  0.500000  0.751394  1
  H  H18  1  0.500000  0.248606  0.000000  1
  H  H19  1  0.000000  0.248606  0.500000  1
  H  H20  1  0.500000  0.000000  0.751394  1
  H  H21  1  0.248606  0.000000  0.500000  1
  H  H22  1  0.248606  0.500000  0.000000  1
  H  H23  1  0.000000  0.000000  0.253747  1
  H  H24  1  0.000000  0.746253  0.000000  1
  H  H25  1  0.746253  0.000000  0.000000  1
  H  H26  1  0.000000  0.000000  0.746253  1
  H  H27  1  0.000000  0.253747  0.000000  1
  H  H28  1  0.253747  0.000000  0.000000  1
  H  H29  1  0.621281  0.621281  0.378719  1
  H  H30  1  0.621281  0.378719  0.621281  1
  H  H31  1  0.378719  0.621281  0.621281  1
  H  H32  1  0.378719  0.378719  0.378719  1
