# generated using pymatgen
data_SmTh3(AlRe3)2
_symmetry_space_group_name_H-M   'P 1'
_cell_length_a   5.49606400
_cell_length_b   5.49606396
_cell_length_c   9.13651700
_cell_angle_alpha   90.00000000
_cell_angle_beta   90.00000000
_cell_angle_gamma   120.00000023
_symmetry_Int_Tables_number   1
_chemical_formula_structural   SmTh3(AlRe3)2
_chemical_formula_sum   'Sm1 Th3 Al2 Re6'
_cell_volume   239.00933132
_cell_formula_units_Z   1
loop_
 _symmetry_equiv_pos_site_id
 _symmetry_equiv_pos_as_xyz
  1  'x, y, z'
loop_
 _atom_site_type_symbol
 _atom_site_label
 _atom_site_symmetry_multiplicity
 _atom_site_fract_x
 _atom_site_fract_y
 _atom_site_fract_z
 _atom_site_occupancy
  Sm  Sm0  1  0.333333  0.666667  0.067367  1
  Th  Th1  1  0.333333  0.666667  0.430075  1
  Th  Th2  1  0.666667  0.333333  0.569922  1
  Th  Th3  1  0.666667  0.333333  0.931327  1
  Al  Al4  1  0.000000  0.000000  0.499766  1
  Al  Al5  1  0.000000  0.000000  0.000627  1
  Re  Re6  1  0.830256  0.169744  0.249856  1
  Re  Re7  1  0.830256  0.660511  0.249856  1
  Re  Re8  1  0.339489  0.169744  0.249856  1
  Re  Re9  1  0.169570  0.830430  0.750449  1
  Re  Re10  1  0.169570  0.339141  0.750449  1
  Re  Re11  1  0.660859  0.830430  0.750449  1
