# generated using pymatgen
data_Sr4MgRuO8
_symmetry_space_group_name_H-M   'P 1'
_cell_length_a   6.98283871
_cell_length_b   6.98283942
_cell_length_c   5.57225100
_cell_angle_alpha   90.00000000
_cell_angle_beta   90.00000000
_cell_angle_gamma   133.04607790
_symmetry_Int_Tables_number   1
_chemical_formula_structural   Sr4MgRuO8
_chemical_formula_sum   'Sr4 Mg1 Ru1 O8'
_cell_volume   198.56204772
_cell_formula_units_Z   1
loop_
 _symmetry_equiv_pos_site_id
 _symmetry_equiv_pos_as_xyz
  1  'x, y, z'
loop_
 _atom_site_type_symbol
 _atom_site_label
 _atom_site_symmetry_multiplicity
 _atom_site_fract_x
 _atom_site_fract_y
 _atom_site_fract_z
 _atom_site_occupancy
  Sr  Sr0  1  0.646897  0.353103  0.000000  1
  Sr  Sr1  1  0.145029  0.854971  0.500000  1
  Sr  Sr2  1  0.854971  0.145029  0.500000  1
  Sr  Sr3  1  0.353103  0.646897  0.000000  1
  Mg  Mg4  1  0.000000  0.000000  0.000000  1
  Ru  Ru5  1  0.500000  0.500000  0.500000  1
  O  O6  1  0.743660  0.743660  0.258492  1
  O  O7  1  0.256340  0.256340  0.741508  1
  O  O8  1  0.256340  0.256340  0.258492  1
  O  O9  1  0.743660  0.743660  0.741508  1
  O  O10  1  0.835223  0.164777  0.000000  1
  O  O11  1  0.341100  0.658900  0.500000  1
  O  O12  1  0.658900  0.341100  0.500000  1
  O  O13  1  0.164777  0.835223  0.000000  1
