# generated using pymatgen
data_Th3GaPt2RhAu2
_symmetry_space_group_name_H-M   'P 1'
_cell_length_a   7.54291200
_cell_length_b   7.69850238
_cell_length_c   3.88762700
_cell_angle_alpha   90.00000000
_cell_angle_beta   90.00000000
_cell_angle_gamma   119.33367342
_symmetry_Int_Tables_number   1
_chemical_formula_structural   Th3GaPt2RhAu2
_chemical_formula_sum   'Th3 Ga1 Pt2 Rh1 Au2'
_cell_volume   196.80563576
_cell_formula_units_Z   1
loop_
 _symmetry_equiv_pos_site_id
 _symmetry_equiv_pos_as_xyz
  1  'x, y, z'
loop_
 _atom_site_type_symbol
 _atom_site_label
 _atom_site_symmetry_multiplicity
 _atom_site_fract_x
 _atom_site_fract_y
 _atom_site_fract_z
 _atom_site_occupancy
  Th  Th0  1  0.008407  0.392129  0.500000  1
  Th  Th1  1  0.616278  0.607871  0.500000  1
  Th  Th2  1  0.386074  0.000000  0.500000  1
  Ga  Ga3  1  0.739099  0.000000  0.000000  1
  Pt  Pt4  1  0.356178  0.682341  0.000000  1
  Pt  Pt5  1  0.673838  0.317659  0.000000  1
  Rh  Rh6  1  0.955312  0.000000  0.500000  1
  Au  Au7  1  0.002846  0.740881  0.000000  1
  Au  Au8  1  0.261966  0.259119  0.000000  1
