# generated using pymatgen
data_Sc4ReSi3H
_symmetry_space_group_name_H-M   'P 1'
_cell_length_a   7.73098900
_cell_length_b   7.73098850
_cell_length_c   5.43997600
_cell_angle_alpha   90.00000000
_cell_angle_beta   90.00000000
_cell_angle_gamma   120.00000643
_symmetry_Int_Tables_number   1
_chemical_formula_structural   Sc4ReSi3H
_chemical_formula_sum   'Sc8 Re2 Si6 H2'
_cell_volume   281.57731904
_cell_formula_units_Z   2
loop_
 _symmetry_equiv_pos_site_id
 _symmetry_equiv_pos_as_xyz
  1  'x, y, z'
loop_
 _atom_site_type_symbol
 _atom_site_label
 _atom_site_symmetry_multiplicity
 _atom_site_fract_x
 _atom_site_fract_y
 _atom_site_fract_z
 _atom_site_occupancy
  Sc  Sc0  1  0.333333  0.666667  0.500000  1
  Sc  Sc1  1  0.666667  0.333333  0.500000  1
  Sc  Sc2  1  0.752796  0.752796  0.755407  1
  Sc  Sc3  1  0.247204  0.000000  0.755407  1
  Sc  Sc4  1  0.000000  0.247204  0.755407  1
  Sc  Sc5  1  0.247204  0.247204  0.244593  1
  Sc  Sc6  1  0.752796  0.000000  0.244593  1
  Sc  Sc7  1  0.000000  0.752796  0.244593  1
  Re  Re8  1  0.666667  0.333333  0.000000  1
  Re  Re9  1  0.333333  0.666667  0.000000  1
  Si  Si10  1  0.399239  0.399239  0.781983  1
  Si  Si11  1  0.600761  0.000000  0.781983  1
  Si  Si12  1  0.000000  0.600761  0.781983  1
  Si  Si13  1  0.600761  0.600761  0.218017  1
  Si  Si14  1  0.399239  0.000000  0.218017  1
  Si  Si15  1  0.000000  0.399239  0.218017  1
  H  H16  1  0.000000  0.000000  0.500000  1
  H  H17  1  0.000000  0.000000  0.000000  1
