# generated using pymatgen
data_YbEr11(Si3Au)4
_symmetry_space_group_name_H-M   'P 1'
_cell_length_a   4.18684000
_cell_length_b   10.91637228
_cell_length_c   12.27728600
_cell_angle_alpha   90.01294832
_cell_angle_beta   90.00000000
_cell_angle_gamma   90.00000000
_symmetry_Int_Tables_number   1
_chemical_formula_structural   YbEr11(Si3Au)4
_chemical_formula_sum   'Yb1 Er11 Si12 Au4'
_cell_volume   561.13462051
_cell_formula_units_Z   1
loop_
 _symmetry_equiv_pos_site_id
 _symmetry_equiv_pos_as_xyz
  1  'x, y, z'
loop_
 _atom_site_type_symbol
 _atom_site_label
 _atom_site_symmetry_multiplicity
 _atom_site_fract_x
 _atom_site_fract_y
 _atom_site_fract_z
 _atom_site_occupancy
  Yb  Yb0  1  0.750000  0.164725  0.697526  1
  Er  Er1  1  0.250000  0.874294  0.020136  1
  Er  Er2  1  0.250000  0.625475  0.519944  1
  Er  Er3  1  0.750000  0.124672  0.979555  1
  Er  Er4  1  0.750000  0.374445  0.480943  1
  Er  Er5  1  0.250000  0.924872  0.602305  1
  Er  Er6  1  0.250000  0.575299  0.101561  1
  Er  Er7  1  0.750000  0.076902  0.396720  1
  Er  Er8  1  0.750000  0.423165  0.897905  1
  Er  Er9  1  0.250000  0.665240  0.801657  1
  Er  Er10  1  0.250000  0.834098  0.301918  1
  Er  Er11  1  0.750000  0.334200  0.198396  1
  Si  Si12  1  0.250000  0.026916  0.828275  1
  Si  Si13  1  0.250000  0.472265  0.326862  1
  Si  Si14  1  0.750000  0.971642  0.172935  1
  Si  Si15  1  0.750000  0.528625  0.673145  1
  Si  Si16  1  0.250000  0.248180  0.849127  1
  Si  Si17  1  0.250000  0.252224  0.347235  1
  Si  Si18  1  0.750000  0.750776  0.152482  1
  Si  Si19  1  0.750000  0.749611  0.652420  1
  Si  Si20  1  0.250000  0.184017  0.533871  1
  Si  Si21  1  0.250000  0.317686  0.037014  1
  Si  Si22  1  0.750000  0.821009  0.465282  1
  Si  Si23  1  0.750000  0.681766  0.964044  1
  Au  Au24  1  0.250000  0.389742  0.681798  1
  Au  Au25  1  0.250000  0.108522  0.182931  1
  Au  Au26  1  0.750000  0.607462  0.316879  1
  Au  Au27  1  0.750000  0.892166  0.817135  1
