# generated using pymatgen
data_Ca20TlGa8Hg3
_symmetry_space_group_name_H-M   'P 1'
_cell_length_a   7.99147400
_cell_length_b   7.99147400
_cell_length_c   15.17965300
_cell_angle_alpha   90.00000000
_cell_angle_beta   90.00000000
_cell_angle_gamma   90.00000000
_symmetry_Int_Tables_number   1
_chemical_formula_structural   Ca20TlGa8Hg3
_chemical_formula_sum   'Ca20 Tl1 Ga8 Hg3'
_cell_volume   969.42814791
_cell_formula_units_Z   1
loop_
 _symmetry_equiv_pos_site_id
 _symmetry_equiv_pos_as_xyz
  1  'x, y, z'
loop_
 _atom_site_type_symbol
 _atom_site_label
 _atom_site_symmetry_multiplicity
 _atom_site_fract_x
 _atom_site_fract_y
 _atom_site_fract_z
 _atom_site_occupancy
  Ca  Ca0  1  0.671387  0.173743  0.107319  1
  Ca  Ca1  1  0.173642  0.672403  0.608323  1
  Ca  Ca2  1  0.328613  0.826257  0.107319  1
  Ca  Ca3  1  0.826358  0.327597  0.608323  1
  Ca  Ca4  1  0.826257  0.671387  0.107319  1
  Ca  Ca5  1  0.327597  0.173642  0.608323  1
  Ca  Ca6  1  0.173743  0.328613  0.107319  1
  Ca  Ca7  1  0.672403  0.826358  0.608323  1
  Ca  Ca8  1  0.826257  0.328613  0.892681  1
  Ca  Ca9  1  0.327597  0.826358  0.391677  1
  Ca  Ca10  1  0.173743  0.671387  0.892681  1
  Ca  Ca11  1  0.672403  0.173642  0.391677  1
  Ca  Ca12  1  0.671387  0.826257  0.892681  1
  Ca  Ca13  1  0.173642  0.327597  0.391677  1
  Ca  Ca14  1  0.328613  0.173743  0.892681  1
  Ca  Ca15  1  0.826358  0.672403  0.391677  1
  Ca  Ca16  1  0.500000  0.500000  0.751686  1
  Ca  Ca17  1  0.000000  0.000000  0.249080  1
  Ca  Ca18  1  0.000000  0.000000  0.750920  1
  Ca  Ca19  1  0.500000  0.500000  0.248314  1
  Tl  Tl20  1  0.000000  0.000000  0.000000  1
  Ga  Ga21  1  0.613022  0.112894  0.750215  1
  Ga  Ga22  1  0.112894  0.613022  0.249785  1
  Ga  Ga23  1  0.887106  0.386978  0.249785  1
  Ga  Ga24  1  0.386978  0.887106  0.750215  1
  Ga  Ga25  1  0.887106  0.613022  0.750215  1
  Ga  Ga26  1  0.386978  0.112894  0.249785  1
  Ga  Ga27  1  0.112894  0.386978  0.750215  1
  Ga  Ga28  1  0.613022  0.887106  0.249785  1
  Hg  Hg29  1  0.500000  0.500000  0.500000  1
  Hg  Hg30  1  0.500000  0.500000  0.000000  1
  Hg  Hg31  1  0.000000  0.000000  0.500000  1
