# generated using pymatgen
data_Li4Nd3Sm3Pd13
_symmetry_space_group_name_H-M   'P 1'
_cell_length_a   8.36576187
_cell_length_b   8.36576231
_cell_length_c   8.36561800
_cell_angle_alpha   109.47086878
_cell_angle_beta   109.47086985
_cell_angle_gamma   109.47157377
_symmetry_Int_Tables_number   1
_chemical_formula_structural   Li4Nd3Sm3Pd13
_chemical_formula_sum   'Li4 Nd3 Sm3 Pd13'
_cell_volume   450.70152879
_cell_formula_units_Z   1
loop_
 _symmetry_equiv_pos_site_id
 _symmetry_equiv_pos_as_xyz
  1  'x, y, z'
loop_
 _atom_site_type_symbol
 _atom_site_label
 _atom_site_symmetry_multiplicity
 _atom_site_fract_x
 _atom_site_fract_y
 _atom_site_fract_z
 _atom_site_occupancy
  Li  Li0  1  0.000000  0.000000  0.498108  1
  Li  Li1  1  0.000000  0.500720  0.000214  1
  Li  Li2  1  0.500720  0.000000  0.000214  1
  Li  Li3  1  0.499280  0.499280  0.499494  1
  Nd  Nd4  1  0.306176  0.306176  0.000289  1
  Nd  Nd5  1  0.693824  0.000000  0.694113  1
  Nd  Nd6  1  0.000000  0.693824  0.694113  1
  Sm  Sm7  1  0.692727  0.692727  0.000282  1
  Sm  Sm8  1  0.307273  0.000000  0.307554  1
  Sm  Sm9  1  0.000000  0.307273  0.307554  1
  Pd  Pd10  1  0.332501  0.332501  0.663919  1
  Pd  Pd11  1  0.667499  0.000000  0.331416  1
  Pd  Pd12  1  0.000000  0.667499  0.331416  1
  Pd  Pd13  1  0.668301  0.333187  0.000395  1
  Pd  Pd14  1  0.331699  0.664886  0.332093  1
  Pd  Pd15  1  0.000000  0.332380  0.666516  1
  Pd  Pd16  1  0.333187  0.668301  0.000395  1
  Pd  Pd17  1  0.332380  0.000000  0.666516  1
  Pd  Pd18  1  0.664886  0.331699  0.332093  1
  Pd  Pd19  1  0.667620  0.667620  0.334136  1
  Pd  Pd20  1  0.666813  0.335114  0.667208  1
  Pd  Pd21  1  0.335114  0.666813  0.667208  1
  Pd  Pd22  1  0.000000  0.000000  0.004753  1
