# generated using pymatgen
data_Dy5In5Ru
_symmetry_space_group_name_H-M   'P 1'
_cell_length_a   3.61220400
_cell_length_b   8.36484386
_cell_length_c   18.59859000
_cell_angle_alpha   89.09742599
_cell_angle_beta   90.00000000
_cell_angle_gamma   90.00000000
_symmetry_Int_Tables_number   1
_chemical_formula_structural   Dy5In5Ru
_chemical_formula_sum   'Dy10 In10 Ru2'
_cell_volume   561.89638828
_cell_formula_units_Z   2
loop_
 _symmetry_equiv_pos_site_id
 _symmetry_equiv_pos_as_xyz
  1  'x, y, z'
loop_
 _atom_site_type_symbol
 _atom_site_label
 _atom_site_symmetry_multiplicity
 _atom_site_fract_x
 _atom_site_fract_y
 _atom_site_fract_z
 _atom_site_occupancy
  Dy  Dy0  1  0.000000  0.500000  0.500000  1
  Dy  Dy1  1  0.000000  0.000000  0.000000  1
  Dy  Dy2  1  0.000000  0.701651  0.274959  1
  Dy  Dy3  1  0.000000  0.298349  0.725041  1
  Dy  Dy4  1  0.000000  0.730656  0.787322  1
  Dy  Dy5  1  0.000000  0.269344  0.212678  1
  Dy  Dy6  1  0.000000  0.615351  0.083727  1
  Dy  Dy7  1  0.000000  0.384649  0.916273  1
  Dy  Dy8  1  0.000000  0.874008  0.573799  1
  Dy  Dy9  1  0.000000  0.125992  0.426201  1
  In  In10  1  0.500000  0.704967  0.933339  1
  In  In11  1  0.500000  0.295033  0.066661  1
  In  In12  1  0.500000  0.788591  0.429343  1
  In  In13  1  0.500000  0.211409  0.570657  1
  In  In14  1  0.500000  0.580985  0.649762  1
  In  In15  1  0.500000  0.419015  0.350238  1
  In  In16  1  0.500000  0.912037  0.145955  1
  In  In17  1  0.500000  0.087963  0.854045  1
  In  In18  1  0.500000  0.981529  0.699734  1
  In  In19  1  0.500000  0.018471  0.300266  1
  Ru  Ru20  1  0.500000  0.519594  0.192609  1
  Ru  Ru21  1  0.500000  0.480406  0.807391  1
