# generated using pymatgen
data_KSr(LaB12)2
_symmetry_space_group_name_H-M   'P 1'
_cell_length_a   7.22478015
_cell_length_b   7.22477956
_cell_length_c   5.93077500
_cell_angle_alpha   90.00000000
_cell_angle_beta   90.00000000
_cell_angle_gamma   109.30047110
_symmetry_Int_Tables_number   1
_chemical_formula_structural   KSr(LaB12)2
_chemical_formula_sum   'K1 Sr1 La2 B24'
_cell_volume   292.17284185
_cell_formula_units_Z   1
loop_
 _symmetry_equiv_pos_site_id
 _symmetry_equiv_pos_as_xyz
  1  'x, y, z'
loop_
 _atom_site_type_symbol
 _atom_site_label
 _atom_site_symmetry_multiplicity
 _atom_site_fract_x
 _atom_site_fract_y
 _atom_site_fract_z
 _atom_site_occupancy
  K  K0  1  0.000000  0.000000  0.000000  1
  Sr  Sr1  1  0.500000  0.500000  0.000000  1
  La  La2  1  0.751607  0.248393  0.500000  1
  La  La3  1  0.248393  0.751607  0.500000  1
  B  B4  1  0.175763  0.325183  0.648850  1
  B  B5  1  0.924856  0.574503  0.148394  1
  B  B6  1  0.674817  0.824237  0.648850  1
  B  B7  1  0.425497  0.075144  0.148394  1
  B  B8  1  0.175763  0.325183  0.351150  1
  B  B9  1  0.924856  0.574503  0.851606  1
  B  B10  1  0.674817  0.824237  0.351150  1
  B  B11  1  0.425497  0.075144  0.851606  1
  B  B12  1  0.399255  0.399255  0.500000  1
  B  B13  1  0.148337  0.649802  0.000000  1
  B  B14  1  0.898695  0.898695  0.500000  1
  B  B15  1  0.649802  0.148337  0.000000  1
  B  B16  1  0.325183  0.175763  0.648850  1
  B  B17  1  0.075144  0.425497  0.148394  1
  B  B18  1  0.824237  0.674817  0.648850  1
  B  B19  1  0.574503  0.924856  0.148394  1
  B  B20  1  0.101305  0.101305  0.500000  1
  B  B21  1  0.851663  0.350198  0.000000  1
  B  B22  1  0.600745  0.600745  0.500000  1
  B  B23  1  0.350198  0.851663  0.000000  1
  B  B24  1  0.325183  0.175763  0.351150  1
  B  B25  1  0.075144  0.425497  0.851606  1
  B  B26  1  0.824237  0.674817  0.351150  1
  B  B27  1  0.574503  0.924856  0.851606  1
