# generated using pymatgen
data_PrMo3(PO4)4
_symmetry_space_group_name_H-M   'P 1'
_cell_length_a   4.87542298
_cell_length_b   7.17302980
_cell_length_c   9.13245371
_cell_angle_alpha   89.86105872
_cell_angle_beta   90.91023738
_cell_angle_gamma   89.62402432
_symmetry_Int_Tables_number   1
_chemical_formula_structural   PrMo3(PO4)4
_chemical_formula_sum   'Pr1 Mo3 P4 O16'
_cell_volume   319.32790250
_cell_formula_units_Z   1
loop_
 _symmetry_equiv_pos_site_id
 _symmetry_equiv_pos_as_xyz
  1  'x, y, z'
loop_
 _atom_site_type_symbol
 _atom_site_label
 _atom_site_symmetry_multiplicity
 _atom_site_fract_x
 _atom_site_fract_y
 _atom_site_fract_z
 _atom_site_occupancy
  Pr  Pr0  1  0.000000  0.000000  0.000000  1
  Mo  Mo1  1  0.500000  0.500000  0.500000  1
  Mo  Mo2  1  0.000000  0.500000  0.000000  1
  Mo  Mo3  1  0.500000  0.000000  0.500000  1
  P  P4  1  0.994671  0.743431  0.672202  1
  P  P5  1  0.499692  0.258795  0.815438  1
  P  P6  1  0.005329  0.256569  0.327798  1
  P  P7  1  0.500308  0.741205  0.184562  1
  O  O8  1  0.143212  0.432707  0.382980  1
  O  O9  1  0.657921  0.572576  0.128740  1
  O  O10  1  0.851400  0.928235  0.631110  1
  O  O11  1  0.400039  0.068792  0.867954  1
  O  O12  1  0.856788  0.567293  0.617020  1
  O  O13  1  0.342079  0.427424  0.871260  1
  O  O14  1  0.148600  0.071765  0.368890  1
  O  O15  1  0.599961  0.931208  0.132046  1
  O  O16  1  0.193299  0.721420  0.131924  1
  O  O17  1  0.702195  0.249937  0.387988  1
  O  O18  1  0.806701  0.278580  0.868076  1
  O  O19  1  0.297805  0.750063  0.612012  1
  O  O20  1  0.527684  0.745972  0.357858  1
  O  O21  1  0.002992  0.267457  0.155538  1
  O  O22  1  0.472316  0.254028  0.642142  1
  O  O23  1  0.997008  0.732543  0.844462  1
