# generated using pymatgen
data_Sr4CdSnPd4
_symmetry_space_group_name_H-M   'P 1'
_cell_length_a   6.09165147
_cell_length_b   6.09165160
_cell_length_c   8.45448035
_cell_angle_alpha   78.02378710
_cell_angle_beta   78.02378905
_cell_angle_gamma   59.51336152
_symmetry_Int_Tables_number   1
_chemical_formula_structural   Sr4CdSnPd4
_chemical_formula_sum   'Sr4 Cd1 Sn1 Pd4'
_cell_volume   262.52007214
_cell_formula_units_Z   1
loop_
 _symmetry_equiv_pos_site_id
 _symmetry_equiv_pos_as_xyz
  1  'x, y, z'
loop_
 _atom_site_type_symbol
 _atom_site_label
 _atom_site_symmetry_multiplicity
 _atom_site_fract_x
 _atom_site_fract_y
 _atom_site_fract_z
 _atom_site_occupancy
  Sr  Sr0  1  0.504233  0.792302  0.354460  1
  Sr  Sr1  1  0.207698  0.495767  0.145540  1
  Sr  Sr2  1  0.489641  0.213011  0.650526  1
  Sr  Sr3  1  0.786989  0.510359  0.849474  1
  Cd  Cd4  1  0.863905  0.136095  0.250000  1
  Sn  Sn5  1  0.136537  0.863463  0.750000  1
  Pd  Pd6  1  0.731696  0.999302  0.000986  1
  Pd  Pd7  1  0.000698  0.268304  0.499014  1
  Pd  Pd8  1  0.273539  0.994935  0.995295  1
  Pd  Pd9  1  0.005065  0.726461  0.504705  1
