# generated using pymatgen
data_Tb3Al12CoRu3
_symmetry_space_group_name_H-M   'P 1'
_cell_length_a   8.77153300
_cell_length_b   8.77153240
_cell_length_c   9.53941300
_cell_angle_alpha   90.00000000
_cell_angle_beta   90.00000000
_cell_angle_gamma   119.99999850
_symmetry_Int_Tables_number   1
_chemical_formula_structural   Tb3Al12CoRu3
_chemical_formula_sum   'Tb6 Al24 Co2 Ru6'
_cell_volume   635.62835582
_cell_formula_units_Z   2
loop_
 _symmetry_equiv_pos_site_id
 _symmetry_equiv_pos_as_xyz
  1  'x, y, z'
loop_
 _atom_site_type_symbol
 _atom_site_label
 _atom_site_symmetry_multiplicity
 _atom_site_fract_x
 _atom_site_fract_y
 _atom_site_fract_z
 _atom_site_occupancy
  Tb  Tb0  1  0.387090  0.193545  0.250000  1
  Tb  Tb1  1  0.806455  0.193545  0.250000  1
  Tb  Tb2  1  0.806455  0.612910  0.250000  1
  Tb  Tb3  1  0.612910  0.806455  0.750000  1
  Tb  Tb4  1  0.193545  0.806455  0.750000  1
  Tb  Tb5  1  0.193545  0.387090  0.750000  1
  Al  Al6  1  0.438575  0.877150  0.250000  1
  Al  Al7  1  0.122850  0.561425  0.250000  1
  Al  Al8  1  0.438575  0.561425  0.250000  1
  Al  Al9  1  0.561425  0.122850  0.750000  1
  Al  Al10  1  0.877150  0.438575  0.750000  1
  Al  Al11  1  0.561425  0.438575  0.750000  1
  Al  Al12  1  0.159991  0.840009  0.423277  1
  Al  Al13  1  0.159991  0.319984  0.423277  1
  Al  Al14  1  0.680016  0.840009  0.423277  1
  Al  Al15  1  0.840009  0.159991  0.576723  1
  Al  Al16  1  0.840009  0.680016  0.576723  1
  Al  Al17  1  0.319984  0.159991  0.576723  1
  Al  Al18  1  0.840009  0.159991  0.923277  1
  Al  Al19  1  0.840009  0.680016  0.923277  1
  Al  Al20  1  0.319984  0.159991  0.923277  1
  Al  Al21  1  0.159991  0.840009  0.076723  1
  Al  Al22  1  0.159991  0.319984  0.076723  1
  Al  Al23  1  0.680016  0.840009  0.076723  1
  Al  Al24  1  0.333333  0.666667  0.514466  1
  Al  Al25  1  0.666667  0.333333  0.485534  1
  Al  Al26  1  0.666667  0.333333  0.014466  1
  Al  Al27  1  0.333333  0.666667  0.985534  1
  Al  Al28  1  0.000000  0.000000  0.250000  1
  Al  Al29  1  0.000000  0.000000  0.750000  1
  Co  Co30  1  0.000000  0.000000  0.500000  1
  Co  Co31  1  0.000000  0.000000  0.000000  1
  Ru  Ru32  1  0.500000  0.000000  0.500000  1
  Ru  Ru33  1  0.000000  0.500000  0.500000  1
  Ru  Ru34  1  0.500000  0.500000  0.500000  1
  Ru  Ru35  1  0.500000  0.000000  0.000000  1
  Ru  Ru36  1  0.000000  0.500000  0.000000  1
  Ru  Ru37  1  0.500000  0.500000  0.000000  1
