# generated using pymatgen
data_CaYTm2Ni13C4
_symmetry_space_group_name_H-M   'P 1'
_cell_length_a   8.35286567
_cell_length_b   8.35286590
_cell_length_c   3.85912200
_cell_angle_alpha   90.00000000
_cell_angle_beta   90.00000000
_cell_angle_gamma   91.01062401
_symmetry_Int_Tables_number   1
_chemical_formula_structural   CaYTm2Ni13C4
_chemical_formula_sum   'Ca1 Y1 Tm2 Ni13 C4'
_cell_volume   269.21047290
_cell_formula_units_Z   1
loop_
 _symmetry_equiv_pos_site_id
 _symmetry_equiv_pos_as_xyz
  1  'x, y, z'
loop_
 _atom_site_type_symbol
 _atom_site_label
 _atom_site_symmetry_multiplicity
 _atom_site_fract_x
 _atom_site_fract_y
 _atom_site_fract_z
 _atom_site_occupancy
  Ca  Ca0  1  0.649818  0.649818  0.500000  1
  Y  Y1  1  0.349756  0.349756  0.500000  1
  Tm  Tm2  1  0.812285  0.187604  0.500000  1
  Tm  Tm3  1  0.187604  0.812285  0.500000  1
  Ni  Ni4  1  0.496826  0.004771  0.500000  1
  Ni  Ni5  1  0.004771  0.496826  0.500000  1
  Ni  Ni6  1  0.001846  0.001846  0.000000  1
  Ni  Ni7  1  0.424903  0.783807  0.000000  1
  Ni  Ni8  1  0.570447  0.213296  0.000000  1
  Ni  Ni9  1  0.213296  0.570447  0.000000  1
  Ni  Ni10  1  0.783807  0.424903  0.000000  1
  Ni  Ni11  1  0.712638  0.931349  0.000000  1
  Ni  Ni12  1  0.291270  0.072666  0.000000  1
  Ni  Ni13  1  0.072666  0.291270  0.000000  1
  Ni  Ni14  1  0.931349  0.712638  0.000000  1
  Ni  Ni15  1  0.879287  0.879287  0.500000  1
  Ni  Ni16  1  0.122938  0.122938  0.500000  1
  C  C17  1  0.441641  0.555261  0.000000  1
  C  C18  1  0.555261  0.441641  0.000000  1
  C  C19  1  0.501021  0.996573  0.000000  1
  C  C20  1  0.996573  0.501021  0.000000  1
