# generated using pymatgen
data_SrHo2(AlIr2)3
_symmetry_space_group_name_H-M   'P 1'
_cell_length_a   5.60162900
_cell_length_b   5.60162924
_cell_length_c   15.64313000
_cell_angle_alpha   90.00000000
_cell_angle_beta   90.00000000
_cell_angle_gamma   120.00000451
_symmetry_Int_Tables_number   1
_chemical_formula_structural   SrHo2(AlIr2)3
_chemical_formula_sum   'Sr2 Ho4 Al6 Ir12'
_cell_volume   425.09203564
_cell_formula_units_Z   2
loop_
 _symmetry_equiv_pos_site_id
 _symmetry_equiv_pos_as_xyz
  1  'x, y, z'
loop_
 _atom_site_type_symbol
 _atom_site_label
 _atom_site_symmetry_multiplicity
 _atom_site_fract_x
 _atom_site_fract_y
 _atom_site_fract_z
 _atom_site_occupancy
  Sr  Sr0  1  0.333333  0.666667  0.750000  1
  Sr  Sr1  1  0.666667  0.333333  0.250000  1
  Ho  Ho2  1  0.333333  0.666667  0.542326  1
  Ho  Ho3  1  0.666667  0.333333  0.457674  1
  Ho  Ho4  1  0.666667  0.333333  0.042326  1
  Ho  Ho5  1  0.333333  0.666667  0.957674  1
  Al  Al6  1  0.000000  0.000000  0.250000  1
  Al  Al7  1  0.000000  0.000000  0.750000  1
  Al  Al8  1  0.333333  0.666667  0.250000  1
  Al  Al9  1  0.666667  0.333333  0.750000  1
  Al  Al10  1  0.000000  0.000000  0.000000  1
  Al  Al11  1  0.000000  0.000000  0.500000  1
  Ir  Ir12  1  0.169402  0.338803  0.124032  1
  Ir  Ir13  1  0.830598  0.661197  0.875968  1
  Ir  Ir14  1  0.661197  0.830598  0.124032  1
  Ir  Ir15  1  0.830598  0.661197  0.624032  1
  Ir  Ir16  1  0.338803  0.169402  0.875968  1
  Ir  Ir17  1  0.169402  0.338803  0.375968  1
  Ir  Ir18  1  0.169402  0.830598  0.124032  1
  Ir  Ir19  1  0.338803  0.169402  0.624032  1
  Ir  Ir20  1  0.830598  0.169402  0.875968  1
  Ir  Ir21  1  0.661197  0.830598  0.375968  1
  Ir  Ir22  1  0.830598  0.169402  0.624032  1
  Ir  Ir23  1  0.169402  0.830598  0.375968  1
