# generated using pymatgen
data_Dy2Sc2CrB12Ir
_symmetry_space_group_name_H-M   'P 1'
_cell_length_a   3.51434100
_cell_length_b   8.98909461
_cell_length_c   11.38296203
_cell_angle_alpha   90.06853739
_cell_angle_beta   90.00000000
_cell_angle_gamma   90.00000000
_symmetry_Int_Tables_number   1
_chemical_formula_structural   Dy2Sc2CrB12Ir
_chemical_formula_sum   'Dy4 Sc4 Cr2 B24 Ir2'
_cell_volume   359.59597933
_cell_formula_units_Z   2
loop_
 _symmetry_equiv_pos_site_id
 _symmetry_equiv_pos_as_xyz
  1  'x, y, z'
loop_
 _atom_site_type_symbol
 _atom_site_label
 _atom_site_symmetry_multiplicity
 _atom_site_fract_x
 _atom_site_fract_y
 _atom_site_fract_z
 _atom_site_occupancy
  Dy  Dy0  1  0.500000  0.316877  0.411521  1
  Dy  Dy1  1  0.500000  0.683123  0.588479  1
  Dy  Dy2  1  0.500000  0.175404  0.916604  1
  Dy  Dy3  1  0.500000  0.824596  0.083396  1
  Sc  Sc4  1  0.500000  0.440686  0.125428  1
  Sc  Sc5  1  0.500000  0.559314  0.874572  1
  Sc  Sc6  1  0.500000  0.050590  0.627997  1
  Sc  Sc7  1  0.500000  0.949410  0.372003  1
  Cr  Cr8  1  0.500000  0.141457  0.182706  1
  Cr  Cr9  1  0.500000  0.858543  0.817294  1
  B  B10  1  0.000000  0.099718  0.473568  1
  B  B11  1  0.000000  0.900282  0.526432  1
  B  B12  1  0.000000  0.400628  0.972911  1
  B  B13  1  0.000000  0.599372  0.027089  1
  B  B14  1  0.000000  0.130088  0.316596  1
  B  B15  1  0.000000  0.869912  0.683404  1
  B  B16  1  0.000000  0.370501  0.818234  1
  B  B17  1  0.000000  0.629499  0.181766  1
  B  B18  1  0.000000  0.054692  0.068166  1
  B  B19  1  0.000000  0.945308  0.931834  1
  B  B20  1  0.000000  0.444999  0.566616  1
  B  B21  1  0.000000  0.555001  0.433384  1
  B  B22  1  0.000000  0.481007  0.284963  1
  B  B23  1  0.000000  0.518993  0.715037  1
  B  B24  1  0.000000  0.017216  0.785690  1
  B  B25  1  0.000000  0.982784  0.214310  1
  B  B26  1  0.000000  0.251861  0.081851  1
  B  B27  1  0.000000  0.748139  0.918149  1
  B  B28  1  0.000000  0.244965  0.580478  1
  B  B29  1  0.000000  0.755035  0.419522  1
  B  B30  1  0.000000  0.294573  0.234239  1
  B  B31  1  0.000000  0.705427  0.765761  1
  B  B32  1  0.000000  0.204742  0.735312  1
  B  B33  1  0.000000  0.795258  0.264688  1
  Ir  Ir34  1  0.500000  0.359612  0.680867  1
  Ir  Ir35  1  0.500000  0.640388  0.319133  1
