# generated using pymatgen
data_Er10Tm6Tl2CdInRh4
_symmetry_space_group_name_H-M   'P 1'
_cell_length_a   9.55629381
_cell_length_b   9.55305065
_cell_length_c   9.55766052
_cell_angle_alpha   60.09846865
_cell_angle_beta   60.11500269
_cell_angle_gamma   60.15917730
_symmetry_Int_Tables_number   1
_chemical_formula_structural   Er10Tm6Tl2CdInRh4
_chemical_formula_sum   'Er10 Tm6 Tl2 Cd1 In1 Rh4'
_cell_volume   618.71171554
_cell_formula_units_Z   1
loop_
 _symmetry_equiv_pos_site_id
 _symmetry_equiv_pos_as_xyz
  1  'x, y, z'
loop_
 _atom_site_type_symbol
 _atom_site_label
 _atom_site_symmetry_multiplicity
 _atom_site_fract_x
 _atom_site_fract_y
 _atom_site_fract_z
 _atom_site_occupancy
  Er  Er0  1  0.059808  0.060507  0.439478  1
  Er  Er1  1  0.435411  0.066344  0.435865  1
  Er  Er2  1  0.061659  0.438570  0.060116  1
  Er  Er3  1  0.051409  0.647494  0.648999  1
  Er  Er4  1  0.435412  0.435712  0.064829  1
  Er  Er5  1  0.647610  0.051716  0.648103  1
  Er  Er6  1  0.187477  0.812336  0.188157  1
  Er  Er7  1  0.187721  0.187773  0.813393  1
  Er  Er8  1  0.810913  0.810759  0.189849  1
  Er  Er9  1  0.439035  0.061264  0.059246  1
  Tm  Tm10  1  0.812584  0.187351  0.187790  1
  Tm  Tm11  1  0.064795  0.436450  0.436914  1
  Tm  Tm12  1  0.810297  0.189554  0.811673  1
  Tm  Tm13  1  0.189817  0.810175  0.811673  1
  Tm  Tm14  1  0.648539  0.647320  0.050761  1
  Tm  Tm15  1  0.651573  0.652073  0.653286  1
  Tl  Tl16  1  0.755639  0.414963  0.415212  1
  Tl  Tl17  1  0.414805  0.755576  0.415304  1
  Cd  Cd18  1  0.416959  0.417360  0.417772  1
  In  In19  1  0.417873  0.417854  0.748047  1
  Rh  Rh20  1  0.858489  0.858400  0.428142  1
  Rh  Rh21  1  0.856719  0.855833  0.856562  1
  Rh  Rh22  1  0.427281  0.857768  0.859708  1
  Rh  Rh23  1  0.858178  0.426849  0.859123  1
