# generated using pymatgen
data_Tb7Ce(CdRu)2
_symmetry_space_group_name_H-M   'P 1'
_cell_length_a   9.76583455
_cell_length_b   9.66197338
_cell_length_c   9.66197271
_cell_angle_alpha   59.62623921
_cell_angle_beta   59.64376280
_cell_angle_gamma   59.64376144
_symmetry_Int_Tables_number   1
_chemical_formula_structural   Tb7Ce(CdRu)2
_chemical_formula_sum   'Tb14 Ce2 Cd4 Ru4'
_cell_volume   639.34893387
_cell_formula_units_Z   2
loop_
 _symmetry_equiv_pos_site_id
 _symmetry_equiv_pos_as_xyz
  1  'x, y, z'
loop_
 _atom_site_type_symbol
 _atom_site_label
 _atom_site_symmetry_multiplicity
 _atom_site_fract_x
 _atom_site_fract_y
 _atom_site_fract_z
 _atom_site_occupancy
  Tb  Tb0  1  0.562700  0.561122  0.938746  1
  Tb  Tb1  1  0.937433  0.561122  0.938746  1
  Tb  Tb2  1  0.562268  0.937732  0.937732  1
  Tb  Tb3  1  0.937433  0.938746  0.561122  1
  Tb  Tb4  1  0.562700  0.938746  0.561122  1
  Tb  Tb5  1  0.939595  0.560405  0.560405  1
  Tb  Tb6  1  0.189773  0.188691  0.811574  1
  Tb  Tb7  1  0.809962  0.188691  0.811574  1
  Tb  Tb8  1  0.188741  0.811259  0.811258  1
  Tb  Tb9  1  0.809962  0.811575  0.188691  1
  Tb  Tb10  1  0.189772  0.811574  0.188690  1
  Tb  Tb11  1  0.810496  0.189504  0.189504  1
  Tb  Tb12  1  0.348806  0.348128  0.954260  1
  Tb  Tb13  1  0.348806  0.954260  0.348128  1
  Ce  Ce14  1  0.972017  0.340626  0.340626  1
  Ce  Ce15  1  0.346730  0.340626  0.340626  1
  Cd  Cd16  1  0.581794  0.579091  0.257321  1
  Cd  Cd17  1  0.581794  0.257321  0.579091  1
  Cd  Cd18  1  0.259355  0.579717  0.579717  1
  Cd  Cd19  1  0.581209  0.579717  0.579717  1
  Ru  Ru20  1  0.137689  0.153693  0.570930  1
  Ru  Ru21  1  0.137689  0.570930  0.153693  1
  Ru  Ru22  1  0.573431  0.148363  0.148363  1
  Ru  Ru23  1  0.129844  0.148363  0.148363  1
