# generated using pymatgen
data_BaLu2Se3S
_symmetry_space_group_name_H-M   'P 1'
_cell_length_a   4.10005900
_cell_length_b   12.65054500
_cell_length_c   14.82371400
_cell_angle_alpha   90.00000000
_cell_angle_beta   90.00000000
_cell_angle_gamma   90.00000000
_symmetry_Int_Tables_number   1
_chemical_formula_structural   BaLu2Se3S
_chemical_formula_sum   'Ba4 Lu8 Se12 S4'
_cell_volume   768.87611435
_cell_formula_units_Z   4
loop_
 _symmetry_equiv_pos_site_id
 _symmetry_equiv_pos_as_xyz
  1  'x, y, z'
loop_
 _atom_site_type_symbol
 _atom_site_label
 _atom_site_symmetry_multiplicity
 _atom_site_fract_x
 _atom_site_fract_y
 _atom_site_fract_z
 _atom_site_occupancy
  Ba  Ba0  1  0.250000  0.755494  0.663116  1
  Ba  Ba1  1  0.750000  0.744506  0.163116  1
  Ba  Ba2  1  0.250000  0.255494  0.836884  1
  Ba  Ba3  1  0.750000  0.244506  0.336884  1
  Lu  Lu4  1  0.250000  0.439123  0.603215  1
  Lu  Lu5  1  0.750000  0.060877  0.103215  1
  Lu  Lu6  1  0.250000  0.939123  0.896785  1
  Lu  Lu7  1  0.750000  0.560877  0.396785  1
  Lu  Lu8  1  0.250000  0.421502  0.100923  1
  Lu  Lu9  1  0.750000  0.078498  0.600923  1
  Lu  Lu10  1  0.250000  0.921502  0.399077  1
  Lu  Lu11  1  0.750000  0.578498  0.899077  1
  Se  Se12  1  0.250000  0.523505  0.781357  1
  Se  Se13  1  0.750000  0.976495  0.281357  1
  Se  Se14  1  0.250000  0.023505  0.718643  1
  Se  Se15  1  0.750000  0.476495  0.218643  1
  Se  Se16  1  0.250000  0.124632  0.476245  1
  Se  Se17  1  0.750000  0.375368  0.976245  1
  Se  Se18  1  0.250000  0.624632  0.023755  1
  Se  Se19  1  0.750000  0.875368  0.523755  1
  Se  Se20  1  0.250000  0.205368  0.157774  1
  Se  Se21  1  0.750000  0.294632  0.657774  1
  Se  Se22  1  0.250000  0.705368  0.342226  1
  Se  Se23  1  0.750000  0.794632  0.842226  1
  S  S24  1  0.250000  0.422415  0.425285  1
  S  S25  1  0.750000  0.077585  0.925285  1
  S  S26  1  0.250000  0.922415  0.074715  1
  S  S27  1  0.750000  0.577585  0.574715  1
