# generated using pymatgen
data_Pr10InGaSi4
_symmetry_space_group_name_H-M   'P 1'
_cell_length_a   7.85560300
_cell_length_b   9.32181804
_cell_length_c   7.85560300
_cell_angle_alpha   114.92021378
_cell_angle_beta   90.00000000
_cell_angle_gamma   114.92021378
_symmetry_Int_Tables_number   1
_chemical_formula_structural   Pr10InGaSi4
_chemical_formula_sum   'Pr10 In1 Ga1 Si4'
_cell_volume   461.96824751
_cell_formula_units_Z   1
loop_
 _symmetry_equiv_pos_site_id
 _symmetry_equiv_pos_as_xyz
  1  'x, y, z'
loop_
 _atom_site_type_symbol
 _atom_site_label
 _atom_site_symmetry_multiplicity
 _atom_site_fract_x
 _atom_site_fract_y
 _atom_site_fract_z
 _atom_site_occupancy
  Pr  Pr0  1  0.974601  0.949201  0.974601  1
  Pr  Pr1  1  0.525399  0.050799  0.525399  1
  Pr  Pr2  1  0.526291  0.722542  0.673193  1
  Pr  Pr3  1  0.196253  0.722542  0.049349  1
  Pr  Pr4  1  0.673193  0.722542  0.196253  1
  Pr  Pr5  1  0.049349  0.722542  0.526291  1
  Pr  Pr6  1  0.450651  0.277458  0.303747  1
  Pr  Pr7  1  0.826807  0.277458  0.973709  1
  Pr  Pr8  1  0.303747  0.277458  0.826807  1
  Pr  Pr9  1  0.973709  0.277458  0.450651  1
  In  In10  1  0.750000  0.500000  0.750000  1
  Ga  Ga11  1  0.250000  0.500000  0.250000  1
  Si  Si12  1  0.885267  0.000000  0.614733  1
  Si  Si13  1  0.114733  0.000000  0.385267  1
  Si  Si14  1  0.614733  0.000000  0.114733  1
  Si  Si15  1  0.385267  0.000000  0.885267  1
