# generated using pymatgen
data_HoEr9Si5P
_symmetry_space_group_name_H-M   'P 1'
_cell_length_a   8.33165650
_cell_length_b   8.33220553
_cell_length_c   6.24115600
_cell_angle_alpha   90.00000000
_cell_angle_beta   90.00000000
_cell_angle_gamma   119.95804735
_symmetry_Int_Tables_number   1
_chemical_formula_structural   HoEr9Si5P
_chemical_formula_sum   'Ho1 Er9 Si5 P1'
_cell_volume   375.37940378
_cell_formula_units_Z   1
loop_
 _symmetry_equiv_pos_site_id
 _symmetry_equiv_pos_as_xyz
  1  'x, y, z'
loop_
 _atom_site_type_symbol
 _atom_site_label
 _atom_site_symmetry_multiplicity
 _atom_site_fract_x
 _atom_site_fract_y
 _atom_site_fract_z
 _atom_site_occupancy
  Ho  Ho0  1  0.001044  0.757430  0.750000  1
  Er  Er1  1  0.000801  0.243568  0.250000  1
  Er  Er2  1  0.756998  0.756326  0.250000  1
  Er  Er3  1  0.755728  0.000030  0.750000  1
  Er  Er4  1  0.243659  0.242595  0.750000  1
  Er  Er5  1  0.243194  0.000127  0.250000  1
  Er  Er6  1  0.333771  0.667436  0.500463  1
  Er  Er7  1  0.666196  0.332504  0.999541  1
  Er  Er8  1  0.666196  0.332504  0.500459  1
  Er  Er9  1  0.333771  0.667436  0.999537  1
  Si  Si10  1  0.394509  0.393959  0.250000  1
  Si  Si11  1  0.000557  0.606113  0.250000  1
  Si  Si12  1  0.000071  0.393679  0.750000  1
  Si  Si13  1  0.605793  0.605970  0.750000  1
  Si  Si14  1  0.606640  0.000017  0.250000  1
  P  P15  1  0.391076  0.000308  0.750000  1
