# generated using pymatgen
data_Yb4ThSn4
_symmetry_space_group_name_H-M   'P 1'
_cell_length_a   7.90446800
_cell_length_b   8.48254300
_cell_length_c   16.01788200
_cell_angle_alpha   90.00000000
_cell_angle_beta   90.00000000
_cell_angle_gamma   90.00000000
_symmetry_Int_Tables_number   1
_chemical_formula_structural   Yb4ThSn4
_chemical_formula_sum   'Yb16 Th4 Sn16'
_cell_volume   1073.99882315
_cell_formula_units_Z   4
loop_
 _symmetry_equiv_pos_site_id
 _symmetry_equiv_pos_as_xyz
  1  'x, y, z'
loop_
 _atom_site_type_symbol
 _atom_site_label
 _atom_site_symmetry_multiplicity
 _atom_site_fract_x
 _atom_site_fract_y
 _atom_site_fract_z
 _atom_site_occupancy
  Yb  Yb0  1  0.334291  0.826046  0.876792  1
  Yb  Yb1  1  0.834291  0.673954  0.623208  1
  Yb  Yb2  1  0.665709  0.173954  0.376792  1
  Yb  Yb3  1  0.165709  0.326046  0.123208  1
  Yb  Yb4  1  0.668885  0.167251  0.125047  1
  Yb  Yb5  1  0.168885  0.332749  0.374953  1
  Yb  Yb6  1  0.331115  0.832749  0.625047  1
  Yb  Yb7  1  0.831115  0.667251  0.874953  1
  Yb  Yb8  1  0.498555  0.312700  0.904949  1
  Yb  Yb9  1  0.998555  0.187300  0.595051  1
  Yb  Yb10  1  0.501445  0.687300  0.404949  1
  Yb  Yb11  1  0.001445  0.812700  0.095051  1
  Yb  Yb12  1  0.162216  0.504788  0.749364  1
  Yb  Yb13  1  0.662216  0.995212  0.750636  1
  Yb  Yb14  1  0.837784  0.495212  0.249364  1
  Yb  Yb15  1  0.337784  0.004788  0.250636  1
  Th  Th16  1  0.503211  0.687222  0.094354  1
  Th  Th17  1  0.003211  0.812778  0.405646  1
  Th  Th18  1  0.496789  0.312778  0.594354  1
  Th  Th19  1  0.996789  0.187222  0.905646  1
  Sn  Sn20  1  0.325734  0.025810  0.041186  1
  Sn  Sn21  1  0.825734  0.474190  0.458814  1
  Sn  Sn22  1  0.674266  0.974190  0.541186  1
  Sn  Sn23  1  0.174266  0.525810  0.958814  1
  Sn  Sn24  1  0.673815  0.959286  0.964318  1
  Sn  Sn25  1  0.173815  0.540714  0.535682  1
  Sn  Sn26  1  0.326185  0.040714  0.464318  1
  Sn  Sn27  1  0.826185  0.459286  0.035682  1
  Sn  Sn28  1  0.534446  0.601085  0.745846  1
  Sn  Sn29  1  0.034446  0.898915  0.754154  1
  Sn  Sn30  1  0.465554  0.398915  0.245846  1
  Sn  Sn31  1  0.965554  0.101085  0.254154  1
  Sn  Sn32  1  0.290891  0.146496  0.752548  1
  Sn  Sn33  1  0.790891  0.353504  0.747452  1
  Sn  Sn34  1  0.709109  0.853504  0.252548  1
  Sn  Sn35  1  0.209109  0.646496  0.247452  1
