# generated using pymatgen
data_Hf6Sc2Co7Si14Ni
_symmetry_space_group_name_H-M   'P 1'
_cell_length_a   9.46116195
_cell_length_b   9.45215849
_cell_length_c   9.47208662
_cell_angle_alpha   94.06740364
_cell_angle_beta   94.11166399
_cell_angle_gamma   148.98112949
_symmetry_Int_Tables_number   1
_chemical_formula_structural   Hf6Sc2Co7Si14Ni
_chemical_formula_sum   'Hf6 Sc2 Co7 Si14 Ni1'
_cell_volume   420.70329846
_cell_formula_units_Z   1
loop_
 _symmetry_equiv_pos_site_id
 _symmetry_equiv_pos_as_xyz
  1  'x, y, z'
loop_
 _atom_site_type_symbol
 _atom_site_label
 _atom_site_symmetry_multiplicity
 _atom_site_fract_x
 _atom_site_fract_y
 _atom_site_fract_z
 _atom_site_occupancy
  Hf  Hf0  1  0.136638  0.862263  0.999550  1
  Hf  Hf1  1  0.862992  0.137297  0.999567  1
  Hf  Hf2  1  0.304969  0.500399  0.802931  1
  Hf  Hf3  1  0.696890  0.501394  0.196704  1
  Hf  Hf4  1  0.499715  0.695245  0.196671  1
  Hf  Hf5  1  0.498298  0.302859  0.802902  1
  Sc  Sc6  1  0.138404  0.138398  0.276638  1
  Sc  Sc7  1  0.861443  0.861325  0.722476  1
  Co  Co8  1  0.397312  0.897239  0.794274  1
  Co  Co9  1  0.900457  0.103620  0.501508  1
  Co  Co10  1  0.601473  0.398167  0.501475  1
  Co  Co11  1  0.601538  0.101432  0.205004  1
  Co  Co12  1  0.899080  0.399038  0.797938  1
  Co  Co13  1  0.102375  0.895452  0.498634  1
  Co  Co14  1  0.396535  0.603638  0.498521  1
  Si  Si15  1  0.290425  0.290405  0.579939  1
  Si  Si16  1  0.709963  0.709940  0.419990  1
  Si  Si17  1  0.294376  0.712861  0.999002  1
  Si  Si18  1  0.704059  0.285648  0.998802  1
  Si  Si19  1  0.091196  0.499310  0.591360  1
  Si  Si20  1  0.896870  0.490530  0.410813  1
  Si  Si21  1  0.513810  0.920227  0.410719  1
  Si  Si22  1  0.500504  0.092400  0.591361  1
  Si  Si23  1  0.251473  0.251372  0.999763  1
  Si  Si24  1  0.748581  0.748616  0.999791  1
  Si  Si25  1  0.302492  0.005385  0.299999  1
  Si  Si26  1  0.702247  0.001067  0.700319  1
  Si  Si27  1  0.998534  0.699552  0.700279  1
  Si  Si28  1  0.997463  0.294560  0.299971  1
  Ni  Ni29  1  0.099891  0.600363  0.203100  1
