# generated using pymatgen
data_U4Mn6Si6Ag
_symmetry_space_group_name_H-M   'P 1'
_cell_length_a   6.95749260
_cell_length_b   6.95749203
_cell_length_c   6.95749200
_cell_angle_alpha   109.47122053
_cell_angle_beta   109.47121889
_cell_angle_gamma   109.47122814
_symmetry_Int_Tables_number   1
_chemical_formula_structural   U4Mn6Si6Ag
_chemical_formula_sum   'U4 Mn6 Si6 Ag1'
_cell_volume   259.26044695
_cell_formula_units_Z   1
loop_
 _symmetry_equiv_pos_site_id
 _symmetry_equiv_pos_as_xyz
  1  'x, y, z'
loop_
 _atom_site_type_symbol
 _atom_site_label
 _atom_site_symmetry_multiplicity
 _atom_site_fract_x
 _atom_site_fract_y
 _atom_site_fract_z
 _atom_site_occupancy
  U  U0  1  0.500000  0.500000  0.500000  1
  U  U1  1  0.000000  0.500000  0.000000  1
  U  U2  1  0.500000  0.000000  0.000000  1
  U  U3  1  0.000000  0.000000  0.500000  1
  Mn  Mn4  1  0.500000  0.750000  0.250000  1
  Mn  Mn5  1  0.750000  0.250000  0.500000  1
  Mn  Mn6  1  0.250000  0.750000  0.500000  1
  Mn  Mn7  1  0.250000  0.500000  0.750000  1
  Mn  Mn8  1  0.500000  0.250000  0.750000  1
  Mn  Mn9  1  0.750000  0.500000  0.250000  1
  Si  Si10  1  0.664671  0.000000  0.664671  1
  Si  Si11  1  0.664671  0.664671  0.000000  1
  Si  Si12  1  0.335329  0.335329  0.000000  1
  Si  Si13  1  0.000000  0.664671  0.664671  1
  Si  Si14  1  0.000000  0.335329  0.335329  1
  Si  Si15  1  0.335329  0.000000  0.335329  1
  Ag  Ag16  1  0.000000  0.000000  0.000000  1
