# generated using pymatgen
data_Tb2Mn5Cr2(FeP2)3
_symmetry_space_group_name_H-M   'P 1'
_cell_length_a   3.63496000
_cell_length_b   10.51526000
_cell_length_c   12.19639200
_cell_angle_alpha   90.00000000
_cell_angle_beta   90.00000000
_cell_angle_gamma   90.00000000
_symmetry_Int_Tables_number   1
_chemical_formula_structural   Tb2Mn5Cr2(FeP2)3
_chemical_formula_sum   'Tb4 Mn10 Cr4 Fe6 P12'
_cell_volume   466.17719681
_cell_formula_units_Z   2
loop_
 _symmetry_equiv_pos_site_id
 _symmetry_equiv_pos_as_xyz
  1  'x, y, z'
loop_
 _atom_site_type_symbol
 _atom_site_label
 _atom_site_symmetry_multiplicity
 _atom_site_fract_x
 _atom_site_fract_y
 _atom_site_fract_z
 _atom_site_occupancy
  Tb  Tb0  1  0.250000  0.580131  0.709355  1
  Tb  Tb1  1  0.250000  0.919869  0.209355  1
  Tb  Tb2  1  0.750000  0.415151  0.292002  1
  Tb  Tb3  1  0.750000  0.084849  0.792002  1
  Mn  Mn4  1  0.250000  0.406124  0.492501  1
  Mn  Mn5  1  0.250000  0.093876  0.992501  1
  Mn  Mn6  1  0.750000  0.589705  0.507120  1
  Mn  Mn7  1  0.750000  0.910295  0.007120  1
  Mn  Mn8  1  0.250000  0.217432  0.176189  1
  Mn  Mn9  1  0.250000  0.282568  0.676189  1
  Mn  Mn10  1  0.750000  0.780443  0.824630  1
  Mn  Mn11  1  0.750000  0.719557  0.324630  1
  Mn  Mn12  1  0.250000  0.876781  0.698118  1
  Mn  Mn13  1  0.250000  0.623219  0.198118  1
  Cr  Cr14  1  0.250000  0.705882  0.987583  1
  Cr  Cr15  1  0.250000  0.794118  0.487583  1
  Cr  Cr16  1  0.750000  0.296746  0.011483  1
  Cr  Cr17  1  0.750000  0.203254  0.511483  1
  Fe  Fe18  1  0.750000  0.125075  0.300899  1
  Fe  Fe19  1  0.750000  0.374925  0.800899  1
  Fe  Fe20  1  0.250000  0.464761  0.934614  1
  Fe  Fe21  1  0.250000  0.035239  0.434614  1
  Fe  Fe22  1  0.750000  0.537931  0.066961  1
  Fe  Fe23  1  0.750000  0.962069  0.566961  1
  P  P24  1  0.250000  0.422321  0.110241  1
  P  P25  1  0.250000  0.077679  0.610241  1
  P  P26  1  0.750000  0.573646  0.888889  1
  P  P27  1  0.750000  0.926354  0.388889  1
  P  P28  1  0.250000  0.270212  0.870607  1
  P  P29  1  0.250000  0.229788  0.370607  1
  P  P30  1  0.750000  0.736392  0.128132  1
  P  P31  1  0.750000  0.763608  0.628132  1
  P  P32  1  0.250000  0.595774  0.387518  1
  P  P33  1  0.250000  0.904226  0.887518  1
  P  P34  1  0.750000  0.401845  0.613158  1
  P  P35  1  0.750000  0.098155  0.113158  1
