# generated using pymatgen
data_Sm10BCBr15
_symmetry_space_group_name_H-M   'P 1'
_cell_length_a   9.27534044
_cell_length_b   9.98365086
_cell_length_c   10.85023250
_cell_angle_alpha   91.53586009
_cell_angle_beta   114.42530610
_cell_angle_gamma   110.54936525
_symmetry_Int_Tables_number   1
_chemical_formula_structural   Sm10BCBr15
_chemical_formula_sum   'Sm10 B1 C1 Br15'
_cell_volume   839.01325849
_cell_formula_units_Z   1
loop_
 _symmetry_equiv_pos_site_id
 _symmetry_equiv_pos_as_xyz
  1  'x, y, z'
loop_
 _atom_site_type_symbol
 _atom_site_label
 _atom_site_symmetry_multiplicity
 _atom_site_fract_x
 _atom_site_fract_y
 _atom_site_fract_z
 _atom_site_occupancy
  Sm  Sm0  1  0.800679  0.407697  0.275772  1
  Sm  Sm1  1  0.203310  0.596697  0.728106  1
  Sm  Sm2  1  0.672362  0.750541  0.825167  1
  Sm  Sm3  1  0.325546  0.253060  0.178917  1
  Sm  Sm4  1  0.524000  0.707569  0.090353  1
  Sm  Sm5  1  0.474149  0.294385  0.903415  1
  Sm  Sm6  1  0.585706  0.039104  0.323943  1
  Sm  Sm7  1  0.415879  0.957382  0.681390  1
  Sm  Sm8  1  0.719265  0.068655  0.044433  1
  Sm  Sm9  1  0.279515  0.921589  0.949114  1
  B  B10  1  0.532582  0.179959  0.123097  1
  C  C11  1  0.466398  0.819346  0.875908  1
  Br  Br12  1  0.000267  0.999745  0.999485  1
  Br  Br13  1  0.636416  0.881215  0.585929  1
  Br  Br14  1  0.362668  0.117110  0.416750  1
  Br  Br15  1  0.885326  0.300423  0.529756  1
  Br  Br16  1  0.118596  0.702035  0.473945  1
  Br  Br17  1  0.290423  0.761611  0.178525  1
  Br  Br18  1  0.709720  0.236803  0.820180  1
  Br  Br19  1  0.053912  0.340818  0.225173  1
  Br  Br20  1  0.164746  0.056377  0.702631  1
  Br  Br21  1  0.834408  0.941348  0.295836  1
  Br  Br22  1  0.231652  0.412210  0.942888  1
  Br  Br23  1  0.767917  0.591229  0.055849  1
  Br  Br24  1  0.408669  0.466338  0.660539  1
  Br  Br25  1  0.591661  0.538473  0.339328  1
  Br  Br26  1  0.944227  0.658282  0.773573  1
