# generated using pymatgen
data_HfMg2(TaN2)3
_symmetry_space_group_name_H-M   'P 1'
_cell_length_a   5.28188200
_cell_length_b   5.28188201
_cell_length_c   10.58239500
_cell_angle_alpha   90.00000000
_cell_angle_beta   90.00000000
_cell_angle_gamma   119.99999996
_symmetry_Int_Tables_number   1
_chemical_formula_structural   HfMg2(TaN2)3
_chemical_formula_sum   'Hf2 Mg4 Ta6 N12'
_cell_volume   255.67719304
_cell_formula_units_Z   2
loop_
 _symmetry_equiv_pos_site_id
 _symmetry_equiv_pos_as_xyz
  1  'x, y, z'
loop_
 _atom_site_type_symbol
 _atom_site_label
 _atom_site_symmetry_multiplicity
 _atom_site_fract_x
 _atom_site_fract_y
 _atom_site_fract_z
 _atom_site_occupancy
  Hf  Hf0  1  0.000000  0.000000  0.500000  1
  Hf  Hf1  1  0.000000  0.000000  0.000000  1
  Mg  Mg2  1  0.333333  0.666667  0.000000  1
  Mg  Mg3  1  0.333333  0.666667  0.500000  1
  Mg  Mg4  1  0.666667  0.333333  0.500000  1
  Mg  Mg5  1  0.666667  0.333333  0.000000  1
  Ta  Ta6  1  0.000000  0.340054  0.250000  1
  Ta  Ta7  1  0.659946  0.000000  0.750000  1
  Ta  Ta8  1  0.340054  0.340054  0.750000  1
  Ta  Ta9  1  0.659946  0.659946  0.250000  1
  Ta  Ta10  1  0.340054  0.000000  0.250000  1
  Ta  Ta11  1  0.000000  0.659946  0.750000  1
  N  N12  1  0.667099  0.667099  0.624176  1
  N  N13  1  0.667099  0.667099  0.875824  1
  N  N14  1  0.332901  0.332901  0.124176  1
  N  N15  1  0.332901  0.332901  0.375824  1
  N  N16  1  0.332901  0.000000  0.875824  1
  N  N17  1  0.332901  0.000000  0.624176  1
  N  N18  1  0.000000  0.667099  0.375824  1
  N  N19  1  0.000000  0.667099  0.124176  1
  N  N20  1  0.667099  0.000000  0.124176  1
  N  N21  1  0.667099  0.000000  0.375824  1
  N  N22  1  0.000000  0.332901  0.875824  1
  N  N23  1  0.000000  0.332901  0.624176  1
