# generated using pymatgen
data_V12SiIrPt2
_symmetry_space_group_name_H-M   'P 1'
_cell_length_a   4.78746300
_cell_length_b   4.77912000
_cell_length_c   9.57415000
_cell_angle_alpha   90.00000000
_cell_angle_beta   90.00000000
_cell_angle_gamma   90.00000000
_symmetry_Int_Tables_number   1
_chemical_formula_structural   V12SiIrPt2
_chemical_formula_sum   'V12 Si1 Ir1 Pt2'
_cell_volume   219.05521327
_cell_formula_units_Z   1
loop_
 _symmetry_equiv_pos_site_id
 _symmetry_equiv_pos_as_xyz
  1  'x, y, z'
loop_
 _atom_site_type_symbol
 _atom_site_label
 _atom_site_symmetry_multiplicity
 _atom_site_fract_x
 _atom_site_fract_y
 _atom_site_fract_z
 _atom_site_occupancy
  V  V0  1  0.000000  0.500000  0.122329  1
  V  V1  1  0.000000  0.500000  0.627260  1
  V  V2  1  0.500000  0.249876  0.753213  1
  V  V3  1  0.500000  0.246744  0.248372  1
  V  V4  1  0.748626  0.000000  0.006767  1
  V  V5  1  0.750760  0.000000  0.492379  1
  V  V6  1  0.000000  0.500000  0.872949  1
  V  V7  1  0.000000  0.500000  0.376361  1
  V  V8  1  0.500000  0.750124  0.753213  1
  V  V9  1  0.500000  0.753256  0.248372  1
  V  V10  1  0.251374  0.000000  0.006767  1
  V  V11  1  0.249240  0.000000  0.492379  1
  Si  Si12  1  0.000000  0.000000  0.249329  1
  Ir  Ir13  1  0.500000  0.500000  0.998801  1
  Pt  Pt14  1  0.500000  0.500000  0.502680  1
  Pt  Pt15  1  0.000000  0.000000  0.748828  1
