# generated using pymatgen
data_MnAl(SiOs2)2
_symmetry_space_group_name_H-M   'P 1'
_cell_length_a   7.28963461
_cell_length_b   7.28963424
_cell_length_c   7.28963479
_cell_angle_alpha   33.52339362
_cell_angle_beta   33.52339591
_cell_angle_gamma   33.52340776
_symmetry_Int_Tables_number   1
_chemical_formula_structural   MnAl(SiOs2)2
_chemical_formula_sum   'Mn1 Al1 Si2 Os4'
_cell_volume   105.23269173
_cell_formula_units_Z   1
loop_
 _symmetry_equiv_pos_site_id
 _symmetry_equiv_pos_as_xyz
  1  'x, y, z'
loop_
 _atom_site_type_symbol
 _atom_site_label
 _atom_site_symmetry_multiplicity
 _atom_site_fract_x
 _atom_site_fract_y
 _atom_site_fract_z
 _atom_site_occupancy
  Mn  Mn0  1  0.000000  0.000000  0.000000  1
  Al  Al1  1  0.500000  0.500000  0.500000  1
  Si  Si2  1  0.248967  0.248967  0.248967  1
  Si  Si3  1  0.751033  0.751033  0.751033  1
  Os  Os4  1  0.627435  0.627435  0.627435  1
  Os  Os5  1  0.123559  0.123559  0.123559  1
  Os  Os6  1  0.876441  0.876441  0.876441  1
  Os  Os7  1  0.372565  0.372565  0.372565  1
