# generated using pymatgen
data_La3Pr4Sc3Si8O3
_symmetry_space_group_name_H-M   'P 1'
_cell_length_a   10.59258500
_cell_length_b   10.58230312
_cell_length_c   4.37901900
_cell_angle_alpha   90.00000000
_cell_angle_beta   90.00000000
_cell_angle_gamma   120.03214895
_symmetry_Int_Tables_number   1
_chemical_formula_structural   La3Pr4Sc3Si8O3
_chemical_formula_sum   'La3 Pr4 Sc3 Si8 O3'
_cell_volume   424.96076353
_cell_formula_units_Z   1
loop_
 _symmetry_equiv_pos_site_id
 _symmetry_equiv_pos_as_xyz
  1  'x, y, z'
loop_
 _atom_site_type_symbol
 _atom_site_label
 _atom_site_symmetry_multiplicity
 _atom_site_fract_x
 _atom_site_fract_y
 _atom_site_fract_z
 _atom_site_occupancy
  La  La0  1  0.999613  0.999227  0.000000  1
  La  La1  1  0.428624  0.214807  0.000000  1
  La  La2  1  0.786182  0.214807  0.000000  1
  Pr  Pr3  1  0.212896  0.785544  0.000000  1
  Pr  Pr4  1  0.572648  0.785544  0.000000  1
  Pr  Pr5  1  0.786718  0.573438  0.000000  1
  Pr  Pr6  1  0.213609  0.427217  0.000000  1
  Sc  Sc7  1  0.001350  0.501395  0.500000  1
  Sc  Sc8  1  0.500045  0.501395  0.500000  1
  Sc  Sc9  1  0.498538  0.997077  0.500000  1
  Si  Si10  1  0.999711  0.772207  0.500000  1
  Si  Si11  1  0.000061  0.226469  0.500000  1
  Si  Si12  1  0.226409  0.226469  0.500000  1
  Si  Si13  1  0.772938  0.999187  0.500000  1
  Si  Si14  1  0.333556  0.667112  0.500000  1
  Si  Si15  1  0.226249  0.999187  0.500000  1
  Si  Si16  1  0.668087  0.336173  0.500000  1
  Si  Si17  1  0.772496  0.772207  0.500000  1
  O  O18  1  0.000695  0.500216  0.000000  1
  O  O19  1  0.499521  0.500216  0.000000  1
  O  O20  1  0.500053  0.000106  0.000000  1
