# generated using pymatgen
data_Hf9CrRe3Rh
_symmetry_space_group_name_H-M   'P 1'
_cell_length_a   8.62799600
_cell_length_b   8.62804740
_cell_length_c   8.41337800
_cell_angle_alpha   90.00000000
_cell_angle_beta   90.00000000
_cell_angle_gamma   120.00110549
_symmetry_Int_Tables_number   1
_chemical_formula_structural   Hf9CrRe3Rh
_chemical_formula_sum   'Hf18 Cr2 Re6 Rh2'
_cell_volume   542.39871610
_cell_formula_units_Z   2
loop_
 _symmetry_equiv_pos_site_id
 _symmetry_equiv_pos_as_xyz
  1  'x, y, z'
loop_
 _atom_site_type_symbol
 _atom_site_label
 _atom_site_symmetry_multiplicity
 _atom_site_fract_x
 _atom_site_fract_y
 _atom_site_fract_z
 _atom_site_occupancy
  Hf  Hf0  1  0.194582  0.805406  0.445824  1
  Hf  Hf1  1  0.194588  0.389177  0.445828  1
  Hf  Hf2  1  0.610827  0.805412  0.445819  1
  Hf  Hf3  1  0.805418  0.194594  0.554176  1
  Hf  Hf4  1  0.805412  0.610823  0.554172  1
  Hf  Hf5  1  0.389173  0.194588  0.554181  1
  Hf  Hf6  1  0.805418  0.194594  0.945824  1
  Hf  Hf7  1  0.805412  0.610823  0.945828  1
  Hf  Hf8  1  0.389173  0.194588  0.945819  1
  Hf  Hf9  1  0.194582  0.805406  0.054176  1
  Hf  Hf10  1  0.194588  0.389177  0.054172  1
  Hf  Hf11  1  0.610827  0.805412  0.054181  1
  Hf  Hf12  1  0.542425  0.457588  0.250000  1
  Hf  Hf13  1  0.542415  0.084834  0.250000  1
  Hf  Hf14  1  0.915153  0.457578  0.250000  1
  Hf  Hf15  1  0.457575  0.542412  0.750000  1
  Hf  Hf16  1  0.457585  0.915166  0.750000  1
  Hf  Hf17  1  0.084847  0.542422  0.750000  1
  Cr  Cr18  1  0.000000  0.000000  0.500000  1
  Cr  Cr19  1  0.000000  0.000000  0.000000  1
  Re  Re20  1  0.891834  0.108148  0.250000  1
  Re  Re21  1  0.891865  0.783731  0.250000  1
  Re  Re22  1  0.216322  0.108159  0.250000  1
  Re  Re23  1  0.108166  0.891852  0.750000  1
  Re  Re24  1  0.108135  0.216269  0.750000  1
  Re  Re25  1  0.783678  0.891841  0.750000  1
  Rh  Rh26  1  0.333323  0.666664  0.250000  1
  Rh  Rh27  1  0.666677  0.333336  0.750000  1
