# generated using pymatgen
data_Tb3YLu(SiB4)2
_symmetry_space_group_name_H-M   'P 1'
_cell_length_a   7.22594603
_cell_length_b   7.22594603
_cell_length_c   8.06471900
_cell_angle_alpha   90.00000000
_cell_angle_beta   90.00000000
_cell_angle_gamma   90.01038722
_symmetry_Int_Tables_number   1
_chemical_formula_structural   Tb3YLu(SiB4)2
_chemical_formula_sum   'Tb6 Y2 Lu2 Si4 B16'
_cell_volume   421.09361830
_cell_formula_units_Z   2
loop_
 _symmetry_equiv_pos_site_id
 _symmetry_equiv_pos_as_xyz
  1  'x, y, z'
loop_
 _atom_site_type_symbol
 _atom_site_label
 _atom_site_symmetry_multiplicity
 _atom_site_fract_x
 _atom_site_fract_y
 _atom_site_fract_z
 _atom_site_occupancy
  Tb  Tb0  1  0.680292  0.180298  0.225904  1
  Tb  Tb1  1  0.319702  0.819708  0.774096  1
  Tb  Tb2  1  0.319702  0.819708  0.225904  1
  Tb  Tb3  1  0.819590  0.680410  0.225820  1
  Tb  Tb4  1  0.819590  0.680410  0.774180  1
  Tb  Tb5  1  0.680292  0.180298  0.774096  1
  Y  Y6  1  0.180328  0.319672  0.774807  1
  Y  Y7  1  0.180328  0.319672  0.225193  1
  Lu  Lu8  1  0.000037  0.000157  0.500000  1
  Lu  Lu9  1  0.499843  0.499963  0.500000  1
  Si  Si10  1  0.115912  0.615596  0.500000  1
  Si  Si11  1  0.884404  0.384088  0.500000  1
  Si  Si12  1  0.384019  0.115981  0.500000  1
  Si  Si13  1  0.615725  0.884275  0.500000  1
  B  B14  1  0.172438  0.039124  0.000000  1
  B  B15  1  0.827705  0.960959  0.000000  1
  B  B16  1  0.960846  0.172355  0.000000  1
  B  B17  1  0.327645  0.539154  0.000000  1
  B  B18  1  0.039125  0.827701  0.000000  1
  B  B19  1  0.672299  0.460875  0.000000  1
  B  B20  1  0.539041  0.672295  0.000000  1
  B  B21  1  0.460876  0.327562  0.000000  1
  B  B22  1  0.089860  0.589762  0.000000  1
  B  B23  1  0.910238  0.410140  0.000000  1
  B  B24  1  0.410212  0.089788  0.000000  1
  B  B25  1  0.589903  0.910097  0.000000  1
  B  B26  1  0.000089  0.000063  0.162985  1
  B  B27  1  0.000089  0.000063  0.837015  1
  B  B28  1  0.499937  0.499911  0.837015  1
  B  B29  1  0.499937  0.499911  0.162985  1
