# generated using pymatgen
data_K2Ba3P4
_symmetry_space_group_name_H-M   'P 1'
_cell_length_a   8.14929200
_cell_length_b   8.47573328
_cell_length_c   18.42631453
_cell_angle_alpha   62.54234141
_cell_angle_beta   90.00000000
_cell_angle_gamma   90.00000000
_symmetry_Int_Tables_number   1
_chemical_formula_structural   K2Ba3P4
_chemical_formula_sum   'K8 Ba12 P16'
_cell_volume   1129.35762029
_cell_formula_units_Z   4
loop_
 _symmetry_equiv_pos_site_id
 _symmetry_equiv_pos_as_xyz
  1  'x, y, z'
loop_
 _atom_site_type_symbol
 _atom_site_label
 _atom_site_symmetry_multiplicity
 _atom_site_fract_x
 _atom_site_fract_y
 _atom_site_fract_z
 _atom_site_occupancy
  K  K0  1  0.877143  0.244148  0.248858  1
  K  K1  1  0.377143  0.755852  0.251142  1
  K  K2  1  0.122857  0.755852  0.751142  1
  K  K3  1  0.622857  0.244148  0.748858  1
  K  K4  1  0.694477  0.064963  0.121355  1
  K  K5  1  0.194477  0.935037  0.378645  1
  K  K6  1  0.305523  0.935037  0.878645  1
  K  K7  1  0.805523  0.064963  0.621355  1
  Ba  Ba8  1  0.561061  0.596106  0.107393  1
  Ba  Ba9  1  0.061061  0.403894  0.392607  1
  Ba  Ba10  1  0.439866  0.697415  0.606062  1
  Ba  Ba11  1  0.939866  0.302585  0.893938  1
  Ba  Ba12  1  0.438939  0.403894  0.892607  1
  Ba  Ba13  1  0.938939  0.596106  0.607393  1
  Ba  Ba14  1  0.560134  0.302585  0.393938  1
  Ba  Ba15  1  0.060134  0.697415  0.106062  1
  Ba  Ba16  1  0.307125  0.186224  0.624986  1
  Ba  Ba17  1  0.807125  0.813776  0.875014  1
  Ba  Ba18  1  0.692875  0.813776  0.375014  1
  Ba  Ba19  1  0.192875  0.186224  0.124986  1
  P  P20  1  0.882965  0.446458  0.036375  1
  P  P21  1  0.382965  0.553542  0.463625  1
  P  P22  1  0.116651  0.990849  0.536346  1
  P  P23  1  0.616651  0.009151  0.963654  1
  P  P24  1  0.117035  0.553542  0.963625  1
  P  P25  1  0.617035  0.446458  0.536375  1
  P  P26  1  0.883349  0.009151  0.463654  1
  P  P27  1  0.383349  0.990849  0.036346  1
  P  P28  1  0.979831  0.821565  0.249913  1
  P  P29  1  0.479831  0.178435  0.250087  1
  P  P30  1  0.020169  0.178435  0.750087  1
  P  P31  1  0.520169  0.821565  0.749913  1
  P  P32  1  0.781195  0.629974  0.253887  1
  P  P33  1  0.281195  0.370026  0.246113  1
  P  P34  1  0.218805  0.370026  0.746113  1
  P  P35  1  0.718805  0.629974  0.753887  1
