# generated using pymatgen
data_SmTh(Co3Si2)2
_symmetry_space_group_name_H-M   'P 1'
_cell_length_a   6.33561231
_cell_length_b   6.33561337
_cell_length_c   6.33561234
_cell_angle_alpha   130.18090844
_cell_angle_beta   114.20138924
_cell_angle_gamma   86.83862849
_symmetry_Int_Tables_number   1
_chemical_formula_structural   SmTh(Co3Si2)2
_chemical_formula_sum   'Sm1 Th1 Co6 Si4'
_cell_volume   169.03385175
_cell_formula_units_Z   1
loop_
 _symmetry_equiv_pos_site_id
 _symmetry_equiv_pos_as_xyz
  1  'x, y, z'
loop_
 _atom_site_type_symbol
 _atom_site_label
 _atom_site_symmetry_multiplicity
 _atom_site_fract_x
 _atom_site_fract_y
 _atom_site_fract_z
 _atom_site_occupancy
  Sm  Sm0  1  0.750000  0.461377  0.711377  1
  Th  Th1  1  0.250000  0.536421  0.286421  1
  Co  Co2  1  0.013299  0.000200  0.513499  1
  Co  Co3  1  0.486701  0.000200  0.986901  1
  Co  Co4  1  0.721155  0.997979  0.720386  1
  Co  Co5  1  0.222407  0.499231  0.720386  1
  Co  Co6  1  0.277593  0.997979  0.276823  1
  Co  Co7  1  0.778845  0.499231  0.276823  1
  Si  Si8  1  0.072366  0.870233  0.797867  1
  Si  Si9  1  0.909788  0.115613  0.205824  1
  Si  Si10  1  0.590212  0.796037  0.205824  1
  Si  Si11  1  0.427634  0.225501  0.797867  1
