# generated using pymatgen
data_Na3MnFeN4
_symmetry_space_group_name_H-M   'P 1'
_cell_length_a   5.60591900
_cell_length_b   9.37001000
_cell_length_c   9.36163000
_cell_angle_alpha   90.00000000
_cell_angle_beta   90.00000000
_cell_angle_gamma   90.00000000
_symmetry_Int_Tables_number   1
_chemical_formula_structural   Na3MnFeN4
_chemical_formula_sum   'Na12 Mn4 Fe4 N16'
_cell_volume   491.74317981
_cell_formula_units_Z   4
loop_
 _symmetry_equiv_pos_site_id
 _symmetry_equiv_pos_as_xyz
  1  'x, y, z'
loop_
 _atom_site_type_symbol
 _atom_site_label
 _atom_site_symmetry_multiplicity
 _atom_site_fract_x
 _atom_site_fract_y
 _atom_site_fract_z
 _atom_site_occupancy
  Na  Na0  1  0.640020  0.155187  0.416466  1
  Na  Na1  1  0.859980  0.844813  0.416466  1
  Na  Na2  1  0.640020  0.344813  0.083534  1
  Na  Na3  1  0.859980  0.655187  0.083534  1
  Na  Na4  1  0.359980  0.844813  0.583534  1
  Na  Na5  1  0.140020  0.155187  0.583534  1
  Na  Na6  1  0.359980  0.655187  0.916466  1
  Na  Na7  1  0.140020  0.344813  0.916466  1
  Na  Na8  1  0.750000  0.500000  0.413794  1
  Na  Na9  1  0.750000  0.000000  0.086206  1
  Na  Na10  1  0.250000  0.500000  0.586206  1
  Na  Na11  1  0.250000  0.000000  0.913794  1
  Mn  Mn12  1  0.750000  0.500000  0.739303  1
  Mn  Mn13  1  0.750000  0.000000  0.760697  1
  Mn  Mn14  1  0.250000  0.500000  0.260697  1
  Mn  Mn15  1  0.250000  0.000000  0.239303  1
  Fe  Fe16  1  0.701915  0.250000  0.750000  1
  Fe  Fe17  1  0.798085  0.750000  0.750000  1
  Fe  Fe18  1  0.298085  0.750000  0.250000  1
  Fe  Fe19  1  0.201915  0.250000  0.250000  1
  N  N20  1  0.893896  0.362249  0.640509  1
  N  N21  1  0.606104  0.637751  0.640509  1
  N  N22  1  0.893896  0.137751  0.859491  1
  N  N23  1  0.606104  0.862249  0.859491  1
  N  N24  1  0.106104  0.637751  0.359491  1
  N  N25  1  0.393896  0.362249  0.359491  1
  N  N26  1  0.106104  0.862249  0.140509  1
  N  N27  1  0.393896  0.137751  0.140509  1
  N  N28  1  0.539619  0.396829  0.836582  1
  N  N29  1  0.960381  0.603171  0.836582  1
  N  N30  1  0.539619  0.103171  0.663418  1
  N  N31  1  0.960381  0.896829  0.663418  1
  N  N32  1  0.460381  0.603171  0.163418  1
  N  N33  1  0.039619  0.396829  0.163418  1
  N  N34  1  0.460381  0.896829  0.336582  1
  N  N35  1  0.039619  0.103171  0.336582  1
