# generated using pymatgen
data_Tm2Sn4Rh3
_symmetry_space_group_name_H-M   'P 1'
_cell_length_a   7.02512741
_cell_length_b   7.68417701
_cell_length_c   4.12417900
_cell_angle_alpha   90.00000000
_cell_angle_beta   90.00000000
_cell_angle_gamma   123.15504670
_symmetry_Int_Tables_number   1
_chemical_formula_structural   Tm2Sn4Rh3
_chemical_formula_sum   'Tm2 Sn4 Rh3'
_cell_volume   186.38673690
_cell_formula_units_Z   1
loop_
 _symmetry_equiv_pos_site_id
 _symmetry_equiv_pos_as_xyz
  1  'x, y, z'
loop_
 _atom_site_type_symbol
 _atom_site_label
 _atom_site_symmetry_multiplicity
 _atom_site_fract_x
 _atom_site_fract_y
 _atom_site_fract_z
 _atom_site_occupancy
  Tm  Tm0  1  0.582403  0.596943  0.000000  1
  Tm  Tm1  1  0.417597  0.014539  0.000000  1
  Sn  Sn2  1  0.000000  0.388437  0.000000  1
  Sn  Sn3  1  0.281770  0.260726  0.500000  1
  Sn  Sn4  1  0.000000  0.766686  0.500000  1
  Sn  Sn5  1  0.718230  0.978956  0.500000  1
  Rh  Rh6  1  0.718609  0.348757  0.500000  1
  Rh  Rh7  1  0.281391  0.630148  0.500000  1
  Rh  Rh8  1  0.000000  0.014809  0.000000  1
