# generated using pymatgen
data_KP5Ru3O19
_symmetry_space_group_name_H-M   'P 1'
_cell_length_a   8.52968135
_cell_length_b   8.52968087
_cell_length_c   6.40336617
_cell_angle_alpha   81.46706564
_cell_angle_beta   81.46706674
_cell_angle_gamma   113.08569750
_symmetry_Int_Tables_number   1
_chemical_formula_structural   KP5Ru3O19
_chemical_formula_sum   'K1 P5 Ru3 O19'
_cell_volume   412.75862426
_cell_formula_units_Z   1
loop_
 _symmetry_equiv_pos_site_id
 _symmetry_equiv_pos_as_xyz
  1  'x, y, z'
loop_
 _atom_site_type_symbol
 _atom_site_label
 _atom_site_symmetry_multiplicity
 _atom_site_fract_x
 _atom_site_fract_y
 _atom_site_fract_z
 _atom_site_occupancy
  K  K0  1  0.090850  0.090850  0.444251  1
  P  P1  1  0.813821  0.185563  0.999381  1
  P  P2  1  0.185563  0.813821  0.999381  1
  P  P3  1  0.675027  0.675027  0.701782  1
  P  P4  1  0.604485  0.314636  0.273774  1
  P  P5  1  0.314636  0.604485  0.273774  1
  Ru  Ru6  1  0.243841  0.490625  0.822961  1
  Ru  Ru7  1  0.765162  0.765162  0.158933  1
  Ru  Ru8  1  0.490625  0.243841  0.822961  1
  O  O9  1  0.678312  0.493644  0.745944  1
  O  O10  1  0.225172  0.514117  0.509403  1
  O  O11  1  0.242246  0.462133  0.145666  1
  O  O12  1  0.675475  0.156405  0.862326  1
  O  O13  1  0.324582  0.988413  0.866774  1
  O  O14  1  0.788204  0.788204  0.841648  1
  O  O15  1  0.512163  0.708098  0.226563  1
  O  O16  1  0.779673  0.779673  0.466817  1
  O  O17  1  0.329807  0.329807  0.807727  1
  O  O18  1  0.708098  0.512163  0.226563  1
  O  O19  1  0.156405  0.675475  0.862326  1
  O  O20  1  0.246811  0.752825  0.211549  1
  O  O21  1  0.023176  0.835163  0.098385  1
  O  O22  1  0.462133  0.242246  0.145666  1
  O  O23  1  0.514117  0.225172  0.509403  1
  O  O24  1  0.493644  0.678312  0.745944  1
  O  O25  1  0.988413  0.324582  0.866774  1
  O  O26  1  0.835163  0.023176  0.098385  1
  O  O27  1  0.752825  0.246811  0.211549  1
