# generated using pymatgen
data_BaMg2In7Rh2
_symmetry_space_group_name_H-M   'P 1'
_cell_length_a   9.13337700
_cell_length_b   9.10754461
_cell_length_c   4.08081400
_cell_angle_alpha   90.00000000
_cell_angle_beta   90.00000000
_cell_angle_gamma   120.09386727
_symmetry_Int_Tables_number   1
_chemical_formula_structural   BaMg2In7Rh2
_chemical_formula_sum   'Ba1 Mg2 In7 Rh2'
_cell_volume   293.69635751
_cell_formula_units_Z   1
loop_
 _symmetry_equiv_pos_site_id
 _symmetry_equiv_pos_as_xyz
  1  'x, y, z'
loop_
 _atom_site_type_symbol
 _atom_site_label
 _atom_site_symmetry_multiplicity
 _atom_site_fract_x
 _atom_site_fract_y
 _atom_site_fract_z
 _atom_site_occupancy
  Ba  Ba0  1  0.000000  0.000000  0.000000  1
  Mg  Mg1  1  0.000000  0.500000  0.000000  1
  Mg  Mg2  1  0.500000  0.500000  0.000000  1
  In  In3  1  0.588608  0.787848  0.500000  1
  In  In4  1  0.199242  0.787848  0.500000  1
  In  In5  1  0.207863  0.415726  0.500000  1
  In  In6  1  0.792137  0.584274  0.500000  1
  In  In7  1  0.800758  0.212152  0.500000  1
  In  In8  1  0.411392  0.212152  0.500000  1
  In  In9  1  0.500000  0.000000  0.000000  1
  Rh  Rh10  1  0.333201  0.666403  0.000000  1
  Rh  Rh11  1  0.666799  0.333597  0.000000  1
