# generated using pymatgen
data_Sm5YMg4Pt13
_symmetry_space_group_name_H-M   'P 1'
_cell_length_a   8.37628189
_cell_length_b   8.37628207
_cell_length_c   8.37628300
_cell_angle_alpha   109.50706497
_cell_angle_beta   109.50706540
_cell_angle_gamma   109.39955597
_symmetry_Int_Tables_number   1
_chemical_formula_structural   Sm5YMg4Pt13
_chemical_formula_sum   'Sm5 Y1 Mg4 Pt13'
_cell_volume   452.40929208
_cell_formula_units_Z   1
loop_
 _symmetry_equiv_pos_site_id
 _symmetry_equiv_pos_as_xyz
  1  'x, y, z'
loop_
 _atom_site_type_symbol
 _atom_site_label
 _atom_site_symmetry_multiplicity
 _atom_site_fract_x
 _atom_site_fract_y
 _atom_site_fract_z
 _atom_site_occupancy
  Sm  Sm0  1  0.303101  0.000351  0.302748  1
  Sm  Sm1  1  0.000352  0.303099  0.302747  1
  Sm  Sm2  1  0.300709  0.300710  0.000001  1
  Sm  Sm3  1  0.697603  0.000351  0.697249  1
  Sm  Sm4  1  0.000353  0.697603  0.697250  1
  Y  Y5  1  0.694959  0.694963  0.000003  1
  Mg  Mg6  1  0.000080  0.000080  0.498364  1
  Mg  Mg7  1  0.000077  0.501726  0.000001  1
  Mg  Mg8  1  0.501716  0.000080  0.000000  1
  Mg  Mg9  1  0.501725  0.501726  0.501649  1
  Pt  Pt10  1  0.334843  0.334830  0.669062  1
  Pt  Pt11  1  0.667578  0.999419  0.331840  1
  Pt  Pt12  1  0.999415  0.667555  0.331843  1
  Pt  Pt13  1  0.665767  0.334830  0.999987  1
  Pt  Pt14  1  0.333226  0.666438  0.333212  1
  Pt  Pt15  1  0.000015  0.333238  0.666794  1
  Pt  Pt16  1  0.334822  0.665758  0.000012  1
  Pt  Pt17  1  0.333220  0.000015  0.666795  1
  Pt  Pt18  1  0.666444  0.333238  0.333223  1
  Pt  Pt19  1  0.665746  0.665758  0.330937  1
  Pt  Pt20  1  0.667563  0.335710  0.668146  1
  Pt  Pt21  1  0.335713  0.667555  0.668140  1
  Pt  Pt22  1  0.994973  0.994970  0.999998  1
