# generated using pymatgen
data_Dy20PPb12
_symmetry_space_group_name_H-M   'P 1'
_cell_length_a   6.60099900
_cell_length_b   8.99081138
_cell_length_c   15.66695300
_cell_angle_alpha   90.00000637
_cell_angle_beta   90.00000000
_cell_angle_gamma   89.89064433
_symmetry_Int_Tables_number   1
_chemical_formula_structural   Dy20PPb12
_chemical_formula_sum   'Dy20 P1 Pb12'
_cell_volume   929.80591131
_cell_formula_units_Z   1
loop_
 _symmetry_equiv_pos_site_id
 _symmetry_equiv_pos_as_xyz
  1  'x, y, z'
loop_
 _atom_site_type_symbol
 _atom_site_label
 _atom_site_symmetry_multiplicity
 _atom_site_fract_x
 _atom_site_fract_y
 _atom_site_fract_z
 _atom_site_occupancy
  Dy  Dy0  1  0.499997  0.999994  0.334574  1
  Dy  Dy1  1  0.500000  0.500000  0.831011  1
  Dy  Dy2  1  0.500000  0.500000  0.168989  1
  Dy  Dy3  1  0.499997  0.999994  0.665426  1
  Dy  Dy4  1  0.000000  0.500005  0.165530  1
  Dy  Dy5  1  0.999999  0.999996  0.666849  1
  Dy  Dy6  1  0.999999  0.999996  0.333151  1
  Dy  Dy7  1  0.000000  0.500005  0.834470  1
  Dy  Dy8  1  0.746566  0.241242  0.000000  1
  Dy  Dy9  1  0.749276  0.738072  0.500000  1
  Dy  Dy10  1  0.751090  0.381480  0.383123  1
  Dy  Dy11  1  0.746321  0.877645  0.877911  1
  Dy  Dy12  1  0.746321  0.877645  0.122089  1
  Dy  Dy13  1  0.751090  0.381480  0.616877  1
  Dy  Dy14  1  0.253423  0.758754  0.000000  1
  Dy  Dy15  1  0.250720  0.261933  0.500000  1
  Dy  Dy16  1  0.253680  0.122356  0.122088  1
  Dy  Dy17  1  0.248930  0.618521  0.616875  1
  Dy  Dy18  1  0.248930  0.618521  0.383125  1
  Dy  Dy19  1  0.253680  0.122356  0.877912  1
  P  P20  1  0.499999  0.999996  0.000000  1
  Pb  Pb21  1  0.747612  0.603649  0.000000  1
  Pb  Pb22  1  0.750742  0.104681  0.500000  1
  Pb  Pb23  1  0.749664  0.198445  0.199224  1
  Pb  Pb24  1  0.752594  0.696357  0.695807  1
  Pb  Pb25  1  0.752594  0.696357  0.304193  1
  Pb  Pb26  1  0.749664  0.198445  0.800776  1
  Pb  Pb27  1  0.252389  0.396352  0.000000  1
  Pb  Pb28  1  0.249233  0.895329  0.500000  1
  Pb  Pb29  1  0.247406  0.303643  0.304194  1
  Pb  Pb30  1  0.250339  0.801556  0.800781  1
  Pb  Pb31  1  0.250339  0.801556  0.199219  1
  Pb  Pb32  1  0.247406  0.303643  0.695806  1
