# generated using pymatgen
data_Pr3Hg5
_symmetry_space_group_name_H-M   'P 1'
_cell_length_a   6.57379662
_cell_length_b   6.57379764
_cell_length_c   10.64063100
_cell_angle_alpha   90.00000000
_cell_angle_beta   90.00000000
_cell_angle_gamma   105.95896662
_symmetry_Int_Tables_number   1
_chemical_formula_structural   Pr3Hg5
_chemical_formula_sum   'Pr6 Hg10'
_cell_volume   442.11034754
_cell_formula_units_Z   2
loop_
 _symmetry_equiv_pos_site_id
 _symmetry_equiv_pos_as_xyz
  1  'x, y, z'
loop_
 _atom_site_type_symbol
 _atom_site_label
 _atom_site_symmetry_multiplicity
 _atom_site_fract_x
 _atom_site_fract_y
 _atom_site_fract_z
 _atom_site_occupancy
  Pr  Pr0  1  0.594812  0.594812  0.250000  1
  Pr  Pr1  1  0.405188  0.405188  0.750000  1
  Pr  Pr2  1  0.201672  0.798328  0.500000  1
  Pr  Pr3  1  0.201672  0.798328  0.000000  1
  Pr  Pr4  1  0.798328  0.201672  0.500000  1
  Pr  Pr5  1  0.798328  0.201672  0.000000  1
  Hg  Hg6  1  0.001767  0.001767  0.250000  1
  Hg  Hg7  1  0.998233  0.998233  0.750000  1
  Hg  Hg8  1  0.304538  0.304538  0.035662  1
  Hg  Hg9  1  0.695462  0.695462  0.964338  1
  Hg  Hg10  1  0.304538  0.304538  0.464338  1
  Hg  Hg11  1  0.695462  0.695462  0.535662  1
  Hg  Hg12  1  0.488274  0.053509  0.250000  1
  Hg  Hg13  1  0.946491  0.511726  0.750000  1
  Hg  Hg14  1  0.511726  0.946491  0.750000  1
  Hg  Hg15  1  0.053509  0.488274  0.250000  1
