# generated using pymatgen
data_Er6CrFeB14
_symmetry_space_group_name_H-M   'P 1'
_cell_length_a   7.97733234
_cell_length_b   7.97733229
_cell_length_c   9.24970400
_cell_angle_alpha   90.00000000
_cell_angle_beta   90.00000000
_cell_angle_gamma   155.33254879
_symmetry_Int_Tables_number   1
_chemical_formula_structural   Er6CrFeB14
_chemical_formula_sum   'Er6 Cr1 Fe1 B14'
_cell_volume   245.66571742
_cell_formula_units_Z   1
loop_
 _symmetry_equiv_pos_site_id
 _symmetry_equiv_pos_as_xyz
  1  'x, y, z'
loop_
 _atom_site_type_symbol
 _atom_site_label
 _atom_site_symmetry_multiplicity
 _atom_site_fract_x
 _atom_site_fract_y
 _atom_site_fract_z
 _atom_site_occupancy
  Er  Er0  1  0.894481  0.105519  0.440603  1
  Er  Er1  1  0.105068  0.894932  0.560520  1
  Er  Er2  1  0.894481  0.105519  0.059397  1
  Er  Er3  1  0.105068  0.894932  0.939480  1
  Er  Er4  1  0.243095  0.756905  0.250000  1
  Er  Er5  1  0.757664  0.242336  0.750000  1
  Cr  Cr6  1  0.052624  0.947376  0.250000  1
  Fe  Fe7  1  0.945977  0.054023  0.750000  1
  B  B8  1  0.728064  0.271936  0.467612  1
  B  B9  1  0.272823  0.727177  0.534193  1
  B  B10  1  0.728064  0.271936  0.032388  1
  B  B11  1  0.272823  0.727177  0.965807  1
  B  B12  1  0.631570  0.368430  0.151167  1
  B  B13  1  0.370072  0.629928  0.847039  1
  B  B14  1  0.631570  0.368430  0.348833  1
  B  B15  1  0.370072  0.629928  0.652961  1
  B  B16  1  0.520598  0.479402  0.095650  1
  B  B17  1  0.478790  0.521210  0.902254  1
  B  B18  1  0.520598  0.479402  0.404350  1
  B  B19  1  0.478790  0.521210  0.597746  1
  B  B20  1  0.456745  0.543255  0.250000  1
  B  B21  1  0.540963  0.459037  0.750000  1
