# generated using pymatgen
data_Tb3DyAl15(SiIr2)3
_symmetry_space_group_name_H-M   'P 1'
_cell_length_a   7.54234233
_cell_length_b   7.52602723
_cell_length_c   9.33703201
_cell_angle_alpha   89.99624276
_cell_angle_beta   89.91649191
_cell_angle_gamma   119.73209378
_symmetry_Int_Tables_number   1
_chemical_formula_structural   Tb3DyAl15(SiIr2)3
_chemical_formula_sum   'Tb3 Dy1 Al15 Si3 Ir6'
_cell_volume   460.23216470
_cell_formula_units_Z   1
loop_
 _symmetry_equiv_pos_site_id
 _symmetry_equiv_pos_as_xyz
  1  'x, y, z'
loop_
 _atom_site_type_symbol
 _atom_site_label
 _atom_site_symmetry_multiplicity
 _atom_site_fract_x
 _atom_site_fract_y
 _atom_site_fract_z
 _atom_site_occupancy
  Tb  Tb0  1  0.993766  0.669049  0.748421  1
  Tb  Tb1  1  0.005067  0.325559  0.253058  1
  Tb  Tb2  1  0.678837  0.999890  0.748083  1
  Dy  Dy3  1  0.325758  0.005615  0.249570  1
  Al  Al4  1  0.998090  0.668457  0.422214  1
  Al  Al5  1  0.999034  0.664179  0.075153  1
  Al  Al6  1  0.336107  0.000317  0.924792  1
  Al  Al7  1  0.001806  0.336338  0.928716  1
  Al  Al8  1  0.663216  0.998828  0.075189  1
  Al  Al9  1  0.659090  0.993929  0.422540  1
  Al  Al10  1  0.335802  0.000425  0.575743  1
  Al  Al11  1  0.335945  0.335392  0.057632  1
  Al  Al12  1  0.664871  0.665408  0.942516  1
  Al  Al13  1  0.664316  0.664971  0.558741  1
  Al  Al14  1  0.338891  0.335455  0.442190  1
  Al  Al15  1  0.334546  0.546453  0.750370  1
  Al  Al16  1  0.665328  0.451324  0.250161  1
  Al  Al17  1  0.546060  0.335598  0.750327  1
  Al  Al18  1  0.450639  0.663391  0.249381  1
  Si  Si19  1  0.132029  0.127797  0.750851  1
  Si  Si20  1  0.871058  0.872400  0.249707  1
  Si  Si21  1  0.001309  0.338024  0.572801  1
  Ir  Ir22  1  0.679019  0.328630  0.501592  1
  Ir  Ir23  1  0.320300  0.663864  0.500185  1
  Ir  Ir24  1  0.328027  0.671157  0.999433  1
  Ir  Ir25  1  0.671888  0.328623  0.999287  1
  Ir  Ir26  1  0.999412  0.008308  0.501805  1
  Ir  Ir27  1  0.999791  0.000624  0.999541  1
