# generated using pymatgen
data_Tb6InFePd
_symmetry_space_group_name_H-M   'P 1'
_cell_length_a   8.52721732
_cell_length_b   8.52678680
_cell_length_c   8.52721729
_cell_angle_alpha   111.49616897
_cell_angle_beta   109.83222769
_cell_angle_gamma   107.11719502
_symmetry_Int_Tables_number   1
_chemical_formula_structural   Tb6InFePd
_chemical_formula_sum   'Tb12 In2 Fe2 Pd2'
_cell_volume   476.56697887
_cell_formula_units_Z   2
loop_
 _symmetry_equiv_pos_site_id
 _symmetry_equiv_pos_as_xyz
  1  'x, y, z'
loop_
 _atom_site_type_symbol
 _atom_site_label
 _atom_site_symmetry_multiplicity
 _atom_site_fract_x
 _atom_site_fract_y
 _atom_site_fract_z
 _atom_site_occupancy
  Tb  Tb0  1  0.447121  0.245075  0.202085  1
  Tb  Tb1  1  0.552879  0.754925  0.797915  1
  Tb  Tb2  1  0.042990  0.245075  0.797953  1
  Tb  Tb3  1  0.957010  0.754925  0.202047  1
  Tb  Tb4  1  0.181583  0.285884  0.467482  1
  Tb  Tb5  1  0.818417  0.714116  0.532518  1
  Tb  Tb6  1  0.181598  0.714116  0.895699  1
  Tb  Tb7  1  0.818402  0.285884  0.104301  1
  Tb  Tb8  1  0.310823  0.618057  0.307234  1
  Tb  Tb9  1  0.689177  0.381943  0.692766  1
  Tb  Tb10  1  0.310834  0.003629  0.692793  1
  Tb  Tb11  1  0.689166  0.996371  0.307207  1
  In  In12  1  0.500000  0.500000  0.000000  1
  In  In13  1  0.000000  0.000000  0.000000  1
  Fe  Fe14  1  0.107296  0.607280  0.499983  1
  Fe  Fe15  1  0.892704  0.392720  0.500017  1
  Pd  Pd16  1  0.348606  0.000000  0.348606  1
  Pd  Pd17  1  0.651394  0.000000  0.651394  1
