# generated using pymatgen
data_Tb6Al24FeRuRh6
_symmetry_space_group_name_H-M   'P 1'
_cell_length_a   8.82857600
_cell_length_b   8.82857728
_cell_length_c   9.46813300
_cell_angle_alpha   90.00000000
_cell_angle_beta   90.00000000
_cell_angle_gamma   120.00000268
_symmetry_Int_Tables_number   1
_chemical_formula_structural   Tb6Al24FeRuRh6
_chemical_formula_sum   'Tb6 Al24 Fe1 Ru1 Rh6'
_cell_volume   639.11108895
_cell_formula_units_Z   1
loop_
 _symmetry_equiv_pos_site_id
 _symmetry_equiv_pos_as_xyz
  1  'x, y, z'
loop_
 _atom_site_type_symbol
 _atom_site_label
 _atom_site_symmetry_multiplicity
 _atom_site_fract_x
 _atom_site_fract_y
 _atom_site_fract_z
 _atom_site_occupancy
  Tb  Tb0  1  0.383511  0.191755  0.249540  1
  Tb  Tb1  1  0.808245  0.191755  0.249540  1
  Tb  Tb2  1  0.808245  0.616489  0.249540  1
  Tb  Tb3  1  0.616489  0.808245  0.750460  1
  Tb  Tb4  1  0.191755  0.808245  0.750460  1
  Tb  Tb5  1  0.191755  0.383511  0.750460  1
  Al  Al6  1  0.437700  0.875401  0.249880  1
  Al  Al7  1  0.124599  0.562300  0.249880  1
  Al  Al8  1  0.437700  0.562300  0.249880  1
  Al  Al9  1  0.562300  0.124599  0.750120  1
  Al  Al10  1  0.875401  0.437700  0.750120  1
  Al  Al11  1  0.562300  0.437700  0.750120  1
  Al  Al12  1  0.160098  0.839902  0.425448  1
  Al  Al13  1  0.160098  0.320198  0.425448  1
  Al  Al14  1  0.679802  0.839902  0.425448  1
  Al  Al15  1  0.839902  0.160098  0.574552  1
  Al  Al16  1  0.839902  0.679802  0.574552  1
  Al  Al17  1  0.320198  0.160098  0.574552  1
  Al  Al18  1  0.837303  0.162697  0.924769  1
  Al  Al19  1  0.837303  0.674603  0.924769  1
  Al  Al20  1  0.325397  0.162697  0.924769  1
  Al  Al21  1  0.162697  0.837303  0.075231  1
  Al  Al22  1  0.162697  0.325397  0.075231  1
  Al  Al23  1  0.674603  0.837303  0.075231  1
  Al  Al24  1  0.333333  0.666667  0.526620  1
  Al  Al25  1  0.666667  0.333333  0.473380  1
  Al  Al26  1  0.666667  0.333333  0.028745  1
  Al  Al27  1  0.333333  0.666667  0.971255  1
  Al  Al28  1  0.000000  0.000000  0.255666  1
  Al  Al29  1  0.000000  0.000000  0.744334  1
  Fe  Fe30  1  0.000000  0.000000  0.500000  1
  Ru  Ru31  1  0.000000  0.000000  0.000000  1
  Rh  Rh32  1  0.500000  0.000000  0.500000  1
  Rh  Rh33  1  0.000000  0.500000  0.500000  1
  Rh  Rh34  1  0.500000  0.500000  0.500000  1
  Rh  Rh35  1  0.500000  0.000000  0.000000  1
  Rh  Rh36  1  0.000000  0.500000  0.000000  1
  Rh  Rh37  1  0.500000  0.500000  0.000000  1
