# generated using pymatgen
data_Y8Si12Ir3Rh
_symmetry_space_group_name_H-M   'P 1'
_cell_length_a   8.17389200
_cell_length_b   8.17389226
_cell_length_c   7.97710500
_cell_angle_alpha   90.00000000
_cell_angle_beta   90.00000000
_cell_angle_gamma   119.99999084
_symmetry_Int_Tables_number   1
_chemical_formula_structural   Y8Si12Ir3Rh
_chemical_formula_sum   'Y8 Si12 Ir3 Rh1'
_cell_volume   461.56597278
_cell_formula_units_Z   1
loop_
 _symmetry_equiv_pos_site_id
 _symmetry_equiv_pos_as_xyz
  1  'x, y, z'
loop_
 _atom_site_type_symbol
 _atom_site_label
 _atom_site_symmetry_multiplicity
 _atom_site_fract_x
 _atom_site_fract_y
 _atom_site_fract_z
 _atom_site_occupancy
  Y  Y0  1  0.000000  0.000000  0.249249  1
  Y  Y1  1  0.000000  0.000000  0.750466  1
  Y  Y2  1  0.509350  0.490650  0.250119  1
  Y  Y3  1  0.509350  0.018700  0.250119  1
  Y  Y4  1  0.981300  0.490650  0.250119  1
  Y  Y5  1  0.491030  0.508970  0.749912  1
  Y  Y6  1  0.491030  0.982061  0.749912  1
  Y  Y7  1  0.017939  0.508970  0.749912  1
  Si  Si8  1  0.167056  0.832944  0.499210  1
  Si  Si9  1  0.167056  0.334112  0.499210  1
  Si  Si10  1  0.665888  0.832944  0.499210  1
  Si  Si11  1  0.833046  0.166954  0.500435  1
  Si  Si12  1  0.833046  0.666092  0.500435  1
  Si  Si13  1  0.333908  0.166954  0.500435  1
  Si  Si14  1  0.833318  0.166682  0.999536  1
  Si  Si15  1  0.833318  0.666637  0.999536  1
  Si  Si16  1  0.333363  0.166682  0.999536  1
  Si  Si17  1  0.167260  0.832740  0.000041  1
  Si  Si18  1  0.167260  0.334520  0.000041  1
  Si  Si19  1  0.665480  0.832740  0.000041  1
  Ir  Ir20  1  0.333333  0.666667  0.469251  1
  Ir  Ir21  1  0.666667  0.333333  0.532151  1
  Ir  Ir22  1  0.666667  0.333333  0.967322  1
  Rh  Rh23  1  0.333333  0.666667  0.033801  1
