# generated using pymatgen
data_Pr3Ho2Tm3(CdIr)2
_symmetry_space_group_name_H-M   'P 1'
_cell_length_a   9.73214182
_cell_length_b   9.73214163
_cell_length_c   9.73214100
_cell_angle_alpha   59.99999873
_cell_angle_beta   59.99999940
_cell_angle_gamma   59.99999501
_symmetry_Int_Tables_number   1
_chemical_formula_structural   Pr3Ho2Tm3(CdIr)2
_chemical_formula_sum   'Pr6 Ho4 Tm6 Cd4 Ir4'
_cell_volume   651.79379470
_cell_formula_units_Z   2
loop_
 _symmetry_equiv_pos_site_id
 _symmetry_equiv_pos_as_xyz
  1  'x, y, z'
loop_
 _atom_site_type_symbol
 _atom_site_label
 _atom_site_symmetry_multiplicity
 _atom_site_fract_x
 _atom_site_fract_y
 _atom_site_fract_z
 _atom_site_occupancy
  Pr  Pr0  1  0.941468  0.558532  0.558532  1
  Pr  Pr1  1  0.558532  0.941468  0.941468  1
  Pr  Pr2  1  0.558532  0.941468  0.558532  1
  Pr  Pr3  1  0.941468  0.558532  0.941468  1
  Pr  Pr4  1  0.558532  0.558532  0.941468  1
  Pr  Pr5  1  0.941468  0.941468  0.558532  1
  Ho  Ho6  1  0.346913  0.346913  0.346913  1
  Ho  Ho7  1  0.346913  0.346913  0.959262  1
  Ho  Ho8  1  0.346913  0.959262  0.346913  1
  Ho  Ho9  1  0.959262  0.346913  0.346913  1
  Tm  Tm10  1  0.813906  0.186094  0.186094  1
  Tm  Tm11  1  0.186094  0.813906  0.813906  1
  Tm  Tm12  1  0.186094  0.813906  0.186094  1
  Tm  Tm13  1  0.813906  0.186094  0.813906  1
  Tm  Tm14  1  0.186094  0.186094  0.813906  1
  Tm  Tm15  1  0.813906  0.813906  0.186094  1
  Cd  Cd16  1  0.579059  0.579059  0.579059  1
  Cd  Cd17  1  0.579059  0.579059  0.262822  1
  Cd  Cd18  1  0.579059  0.262822  0.579059  1
  Cd  Cd19  1  0.262822  0.579059  0.579059  1
  Ir  Ir20  1  0.140699  0.140699  0.140699  1
  Ir  Ir21  1  0.140699  0.140699  0.577901  1
  Ir  Ir22  1  0.140699  0.577901  0.140699  1
  Ir  Ir23  1  0.577901  0.140699  0.140699  1
