# generated using pymatgen
data_Nb4Co4SiP3
_symmetry_space_group_name_H-M   'P 1'
_cell_length_a   3.60771400
_cell_length_b   6.16691085
_cell_length_c   7.00632265
_cell_angle_alpha   90.15789096
_cell_angle_beta   90.00000000
_cell_angle_gamma   90.00000000
_symmetry_Int_Tables_number   1
_chemical_formula_structural   Nb4Co4SiP3
_chemical_formula_sum   'Nb4 Co4 Si1 P3'
_cell_volume   155.87923168
_cell_formula_units_Z   1
loop_
 _symmetry_equiv_pos_site_id
 _symmetry_equiv_pos_as_xyz
  1  'x, y, z'
loop_
 _atom_site_type_symbol
 _atom_site_label
 _atom_site_symmetry_multiplicity
 _atom_site_fract_x
 _atom_site_fract_y
 _atom_site_fract_z
 _atom_site_occupancy
  Nb  Nb0  1  0.250000  0.025013  0.827038  1
  Nb  Nb1  1  0.250000  0.523663  0.675216  1
  Nb  Nb2  1  0.750000  0.976296  0.170240  1
  Nb  Nb3  1  0.750000  0.472407  0.326468  1
  Co  Co4  1  0.250000  0.148021  0.440400  1
  Co  Co5  1  0.250000  0.642528  0.056900  1
  Co  Co6  1  0.750000  0.857946  0.566166  1
  Co  Co7  1  0.750000  0.354775  0.938366  1
  Si  Si8  1  0.250000  0.777528  0.379078  1
  P  P9  1  0.250000  0.277655  0.121007  1
  P  P10  1  0.750000  0.221388  0.619561  1
  P  P11  1  0.750000  0.722780  0.879559  1
