# generated using pymatgen
data_Tb15Pa(AlRu)4
_symmetry_space_group_name_H-M   'P 1'
_cell_length_a   9.57196811
_cell_length_b   9.56553380
_cell_length_c   9.57196700
_cell_angle_alpha   59.97773968
_cell_angle_beta   59.99999346
_cell_angle_gamma   59.97774186
_symmetry_Int_Tables_number   1
_chemical_formula_structural   Tb15Pa(AlRu)4
_chemical_formula_sum   'Tb15 Pa1 Al4 Ru4'
_cell_volume   619.51300446
_cell_formula_units_Z   1
loop_
 _symmetry_equiv_pos_site_id
 _symmetry_equiv_pos_as_xyz
  1  'x, y, z'
loop_
 _atom_site_type_symbol
 _atom_site_label
 _atom_site_symmetry_multiplicity
 _atom_site_fract_x
 _atom_site_fract_y
 _atom_site_fract_z
 _atom_site_occupancy
  Tb  Tb0  1  0.945611  0.940945  0.556723  1
  Tb  Tb1  1  0.944171  0.554450  0.944171  1
  Tb  Tb2  1  0.312270  0.684314  0.312270  1
  Tb  Tb3  1  0.944171  0.554450  0.557209  1
  Tb  Tb4  1  0.310602  0.309953  0.689724  1
  Tb  Tb5  1  0.101789  0.104094  0.101789  1
  Tb  Tb6  1  0.557209  0.554450  0.944171  1
  Tb  Tb7  1  0.101789  0.104094  0.692331  1
  Tb  Tb8  1  0.689724  0.309953  0.689724  1
  Tb  Tb9  1  0.691145  0.684314  0.312270  1
  Tb  Tb10  1  0.689724  0.309953  0.310602  1
  Tb  Tb11  1  0.312270  0.684314  0.691145  1
  Tb  Tb12  1  0.556723  0.940945  0.556723  1
  Tb  Tb13  1  0.692331  0.104094  0.101789  1
  Tb  Tb14  1  0.556723  0.940945  0.945611  1
  Pa  Pa15  1  0.090498  0.728505  0.090498  1
  Al  Al16  1  0.324510  0.331339  0.324510  1
  Al  Al17  1  0.019640  0.331339  0.324510  1
  Al  Al18  1  0.326293  0.021118  0.326293  1
  Al  Al19  1  0.324510  0.331339  0.019640  1
  Ru  Ru20  1  0.900020  0.882368  0.900020  1
  Ru  Ru21  1  0.900020  0.882368  0.317591  1
  Ru  Ru22  1  0.317591  0.882368  0.900020  1
  Ru  Ru23  1  0.890672  0.327983  0.890672  1
