# generated using pymatgen
data_Nd3(GaRh)2
_symmetry_space_group_name_H-M   'P 1'
_cell_length_a   5.69455300
_cell_length_b   8.22551600
_cell_length_c   13.59758600
_cell_angle_alpha   90.00000000
_cell_angle_beta   90.00000000
_cell_angle_gamma   90.00000000
_symmetry_Int_Tables_number   1
_chemical_formula_structural   Nd3(GaRh)2
_chemical_formula_sum   'Nd12 Ga8 Rh8'
_cell_volume   636.91958738
_cell_formula_units_Z   4
loop_
 _symmetry_equiv_pos_site_id
 _symmetry_equiv_pos_as_xyz
  1  'x, y, z'
loop_
 _atom_site_type_symbol
 _atom_site_label
 _atom_site_symmetry_multiplicity
 _atom_site_fract_x
 _atom_site_fract_y
 _atom_site_fract_z
 _atom_site_occupancy
  Nd  Nd0  1  0.633717  0.257473  0.250000  1
  Nd  Nd1  1  0.366283  0.742527  0.750000  1
  Nd  Nd2  1  0.366283  0.757473  0.250000  1
  Nd  Nd3  1  0.633717  0.242527  0.750000  1
  Nd  Nd4  1  0.146595  0.397393  0.097385  1
  Nd  Nd5  1  0.853405  0.602607  0.902615  1
  Nd  Nd6  1  0.853405  0.602607  0.597385  1
  Nd  Nd7  1  0.853405  0.897393  0.402615  1
  Nd  Nd8  1  0.146595  0.397393  0.402615  1
  Nd  Nd9  1  0.146595  0.102607  0.597385  1
  Nd  Nd10  1  0.146595  0.102607  0.902615  1
  Nd  Nd11  1  0.853405  0.897393  0.097385  1
  Ga  Ga12  1  0.134104  0.108268  0.250000  1
  Ga  Ga13  1  0.865896  0.891732  0.750000  1
  Ga  Ga14  1  0.865896  0.608268  0.250000  1
  Ga  Ga15  1  0.134104  0.391732  0.750000  1
  Ga  Ga16  1  0.635383  0.250000  0.000000  1
  Ga  Ga17  1  0.364617  0.750000  0.000000  1
  Ga  Ga18  1  0.364617  0.750000  0.500000  1
  Ga  Ga19  1  0.635383  0.250000  0.500000  1
  Rh  Rh20  1  0.359818  0.033452  0.091660  1
  Rh  Rh21  1  0.640182  0.966548  0.908340  1
  Rh  Rh22  1  0.640182  0.966548  0.591660  1
  Rh  Rh23  1  0.640182  0.533452  0.408340  1
  Rh  Rh24  1  0.359818  0.033452  0.408340  1
  Rh  Rh25  1  0.359818  0.466548  0.591660  1
  Rh  Rh26  1  0.359818  0.466548  0.908340  1
  Rh  Rh27  1  0.640182  0.533452  0.091660  1
