# generated using pymatgen
data_Cs4BiPCl12
_symmetry_space_group_name_H-M   'P 1'
_cell_length_a   13.22293387
_cell_length_b   13.22293349
_cell_length_c   13.22293306
_cell_angle_alpha   132.09485785
_cell_angle_beta   132.09485291
_cell_angle_gamma   70.07925153
_symmetry_Int_Tables_number   1
_chemical_formula_structural   Cs4BiPCl12
_chemical_formula_sum   'Cs8 Bi2 P2 Cl24'
_cell_volume   1247.97935113
_cell_formula_units_Z   2
loop_
 _symmetry_equiv_pos_site_id
 _symmetry_equiv_pos_as_xyz
  1  'x, y, z'
loop_
 _atom_site_type_symbol
 _atom_site_label
 _atom_site_symmetry_multiplicity
 _atom_site_fract_x
 _atom_site_fract_y
 _atom_site_fract_z
 _atom_site_occupancy
  Cs  Cs0  1  0.375000  0.851348  0.976348  1
  Cs  Cs1  1  0.601348  0.625000  0.476348  1
  Cs  Cs2  1  0.875000  0.851348  0.476348  1
  Cs  Cs3  1  0.601348  0.125000  0.976348  1
  Cs  Cs4  1  0.875000  0.398652  0.023652  1
  Cs  Cs5  1  0.148652  0.125000  0.523652  1
  Cs  Cs6  1  0.375000  0.398652  0.523652  1
  Cs  Cs7  1  0.148652  0.625000  0.023652  1
  Bi  Bi8  1  0.500000  0.500000  0.000000  1
  Bi  Bi9  1  0.250000  0.750000  0.500000  1
  P  P10  1  0.000000  0.000000  0.000000  1
  P  P11  1  0.750000  0.250000  0.500000  1
  Cl  Cl12  1  0.748716  0.494364  0.254352  1
  Cl  Cl13  1  0.505636  0.251284  0.745648  1
  Cl  Cl14  1  0.374145  0.374145  0.000000  1
  Cl  Cl15  1  0.124145  0.624145  0.500000  1
  Cl  Cl16  1  0.375855  0.875855  0.500000  1
  Cl  Cl17  1  0.625855  0.625855  0.000000  1
  Cl  Cl18  1  0.100653  0.100653  0.000000  1
  Cl  Cl19  1  0.850653  0.350653  0.500000  1
  Cl  Cl20  1  0.649347  0.149347  0.500000  1
  Cl  Cl21  1  0.899347  0.899347  0.000000  1
  Cl  Cl22  1  0.202909  0.000213  0.202696  1
  Cl  Cl23  1  0.750213  0.047517  0.297304  1
  Cl  Cl24  1  0.505636  0.759987  0.254352  1
  Cl  Cl25  1  0.547091  0.249787  0.297304  1
  Cl  Cl26  1  0.952483  0.249787  0.702696  1
  Cl  Cl27  1  0.999787  0.202483  0.202696  1
  Cl  Cl28  1  0.999787  0.797091  0.797304  1
  Cl  Cl29  1  0.797517  0.000213  0.797304  1
  Cl  Cl30  1  0.750213  0.452909  0.702696  1
  Cl  Cl31  1  0.244364  0.490013  0.245648  1
  Cl  Cl32  1  0.244364  0.998716  0.754352  1
  Cl  Cl33  1  0.001284  0.755636  0.245648  1
  Cl  Cl34  1  0.509987  0.755636  0.754352  1
  Cl  Cl35  1  0.240013  0.494364  0.745648  1
