# generated using pymatgen
data_LaPr2Zn4(PtRh)2
_symmetry_space_group_name_H-M   'P 1'
_cell_length_a   8.36920355
_cell_length_b   8.36920401
_cell_length_c   8.36920315
_cell_angle_alpha   151.16144413
_cell_angle_beta   127.21823712
_cell_angle_gamma   61.26006166
_symmetry_Int_Tables_number   1
_chemical_formula_structural   LaPr2Zn4(PtRh)2
_chemical_formula_sum   'La1 Pr2 Zn4 Pt2 Rh2'
_cell_volume   223.32744411
_cell_formula_units_Z   1
loop_
 _symmetry_equiv_pos_site_id
 _symmetry_equiv_pos_as_xyz
  1  'x, y, z'
loop_
 _atom_site_type_symbol
 _atom_site_label
 _atom_site_symmetry_multiplicity
 _atom_site_fract_x
 _atom_site_fract_y
 _atom_site_fract_z
 _atom_site_occupancy
  La  La0  1  0.500000  0.000000  0.500000  1
  Pr  Pr1  1  0.869809  0.869809  0.000000  1
  Pr  Pr2  1  0.130191  0.130191  0.000000  1
  Zn  Zn3  1  0.481982  0.675484  0.806498  1
  Zn  Zn4  1  0.868985  0.675484  0.193502  1
  Zn  Zn5  1  0.131015  0.324516  0.806498  1
  Zn  Zn6  1  0.518018  0.324516  0.193502  1
  Pt  Pt7  1  0.802935  0.500000  0.302935  1
  Pt  Pt8  1  0.197065  0.500000  0.697065  1
  Rh  Rh9  1  0.283295  0.783295  0.500000  1
  Rh  Rh10  1  0.716705  0.216705  0.500000  1
