# generated using pymatgen
data_Ca2NdCdHg2Pd3
_symmetry_space_group_name_H-M   'P 1'
_cell_length_a   7.72448199
_cell_length_b   7.72448140
_cell_length_c   4.05939300
_cell_angle_alpha   90.00000000
_cell_angle_beta   90.00000000
_cell_angle_gamma   120.31698000
_symmetry_Int_Tables_number   1
_chemical_formula_structural   Ca2NdCdHg2Pd3
_chemical_formula_sum   'Ca2 Nd1 Cd1 Hg2 Pd3'
_cell_volume   209.09053134
_cell_formula_units_Z   1
loop_
 _symmetry_equiv_pos_site_id
 _symmetry_equiv_pos_as_xyz
  1  'x, y, z'
loop_
 _atom_site_type_symbol
 _atom_site_label
 _atom_site_symmetry_multiplicity
 _atom_site_fract_x
 _atom_site_fract_y
 _atom_site_fract_z
 _atom_site_occupancy
  Ca  Ca0  1  0.597800  0.002570  0.000000  1
  Ca  Ca1  1  0.002570  0.597800  0.000000  1
  Nd  Nd2  1  0.395281  0.395281  0.000000  1
  Cd  Cd3  1  0.750876  0.750876  0.500000  1
  Hg  Hg4  1  0.259999  0.987392  0.500000  1
  Hg  Hg5  1  0.987392  0.259999  0.500000  1
  Pd  Pd6  1  0.343551  0.659614  0.500000  1
  Pd  Pd7  1  0.659614  0.343551  0.500000  1
  Pd  Pd8  1  0.002918  0.002918  0.000000  1
