# generated using pymatgen
data_TbMg2Ni7B2
_symmetry_space_group_name_H-M   'P 1'
_cell_length_a   4.95634200
_cell_length_b   4.95492605
_cell_length_c   13.95005000
_cell_angle_alpha   90.00000000
_cell_angle_beta   90.00000000
_cell_angle_gamma   120.00945355
_symmetry_Int_Tables_number   1
_chemical_formula_structural   TbMg2Ni7B2
_chemical_formula_sum   'Tb2 Mg4 Ni14 B4'
_cell_volume   296.66305175
_cell_formula_units_Z   2
loop_
 _symmetry_equiv_pos_site_id
 _symmetry_equiv_pos_as_xyz
  1  'x, y, z'
loop_
 _atom_site_type_symbol
 _atom_site_label
 _atom_site_symmetry_multiplicity
 _atom_site_fract_x
 _atom_site_fract_y
 _atom_site_fract_z
 _atom_site_occupancy
  Tb  Tb0  1  0.666671  0.333343  0.250000  1
  Tb  Tb1  1  0.333329  0.666657  0.750000  1
  Mg  Mg2  1  0.666656  0.333311  0.027012  1
  Mg  Mg3  1  0.666656  0.333311  0.472988  1
  Mg  Mg4  1  0.333344  0.666688  0.527012  1
  Mg  Mg5  1  0.333344  0.666688  0.972988  1
  Ni  Ni6  1  0.000000  0.000000  0.000000  1
  Ni  Ni7  1  0.166415  0.332829  0.144774  1
  Ni  Ni8  1  0.166416  0.833594  0.144782  1
  Ni  Ni9  1  0.667179  0.833594  0.144782  1
  Ni  Ni10  1  0.166416  0.833594  0.355218  1
  Ni  Ni11  1  0.667179  0.833594  0.355218  1
  Ni  Ni12  1  0.166415  0.332829  0.355226  1
  Ni  Ni13  1  0.000000  0.000000  0.500000  1
  Ni  Ni14  1  0.833585  0.667170  0.644774  1
  Ni  Ni15  1  0.332821  0.166405  0.644781  1
  Ni  Ni16  1  0.833584  0.166405  0.644781  1
  Ni  Ni17  1  0.332821  0.166405  0.855218  1
  Ni  Ni18  1  0.833584  0.166405  0.855218  1
  Ni  Ni19  1  0.833585  0.667170  0.855226  1
  B  B20  1  0.000007  0.000014  0.250000  1
  B  B21  1  0.333330  0.666660  0.250000  1
  B  B22  1  0.999993  0.999986  0.750000  1
  B  B23  1  0.666671  0.333342  0.750000  1
