# generated using pymatgen
data_La2PrSn3Hg2
_symmetry_space_group_name_H-M   'P 1'
_cell_length_a   6.69983281
_cell_length_b   6.69983388
_cell_length_c   10.55837300
_cell_angle_alpha   90.00000000
_cell_angle_beta   90.00000000
_cell_angle_gamma   103.12428673
_symmetry_Int_Tables_number   1
_chemical_formula_structural   La2PrSn3Hg2
_chemical_formula_sum   'La4 Pr2 Sn6 Hg4'
_cell_volume   461.56233376
_cell_formula_units_Z   2
loop_
 _symmetry_equiv_pos_site_id
 _symmetry_equiv_pos_as_xyz
  1  'x, y, z'
loop_
 _atom_site_type_symbol
 _atom_site_label
 _atom_site_symmetry_multiplicity
 _atom_site_fract_x
 _atom_site_fract_y
 _atom_site_fract_z
 _atom_site_occupancy
  La  La0  1  0.204030  0.795970  0.500000  1
  La  La1  1  0.204030  0.795970  0.000000  1
  La  La2  1  0.795970  0.204030  0.500000  1
  La  La3  1  0.795970  0.204030  0.000000  1
  Pr  Pr4  1  0.630770  0.630770  0.250000  1
  Pr  Pr5  1  0.369230  0.369230  0.750000  1
  Sn  Sn6  1  0.021067  0.021067  0.250000  1
  Sn  Sn7  1  0.978933  0.978933  0.750000  1
  Sn  Sn8  1  0.490091  0.068471  0.250000  1
  Sn  Sn9  1  0.931529  0.509909  0.750000  1
  Sn  Sn10  1  0.509909  0.931529  0.750000  1
  Sn  Sn11  1  0.068471  0.490091  0.250000  1
  Hg  Hg12  1  0.313926  0.313926  0.045473  1
  Hg  Hg13  1  0.686074  0.686074  0.954527  1
  Hg  Hg14  1  0.313926  0.313926  0.454527  1
  Hg  Hg15  1  0.686074  0.686074  0.545473  1
