# generated using pymatgen
data_La2NdY13(CdNi)4
_symmetry_space_group_name_H-M   'P 1'
_cell_length_a   9.66873903
_cell_length_b   9.65615162
_cell_length_c   9.66681500
_cell_angle_alpha   59.96346643
_cell_angle_beta   60.00658589
_cell_angle_gamma   60.08387115
_symmetry_Int_Tables_number   1
_chemical_formula_structural   La2NdY13(CdNi)4
_chemical_formula_sum   'La2 Nd1 Y13 Cd4 Ni4'
_cell_volume   638.43732574
_cell_formula_units_Z   1
loop_
 _symmetry_equiv_pos_site_id
 _symmetry_equiv_pos_as_xyz
  1  'x, y, z'
loop_
 _atom_site_type_symbol
 _atom_site_label
 _atom_site_symmetry_multiplicity
 _atom_site_fract_x
 _atom_site_fract_y
 _atom_site_fract_z
 _atom_site_occupancy
  La  La0  1  0.595456  0.597615  0.600963  1
  La  La1  1  0.595456  0.597615  0.205965  1
  Nd  Nd2  1  0.599492  0.196980  0.601764  1
  Y  Y3  1  0.194717  0.602195  0.601544  1
  Y  Y4  1  0.063586  0.438735  0.436693  1
  Y  Y5  1  0.438864  0.064176  0.061655  1
  Y  Y6  1  0.438864  0.064176  0.435304  1
  Y  Y7  1  0.063586  0.438735  0.060985  1
  Y  Y8  1  0.437986  0.437392  0.062311  1
  Y  Y9  1  0.063681  0.062566  0.436877  1
  Y  Y10  1  0.186509  0.815518  0.815150  1
  Y  Y11  1  0.815063  0.186076  0.183909  1
  Y  Y12  1  0.815063  0.186076  0.814952  1
  Y  Y13  1  0.186509  0.815518  0.182823  1
  Y  Y14  1  0.815402  0.815748  0.184425  1
  Y  Y15  1  0.186815  0.186043  0.813571  1
  Cd  Cd16  1  0.834908  0.830289  0.829677  1
  Cd  Cd17  1  0.834908  0.830289  0.505124  1
  Cd  Cd18  1  0.835177  0.503122  0.830850  1
  Cd  Cd19  1  0.504182  0.832052  0.831882  1
  Ni  Ni20  1  0.389310  0.391751  0.395063  1
  Ni  Ni21  1  0.389310  0.391751  0.823877  1
  Ni  Ni22  1  0.388769  0.825479  0.392876  1
  Ni  Ni23  1  0.826388  0.390102  0.391755  1
