# generated using pymatgen
data_Ti6As2P
_symmetry_space_group_name_H-M   'P 1'
_cell_length_a   6.76789900
_cell_length_b   6.76789921
_cell_length_c   3.55915800
_cell_angle_alpha   90.00000000
_cell_angle_beta   90.00000000
_cell_angle_gamma   119.99999407
_symmetry_Int_Tables_number   1
_chemical_formula_structural   Ti6As2P
_chemical_formula_sum   'Ti6 As2 P1'
_cell_volume   141.18406340
_cell_formula_units_Z   1
loop_
 _symmetry_equiv_pos_site_id
 _symmetry_equiv_pos_as_xyz
  1  'x, y, z'
loop_
 _atom_site_type_symbol
 _atom_site_label
 _atom_site_symmetry_multiplicity
 _atom_site_fract_x
 _atom_site_fract_y
 _atom_site_fract_z
 _atom_site_occupancy
  Ti  Ti0  1  0.752708  0.000000  0.000000  1
  Ti  Ti1  1  0.247292  0.247292  0.000000  1
  Ti  Ti2  1  0.000000  0.752708  0.000000  1
  Ti  Ti3  1  0.400543  0.000000  0.500000  1
  Ti  Ti4  1  0.000000  0.400543  0.500000  1
  Ti  Ti5  1  0.599457  0.599457  0.500000  1
  As  As6  1  0.666667  0.333333  0.000000  1
  As  As7  1  0.333333  0.666666  0.000000  1
  P  P8  1  0.000000  0.000000  0.500000  1
