# generated using pymatgen
data_Pr4SmPt19
_symmetry_space_group_name_H-M   'P 1'
_cell_length_a   5.46472237
_cell_length_b   5.46472303
_cell_length_c   18.09384870
_cell_angle_alpha   81.31450471
_cell_angle_beta   81.31450435
_cell_angle_gamma   60.00000671
_symmetry_Int_Tables_number   1
_chemical_formula_structural   Pr4SmPt19
_chemical_formula_sum   'Pr4 Sm1 Pt19'
_cell_volume   460.77926196
_cell_formula_units_Z   1
loop_
 _symmetry_equiv_pos_site_id
 _symmetry_equiv_pos_as_xyz
  1  'x, y, z'
loop_
 _atom_site_type_symbol
 _atom_site_label
 _atom_site_symmetry_multiplicity
 _atom_site_fract_x
 _atom_site_fract_y
 _atom_site_fract_z
 _atom_site_occupancy
  Pr  Pr0  1  0.000005  0.000005  0.999984  1
  Pr  Pr1  1  0.077325  0.077325  0.768024  1
  Pr  Pr2  1  0.922564  0.922564  0.232310  1
  Pr  Pr3  1  0.152422  0.152422  0.542734  1
  Sm  Sm4  1  0.848094  0.848094  0.455719  1
  Pt  Pt5  1  0.499987  0.499987  0.500040  1
  Pt  Pt6  1  0.249907  0.249907  0.250278  1
  Pt  Pt7  1  0.749991  0.749991  0.750027  1
  Pt  Pt8  1  0.333252  0.333252  0.000243  1
  Pt  Pt9  1  0.666770  0.666770  0.999690  1
  Pt  Pt10  1  0.416360  0.416360  0.750919  1
  Pt  Pt11  1  0.583623  0.583623  0.249131  1
  Pt  Pt12  1  0.122051  0.626872  0.624204  1
  Pt  Pt13  1  0.626872  0.626872  0.624204  1
  Pt  Pt14  1  0.626872  0.122051  0.624204  1
  Pt  Pt15  1  0.877810  0.373040  0.376112  1
  Pt  Pt16  1  0.373040  0.373040  0.376112  1
  Pt  Pt17  1  0.373040  0.877810  0.376112  1
  Pt  Pt18  1  0.041133  0.541391  0.876085  1
  Pt  Pt19  1  0.541391  0.541391  0.876085  1
  Pt  Pt20  1  0.541391  0.041133  0.876085  1
  Pt  Pt21  1  0.958935  0.458583  0.123900  1
  Pt  Pt22  1  0.458583  0.458583  0.123900  1
  Pt  Pt23  1  0.458583  0.958935  0.123900  1
