# generated using pymatgen
data_Cs4Na2ScGaAs4
_symmetry_space_group_name_H-M   'P 1'
_cell_length_a   9.73541916
_cell_length_b   9.73541972
_cell_length_c   9.73545752
_cell_angle_alpha   139.63517993
_cell_angle_beta   137.49646402
_cell_angle_gamma   60.05440524
_symmetry_Int_Tables_number   1
_chemical_formula_structural   Cs4Na2ScGaAs4
_chemical_formula_sum   'Cs4 Na2 Sc1 Ga1 As4'
_cell_volume   399.61078951
_cell_formula_units_Z   1
loop_
 _symmetry_equiv_pos_site_id
 _symmetry_equiv_pos_as_xyz
  1  'x, y, z'
loop_
 _atom_site_type_symbol
 _atom_site_label
 _atom_site_symmetry_multiplicity
 _atom_site_fract_x
 _atom_site_fract_y
 _atom_site_fract_z
 _atom_site_occupancy
  Cs  Cs0  1  0.094993  0.327995  0.773793  1
  Cs  Cs1  1  0.445844  0.171998  0.267025  1
  Cs  Cs2  1  0.904973  0.678819  0.232975  1
  Cs  Cs3  1  0.554202  0.821200  0.726207  1
  Na  Na4  1  0.500003  0.750003  0.250000  1
  Na  Na5  1  0.500002  0.250002  0.750000  1
  Sc  Sc6  1  0.999959  0.249959  0.250000  1
  Ga  Ga7  1  0.000004  0.750004  0.750000  1
  As  As8  1  0.119456  0.905648  0.198012  1
  As  As9  1  0.880548  0.078558  0.786178  1
  As  As10  1  0.292380  0.594370  0.713822  1
  As  As11  1  0.707637  0.421444  0.301988  1
