# generated using pymatgen
data_Sm2Lu2ScSn4
_symmetry_space_group_name_H-M   'P 1'
_cell_length_a   7.93323400
_cell_length_b   8.12264800
_cell_length_c   15.39585200
_cell_angle_alpha   90.00000000
_cell_angle_beta   90.00000000
_cell_angle_gamma   90.00000000
_symmetry_Int_Tables_number   1
_chemical_formula_structural   Sm2Lu2ScSn4
_chemical_formula_sum   'Sm8 Lu8 Sc4 Sn16'
_cell_volume   992.09126375
_cell_formula_units_Z   4
loop_
 _symmetry_equiv_pos_site_id
 _symmetry_equiv_pos_as_xyz
  1  'x, y, z'
loop_
 _atom_site_type_symbol
 _atom_site_label
 _atom_site_symmetry_multiplicity
 _atom_site_fract_x
 _atom_site_fract_y
 _atom_site_fract_z
 _atom_site_occupancy
  Sm  Sm0  1  0.512762  0.322737  0.904352  1
  Sm  Sm1  1  0.012762  0.177263  0.595648  1
  Sm  Sm2  1  0.487238  0.677263  0.404352  1
  Sm  Sm3  1  0.987238  0.822737  0.095648  1
  Sm  Sm4  1  0.487238  0.677263  0.095648  1
  Sm  Sm5  1  0.987238  0.822737  0.404352  1
  Sm  Sm6  1  0.512762  0.322737  0.595648  1
  Sm  Sm7  1  0.012762  0.177263  0.904352  1
  Lu  Lu8  1  0.350231  0.838303  0.873980  1
  Lu  Lu9  1  0.850231  0.661697  0.626020  1
  Lu  Lu10  1  0.649769  0.161697  0.373980  1
  Lu  Lu11  1  0.149769  0.338303  0.126020  1
  Lu  Lu12  1  0.649769  0.161697  0.126020  1
  Lu  Lu13  1  0.149769  0.338303  0.373980  1
  Lu  Lu14  1  0.350231  0.838303  0.626020  1
  Lu  Lu15  1  0.850231  0.661697  0.873980  1
  Sc  Sc16  1  0.180524  0.504081  0.750000  1
  Sc  Sc17  1  0.680524  0.995919  0.750000  1
  Sc  Sc18  1  0.819476  0.495919  0.250000  1
  Sc  Sc19  1  0.319476  0.004081  0.250000  1
  Sn  Sn20  1  0.310607  0.040530  0.043416  1
  Sn  Sn21  1  0.810607  0.459470  0.456584  1
  Sn  Sn22  1  0.689393  0.959470  0.543416  1
  Sn  Sn23  1  0.189393  0.540530  0.956584  1
  Sn  Sn24  1  0.689393  0.959470  0.956584  1
  Sn  Sn25  1  0.189393  0.540530  0.543416  1
  Sn  Sn26  1  0.310607  0.040530  0.456584  1
  Sn  Sn27  1  0.810607  0.459470  0.043416  1
  Sn  Sn28  1  0.542560  0.621221  0.750000  1
  Sn  Sn29  1  0.042560  0.878779  0.750000  1
  Sn  Sn30  1  0.457440  0.378779  0.250000  1
  Sn  Sn31  1  0.957440  0.121221  0.250000  1
  Sn  Sn32  1  0.320688  0.151478  0.750000  1
  Sn  Sn33  1  0.820688  0.348522  0.750000  1
  Sn  Sn34  1  0.679312  0.848522  0.250000  1
  Sn  Sn35  1  0.179312  0.651478  0.250000  1
