# generated using pymatgen
data_RbGaSnF6
_symmetry_space_group_name_H-M   'P 1'
_cell_length_a   8.30530700
_cell_length_b   7.62810200
_cell_length_c   10.30686700
_cell_angle_alpha   90.00000000
_cell_angle_beta   90.00000000
_cell_angle_gamma   90.00000000
_symmetry_Int_Tables_number   1
_chemical_formula_structural   RbGaSnF6
_chemical_formula_sum   'Rb4 Ga4 Sn4 F24'
_cell_volume   652.97845811
_cell_formula_units_Z   4
loop_
 _symmetry_equiv_pos_site_id
 _symmetry_equiv_pos_as_xyz
  1  'x, y, z'
loop_
 _atom_site_type_symbol
 _atom_site_label
 _atom_site_symmetry_multiplicity
 _atom_site_fract_x
 _atom_site_fract_y
 _atom_site_fract_z
 _atom_site_occupancy
  Rb  Rb0  1  0.074571  0.250000  0.644846  1
  Rb  Rb1  1  0.925429  0.750000  0.355154  1
  Rb  Rb2  1  0.425429  0.750000  0.144846  1
  Rb  Rb3  1  0.574571  0.250000  0.855154  1
  Ga  Ga4  1  0.000000  0.000000  0.000000  1
  Ga  Ga5  1  0.500000  0.000000  0.500000  1
  Ga  Ga6  1  0.000000  0.500000  0.000000  1
  Ga  Ga7  1  0.500000  0.500000  0.500000  1
  Sn  Sn8  1  0.214222  0.250000  0.265360  1
  Sn  Sn9  1  0.785778  0.750000  0.734640  1
  Sn  Sn10  1  0.285778  0.750000  0.765360  1
  Sn  Sn11  1  0.714222  0.250000  0.234640  1
  F  F12  1  0.295175  0.046434  0.419634  1
  F  F13  1  0.704825  0.953566  0.580366  1
  F  F14  1  0.204825  0.953566  0.919634  1
  F  F15  1  0.704825  0.546434  0.580366  1
  F  F16  1  0.795175  0.046434  0.080366  1
  F  F17  1  0.295175  0.453566  0.419634  1
  F  F18  1  0.795175  0.453566  0.080366  1
  F  F19  1  0.204825  0.546434  0.919634  1
  F  F20  1  0.559429  0.250000  0.490793  1
  F  F21  1  0.440571  0.750000  0.509207  1
  F  F22  1  0.940571  0.750000  0.990793  1
  F  F23  1  0.059429  0.250000  0.009207  1
  F  F24  1  0.096878  0.533420  0.165143  1
  F  F25  1  0.903122  0.466580  0.834857  1
  F  F26  1  0.403122  0.466580  0.665143  1
  F  F27  1  0.903122  0.033420  0.834857  1
  F  F28  1  0.596878  0.533420  0.334857  1
  F  F29  1  0.096878  0.966580  0.165143  1
  F  F30  1  0.596878  0.966580  0.334857  1
  F  F31  1  0.403122  0.033420  0.665143  1
  F  F32  1  0.506183  0.250000  0.120233  1
  F  F33  1  0.493817  0.750000  0.879767  1
  F  F34  1  0.993817  0.750000  0.620233  1
  F  F35  1  0.006183  0.250000  0.379767  1
