# generated using pymatgen
data_TbNiPt3Au
_symmetry_space_group_name_H-M   'P 1'
_cell_length_a   5.16811502
_cell_length_b   5.16811506
_cell_length_c   5.16811462
_cell_angle_alpha   62.70603369
_cell_angle_beta   62.70602794
_cell_angle_gamma   62.70604395
_symmetry_Int_Tables_number   1
_chemical_formula_structural   TbNiPt3Au
_chemical_formula_sum   'Tb1 Ni1 Pt3 Au1'
_cell_volume   103.48414095
_cell_formula_units_Z   1
loop_
 _symmetry_equiv_pos_site_id
 _symmetry_equiv_pos_as_xyz
  1  'x, y, z'
loop_
 _atom_site_type_symbol
 _atom_site_label
 _atom_site_symmetry_multiplicity
 _atom_site_fract_x
 _atom_site_fract_y
 _atom_site_fract_z
 _atom_site_occupancy
  Tb  Tb0  1  0.001228  0.001228  0.001228  1
  Ni  Ni1  1  0.623988  0.623988  0.623988  1
  Pt  Pt2  1  0.623744  0.623744  0.125935  1
  Pt  Pt3  1  0.623744  0.125935  0.623744  1
  Pt  Pt4  1  0.125935  0.623744  0.623744  1
  Au  Au5  1  0.251360  0.251360  0.251360  1
