# generated using pymatgen
data_SmHf4Bi3F28
_symmetry_space_group_name_H-M   'P 1'
_cell_length_a   5.83128137
_cell_length_b   9.30579753
_cell_length_c   12.42010412
_cell_angle_alpha   61.89909680
_cell_angle_beta   89.96205462
_cell_angle_gamma   90.01407142
_symmetry_Int_Tables_number   1
_chemical_formula_structural   SmHf4Bi3F28
_chemical_formula_sum   'Sm1 Hf4 Bi3 F28'
_cell_volume   594.52489405
_cell_formula_units_Z   1
loop_
 _symmetry_equiv_pos_site_id
 _symmetry_equiv_pos_as_xyz
  1  'x, y, z'
loop_
 _atom_site_type_symbol
 _atom_site_label
 _atom_site_symmetry_multiplicity
 _atom_site_fract_x
 _atom_site_fract_y
 _atom_site_fract_z
 _atom_site_occupancy
  Sm  Sm0  1  0.756415  0.811328  0.765703  1
  Hf  Hf1  1  0.743985  0.272931  0.455995  1
  Hf  Hf2  1  0.244175  0.725396  0.043611  1
  Hf  Hf3  1  0.256125  0.725703  0.545648  1
  Hf  Hf4  1  0.756266  0.275489  0.954991  1
  Bi  Bi5  1  0.741861  0.815234  0.264307  1
  Bi  Bi6  1  0.242499  0.183731  0.236273  1
  Bi  Bi7  1  0.258775  0.181135  0.735973  1
  F  F8  1  0.460653  0.713301  0.922394  1
  F  F9  1  0.956668  0.287986  0.575980  1
  F  F10  1  0.543454  0.288856  0.076332  1
  F  F11  1  0.042432  0.712569  0.424889  1
  F  F12  1  0.459779  0.280635  0.545881  1
  F  F13  1  0.963241  0.719320  0.950324  1
  F  F14  1  0.539473  0.720319  0.453947  1
  F  F15  1  0.039130  0.282535  0.045953  1
  F  F16  1  0.765518  0.519974  0.859702  1
  F  F17  1  0.267581  0.484971  0.640350  1
  F  F18  1  0.232247  0.483795  0.138764  1
  F  F19  1  0.732373  0.515809  0.360459  1
  F  F20  1  0.759829  0.030510  0.056855  1
  F  F21  1  0.259848  0.971294  0.443523  1
  F  F22  1  0.239678  0.970593  0.943439  1
  F  F23  1  0.740385  0.028817  0.558268  1
  F  F24  1  0.991578  0.735540  0.646332  1
  F  F25  1  0.490114  0.266227  0.856537  1
  F  F26  1  0.010946  0.265224  0.356192  1
  F  F27  1  0.511093  0.734540  0.142307  1
  F  F28  1  0.040120  0.746690  0.166936  1
  F  F29  1  0.541322  0.252629  0.331170  1
  F  F30  1  0.958360  0.254575  0.831445  1
  F  F31  1  0.462937  0.747167  0.668890  1
  F  F32  1  0.417660  0.969778  0.232162  1
  F  F33  1  0.917637  0.028776  0.267979  1
  F  F34  1  0.576451  0.026308  0.767183  1
  F  F35  1  0.079390  0.970317  0.733307  1
