# generated using pymatgen
data_Dy4Al4Ga14Ir5Pt
_symmetry_space_group_name_H-M   'P 1'
_cell_length_a   7.59444084
_cell_length_b   7.59443954
_cell_length_c   9.48708622
_cell_angle_alpha   90.02904013
_cell_angle_beta   90.02904801
_cell_angle_gamma   119.85002239
_symmetry_Int_Tables_number   1
_chemical_formula_structural   Dy4Al4Ga14Ir5Pt
_chemical_formula_sum   'Dy4 Al4 Ga14 Ir5 Pt1'
_cell_volume   474.57968719
_cell_formula_units_Z   1
loop_
 _symmetry_equiv_pos_site_id
 _symmetry_equiv_pos_as_xyz
  1  'x, y, z'
loop_
 _atom_site_type_symbol
 _atom_site_label
 _atom_site_symmetry_multiplicity
 _atom_site_fract_x
 _atom_site_fract_y
 _atom_site_fract_z
 _atom_site_occupancy
  Dy  Dy0  1  0.000925  0.670255  0.750924  1
  Dy  Dy1  1  0.999075  0.329745  0.249076  1
  Dy  Dy2  1  0.670255  0.000925  0.750924  1
  Dy  Dy3  1  0.329745  0.999075  0.249076  1
  Al  Al4  1  0.331886  0.331886  0.054350  1
  Al  Al5  1  0.668114  0.668114  0.945650  1
  Al  Al6  1  0.665038  0.665038  0.556038  1
  Al  Al7  1  0.334962  0.334962  0.443962  1
  Ga  Ga8  1  0.127927  0.127927  0.751857  1
  Ga  Ga9  1  0.872073  0.872073  0.248143  1
  Ga  Ga10  1  0.999962  0.338114  0.581862  1
  Ga  Ga11  1  0.000038  0.661886  0.418138  1
  Ga  Ga12  1  0.000015  0.664933  0.079620  1
  Ga  Ga13  1  0.335067  0.999985  0.920380  1
  Ga  Ga14  1  0.999985  0.335067  0.920380  1
  Ga  Ga15  1  0.664933  0.000015  0.079620  1
  Ga  Ga16  1  0.661886  0.000038  0.418138  1
  Ga  Ga17  1  0.338114  0.999962  0.581862  1
  Ga  Ga18  1  0.347555  0.550996  0.750302  1
  Ga  Ga19  1  0.652445  0.449004  0.249698  1
  Ga  Ga20  1  0.550996  0.347555  0.750302  1
  Ga  Ga21  1  0.449004  0.652445  0.249698  1
  Ir  Ir22  1  0.669462  0.330538  0.500000  1
  Ir  Ir23  1  0.330538  0.669462  0.500000  1
  Ir  Ir24  1  0.330278  0.669722  0.000000  1
  Ir  Ir25  1  0.669722  0.330278  0.000000  1
  Ir  Ir26  1  0.000000  0.000000  0.000000  1
  Pt  Pt27  1  0.000000  0.000000  0.500000  1
