# generated using pymatgen
data_La4HoMgSi4
_symmetry_space_group_name_H-M   'P 1'
_cell_length_a   7.61199000
_cell_length_b   7.61199000
_cell_length_c   4.49261900
_cell_angle_alpha   90.00000000
_cell_angle_beta   90.00000000
_cell_angle_gamma   90.00000000
_symmetry_Int_Tables_number   1
_chemical_formula_structural   La4HoMgSi4
_chemical_formula_sum   'La4 Ho1 Mg1 Si4'
_cell_volume   260.31309013
_cell_formula_units_Z   1
loop_
 _symmetry_equiv_pos_site_id
 _symmetry_equiv_pos_as_xyz
  1  'x, y, z'
loop_
 _atom_site_type_symbol
 _atom_site_label
 _atom_site_symmetry_multiplicity
 _atom_site_fract_x
 _atom_site_fract_y
 _atom_site_fract_z
 _atom_site_occupancy
  La  La0  1  0.672306  0.186787  0.500000  1
  La  La1  1  0.327694  0.813213  0.500000  1
  La  La2  1  0.186787  0.327694  0.500000  1
  La  La3  1  0.813213  0.672306  0.500000  1
  Ho  Ho4  1  0.000000  0.000000  0.000000  1
  Mg  Mg5  1  0.500000  0.500000  0.000000  1
  Si  Si6  1  0.107619  0.618582  0.000000  1
  Si  Si7  1  0.892381  0.381418  0.000000  1
  Si  Si8  1  0.618582  0.892381  0.000000  1
  Si  Si9  1  0.381418  0.107619  0.000000  1
