# generated using pymatgen
data_Ho4Er13Tm3Pb16
_symmetry_space_group_name_H-M   'P 1'
_cell_length_a   8.16641101
_cell_length_b   15.53423900
_cell_length_c   8.22657301
_cell_angle_alpha   89.99899694
_cell_angle_beta   90.00394251
_cell_angle_gamma   89.99878104
_symmetry_Int_Tables_number   1
_chemical_formula_structural   Ho4Er13Tm3Pb16
_chemical_formula_sum   'Ho4 Er13 Tm3 Pb16'
_cell_volume   1043.61466027
_cell_formula_units_Z   1
loop_
 _symmetry_equiv_pos_site_id
 _symmetry_equiv_pos_as_xyz
  1  'x, y, z'
loop_
 _atom_site_type_symbol
 _atom_site_label
 _atom_site_symmetry_multiplicity
 _atom_site_fract_x
 _atom_site_fract_y
 _atom_site_fract_z
 _atom_site_occupancy
  Ho  Ho0  1  0.537459  0.400877  0.323984  1
  Ho  Ho1  1  0.037452  0.099112  0.176005  1
  Ho  Ho2  1  0.462526  0.900886  0.676016  1
  Ho  Ho3  1  0.962561  0.599117  0.824012  1
  Er  Er4  1  0.622974  0.621662  0.157688  1
  Er  Er5  1  0.123038  0.878361  0.342258  1
  Er  Er6  1  0.377009  0.121644  0.842274  1
  Er  Er7  1  0.877017  0.378331  0.657723  1
  Er  Er8  1  0.377624  0.378420  0.842282  1
  Er  Er9  1  0.877610  0.121561  0.657717  1
  Er  Er10  1  0.622344  0.878445  0.157689  1
  Er  Er11  1  0.122424  0.621572  0.342247  1
  Er  Er12  1  0.460982  0.600122  0.675724  1
  Er  Er13  1  0.961020  0.899906  0.824322  1
  Er  Er14  1  0.539018  0.100137  0.324312  1
  Er  Er15  1  0.038993  0.399863  0.175688  1
  Er  Er16  1  0.791052  0.750138  0.495228  1
  Tm  Tm17  1  0.291016  0.749876  0.004794  1
  Tm  Tm18  1  0.208973  0.250123  0.504782  1
  Tm  Tm19  1  0.708983  0.249879  0.995229  1
  Pb  Pb20  1  0.719520  0.456807  0.967205  1
  Pb  Pb21  1  0.219518  0.043181  0.532793  1
  Pb  Pb22  1  0.280485  0.956813  0.032809  1
  Pb  Pb23  1  0.780472  0.543139  0.467192  1
  Pb  Pb24  1  0.282204  0.542343  0.034753  1
  Pb  Pb25  1  0.782200  0.957699  0.465270  1
  Pb  Pb26  1  0.717791  0.042339  0.965274  1
  Pb  Pb27  1  0.217814  0.457650  0.534725  1
  Pb  Pb28  1  0.428307  0.750058  0.373652  1
  Pb  Pb29  1  0.928441  0.749939  0.126241  1
  Pb  Pb30  1  0.571565  0.250059  0.626314  1
  Pb  Pb31  1  0.071570  0.249944  0.873687  1
  Pb  Pb32  1  0.649924  0.749746  0.844529  1
  Pb  Pb33  1  0.149980  0.750247  0.655607  1
  Pb  Pb34  1  0.350071  0.249748  0.155588  1
  Pb  Pb35  1  0.850064  0.250254  0.344384  1
