# generated using pymatgen
data_Mn3Zn3Ni2RhO12
_symmetry_space_group_name_H-M   'P 1'
_cell_length_a   6.02010183
_cell_length_b   6.02010185
_cell_length_c   13.26858377
_cell_angle_alpha   77.59729704
_cell_angle_beta   77.59729791
_cell_angle_gamma   91.46717303
_symmetry_Int_Tables_number   1
_chemical_formula_structural   Mn3Zn3Ni2RhO12
_chemical_formula_sum   'Mn6 Zn6 Ni4 Rh2 O24'
_cell_volume   457.39282831
_cell_formula_units_Z   2
loop_
 _symmetry_equiv_pos_site_id
 _symmetry_equiv_pos_as_xyz
  1  'x, y, z'
loop_
 _atom_site_type_symbol
 _atom_site_label
 _atom_site_symmetry_multiplicity
 _atom_site_fract_x
 _atom_site_fract_y
 _atom_site_fract_z
 _atom_site_occupancy
  Mn  Mn0  1  0.500000  0.000000  0.000000  1
  Mn  Mn1  1  0.000000  0.500000  0.500000  1
  Mn  Mn2  1  0.161048  0.169845  0.166523  1
  Mn  Mn3  1  0.838952  0.830155  0.833477  1
  Mn  Mn4  1  0.169845  0.161048  0.666523  1
  Mn  Mn5  1  0.830155  0.838952  0.333477  1
  Zn  Zn6  1  0.304065  0.024490  0.414972  1
  Zn  Zn7  1  0.975510  0.695935  0.085028  1
  Zn  Zn8  1  0.637526  0.362474  0.750000  1
  Zn  Zn9  1  0.024490  0.304065  0.914972  1
  Zn  Zn10  1  0.695935  0.975510  0.585028  1
  Zn  Zn11  1  0.362474  0.637526  0.250000  1
  Ni  Ni12  1  0.165465  0.664487  0.668558  1
  Ni  Ni13  1  0.834535  0.335513  0.331442  1
  Ni  Ni14  1  0.664487  0.165465  0.168558  1
  Ni  Ni15  1  0.335513  0.834535  0.831442  1
  Rh  Rh16  1  0.500000  0.500000  0.500000  1
  Rh  Rh17  1  0.500000  0.500000  0.000000  1
  O  O18  1  0.079223  0.070624  0.822625  1
  O  O19  1  0.747741  0.756845  0.487656  1
  O  O20  1  0.403451  0.395063  0.163927  1
  O  O21  1  0.929376  0.920777  0.677375  1
  O  O22  1  0.604937  0.596549  0.336073  1
  O  O23  1  0.243155  0.252259  0.012344  1
  O  O24  1  0.384204  0.929018  0.671583  1
  O  O25  1  0.050673  0.599966  0.342963  1
  O  O26  1  0.715104  0.240220  0.006481  1
  O  O27  1  0.070982  0.615796  0.828417  1
  O  O28  1  0.759780  0.284896  0.493519  1
  O  O29  1  0.400034  0.949327  0.157037  1
  O  O30  1  0.252259  0.243155  0.512344  1
  O  O31  1  0.920777  0.929376  0.177375  1
  O  O32  1  0.596549  0.604937  0.836073  1
  O  O33  1  0.395063  0.403451  0.663927  1
  O  O34  1  0.070624  0.079224  0.322625  1
  O  O35  1  0.756845  0.747741  0.987656  1
  O  O36  1  0.949327  0.400034  0.657037  1
  O  O37  1  0.615796  0.070982  0.328417  1
  O  O38  1  0.284896  0.759780  0.993519  1
  O  O39  1  0.240220  0.715104  0.506481  1
  O  O40  1  0.929018  0.384204  0.171583  1
  O  O41  1  0.599966  0.050673  0.842963  1
