# generated using pymatgen
data_Zr10In2CuBi5
_symmetry_space_group_name_H-M   'P 1'
_cell_length_a   8.87610125
_cell_length_b   8.87610106
_cell_length_c   6.01525509
_cell_angle_alpha   90.01324867
_cell_angle_beta   90.01324311
_cell_angle_gamma   119.73850832
_symmetry_Int_Tables_number   1
_chemical_formula_structural   Zr10In2CuBi5
_chemical_formula_sum   'Zr10 In2 Cu1 Bi5'
_cell_volume   411.49773659
_cell_formula_units_Z   1
loop_
 _symmetry_equiv_pos_site_id
 _symmetry_equiv_pos_as_xyz
  1  'x, y, z'
loop_
 _atom_site_type_symbol
 _atom_site_label
 _atom_site_symmetry_multiplicity
 _atom_site_fract_x
 _atom_site_fract_y
 _atom_site_fract_z
 _atom_site_occupancy
  Zr  Zr0  1  0.721978  0.004004  0.228609  1
  Zr  Zr1  1  0.004004  0.721978  0.228609  1
  Zr  Zr2  1  0.277652  0.277652  0.226793  1
  Zr  Zr3  1  0.267213  0.999543  0.774465  1
  Zr  Zr4  1  0.999543  0.267213  0.774465  1
  Zr  Zr5  1  0.732058  0.732058  0.769345  1
  Zr  Zr6  1  0.331215  0.667054  0.494227  1
  Zr  Zr7  1  0.667054  0.331215  0.494227  1
  Zr  Zr8  1  0.667188  0.331435  0.004144  1
  Zr  Zr9  1  0.331435  0.667188  0.004144  1
  In  In10  1  0.380879  0.000647  0.255337  1
  In  In11  1  0.000647  0.380879  0.255337  1
  Cu  Cu12  1  0.002414  0.002414  0.017066  1
  Bi  Bi13  1  0.618589  0.618589  0.253566  1
  Bi  Bi14  1  0.608436  0.999712  0.743450  1
  Bi  Bi15  1  0.999712  0.608436  0.743450  1
  Bi  Bi16  1  0.388607  0.388607  0.742313  1
  Bi  Bi17  1  0.001376  0.001376  0.490453  1
