# generated using pymatgen
data_NdNb3(Co4P3)2
_symmetry_space_group_name_H-M   'P 1'
_cell_length_a   12.07363300
_cell_length_b   12.07363198
_cell_length_c   3.67045900
_cell_angle_alpha   90.00000000
_cell_angle_beta   90.00000000
_cell_angle_gamma   120.00000007
_symmetry_Int_Tables_number   1
_chemical_formula_structural   NdNb3(Co4P3)2
_chemical_formula_sum   'Nd2 Nb6 Co16 P12'
_cell_volume   463.36893317
_cell_formula_units_Z   2
loop_
 _symmetry_equiv_pos_site_id
 _symmetry_equiv_pos_as_xyz
  1  'x, y, z'
loop_
 _atom_site_type_symbol
 _atom_site_label
 _atom_site_symmetry_multiplicity
 _atom_site_fract_x
 _atom_site_fract_y
 _atom_site_fract_z
 _atom_site_occupancy
  Nd  Nd0  1  0.333333  0.666667  0.000000  1
  Nd  Nd1  1  0.666667  0.333333  0.000000  1
  Nb  Nb2  1  0.820965  0.000000  0.500000  1
  Nb  Nb3  1  0.000000  0.820965  0.500000  1
  Nb  Nb4  1  0.179035  0.179035  0.500000  1
  Nb  Nb5  1  0.444316  0.000000  0.000000  1
  Nb  Nb6  1  0.000000  0.444316  0.000000  1
  Nb  Nb7  1  0.555684  0.555684  0.000000  1
  Co  Co8  1  0.269867  0.000000  0.500000  1
  Co  Co9  1  0.000000  0.269867  0.500000  1
  Co  Co10  1  0.730133  0.730133  0.500000  1
  Co  Co11  1  0.637490  0.812580  0.000000  1
  Co  Co12  1  0.187420  0.824910  0.000000  1
  Co  Co13  1  0.175090  0.362510  0.000000  1
  Co  Co14  1  0.362510  0.175090  0.000000  1
  Co  Co15  1  0.812580  0.637490  0.000000  1
  Co  Co16  1  0.824910  0.187420  0.000000  1
  Co  Co17  1  0.525207  0.877466  0.500000  1
  Co  Co18  1  0.122534  0.647741  0.500000  1
  Co  Co19  1  0.352259  0.474793  0.500000  1
  Co  Co20  1  0.474793  0.352259  0.500000  1
  Co  Co21  1  0.877466  0.525207  0.500000  1
  Co  Co22  1  0.647741  0.122534  0.500000  1
  Co  Co23  1  0.000000  0.000000  0.000000  1
  P  P24  1  0.171317  0.000000  0.000000  1
  P  P25  1  0.000000  0.171317  0.000000  1
  P  P26  1  0.828683  0.828683  0.000000  1
  P  P27  1  0.528603  0.693312  0.500000  1
  P  P28  1  0.306688  0.835291  0.500000  1
  P  P29  1  0.164709  0.471397  0.500000  1
  P  P30  1  0.471397  0.164709  0.500000  1
  P  P31  1  0.693312  0.528603  0.500000  1
  P  P32  1  0.835291  0.306688  0.500000  1
  P  P33  1  0.647775  0.000000  0.000000  1
  P  P34  1  0.000000  0.647775  0.000000  1
  P  P35  1  0.352225  0.352225  0.000000  1
