# generated using pymatgen
data_Pr4Ga7(GeIr2)3
_symmetry_space_group_name_H-M   'P 1'
_cell_length_a   8.62756179
_cell_length_b   8.69179415
_cell_length_c   8.69179445
_cell_angle_alpha   140.42509571
_cell_angle_beta   108.28784528
_cell_angle_gamma   85.24604631
_symmetry_Int_Tables_number   1
_chemical_formula_structural   Pr4Ga7(GeIr2)3
_chemical_formula_sum   'Pr4 Ga7 Ge3 Ir6'
_cell_volume   380.41041172
_cell_formula_units_Z   1
loop_
 _symmetry_equiv_pos_site_id
 _symmetry_equiv_pos_as_xyz
  1  'x, y, z'
loop_
 _atom_site_type_symbol
 _atom_site_label
 _atom_site_symmetry_multiplicity
 _atom_site_fract_x
 _atom_site_fract_y
 _atom_site_fract_z
 _atom_site_occupancy
  Pr  Pr0  1  0.863800  0.632407  0.231393  1
  Pr  Pr1  1  0.136186  0.365016  0.771170  1
  Pr  Pr2  1  0.408587  0.137206  0.271381  1
  Pr  Pr3  1  0.593652  0.864594  0.729058  1
  Ga  Ga4  1  0.498986  0.752593  0.250591  1
  Ga  Ga5  1  0.498986  0.248396  0.746394  1
  Ga  Ga6  1  0.215552  0.963060  0.749391  1
  Ga  Ga7  1  0.786341  0.533214  0.747492  1
  Ga  Ga8  1  0.786341  0.038849  0.253127  1
  Ga  Ga9  1  0.215552  0.466161  0.252492  1
  Ga  Ga10  1  0.073411  0.908092  0.165319  1
  Ge  Ge11  1  0.929614  0.093291  0.836323  1
  Ge  Ge12  1  0.735904  0.401683  0.334221  1
  Ge  Ge13  1  0.259248  0.594266  0.664982  1
  Ir  Ir14  1  0.997440  0.748884  0.745945  1
  Ir  Ir15  1  0.997440  0.251495  0.248556  1
  Ir  Ir16  1  0.252398  0.854378  0.398020  1
  Ir  Ir17  1  0.749859  0.144295  0.605564  1
  Ir  Ir18  1  0.456119  0.356653  0.099466  1
  Ir  Ir19  1  0.544583  0.645469  0.899114  1
