# generated using pymatgen
data_Sc12Mn2CoSi12Ir
_symmetry_space_group_name_H-M   'P 1'
_cell_length_a   3.98231200
_cell_length_b   10.17344631
_cell_length_c   11.67482495
_cell_angle_alpha   89.81524339
_cell_angle_beta   90.00000000
_cell_angle_gamma   90.00000000
_symmetry_Int_Tables_number   1
_chemical_formula_structural   Sc12Mn2CoSi12Ir
_chemical_formula_sum   'Sc12 Mn2 Co1 Si12 Ir1'
_cell_volume   472.98949988
_cell_formula_units_Z   1
loop_
 _symmetry_equiv_pos_site_id
 _symmetry_equiv_pos_as_xyz
  1  'x, y, z'
loop_
 _atom_site_type_symbol
 _atom_site_label
 _atom_site_symmetry_multiplicity
 _atom_site_fract_x
 _atom_site_fract_y
 _atom_site_fract_z
 _atom_site_occupancy
  Sc  Sc0  1  0.250000  0.879473  0.020970  1
  Sc  Sc1  1  0.250000  0.619980  0.522423  1
  Sc  Sc2  1  0.750000  0.124140  0.979033  1
  Sc  Sc3  1  0.750000  0.379204  0.477258  1
  Sc  Sc4  1  0.250000  0.921278  0.604444  1
  Sc  Sc5  1  0.250000  0.578483  0.101642  1
  Sc  Sc6  1  0.750000  0.078496  0.399584  1
  Sc  Sc7  1  0.750000  0.422276  0.898813  1
  Sc  Sc8  1  0.250000  0.653726  0.798485  1
  Sc  Sc9  1  0.250000  0.838409  0.299800  1
  Sc  Sc10  1  0.750000  0.339214  0.200115  1
  Sc  Sc11  1  0.750000  0.163427  0.699766  1
  Mn  Mn12  1  0.250000  0.113489  0.176342  1
  Mn  Mn13  1  0.750000  0.613164  0.324365  1
  Co  Co14  1  0.250000  0.389115  0.676572  1
  Si  Si15  1  0.250000  0.017392  0.822448  1
  Si  Si16  1  0.250000  0.485818  0.322665  1
  Si  Si17  1  0.750000  0.985834  0.177986  1
  Si  Si18  1  0.750000  0.504710  0.678116  1
  Si  Si19  1  0.250000  0.256409  0.837704  1
  Si  Si20  1  0.250000  0.246888  0.341818  1
  Si  Si21  1  0.750000  0.746875  0.158312  1
  Si  Si22  1  0.750000  0.746856  0.657895  1
  Si  Si23  1  0.250000  0.199505  0.546640  1
  Si  Si24  1  0.250000  0.306504  0.043243  1
  Si  Si25  1  0.750000  0.805272  0.456404  1
  Si  Si26  1  0.750000  0.694988  0.955188  1
  Ir  Ir27  1  0.750000  0.889075  0.821971  1
