# generated using pymatgen
data_Y3Er5CdAgIrPt
_symmetry_space_group_name_H-M   'P 1'
_cell_length_a   9.62642551
_cell_length_b   9.62642584
_cell_length_c   9.62318800
_cell_angle_alpha   60.01113259
_cell_angle_beta   60.01113147
_cell_angle_gamma   60.06621876
_symmetry_Int_Tables_number   1
_chemical_formula_structural   Y3Er5CdAgIrPt
_chemical_formula_sum   'Y6 Er10 Cd2 Ag2 Ir2 Pt2'
_cell_volume   630.99235101
_cell_formula_units_Z   2
loop_
 _symmetry_equiv_pos_site_id
 _symmetry_equiv_pos_as_xyz
  1  'x, y, z'
loop_
 _atom_site_type_symbol
 _atom_site_label
 _atom_site_symmetry_multiplicity
 _atom_site_fract_x
 _atom_site_fract_y
 _atom_site_fract_z
 _atom_site_occupancy
  Y  Y0  1  0.936490  0.564139  0.561329  1
  Y  Y1  1  0.564139  0.936490  0.938042  1
  Y  Y2  1  0.564139  0.936490  0.561329  1
  Y  Y3  1  0.936490  0.564139  0.938042  1
  Y  Y4  1  0.562517  0.562517  0.937483  1
  Y  Y5  1  0.936846  0.936846  0.563154  1
  Er  Er6  1  0.350338  0.350338  0.346668  1
  Er  Er7  1  0.350338  0.350338  0.952658  1
  Er  Er8  1  0.355562  0.945192  0.349623  1
  Er  Er9  1  0.945192  0.355562  0.349623  1
  Er  Er10  1  0.807630  0.189003  0.189880  1
  Er  Er11  1  0.189003  0.807630  0.813487  1
  Er  Er12  1  0.189003  0.807630  0.189880  1
  Er  Er13  1  0.807630  0.189003  0.813487  1
  Er  Er14  1  0.190191  0.190191  0.809809  1
  Er  Er15  1  0.811944  0.811944  0.188056  1
  Cd  Cd16  1  0.580597  0.259602  0.579901  1
  Cd  Cd17  1  0.259602  0.580597  0.579901  1
  Ag  Ag18  1  0.581744  0.581744  0.581694  1
  Ag  Ag19  1  0.581744  0.581744  0.254818  1
  Ir  Ir20  1  0.140956  0.573749  0.142648  1
  Ir  Ir21  1  0.573749  0.140956  0.142648  1
  Pt  Pt22  1  0.142078  0.142078  0.143933  1
  Pt  Pt23  1  0.142078  0.142078  0.571911  1
