# generated using pymatgen
data_Nd8DyYIr4
_symmetry_space_group_name_H-M   'P 1'
_cell_length_a   6.65374519
_cell_length_b   7.27935043
_cell_length_c   8.89911500
_cell_angle_alpha   96.31068650
_cell_angle_beta   111.95282905
_cell_angle_gamma   90.00000469
_symmetry_Int_Tables_number   1
_chemical_formula_structural   Nd8DyYIr4
_chemical_formula_sum   'Nd8 Dy1 Y1 Ir4'
_cell_volume   396.95770937
_cell_formula_units_Z   1
loop_
 _symmetry_equiv_pos_site_id
 _symmetry_equiv_pos_as_xyz
  1  'x, y, z'
loop_
 _atom_site_type_symbol
 _atom_site_label
 _atom_site_symmetry_multiplicity
 _atom_site_fract_x
 _atom_site_fract_y
 _atom_site_fract_z
 _atom_site_occupancy
  Nd  Nd0  1  0.794624  0.078678  0.818055  1
  Nd  Nd1  1  0.976569  0.421322  0.181945  1
  Nd  Nd2  1  0.205685  0.921378  0.182068  1
  Nd  Nd3  1  0.023616  0.578622  0.817932  1
  Nd  Nd4  1  0.214177  0.186887  0.567381  1
  Nd  Nd5  1  0.646795  0.313113  0.432619  1
  Nd  Nd6  1  0.785556  0.812969  0.432674  1
  Nd  Nd7  1  0.352882  0.687031  0.567326  1
  Dy  Dy8  1  0.564106  0.750000  0.000000  1
  Y  Y9  1  0.435190  0.250000  0.000000  1
  Ir  Ir10  1  0.599168  0.429574  0.786053  1
  Ir  Ir11  1  0.813115  0.070426  0.213947  1
  Ir  Ir12  1  0.401271  0.571693  0.214024  1
  Ir  Ir13  1  0.187247  0.928307  0.785976  1
