# generated using pymatgen
data_Cs10BaSr(TaP4)2
_symmetry_space_group_name_H-M   'P 1'
_cell_length_a   11.02868917
_cell_length_b   10.96077659
_cell_length_c   8.31257365
_cell_angle_alpha   87.15872874
_cell_angle_beta   87.92431658
_cell_angle_gamma   121.15349198
_symmetry_Int_Tables_number   1
_chemical_formula_structural   Cs10BaSr(TaP4)2
_chemical_formula_sum   'Cs10 Ba1 Sr1 Ta2 P8'
_cell_volume   856.62432823
_cell_formula_units_Z   1
loop_
 _symmetry_equiv_pos_site_id
 _symmetry_equiv_pos_as_xyz
  1  'x, y, z'
loop_
 _atom_site_type_symbol
 _atom_site_label
 _atom_site_symmetry_multiplicity
 _atom_site_fract_x
 _atom_site_fract_y
 _atom_site_fract_z
 _atom_site_occupancy
  Cs  Cs0  1  0.461593  0.527983  0.492148  1
  Cs  Cs1  1  0.068475  0.532155  0.497113  1
  Cs  Cs2  1  0.525552  0.461349  0.992918  1
  Cs  Cs3  1  0.529317  0.065707  0.002662  1
  Cs  Cs4  1  0.866055  0.138557  0.681363  1
  Cs  Cs5  1  0.290117  0.148505  0.724885  1
  Cs  Cs6  1  0.856488  0.717692  0.646416  1
  Cs  Cs7  1  0.141766  0.865620  0.179234  1
  Cs  Cs8  1  0.714871  0.857130  0.149786  1
  Cs  Cs9  1  0.148937  0.290145  0.226798  1
  Ba  Ba10  1  0.933321  0.462740  0.991548  1
  Sr  Sr11  1  0.466862  0.941461  0.502753  1
  Ta  Ta12  1  0.670863  0.325452  0.397249  1
  Ta  Ta13  1  0.329670  0.674559  0.890568  1
  P  P14  1  0.691046  0.340266  0.685916  1
  P  P15  1  0.341529  0.691217  0.180503  1
  P  P16  1  0.781389  0.198395  0.297830  1
  P  P17  1  0.421798  0.186444  0.341707  1
  P  P18  1  0.792061  0.565143  0.265595  1
  P  P19  1  0.206724  0.788763  0.785241  1
  P  P20  1  0.566591  0.797079  0.758477  1
  P  P21  1  0.194976  0.423636  0.837867  1
