# generated using pymatgen
data_Nd3Sc3Si2Tc
_symmetry_space_group_name_H-M   'P 1'
_cell_length_a   7.58857800
_cell_length_b   7.58857772
_cell_length_c   4.33230600
_cell_angle_alpha   90.00000000
_cell_angle_beta   90.00000000
_cell_angle_gamma   120.00000123
_symmetry_Int_Tables_number   1
_chemical_formula_structural   Nd3Sc3Si2Tc
_chemical_formula_sum   'Nd3 Sc3 Si2 Tc1'
_cell_volume   216.05809330
_cell_formula_units_Z   1
loop_
 _symmetry_equiv_pos_site_id
 _symmetry_equiv_pos_as_xyz
  1  'x, y, z'
loop_
 _atom_site_type_symbol
 _atom_site_label
 _atom_site_symmetry_multiplicity
 _atom_site_fract_x
 _atom_site_fract_y
 _atom_site_fract_z
 _atom_site_occupancy
  Nd  Nd0  1  0.415866  0.000000  0.000000  1
  Nd  Nd1  1  0.000000  0.415866  0.000000  1
  Nd  Nd2  1  0.584134  0.584134  0.000000  1
  Sc  Sc3  1  0.761714  0.000000  0.500001  1
  Sc  Sc4  1  0.238286  0.238287  0.500001  1
  Sc  Sc5  1  0.000000  0.761713  0.500001  1
  Si  Si6  1  0.666667  0.333333  0.500001  1
  Si  Si7  1  0.333333  0.666667  0.500001  1
  Tc  Tc8  1  0.000000  0.000000  0.000000  1
