# generated using pymatgen
data_Ho5ZrSn6Ir5Rh
_symmetry_space_group_name_H-M   'P 1'
_cell_length_a   7.55191002
_cell_length_b   7.48759186
_cell_length_c   7.71572300
_cell_angle_alpha   90.00000000
_cell_angle_beta   90.00000000
_cell_angle_gamma   120.32319166
_symmetry_Int_Tables_number   1
_chemical_formula_structural   Ho5ZrSn6Ir5Rh
_chemical_formula_sum   'Ho5 Zr1 Sn6 Ir5 Rh1'
_cell_volume   376.60200995
_cell_formula_units_Z   1
loop_
 _symmetry_equiv_pos_site_id
 _symmetry_equiv_pos_as_xyz
  1  'x, y, z'
loop_
 _atom_site_type_symbol
 _atom_site_label
 _atom_site_symmetry_multiplicity
 _atom_site_fract_x
 _atom_site_fract_y
 _atom_site_fract_z
 _atom_site_occupancy
  Ho  Ho0  1  0.411952  0.001876  0.250000  1
  Ho  Ho1  1  0.595917  0.595552  0.750000  1
  Ho  Ho2  1  0.591324  0.594296  0.250000  1
  Ho  Ho3  1  0.995160  0.405133  0.250000  1
  Ho  Ho4  1  0.005111  0.406491  0.750000  1
  Zr  Zr5  1  0.399591  0.998344  0.750000  1
  Sn  Sn6  1  0.262204  0.264071  0.497517  1
  Sn  Sn7  1  0.262204  0.264071  0.002483  1
  Sn  Sn8  1  0.741878  0.000483  0.992700  1
  Sn  Sn9  1  0.997176  0.735350  0.497895  1
  Sn  Sn10  1  0.741878  0.000483  0.507300  1
  Sn  Sn11  1  0.997176  0.735350  0.002105  1
  Ir  Ir12  1  0.657525  0.321706  0.514649  1
  Ir  Ir13  1  0.657525  0.321706  0.985351  1
  Ir  Ir14  1  0.335439  0.677617  0.992887  1
  Ir  Ir15  1  0.335439  0.677617  0.507113  1
  Ir  Ir16  1  0.013663  0.999964  0.750000  1
  Rh  Rh17  1  0.998842  0.999890  0.250000  1
