# generated using pymatgen
data_ErInNi3Ir
_symmetry_space_group_name_H-M   'P 1'
_cell_length_a   5.13800935
_cell_length_b   5.13800904
_cell_length_c   5.13800973
_cell_angle_alpha   58.05772715
_cell_angle_beta   58.05773145
_cell_angle_gamma   58.05773421
_symmetry_Int_Tables_number   1
_chemical_formula_structural   ErInNi3Ir
_chemical_formula_sum   'Er1 In1 Ni3 Ir1'
_cell_volume   91.63943377
_cell_formula_units_Z   1
loop_
 _symmetry_equiv_pos_site_id
 _symmetry_equiv_pos_as_xyz
  1  'x, y, z'
loop_
 _atom_site_type_symbol
 _atom_site_label
 _atom_site_symmetry_multiplicity
 _atom_site_fract_x
 _atom_site_fract_y
 _atom_site_fract_z
 _atom_site_occupancy
  Er  Er0  1  0.248919  0.248919  0.248919  1
  In  In1  1  0.001854  0.001854  0.001854  1
  Ni  Ni2  1  0.625638  0.625638  0.122417  1
  Ni  Ni3  1  0.625638  0.122417  0.625638  1
  Ni  Ni4  1  0.122417  0.625638  0.625638  1
  Ir  Ir5  1  0.625535  0.625535  0.625535  1
