# generated using pymatgen
data_Eu3CdAg3Sn4
_symmetry_space_group_name_H-M   'P 1'
_cell_length_a   9.07624396
_cell_length_b   9.11262204
_cell_length_c   9.11262301
_cell_angle_alpha   149.10561301
_cell_angle_beta   130.60872949
_cell_angle_gamma   59.44026755
_symmetry_Int_Tables_number   1
_chemical_formula_structural   Eu3CdAg3Sn4
_chemical_formula_sum   'Eu3 Cd1 Ag3 Sn4'
_cell_volume   291.35339119
_cell_formula_units_Z   1
loop_
 _symmetry_equiv_pos_site_id
 _symmetry_equiv_pos_as_xyz
  1  'x, y, z'
loop_
 _atom_site_type_symbol
 _atom_site_label
 _atom_site_symmetry_multiplicity
 _atom_site_fract_x
 _atom_site_fract_y
 _atom_site_fract_z
 _atom_site_occupancy
  Eu  Eu0  1  0.363994  0.871202  0.492792  1
  Eu  Eu1  1  0.627802  0.127308  0.500493  1
  Eu  Eu2  1  0.000665  0.000642  0.000022  1
  Cd  Cd3  1  0.637097  0.331378  0.305719  1
  Ag  Ag4  1  0.363397  0.669817  0.693579  1
  Ag  Ag5  1  0.025224  0.329943  0.695283  1
  Ag  Ag6  1  0.980876  0.670333  0.310542  1
  Sn  Sn7  1  0.211801  0.215799  0.996002  1
  Sn  Sn8  1  0.789090  0.780140  0.008950  1
  Sn  Sn9  1  0.693275  0.503441  0.189834  1
  Sn  Sn10  1  0.306779  0.499997  0.806781  1
