# generated using pymatgen
data_Tb7Ho3Os4
_symmetry_space_group_name_H-M   'P 1'
_cell_length_a   6.38825513
_cell_length_b   7.36497896
_cell_length_c   8.47351364
_cell_angle_alpha   96.86150387
_cell_angle_beta   112.27087130
_cell_angle_gamma   90.00784441
_symmetry_Int_Tables_number   1
_chemical_formula_structural   Tb7Ho3Os4
_chemical_formula_sum   'Tb7 Ho3 Os4'
_cell_volume   365.84329168
_cell_formula_units_Z   1
loop_
 _symmetry_equiv_pos_site_id
 _symmetry_equiv_pos_as_xyz
  1  'x, y, z'
loop_
 _atom_site_type_symbol
 _atom_site_label
 _atom_site_symmetry_multiplicity
 _atom_site_fract_x
 _atom_site_fract_y
 _atom_site_fract_z
 _atom_site_occupancy
  Tb  Tb0  1  0.976018  0.916445  0.183121  1
  Tb  Tb1  1  0.793648  0.583221  0.816179  1
  Tb  Tb2  1  0.023338  0.084084  0.816832  1
  Tb  Tb3  1  0.206954  0.416245  0.183801  1
  Tb  Tb4  1  0.639658  0.816350  0.434820  1
  Tb  Tb5  1  0.203777  0.683316  0.565504  1
  Tb  Tb6  1  0.360665  0.183854  0.564859  1
  Ho  Ho7  1  0.795796  0.316656  0.434003  1
  Ho  Ho8  1  0.423137  0.749672  0.999868  1
  Ho  Ho9  1  0.577384  0.250560  0.000823  1
  Os  Os10  1  0.820561  0.576410  0.218491  1
  Os  Os11  1  0.602817  0.923387  0.781825  1
  Os  Os12  1  0.177882  0.422553  0.781013  1
  Os  Os13  1  0.398366  0.077247  0.218860  1
