# generated using pymatgen
data_Sr4Ti2IrRuO12
_symmetry_space_group_name_H-M   'P 1'
_cell_length_a   5.60461708
_cell_length_b   5.58810580
_cell_length_c   7.92223339
_cell_angle_alpha   90.05622457
_cell_angle_beta   89.99470084
_cell_angle_gamma   89.99912391
_symmetry_Int_Tables_number   1
_chemical_formula_structural   Sr4Ti2IrRuO12
_chemical_formula_sum   'Sr4 Ti2 Ir1 Ru1 O12'
_cell_volume   248.11783736
_cell_formula_units_Z   1
loop_
 _symmetry_equiv_pos_site_id
 _symmetry_equiv_pos_as_xyz
  1  'x, y, z'
loop_
 _atom_site_type_symbol
 _atom_site_label
 _atom_site_symmetry_multiplicity
 _atom_site_fract_x
 _atom_site_fract_y
 _atom_site_fract_z
 _atom_site_occupancy
  Sr  Sr0  1  0.499043  0.491598  0.249638  1
  Sr  Sr1  1  0.000597  0.991424  0.249532  1
  Sr  Sr2  1  0.999404  0.008576  0.750467  1
  Sr  Sr3  1  0.500956  0.508402  0.750361  1
  Ti  Ti4  1  0.500000  0.000000  0.000000  1
  Ti  Ti5  1  0.000000  0.500001  0.500001  1
  Ir  Ir6  1  0.000000  0.500000  0.000000  1
  Ru  Ru7  1  0.500001  0.000000  0.500001  1
  O  O8  1  0.233792  0.226246  0.017184  1
  O  O9  1  0.273948  0.733613  0.017235  1
  O  O10  1  0.533751  0.002348  0.250279  1
  O  O11  1  0.966296  0.502046  0.254569  1
  O  O12  1  0.264129  0.733631  0.483066  1
  O  O13  1  0.233584  0.235745  0.482969  1
  O  O14  1  0.766416  0.764255  0.517031  1
  O  O15  1  0.735871  0.266369  0.516935  1
  O  O16  1  0.033703  0.497954  0.745432  1
  O  O17  1  0.466250  0.997652  0.749720  1
  O  O18  1  0.726051  0.266387  0.982765  1
  O  O19  1  0.766209  0.773754  0.982818  1
