# generated using pymatgen
data_PrNd3(Tm4Sb3)4
_symmetry_space_group_name_H-M   'P 1'
_cell_length_a   8.08552212
_cell_length_b   9.22874100
_cell_length_c   11.79217000
_cell_angle_alpha   90.00000000
_cell_angle_beta   90.00997740
_cell_angle_gamma   90.00000000
_symmetry_Int_Tables_number   1
_chemical_formula_structural   PrNd3(Tm4Sb3)4
_chemical_formula_sum   'Pr1 Nd3 Tm16 Sb12'
_cell_volume   879.92215473
_cell_formula_units_Z   1
loop_
 _symmetry_equiv_pos_site_id
 _symmetry_equiv_pos_as_xyz
  1  'x, y, z'
loop_
 _atom_site_type_symbol
 _atom_site_label
 _atom_site_symmetry_multiplicity
 _atom_site_fract_x
 _atom_site_fract_y
 _atom_site_fract_z
 _atom_site_occupancy
  Pr  Pr0  1  0.329383  0.750000  0.277354  1
  Nd  Nd1  1  0.170572  0.750000  0.777232  1
  Nd  Nd2  1  0.670559  0.250000  0.722640  1
  Nd  Nd3  1  0.829609  0.250000  0.222425  1
  Tm  Tm4  1  0.689119  0.938766  0.436450  1
  Tm  Tm5  1  0.810656  0.561002  0.936133  1
  Tm  Tm6  1  0.310643  0.438805  0.563681  1
  Tm  Tm7  1  0.189323  0.061188  0.063616  1
  Tm  Tm8  1  0.310643  0.061195  0.563681  1
  Tm  Tm9  1  0.189323  0.438812  0.063616  1
  Tm  Tm10  1  0.689119  0.561234  0.436450  1
  Tm  Tm11  1  0.810656  0.938998  0.936133  1
  Tm  Tm12  1  0.025234  0.750000  0.497607  1
  Tm  Tm13  1  0.474904  0.750000  0.997497  1
  Tm  Tm14  1  0.974421  0.250000  0.502820  1
  Tm  Tm15  1  0.525255  0.250000  0.002124  1
  Tm  Tm16  1  0.833467  0.750000  0.211940  1
  Tm  Tm17  1  0.666860  0.750000  0.712315  1
  Tm  Tm18  1  0.166551  0.250000  0.787941  1
  Tm  Tm19  1  0.333621  0.250000  0.287914  1
  Sb  Sb20  1  0.093678  0.750000  0.035651  1
  Sb  Sb21  1  0.405848  0.750000  0.537275  1
  Sb  Sb22  1  0.905992  0.250000  0.963773  1
  Sb  Sb23  1  0.593989  0.250000  0.464059  1
  Sb  Sb24  1  0.564944  0.993530  0.170449  1
  Sb  Sb25  1  0.936203  0.507022  0.671204  1
  Sb  Sb26  1  0.436115  0.492951  0.828909  1
  Sb  Sb27  1  0.063025  0.007596  0.329276  1
  Sb  Sb28  1  0.436115  0.007049  0.828909  1
  Sb  Sb29  1  0.063025  0.492404  0.329276  1
  Sb  Sb30  1  0.564944  0.506470  0.170449  1
  Sb  Sb31  1  0.936203  0.992978  0.671204  1
