# generated using pymatgen
data_Tm16Cd4CoNiOs2
_symmetry_space_group_name_H-M   'P 1'
_cell_length_a   9.44462632
_cell_length_b   9.45548833
_cell_length_c   9.53840300
_cell_angle_alpha   59.70950268
_cell_angle_beta   59.67100422
_cell_angle_gamma   59.49707595
_symmetry_Int_Tables_number   1
_chemical_formula_structural   Tm16Cd4CoNiOs2
_chemical_formula_sum   'Tm16 Cd4 Co1 Ni1 Os2'
_cell_volume   597.19705232
_cell_formula_units_Z   1
loop_
 _symmetry_equiv_pos_site_id
 _symmetry_equiv_pos_as_xyz
  1  'x, y, z'
loop_
 _atom_site_type_symbol
 _atom_site_label
 _atom_site_symmetry_multiplicity
 _atom_site_fract_x
 _atom_site_fract_y
 _atom_site_fract_z
 _atom_site_occupancy
  Tm  Tm0  1  0.349150  0.351815  0.341373  1
  Tm  Tm1  1  0.349150  0.351815  0.957663  1
  Tm  Tm2  1  0.353828  0.954986  0.345593  1
  Tm  Tm3  1  0.956513  0.354801  0.344343  1
  Tm  Tm4  1  0.810796  0.186942  0.190079  1
  Tm  Tm5  1  0.186667  0.808605  0.815227  1
  Tm  Tm6  1  0.186667  0.808605  0.189502  1
  Tm  Tm7  1  0.810796  0.186942  0.812185  1
  Tm  Tm8  1  0.188324  0.188140  0.811768  1
  Tm  Tm9  1  0.813492  0.807633  0.189438  1
  Tm  Tm10  1  0.938668  0.556745  0.564986  1
  Tm  Tm11  1  0.556051  0.938509  0.938602  1
  Tm  Tm12  1  0.556051  0.938509  0.566838  1
  Tm  Tm13  1  0.938668  0.556745  0.939601  1
  Tm  Tm14  1  0.563008  0.565534  0.935729  1
  Tm  Tm15  1  0.942684  0.943243  0.557037  1
  Cd  Cd16  1  0.579356  0.579491  0.582814  1
  Cd  Cd17  1  0.579356  0.579491  0.258341  1
  Cd  Cd18  1  0.579123  0.256839  0.582019  1
  Cd  Cd19  1  0.256523  0.579333  0.582072  1
  Co  Co20  1  0.141459  0.578903  0.139820  1
  Ni  Ni21  1  0.578013  0.141722  0.140133  1
  Os  Os22  1  0.142830  0.142326  0.140421  1
  Os  Os23  1  0.142830  0.142326  0.574424  1
