# generated using pymatgen
data_Er5Tm3Ti12Si15Pb
_symmetry_space_group_name_H-M   'P 1'
_cell_length_a   7.08810207
_cell_length_b   7.04400953
_cell_length_c   12.95940619
_cell_angle_alpha   89.97012981
_cell_angle_beta   89.69030036
_cell_angle_gamma   89.88320857
_symmetry_Int_Tables_number   1
_chemical_formula_structural   Er5Tm3Ti12Si15Pb
_chemical_formula_sum   'Er5 Tm3 Ti12 Si15 Pb1'
_cell_volume   647.03488548
_cell_formula_units_Z   1
loop_
 _symmetry_equiv_pos_site_id
 _symmetry_equiv_pos_as_xyz
  1  'x, y, z'
loop_
 _atom_site_type_symbol
 _atom_site_label
 _atom_site_symmetry_multiplicity
 _atom_site_fract_x
 _atom_site_fract_y
 _atom_site_fract_z
 _atom_site_occupancy
  Er  Er0  1  0.841161  0.497664  0.282017  1
  Er  Er1  1  0.159054  0.511188  0.786727  1
  Er  Er2  1  0.661154  0.996529  0.969356  1
  Er  Er3  1  0.990469  0.350665  0.525975  1
  Er  Er4  1  0.999246  0.658848  0.034255  1
  Tm  Tm5  1  0.345324  0.997590  0.459864  1
  Tm  Tm6  1  0.508060  0.834448  0.718493  1
  Tm  Tm7  1  0.501627  0.159587  0.216911  1
  Ti  Ti8  1  0.326081  0.326782  0.001467  1
  Ti  Ti9  1  0.174154  0.826250  0.249743  1
  Ti  Ti10  1  0.813365  0.175119  0.752574  1
  Ti  Ti11  1  0.672432  0.672972  0.499445  1
  Ti  Ti12  1  0.152354  0.007317  0.884261  1
  Ti  Ti13  1  0.492802  0.650026  0.126568  1
  Ti  Ti14  1  0.516903  0.355429  0.626356  1
  Ti  Ti15  1  0.653865  0.493785  0.876105  1
  Ti  Ti16  1  0.348094  0.509049  0.372835  1
  Ti  Ti17  1  0.847238  0.992842  0.375299  1
  Ti  Ti18  1  0.009216  0.151502  0.123785  1
  Ti  Ti19  1  0.977536  0.832247  0.618151  1
  Si  Si20  1  0.370554  0.703500  0.935504  1
  Si  Si21  1  0.628118  0.296678  0.431718  1
  Si  Si22  1  0.703631  0.368743  0.067516  1
  Si  Si23  1  0.297395  0.631807  0.566216  1
  Si  Si24  1  0.796908  0.869733  0.183578  1
  Si  Si25  1  0.130904  0.202901  0.315759  1
  Si  Si26  1  0.869800  0.799793  0.817095  1
  Si  Si27  1  0.293117  0.952419  0.067368  1
  Si  Si28  1  0.549731  0.789864  0.313200  1
  Si  Si29  1  0.460725  0.210050  0.821501  1
  Si  Si30  1  0.794528  0.544150  0.687320  1
  Si  Si31  1  0.209324  0.452755  0.185279  1
  Si  Si32  1  0.705878  0.047814  0.564368  1
  Si  Si33  1  0.952543  0.291918  0.935446  1
  Si  Si34  1  0.048576  0.711347  0.432332  1
  Pb  Pb35  1  0.198132  0.126692  0.675612  1
