# generated using pymatgen
data_La2TbY13(CdPd)4
_symmetry_space_group_name_H-M   'P 1'
_cell_length_a   9.79898250
_cell_length_b   9.80348659
_cell_length_c   9.79023800
_cell_angle_alpha   60.04469444
_cell_angle_beta   60.02951559
_cell_angle_gamma   60.17953675
_symmetry_Int_Tables_number   1
_chemical_formula_structural   La2TbY13(CdPd)4
_chemical_formula_sum   'La2 Tb1 Y13 Cd4 Pd4'
_cell_volume   666.29966105
_cell_formula_units_Z   1
loop_
 _symmetry_equiv_pos_site_id
 _symmetry_equiv_pos_as_xyz
  1  'x, y, z'
loop_
 _atom_site_type_symbol
 _atom_site_label
 _atom_site_symmetry_multiplicity
 _atom_site_fract_x
 _atom_site_fract_y
 _atom_site_fract_z
 _atom_site_occupancy
  La  La0  1  0.352597  0.352779  0.354442  1
  La  La1  1  0.352597  0.352779  0.940182  1
  Tb  Tb2  1  0.357043  0.932885  0.355036  1
  Y  Y3  1  0.931266  0.357632  0.355550  1
  Y  Y4  1  0.813125  0.188510  0.187118  1
  Y  Y5  1  0.188552  0.813220  0.811160  1
  Y  Y6  1  0.188552  0.813220  0.187068  1
  Y  Y7  1  0.813125  0.188510  0.811247  1
  Y  Y8  1  0.186499  0.186407  0.813547  1
  Y  Y9  1  0.811491  0.811491  0.188509  1
  Y  Y10  1  0.933788  0.567490  0.566463  1
  Y  Y11  1  0.567142  0.933793  0.932653  1
  Y  Y12  1  0.567142  0.933793  0.566413  1
  Y  Y13  1  0.933788  0.567490  0.932259  1
  Y  Y14  1  0.567927  0.568312  0.931881  1
  Y  Y15  1  0.936365  0.936095  0.563770  1
  Cd  Cd16  1  0.585270  0.584817  0.579377  1
  Cd  Cd17  1  0.585270  0.584817  0.250538  1
  Cd  Cd18  1  0.586851  0.249483  0.581834  1
  Cd  Cd19  1  0.249679  0.586531  0.581896  1
  Pd  Pd20  1  0.141400  0.140471  0.152127  1
  Pd  Pd21  1  0.141400  0.140471  0.566000  1
  Pd  Pd22  1  0.138147  0.571345  0.145253  1
  Pd  Pd23  1  0.570982  0.137658  0.145679  1
