# generated using pymatgen
data_ErTm5Sn2(BRh6)2
_symmetry_space_group_name_H-M   'P 1'
_cell_length_a   5.77926300
_cell_length_b   5.77926312
_cell_length_c   13.78851100
_cell_angle_alpha   90.00000000
_cell_angle_beta   90.00000000
_cell_angle_gamma   119.99999359
_symmetry_Int_Tables_number   1
_chemical_formula_structural   ErTm5Sn2(BRh6)2
_chemical_formula_sum   'Er1 Tm5 Sn2 B2 Rh12'
_cell_volume   398.83471783
_cell_formula_units_Z   1
loop_
 _symmetry_equiv_pos_site_id
 _symmetry_equiv_pos_as_xyz
  1  'x, y, z'
loop_
 _atom_site_type_symbol
 _atom_site_label
 _atom_site_symmetry_multiplicity
 _atom_site_fract_x
 _atom_site_fract_y
 _atom_site_fract_z
 _atom_site_occupancy
  Er  Er0  1  0.000000  0.000000  0.750000  1
  Tm  Tm1  1  0.000000  0.000000  0.250000  1
  Tm  Tm2  1  0.333333  0.666667  0.412687  1
  Tm  Tm3  1  0.666667  0.333333  0.912766  1
  Tm  Tm4  1  0.666667  0.333333  0.587234  1
  Tm  Tm5  1  0.333333  0.666667  0.087313  1
  Sn  Sn6  1  0.333333  0.666667  0.750000  1
  Sn  Sn7  1  0.666667  0.333333  0.250000  1
  B  B8  1  0.000000  0.000000  0.499966  1
  B  B9  1  0.000000  0.000000  0.000034  1
  Rh  Rh10  1  0.344106  0.172053  0.412691  1
  Rh  Rh11  1  0.827947  0.172053  0.412691  1
  Rh  Rh12  1  0.827947  0.655894  0.412691  1
  Rh  Rh13  1  0.172212  0.344424  0.912889  1
  Rh  Rh14  1  0.655576  0.827788  0.587111  1
  Rh  Rh15  1  0.655576  0.827788  0.912889  1
  Rh  Rh16  1  0.344106  0.172053  0.087309  1
  Rh  Rh17  1  0.172212  0.344424  0.587111  1
  Rh  Rh18  1  0.172212  0.827788  0.587111  1
  Rh  Rh19  1  0.827947  0.172053  0.087309  1
  Rh  Rh20  1  0.827947  0.655894  0.087309  1
  Rh  Rh21  1  0.172212  0.827788  0.912889  1
