# generated using pymatgen
data_Er3Mg2PaRh3
_symmetry_space_group_name_H-M   'P 1'
_cell_length_a   7.55331100
_cell_length_b   7.62450228
_cell_length_c   3.90814300
_cell_angle_alpha   90.00000000
_cell_angle_beta   90.00000000
_cell_angle_gamma   119.69161090
_symmetry_Int_Tables_number   1
_chemical_formula_structural   Er3Mg2PaRh3
_chemical_formula_sum   'Er3 Mg2 Pa1 Rh3'
_cell_volume   195.51998589
_cell_formula_units_Z   1
loop_
 _symmetry_equiv_pos_site_id
 _symmetry_equiv_pos_as_xyz
  1  'x, y, z'
loop_
 _atom_site_type_symbol
 _atom_site_label
 _atom_site_symmetry_multiplicity
 _atom_site_fract_x
 _atom_site_fract_y
 _atom_site_fract_z
 _atom_site_occupancy
  Er  Er0  1  0.966051  0.556766  0.500000  1
  Er  Er1  1  0.409285  0.443234  0.500000  1
  Er  Er2  1  0.624842  0.000000  0.500000  1
  Mg  Mg3  1  0.751880  0.745508  0.000000  1
  Mg  Mg4  1  0.006373  0.254492  0.000000  1
  Pa  Pa5  1  0.265759  0.000000  0.000000  1
  Rh  Rh6  1  0.632276  0.309122  0.000000  1
  Rh  Rh7  1  0.323153  0.690878  0.000000  1
  Rh  Rh8  1  0.020381  0.000000  0.500000  1
