# generated using pymatgen
data_Er2(Al3Ir)3
_symmetry_space_group_name_H-M   'P 1'
_cell_length_a   7.54282324
_cell_length_b   7.54282341
_cell_length_c   9.43156100
_cell_angle_alpha   90.00000000
_cell_angle_beta   90.00000000
_cell_angle_gamma   119.47389088
_symmetry_Int_Tables_number   1
_chemical_formula_structural   Er2(Al3Ir)3
_chemical_formula_sum   'Er4 Al18 Ir6'
_cell_volume   467.15406607
_cell_formula_units_Z   2
loop_
 _symmetry_equiv_pos_site_id
 _symmetry_equiv_pos_as_xyz
  1  'x, y, z'
loop_
 _atom_site_type_symbol
 _atom_site_label
 _atom_site_symmetry_multiplicity
 _atom_site_fract_x
 _atom_site_fract_y
 _atom_site_fract_z
 _atom_site_occupancy
  Er  Er0  1  0.994685  0.671374  0.250000  1
  Er  Er1  1  0.005315  0.328626  0.750000  1
  Er  Er2  1  0.671374  0.994685  0.250000  1
  Er  Er3  1  0.328626  0.005315  0.750000  1
  Al  Al4  1  0.128956  0.128956  0.250000  1
  Al  Al5  1  0.871044  0.871044  0.750000  1
  Al  Al6  1  0.000620  0.335193  0.074309  1
  Al  Al7  1  0.999380  0.664807  0.925691  1
  Al  Al8  1  0.999380  0.664807  0.574309  1
  Al  Al9  1  0.335193  0.000620  0.425691  1
  Al  Al10  1  0.000620  0.335193  0.425691  1
  Al  Al11  1  0.664807  0.999380  0.574309  1
  Al  Al12  1  0.664807  0.999380  0.925691  1
  Al  Al13  1  0.335193  0.000620  0.074309  1
  Al  Al14  1  0.333041  0.333041  0.551854  1
  Al  Al15  1  0.666959  0.666959  0.448146  1
  Al  Al16  1  0.666959  0.666959  0.051854  1
  Al  Al17  1  0.333041  0.333041  0.948146  1
  Al  Al18  1  0.339583  0.549062  0.250000  1
  Al  Al19  1  0.660417  0.450938  0.750000  1
  Al  Al20  1  0.549062  0.339583  0.250000  1
  Al  Al21  1  0.450938  0.660417  0.750000  1
  Ir  Ir22  1  0.672241  0.327759  0.000000  1
  Ir  Ir23  1  0.327759  0.672241  0.000000  1
  Ir  Ir24  1  0.327759  0.672241  0.500000  1
  Ir  Ir25  1  0.672241  0.327759  0.500000  1
  Ir  Ir26  1  0.000000  0.000000  0.000000  1
  Ir  Ir27  1  0.000000  0.000000  0.500000  1
