# generated using pymatgen
data_Tb2Dy3Mg3(P3Ir4)4
_symmetry_space_group_name_H-M   'P 1'
_cell_length_a   12.81093100
_cell_length_b   12.81093015
_cell_length_c   3.98670500
_cell_angle_alpha   90.00000000
_cell_angle_beta   90.00000000
_cell_angle_gamma   119.99999961
_symmetry_Int_Tables_number   1
_chemical_formula_structural   Tb2Dy3Mg3(P3Ir4)4
_chemical_formula_sum   'Tb2 Dy3 Mg3 P12 Ir16'
_cell_volume   566.63851363
_cell_formula_units_Z   1
loop_
 _symmetry_equiv_pos_site_id
 _symmetry_equiv_pos_as_xyz
  1  'x, y, z'
loop_
 _atom_site_type_symbol
 _atom_site_label
 _atom_site_symmetry_multiplicity
 _atom_site_fract_x
 _atom_site_fract_y
 _atom_site_fract_z
 _atom_site_occupancy
  Tb  Tb0  1  0.333333  0.666667  0.500000  1
  Tb  Tb1  1  0.666667  0.333333  0.500000  1
  Dy  Dy2  1  0.000000  0.809247  0.000000  1
  Dy  Dy3  1  0.190753  0.190753  0.000000  1
  Dy  Dy4  1  0.809247  0.000000  0.000000  1
  Mg  Mg5  1  0.000000  0.444727  0.500000  1
  Mg  Mg6  1  0.555273  0.555273  0.500000  1
  Mg  Mg7  1  0.444727  0.000000  0.500000  1
  P  P8  1  0.000000  0.641010  0.500000  1
  P  P9  1  0.358990  0.358990  0.500000  1
  P  P10  1  0.641010  0.000000  0.500000  1
  P  P11  1  0.516498  0.688515  0.000000  1
  P  P12  1  0.311485  0.827983  0.000000  1
  P  P13  1  0.172017  0.483502  0.000000  1
  P  P14  1  0.483502  0.172017  0.000000  1
  P  P15  1  0.688515  0.516498  0.000000  1
  P  P16  1  0.827983  0.311485  0.000000  1
  P  P17  1  0.000000  0.177197  0.500000  1
  P  P18  1  0.822803  0.822803  0.500000  1
  P  P19  1  0.177197  0.000000  0.500000  1
  Ir  Ir20  1  0.508867  0.868281  0.000000  1
  Ir  Ir21  1  0.131719  0.640587  0.000000  1
  Ir  Ir22  1  0.359413  0.491133  0.000000  1
  Ir  Ir23  1  0.491133  0.359413  0.000000  1
  Ir  Ir24  1  0.868281  0.508867  0.000000  1
  Ir  Ir25  1  0.640587  0.131719  0.000000  1
  Ir  Ir26  1  0.000000  0.279007  0.000000  1
  Ir  Ir27  1  0.720993  0.720993  0.000000  1
  Ir  Ir28  1  0.279007  0.000000  0.000000  1
  Ir  Ir29  1  0.627953  0.806386  0.500000  1
  Ir  Ir30  1  0.193614  0.821566  0.500000  1
  Ir  Ir31  1  0.178434  0.372047  0.500000  1
  Ir  Ir32  1  0.372047  0.178434  0.500000  1
  Ir  Ir33  1  0.806386  0.627953  0.500000  1
  Ir  Ir34  1  0.821566  0.193614  0.500000  1
  Ir  Ir35  1  0.000000  0.000000  0.500000  1
