# generated using pymatgen
data_DySc(NbS2)8
_symmetry_space_group_name_H-M   'P 1'
_cell_length_a   6.72690700
_cell_length_b   6.72690695
_cell_length_c   13.15907100
_cell_angle_alpha   90.00000000
_cell_angle_beta   90.00000000
_cell_angle_gamma   120.00000518
_symmetry_Int_Tables_number   1
_chemical_formula_structural   DySc(NbS2)8
_chemical_formula_sum   'Dy1 Sc1 Nb8 S16'
_cell_volume   515.68759308
_cell_formula_units_Z   1
loop_
 _symmetry_equiv_pos_site_id
 _symmetry_equiv_pos_as_xyz
  1  'x, y, z'
loop_
 _atom_site_type_symbol
 _atom_site_label
 _atom_site_symmetry_multiplicity
 _atom_site_fract_x
 _atom_site_fract_y
 _atom_site_fract_z
 _atom_site_occupancy
  Dy  Dy0  1  0.000000  0.000000  0.500000  1
  Sc  Sc1  1  0.000000  0.000000  0.000000  1
  Nb  Nb2  1  0.504929  0.495071  0.760903  1
  Nb  Nb3  1  0.009857  0.504929  0.239097  1
  Nb  Nb4  1  0.495071  0.990143  0.239097  1
  Nb  Nb5  1  0.504929  0.009857  0.760903  1
  Nb  Nb6  1  0.990143  0.495071  0.760903  1
  Nb  Nb7  1  0.495071  0.504929  0.239097  1
  Nb  Nb8  1  0.000000  0.000000  0.760027  1
  Nb  Nb9  1  0.000000  0.000000  0.239973  1
  S  S10  1  0.831037  0.168963  0.358409  1
  S  S11  1  0.831037  0.662075  0.358409  1
  S  S12  1  0.337925  0.168963  0.358409  1
  S  S13  1  0.662060  0.831031  0.878851  1
  S  S14  1  0.168963  0.337925  0.641591  1
  S  S15  1  0.168969  0.831031  0.878851  1
  S  S16  1  0.168969  0.337940  0.878851  1
  S  S17  1  0.831031  0.168969  0.121149  1
  S  S18  1  0.337940  0.168969  0.121149  1
  S  S19  1  0.662075  0.831037  0.641591  1
  S  S20  1  0.333333  0.666667  0.117931  1
  S  S21  1  0.666667  0.333333  0.639538  1
  S  S22  1  0.666667  0.333333  0.882069  1
  S  S23  1  0.333333  0.666667  0.360462  1
  S  S24  1  0.831031  0.662060  0.121149  1
  S  S25  1  0.168963  0.831037  0.641591  1
