# generated using pymatgen
data_Tb3Y(Er3Ru2)2
_symmetry_space_group_name_H-M   'P 1'
_cell_length_a   6.33269064
_cell_length_b   7.25679261
_cell_length_c   8.45983661
_cell_angle_alpha   96.78285321
_cell_angle_beta   112.14340014
_cell_angle_gamma   89.96646123
_symmetry_Int_Tables_number   1
_chemical_formula_structural   Tb3Y(Er3Ru2)2
_chemical_formula_sum   'Tb3 Y1 Er6 Ru4'
_cell_volume   357.16898423
_cell_formula_units_Z   1
loop_
 _symmetry_equiv_pos_site_id
 _symmetry_equiv_pos_as_xyz
  1  'x, y, z'
loop_
 _atom_site_type_symbol
 _atom_site_label
 _atom_site_symmetry_multiplicity
 _atom_site_fract_x
 _atom_site_fract_y
 _atom_site_fract_z
 _atom_site_occupancy
  Tb  Tb0  1  0.977384  0.916247  0.187921  1
  Tb  Tb1  1  0.210202  0.416571  0.188272  1
  Tb  Tb2  1  0.022118  0.083936  0.811898  1
  Y  Y3  1  0.789356  0.582677  0.811707  1
  Er  Er4  1  0.205070  0.685657  0.566241  1
  Er  Er5  1  0.639588  0.814839  0.434496  1
  Er  Er6  1  0.795329  0.314664  0.434066  1
  Er  Er7  1  0.360324  0.184822  0.565334  1
  Er  Er8  1  0.420661  0.749543  0.999648  1
  Er  Er9  1  0.579280  0.250511  0.000417  1
  Ru  Ru10  1  0.600152  0.925885  0.778600  1
  Ru  Ru11  1  0.821944  0.576118  0.221675  1
  Ru  Ru12  1  0.399336  0.075066  0.221307  1
  Ru  Ru13  1  0.179254  0.423465  0.778418  1
