# generated using pymatgen
data_Th3AlGa2Pt3
_symmetry_space_group_name_H-M   'P 1'
_cell_length_a   7.35175079
_cell_length_b   7.29050925
_cell_length_c   4.15308500
_cell_angle_alpha   90.00000000
_cell_angle_beta   90.00000000
_cell_angle_gamma   119.72482209
_symmetry_Int_Tables_number   1
_chemical_formula_structural   Th3AlGa2Pt3
_chemical_formula_sum   'Th3 Al1 Ga2 Pt3'
_cell_volume   193.30704053
_cell_formula_units_Z   1
loop_
 _symmetry_equiv_pos_site_id
 _symmetry_equiv_pos_as_xyz
  1  'x, y, z'
loop_
 _atom_site_type_symbol
 _atom_site_label
 _atom_site_symmetry_multiplicity
 _atom_site_fract_x
 _atom_site_fract_y
 _atom_site_fract_z
 _atom_site_occupancy
  Th  Th0  1  0.418608  0.417755  0.500000  1
  Th  Th1  1  0.581392  0.999147  0.500000  1
  Th  Th2  1  0.000000  0.586714  0.500000  1
  Al  Al3  1  0.000000  0.233897  0.000000  1
  Ga  Ga4  1  0.758911  0.761419  0.000000  1
  Ga  Ga5  1  0.241089  0.002508  0.000000  1
  Pt  Pt6  1  0.674202  0.330813  0.000000  1
  Pt  Pt7  1  0.325798  0.656611  0.000000  1
  Pt  Pt8  1  0.000000  0.011135  0.500000  1
