# generated using pymatgen
data_Tb6Zr4Sn6O
_symmetry_space_group_name_H-M   'P 1'
_cell_length_a   8.83241800
_cell_length_b   8.83242042
_cell_length_c   6.07350500
_cell_angle_alpha   90.00000000
_cell_angle_beta   90.00000000
_cell_angle_gamma   120.00000593
_symmetry_Int_Tables_number   1
_chemical_formula_structural   Tb6Zr4Sn6O
_chemical_formula_sum   'Tb6 Zr4 Sn6 O1'
_cell_volume   410.32629251
_cell_formula_units_Z   1
loop_
 _symmetry_equiv_pos_site_id
 _symmetry_equiv_pos_as_xyz
  1  'x, y, z'
loop_
 _atom_site_type_symbol
 _atom_site_label
 _atom_site_symmetry_multiplicity
 _atom_site_fract_x
 _atom_site_fract_y
 _atom_site_fract_z
 _atom_site_occupancy
  Tb  Tb0  1  0.000000  0.767538  0.258745  1
  Tb  Tb1  1  0.232462  0.232462  0.258745  1
  Tb  Tb2  1  0.767538  0.000000  0.258745  1
  Tb  Tb3  1  0.000000  0.232462  0.741255  1
  Tb  Tb4  1  0.767538  0.767538  0.741255  1
  Tb  Tb5  1  0.232462  0.000000  0.741255  1
  Zr  Zr6  1  0.333333  0.666667  0.500000  1
  Zr  Zr7  1  0.666667  0.333333  0.500000  1
  Zr  Zr8  1  0.666667  0.333333  0.000000  1
  Zr  Zr9  1  0.333333  0.666667  0.000000  1
  Sn  Sn10  1  0.000000  0.404265  0.246945  1
  Sn  Sn11  1  0.595735  0.595735  0.246945  1
  Sn  Sn12  1  0.404265  0.000000  0.246945  1
  Sn  Sn13  1  0.000000  0.595735  0.753055  1
  Sn  Sn14  1  0.404265  0.404265  0.753055  1
  Sn  Sn15  1  0.595735  0.000000  0.753055  1
  O  O16  1  0.000000  0.000000  0.500000  1
