# generated using pymatgen
data_Ba4LiTa2NbO12
_symmetry_space_group_name_H-M   'P 1'
_cell_length_a   5.86352400
_cell_length_b   5.86352459
_cell_length_c   19.33056100
_cell_angle_alpha   90.00000000
_cell_angle_beta   90.00000000
_cell_angle_gamma   119.99998538
_symmetry_Int_Tables_number   1
_chemical_formula_structural   Ba4LiTa2NbO12
_chemical_formula_sum   'Ba8 Li2 Ta4 Nb2 O24'
_cell_volume   575.56266092
_cell_formula_units_Z   2
loop_
 _symmetry_equiv_pos_site_id
 _symmetry_equiv_pos_as_xyz
  1  'x, y, z'
loop_
 _atom_site_type_symbol
 _atom_site_label
 _atom_site_symmetry_multiplicity
 _atom_site_fract_x
 _atom_site_fract_y
 _atom_site_fract_z
 _atom_site_occupancy
  Ba  Ba0  1  0.666667  0.333333  0.248762  1
  Ba  Ba1  1  0.333333  0.666667  0.748762  1
  Ba  Ba2  1  0.666667  0.333333  0.870801  1
  Ba  Ba3  1  0.333333  0.666667  0.370801  1
  Ba  Ba4  1  0.666667  0.333333  0.643100  1
  Ba  Ba5  1  0.333333  0.666667  0.143100  1
  Ba  Ba6  1  0.000000  0.000000  0.502262  1
  Ba  Ba7  1  0.000000  0.000000  0.002262  1
  Li  Li8  1  0.000000  0.000000  0.163843  1
  Li  Li9  1  0.000000  0.000000  0.663843  1
  Ta  Ta10  1  0.666667  0.333333  0.439489  1
  Ta  Ta11  1  0.333333  0.666667  0.939489  1
  Ta  Ta12  1  0.666667  0.333333  0.066069  1
  Ta  Ta13  1  0.333333  0.666667  0.566069  1
  Nb  Nb14  1  0.000000  0.000000  0.808610  1
  Nb  Nb15  1  0.000000  0.000000  0.308610  1
  O  O16  1  0.840321  0.680642  0.757415  1
  O  O17  1  0.159679  0.319358  0.257415  1
  O  O18  1  0.680642  0.840321  0.257415  1
  O  O19  1  0.840321  0.159679  0.757415  1
  O  O20  1  0.170824  0.829176  0.879440  1
  O  O21  1  0.341650  0.170824  0.379440  1
  O  O22  1  0.829176  0.658350  0.379440  1
  O  O23  1  0.170824  0.341650  0.879440  1
  O  O24  1  0.658350  0.829176  0.879440  1
  O  O25  1  0.829176  0.170824  0.379440  1
  O  O26  1  0.173712  0.826288  0.618191  1
  O  O27  1  0.347426  0.173712  0.118191  1
  O  O28  1  0.159679  0.840321  0.257415  1
  O  O29  1  0.319358  0.159679  0.757415  1
  O  O30  1  0.498828  0.501172  0.997310  1
  O  O31  1  0.997655  0.498828  0.497310  1
  O  O32  1  0.501172  0.002345  0.497310  1
  O  O33  1  0.498828  0.997655  0.997310  1
  O  O34  1  0.002345  0.501172  0.997310  1
  O  O35  1  0.501172  0.498828  0.497310  1
  O  O36  1  0.826288  0.173712  0.118191  1
  O  O37  1  0.652574  0.826288  0.618191  1
  O  O38  1  0.173712  0.347426  0.618191  1
  O  O39  1  0.826288  0.652574  0.118191  1
