# generated using pymatgen
data_LaSm6PI12
_symmetry_space_group_name_H-M   'P 1'
_cell_length_a   9.83670222
_cell_length_b   9.83670172
_cell_length_c   9.83670355
_cell_angle_alpha   107.33714062
_cell_angle_beta   107.33714263
_cell_angle_gamma   107.33713791
_symmetry_Int_Tables_number   1
_chemical_formula_structural   LaSm6PI12
_chemical_formula_sum   'La1 Sm6 P1 I12'
_cell_volume   785.26934322
_cell_formula_units_Z   1
loop_
 _symmetry_equiv_pos_site_id
 _symmetry_equiv_pos_as_xyz
  1  'x, y, z'
loop_
 _atom_site_type_symbol
 _atom_site_label
 _atom_site_symmetry_multiplicity
 _atom_site_fract_x
 _atom_site_fract_y
 _atom_site_fract_z
 _atom_site_occupancy
  La  La0  1  0.993379  0.993379  0.993379  1
  Sm  Sm1  1  0.525669  0.597456  0.799745  1
  Sm  Sm2  1  0.799745  0.525669  0.597456  1
  Sm  Sm3  1  0.597456  0.799745  0.525669  1
  Sm  Sm4  1  0.474617  0.402169  0.198703  1
  Sm  Sm5  1  0.198703  0.474617  0.402169  1
  Sm  Sm6  1  0.402169  0.198703  0.474617  1
  P  P7  1  0.499022  0.499022  0.499022  1
  I  I8  1  0.271977  0.815662  0.423424  1
  I  I9  1  0.423424  0.271977  0.815662  1
  I  I10  1  0.815662  0.423424  0.271977  1
  I  I11  1  0.726677  0.182906  0.574154  1
  I  I12  1  0.574154  0.726677  0.182906  1
  I  I13  1  0.182906  0.574154  0.726677  1
  I  I14  1  0.038975  0.121086  0.352760  1
  I  I15  1  0.352760  0.038975  0.121086  1
  I  I16  1  0.121086  0.352760  0.038975  1
  I  I17  1  0.959850  0.876716  0.640422  1
  I  I18  1  0.640422  0.959850  0.876716  1
  I  I19  1  0.876716  0.640422  0.959850  1
