# generated using pymatgen
data_Lu3MgZn2Si2Au
_symmetry_space_group_name_H-M   'P 1'
_cell_length_a   6.83381918
_cell_length_b   6.87703392
_cell_length_c   4.27950700
_cell_angle_alpha   90.00000000
_cell_angle_beta   90.00000000
_cell_angle_gamma   120.20940843
_symmetry_Int_Tables_number   1
_chemical_formula_structural   Lu3MgZn2Si2Au
_chemical_formula_sum   'Lu3 Mg1 Zn2 Si2 Au1'
_cell_volume   173.80758629
_cell_formula_units_Z   1
loop_
 _symmetry_equiv_pos_site_id
 _symmetry_equiv_pos_as_xyz
  1  'x, y, z'
loop_
 _atom_site_type_symbol
 _atom_site_label
 _atom_site_symmetry_multiplicity
 _atom_site_fract_x
 _atom_site_fract_y
 _atom_site_fract_z
 _atom_site_occupancy
  Lu  Lu0  1  0.428888  0.431174  0.500000  1
  Lu  Lu1  1  0.000000  0.579814  0.500000  1
  Lu  Lu2  1  0.571112  0.002285  0.500000  1
  Mg  Mg3  1  0.000000  0.234313  0.000000  1
  Zn  Zn4  1  0.748696  0.747068  0.000000  1
  Zn  Zn5  1  0.251304  0.998371  0.000000  1
  Si  Si6  1  0.662522  0.336612  0.000000  1
  Si  Si7  1  0.337478  0.674094  0.000000  1
  Au  Au8  1  0.000000  0.996269  0.500000  1
