# generated using pymatgen
data_PrDy2(Co3P2)3
_symmetry_space_group_name_H-M   'P 1'
_cell_length_a   3.73003600
_cell_length_b   10.57699600
_cell_length_c   12.25359500
_cell_angle_alpha   90.00000000
_cell_angle_beta   90.00000000
_cell_angle_gamma   90.00000000
_symmetry_Int_Tables_number   1
_chemical_formula_structural   PrDy2(Co3P2)3
_chemical_formula_sum   'Pr2 Dy4 Co18 P12'
_cell_volume   483.43588620
_cell_formula_units_Z   2
loop_
 _symmetry_equiv_pos_site_id
 _symmetry_equiv_pos_as_xyz
  1  'x, y, z'
loop_
 _atom_site_type_symbol
 _atom_site_label
 _atom_site_symmetry_multiplicity
 _atom_site_fract_x
 _atom_site_fract_y
 _atom_site_fract_z
 _atom_site_occupancy
  Pr  Pr0  1  0.000000  0.500000  0.522737  1
  Pr  Pr1  1  0.500000  0.000000  0.477263  1
  Dy  Dy2  1  0.500000  0.817214  0.204671  1
  Dy  Dy3  1  0.500000  0.182786  0.204671  1
  Dy  Dy4  1  0.000000  0.682786  0.795329  1
  Dy  Dy5  1  0.000000  0.317214  0.795329  1
  Co  Co6  1  0.500000  0.500000  0.156574  1
  Co  Co7  1  0.000000  0.000000  0.843426  1
  Co  Co8  1  0.500000  0.500000  0.707126  1
  Co  Co9  1  0.000000  0.000000  0.292874  1
  Co  Co10  1  0.000000  0.500000  0.986676  1
  Co  Co11  1  0.500000  0.000000  0.013324  1
  Co  Co12  1  0.500000  0.333322  0.995066  1
  Co  Co13  1  0.500000  0.666678  0.995066  1
  Co  Co14  1  0.000000  0.166678  0.004934  1
  Co  Co15  1  0.000000  0.833322  0.004934  1
  Co  Co16  1  0.500000  0.296703  0.428794  1
  Co  Co17  1  0.500000  0.703297  0.428794  1
  Co  Co18  1  0.000000  0.203297  0.571206  1
  Co  Co19  1  0.000000  0.796703  0.571206  1
  Co  Co20  1  0.500000  0.879887  0.712902  1
  Co  Co21  1  0.500000  0.120113  0.712902  1
  Co  Co22  1  0.000000  0.620113  0.287098  1
  Co  Co23  1  0.000000  0.379887  0.287098  1
  P  P24  1  0.500000  0.500000  0.884236  1
  P  P25  1  0.000000  0.000000  0.115764  1
  P  P26  1  0.500000  0.500000  0.338981  1
  P  P27  1  0.000000  0.000000  0.661019  1
  P  P28  1  0.500000  0.306540  0.617749  1
  P  P29  1  0.500000  0.693460  0.617749  1
  P  P30  1  0.000000  0.193460  0.382251  1
  P  P31  1  0.000000  0.806540  0.382251  1
  P  P32  1  0.500000  0.846942  0.894443  1
  P  P33  1  0.500000  0.153058  0.894443  1
  P  P34  1  0.000000  0.653058  0.105557  1
  P  P35  1  0.000000  0.346942  0.105557  1
