# generated using pymatgen
data_Rb11In2Sb5
_symmetry_space_group_name_H-M   'P 1'
_cell_length_a   10.32316258
_cell_length_b   12.46991092
_cell_length_c   13.66873144
_cell_angle_alpha   103.39150668
_cell_angle_beta   97.55803412
_cell_angle_gamma   107.45483183
_symmetry_Int_Tables_number   1
_chemical_formula_structural   Rb11In2Sb5
_chemical_formula_sum   'Rb22 In4 Sb10'
_cell_volume   1594.13919677
_cell_formula_units_Z   2
loop_
 _symmetry_equiv_pos_site_id
 _symmetry_equiv_pos_as_xyz
  1  'x, y, z'
loop_
 _atom_site_type_symbol
 _atom_site_label
 _atom_site_symmetry_multiplicity
 _atom_site_fract_x
 _atom_site_fract_y
 _atom_site_fract_z
 _atom_site_occupancy
  Rb  Rb0  1  0.857499  0.575166  0.965583  1
  Rb  Rb1  1  0.142501  0.424834  0.034417  1
  Rb  Rb2  1  0.310720  0.893902  0.774163  1
  Rb  Rb3  1  0.689280  0.106098  0.225837  1
  Rb  Rb4  1  0.634115  0.165979  0.529628  1
  Rb  Rb5  1  0.365885  0.834021  0.470372  1
  Rb  Rb6  1  0.629257  0.671273  0.554555  1
  Rb  Rb7  1  0.370743  0.328727  0.445445  1
  Rb  Rb8  1  0.186873  0.554228  0.571842  1
  Rb  Rb9  1  0.813127  0.445772  0.428158  1
  Rb  Rb10  1  0.050779  0.705409  0.266877  1
  Rb  Rb11  1  0.949221  0.294591  0.733123  1
  Rb  Rb12  1  0.188465  0.074709  0.570262  1
  Rb  Rb13  1  0.811535  0.925291  0.429738  1
  Rb  Rb14  1  0.877364  0.094470  0.985902  1
  Rb  Rb15  1  0.122636  0.905530  0.014098  1
  Rb  Rb16  1  0.588704  0.225390  0.865536  1
  Rb  Rb17  1  0.411296  0.774610  0.134464  1
  Rb  Rb18  1  0.379347  0.242927  0.141650  1
  Rb  Rb19  1  0.620653  0.757073  0.858350  1
  Rb  Rb20  1  0.352249  0.414800  0.787735  1
  Rb  Rb21  1  0.647751  0.585200  0.212265  1
  In  In22  1  0.940815  0.923016  0.741258  1
  In  In23  1  0.059185  0.076984  0.258742  1
  In  In24  1  0.939686  0.673172  0.739481  1
  In  In25  1  0.060314  0.326828  0.260519  1
  Sb  Sb26  1  0.001941  0.763645  0.548799  1
  Sb  Sb27  1  0.998059  0.236355  0.451201  1
  Sb  Sb28  1  0.675135  0.464491  0.693748  1
  Sb  Sb29  1  0.324865  0.535509  0.306252  1
  Sb  Sb30  1  0.675117  0.973177  0.699100  1
  Sb  Sb31  1  0.324883  0.026823  0.300900  1
  Sb  Sb32  1  0.184872  0.140977  0.857775  1
  Sb  Sb33  1  0.815128  0.859023  0.142225  1
  Sb  Sb34  1  0.181761  0.633805  0.861331  1
  Sb  Sb35  1  0.818239  0.366195  0.138669  1
