# generated using pymatgen
data_Tm3Pa3(Ni3Sb4)2
_symmetry_space_group_name_H-M   'P 1'
_cell_length_a   8.13625761
_cell_length_b   8.11891933
_cell_length_c   8.11891982
_cell_angle_alpha   109.34369081
_cell_angle_beta   109.10085789
_cell_angle_gamma   109.88350955
_symmetry_Int_Tables_number   1
_chemical_formula_structural   Tm3Pa3(Ni3Sb4)2
_chemical_formula_sum   'Tm3 Pa3 Ni6 Sb8'
_cell_volume   413.27706093
_cell_formula_units_Z   1
loop_
 _symmetry_equiv_pos_site_id
 _symmetry_equiv_pos_as_xyz
  1  'x, y, z'
loop_
 _atom_site_type_symbol
 _atom_site_label
 _atom_site_symmetry_multiplicity
 _atom_site_fract_x
 _atom_site_fract_y
 _atom_site_fract_z
 _atom_site_occupancy
  Tm  Tm0  1  0.874885  0.249519  0.124846  1
  Tm  Tm1  1  0.625115  0.749961  0.374634  1
  Tm  Tm2  1  0.250000  0.126201  0.876201  1
  Pa  Pa3  1  0.750000  0.373294  0.623294  1
  Pa  Pa4  1  0.122988  0.873949  0.249867  1
  Pa  Pa5  1  0.377012  0.626880  0.750960  1
  Ni  Ni6  1  0.378907  0.251515  0.621650  1
  Ni  Ni7  1  0.121093  0.742741  0.872608  1
  Ni  Ni8  1  0.250000  0.626852  0.376852  1
  Ni  Ni9  1  0.750000  0.871459  0.121459  1
  Ni  Ni10  1  0.630170  0.377279  0.261977  1
  Ni  Ni11  1  0.869830  0.131808  0.747109  1
  Sb  Sb12  1  0.659356  0.496482  0.001853  1
  Sb  Sb13  1  0.500668  0.997919  0.662745  1
  Sb  Sb14  1  0.999332  0.662077  0.497251  1
  Sb  Sb15  1  0.840644  0.842497  0.837126  1
  Sb  Sb16  1  0.501193  0.002083  0.160769  1
  Sb  Sb17  1  0.163617  0.499277  0.002249  1
  Sb  Sb18  1  0.998807  0.159575  0.500890  1
  Sb  Sb19  1  0.336383  0.338633  0.335661  1
