# generated using pymatgen
data_Cs2LiYAs2
_symmetry_space_group_name_H-M   'P 1'
_cell_length_a   11.02989795
_cell_length_b   11.02989823
_cell_length_c   6.94205500
_cell_angle_alpha   90.00000000
_cell_angle_beta   90.00000000
_cell_angle_gamma   101.96088573
_symmetry_Int_Tables_number   1
_chemical_formula_structural   Cs2LiYAs2
_chemical_formula_sum   'Cs8 Li4 Y4 As8'
_cell_volume   826.22504797
_cell_formula_units_Z   4
loop_
 _symmetry_equiv_pos_site_id
 _symmetry_equiv_pos_as_xyz
  1  'x, y, z'
loop_
 _atom_site_type_symbol
 _atom_site_label
 _atom_site_symmetry_multiplicity
 _atom_site_fract_x
 _atom_site_fract_y
 _atom_site_fract_z
 _atom_site_occupancy
  Cs  Cs0  1  0.070098  0.429902  0.750000  1
  Cs  Cs1  1  0.675698  0.324302  0.791406  1
  Cs  Cs2  1  0.324302  0.675698  0.208594  1
  Cs  Cs3  1  0.570098  0.929902  0.750000  1
  Cs  Cs4  1  0.429902  0.070098  0.250000  1
  Cs  Cs5  1  0.929902  0.570098  0.250000  1
  Cs  Cs6  1  0.824302  0.175698  0.291406  1
  Cs  Cs7  1  0.175698  0.824302  0.708594  1
  Li  Li8  1  0.118918  0.118918  0.500000  1
  Li  Li9  1  0.881082  0.881082  0.500000  1
  Li  Li10  1  0.381082  0.381082  0.000000  1
  Li  Li11  1  0.618918  0.618918  0.000000  1
  Y  Y12  1  0.867598  0.867598  0.000000  1
  Y  Y13  1  0.367598  0.367598  0.500000  1
  Y  Y14  1  0.632402  0.632402  0.500000  1
  Y  Y15  1  0.132402  0.132402  0.000000  1
  As  As16  1  0.837408  0.662592  0.750000  1
  As  As17  1  0.082983  0.917017  0.234899  1
  As  As18  1  0.417017  0.582983  0.734899  1
  As  As19  1  0.582983  0.417017  0.265101  1
  As  As20  1  0.662592  0.837408  0.250000  1
  As  As21  1  0.162592  0.337408  0.250000  1
  As  As22  1  0.337408  0.162592  0.750000  1
  As  As23  1  0.917017  0.082983  0.765101  1
