# generated using pymatgen
data_NaTm4P12Ir10Rh9
_symmetry_space_group_name_H-M   'P 1'
_cell_length_a   12.66279401
_cell_length_b   12.66279374
_cell_length_c   3.94142700
_cell_angle_alpha   90.00000000
_cell_angle_beta   90.00000000
_cell_angle_gamma   119.78153328
_symmetry_Int_Tables_number   1
_chemical_formula_structural   NaTm4P12Ir10Rh9
_chemical_formula_sum   'Na1 Tm4 P12 Ir10 Rh9'
_cell_volume   548.52326615
_cell_formula_units_Z   1
loop_
 _symmetry_equiv_pos_site_id
 _symmetry_equiv_pos_as_xyz
  1  'x, y, z'
loop_
 _atom_site_type_symbol
 _atom_site_label
 _atom_site_symmetry_multiplicity
 _atom_site_fract_x
 _atom_site_fract_y
 _atom_site_fract_z
 _atom_site_occupancy
  Na  Na0  1  0.184119  0.184119  0.000000  1
  Tm  Tm1  1  0.333059  0.667429  0.500000  1
  Tm  Tm2  1  0.667429  0.333059  0.500000  1
  Tm  Tm3  1  0.816443  0.000317  0.000000  1
  Tm  Tm4  1  0.000317  0.816443  0.000000  1
  P  P5  1  0.313968  0.831209  0.000000  1
  P  P6  1  0.169256  0.481641  0.000000  1
  P  P7  1  0.516657  0.685051  0.000000  1
  P  P8  1  0.831209  0.313968  0.000000  1
  P  P9  1  0.481641  0.169256  0.000000  1
  P  P10  1  0.685051  0.516657  0.000000  1
  P  P11  1  0.361759  0.361759  0.500000  1
  P  P12  1  0.639659  0.000041  0.500000  1
  P  P13  1  0.000041  0.639659  0.500000  1
  P  P14  1  0.820309  0.820309  0.500000  1
  P  P15  1  0.179326  0.000488  0.500000  1
  P  P16  1  0.000488  0.179326  0.500000  1
  Ir  Ir17  1  0.135077  0.641427  0.000000  1
  Ir  Ir18  1  0.358979  0.491169  0.000000  1
  Ir  Ir19  1  0.507487  0.864779  0.000000  1
  Ir  Ir20  1  0.641427  0.135077  0.000000  1
  Ir  Ir21  1  0.491169  0.358979  0.000000  1
  Ir  Ir22  1  0.864779  0.507487  0.000000  1
  Ir  Ir23  1  0.717853  0.717853  0.000000  1
  Ir  Ir24  1  0.282038  0.999096  0.000000  1
  Ir  Ir25  1  0.999096  0.282038  0.000000  1
  Ir  Ir26  1  0.997431  0.997431  0.500000  1
  Rh  Rh27  1  0.192758  0.818985  0.500000  1
  Rh  Rh28  1  0.181224  0.378034  0.500000  1
  Rh  Rh29  1  0.626119  0.806490  0.500000  1
  Rh  Rh30  1  0.818985  0.192758  0.500000  1
  Rh  Rh31  1  0.378034  0.181224  0.500000  1
  Rh  Rh32  1  0.806490  0.626119  0.500000  1
  Rh  Rh33  1  0.542007  0.542007  0.500000  1
  Rh  Rh34  1  0.458808  0.999509  0.500000  1
  Rh  Rh35  1  0.999509  0.458808  0.500000  1
