# generated using pymatgen
data_Pa3Ga3FeIr2
_symmetry_space_group_name_H-M   'P 1'
_cell_length_a   6.98888500
_cell_length_b   6.98888392
_cell_length_c   3.93858300
_cell_angle_alpha   90.00000000
_cell_angle_beta   90.00000000
_cell_angle_gamma   120.00000036
_symmetry_Int_Tables_number   1
_chemical_formula_structural   Pa3Ga3FeIr2
_chemical_formula_sum   'Pa3 Ga3 Fe1 Ir2'
_cell_volume   166.60435668
_cell_formula_units_Z   1
loop_
 _symmetry_equiv_pos_site_id
 _symmetry_equiv_pos_as_xyz
  1  'x, y, z'
loop_
 _atom_site_type_symbol
 _atom_site_label
 _atom_site_symmetry_multiplicity
 _atom_site_fract_x
 _atom_site_fract_y
 _atom_site_fract_z
 _atom_site_occupancy
  Pa  Pa0  1  0.426049  0.012386  0.500000  1
  Pa  Pa1  1  0.987614  0.413663  0.500000  1
  Pa  Pa2  1  0.586337  0.573951  0.500000  1
  Ga  Ga3  1  0.757300  0.004542  0.000000  1
  Ga  Ga4  1  0.995458  0.752759  0.000000  1
  Ga  Ga5  1  0.247241  0.242700  0.000000  1
  Fe  Fe6  1  0.666667  0.333333  0.000000  1
  Ir  Ir7  1  0.333333  0.666667  0.000000  1
  Ir  Ir8  1  0.000000  0.000000  0.500000  1
