# generated using pymatgen
data_La7Pa(ZnRh)8
_symmetry_space_group_name_H-M   'P 1'
_cell_length_a   3.98558700
_cell_length_b   7.52963601
_cell_length_c   16.62327000
_cell_angle_alpha   90.00301734
_cell_angle_beta   90.00000000
_cell_angle_gamma   90.00000000
_symmetry_Int_Tables_number   1
_chemical_formula_structural   La7Pa(ZnRh)8
_chemical_formula_sum   'La7 Pa1 Zn8 Rh8'
_cell_volume   498.86465445
_cell_formula_units_Z   1
loop_
 _symmetry_equiv_pos_site_id
 _symmetry_equiv_pos_as_xyz
  1  'x, y, z'
loop_
 _atom_site_type_symbol
 _atom_site_label
 _atom_site_symmetry_multiplicity
 _atom_site_fract_x
 _atom_site_fract_y
 _atom_site_fract_z
 _atom_site_occupancy
  La  La0  1  0.250000  0.051967  0.715629  1
  La  La1  1  0.250000  0.549589  0.783207  1
  La  La2  1  0.250000  0.674051  0.560554  1
  La  La3  1  0.750000  0.826699  0.059477  1
  La  La4  1  0.250000  0.174193  0.940427  1
  La  La5  1  0.750000  0.450951  0.217020  1
  La  La6  1  0.750000  0.944802  0.284533  1
  Pa  Pa7  1  0.750000  0.325657  0.440776  1
  Zn  Zn8  1  0.250000  0.120666  0.150106  1
  Zn  Zn9  1  0.250000  0.989577  0.439203  1
  Zn  Zn10  1  0.750000  0.876065  0.849700  1
  Zn  Zn11  1  0.750000  0.002100  0.556721  1
  Zn  Zn12  1  0.250000  0.498456  0.059167  1
  Zn  Zn13  1  0.750000  0.375822  0.647776  1
  Zn  Zn14  1  0.750000  0.501856  0.940702  1
  Zn  Zn15  1  0.250000  0.616440  0.350112  1
  Rh  Rh16  1  0.750000  0.253580  0.812557  1
  Rh  Rh17  1  0.250000  0.258366  0.332566  1
  Rh  Rh18  1  0.250000  0.742005  0.934630  1
  Rh  Rh19  1  0.250000  0.256983  0.550637  1
  Rh  Rh20  1  0.250000  0.751014  0.186072  1
  Rh  Rh21  1  0.750000  0.739279  0.435678  1
  Rh  Rh22  1  0.750000  0.260558  0.067696  1
  Rh  Rh23  1  0.750000  0.759324  0.685054  1
