# generated using pymatgen
data_DyY15(AgRh)4
_symmetry_space_group_name_H-M   'P 1'
_cell_length_a   9.57642002
_cell_length_b   9.57002867
_cell_length_c   9.57002900
_cell_angle_alpha   60.00000230
_cell_angle_beta   60.02207743
_cell_angle_gamma   60.02207992
_symmetry_Int_Tables_number   1
_chemical_formula_structural   DyY15(AgRh)4
_chemical_formula_sum   'Dy1 Y15 Ag4 Rh4'
_cell_volume   620.38250186
_cell_formula_units_Z   1
loop_
 _symmetry_equiv_pos_site_id
 _symmetry_equiv_pos_as_xyz
  1  'x, y, z'
loop_
 _atom_site_type_symbol
 _atom_site_label
 _atom_site_symmetry_multiplicity
 _atom_site_fract_x
 _atom_site_fract_y
 _atom_site_fract_z
 _atom_site_occupancy
  Dy  Dy0  1  0.558680  0.147106  0.147106  1
  Y  Y1  1  0.687821  0.312042  0.312042  1
  Y  Y2  1  0.687821  0.688095  0.312042  1
  Y  Y3  1  0.312115  0.687868  0.312149  1
  Y  Y4  1  0.935948  0.935997  0.564027  1
  Y  Y5  1  0.146331  0.146286  0.561097  1
  Y  Y6  1  0.564000  0.936234  0.563531  1
  Y  Y7  1  0.146331  0.146286  0.146286  1
  Y  Y8  1  0.312115  0.312149  0.687868  1
  Y  Y9  1  0.935948  0.564027  0.564027  1
  Y  Y10  1  0.564000  0.563531  0.936234  1
  Y  Y11  1  0.564000  0.936234  0.936234  1
  Y  Y12  1  0.935948  0.564027  0.935997  1
  Y  Y13  1  0.146331  0.561097  0.146286  1
  Y  Y14  1  0.312115  0.687868  0.687868  1
  Y  Y15  1  0.687821  0.312042  0.688095  1
  Ag  Ag16  1  0.917599  0.917830  0.246742  1
  Ag  Ag17  1  0.246899  0.917701  0.917701  1
  Ag  Ag18  1  0.917599  0.246742  0.917830  1
  Ag  Ag19  1  0.917599  0.917830  0.917830  1
  Rh  Rh20  1  0.357271  0.355124  0.355124  1
  Rh  Rh21  1  0.931164  0.356279  0.356279  1
  Rh  Rh22  1  0.357271  0.355124  0.932480  1
  Rh  Rh23  1  0.357271  0.932480  0.355124  1
