# generated using pymatgen
data_YHo9(CoPd2)2
_symmetry_space_group_name_H-M   'P 1'
_cell_length_a   7.79450600
_cell_length_b   8.23879600
_cell_length_c   11.77226900
_cell_angle_alpha   90.00000000
_cell_angle_beta   90.00000000
_cell_angle_gamma   90.00000000
_symmetry_Int_Tables_number   1
_chemical_formula_structural   YHo9(CoPd2)2
_chemical_formula_sum   'Y2 Ho18 Co4 Pd8'
_cell_volume   755.98385810
_cell_formula_units_Z   2
loop_
 _symmetry_equiv_pos_site_id
 _symmetry_equiv_pos_as_xyz
  1  'x, y, z'
loop_
 _atom_site_type_symbol
 _atom_site_label
 _atom_site_symmetry_multiplicity
 _atom_site_fract_x
 _atom_site_fract_y
 _atom_site_fract_z
 _atom_site_occupancy
  Y  Y0  1  0.165248  0.750000  0.216412  1
  Y  Y1  1  0.665248  0.250000  0.283588  1
  Ho  Ho2  1  0.835237  0.250000  0.783874  1
  Ho  Ho3  1  0.335237  0.750000  0.716126  1
  Ho  Ho4  1  0.460348  0.750000  0.003647  1
  Ho  Ho5  1  0.960348  0.250000  0.496353  1
  Ho  Ho6  1  0.539525  0.250000  0.995059  1
  Ho  Ho7  1  0.039525  0.750000  0.504941  1
  Ho  Ho8  1  0.631723  0.750000  0.307152  1
  Ho  Ho9  1  0.131723  0.250000  0.192848  1
  Ho  Ho10  1  0.368723  0.250000  0.693347  1
  Ho  Ho11  1  0.868723  0.750000  0.806653  1
  Ho  Ho12  1  0.828483  0.965270  0.080234  1
  Ho  Ho13  1  0.328483  0.034730  0.419766  1
  Ho  Ho14  1  0.171299  0.465050  0.918502  1
  Ho  Ho15  1  0.671299  0.534950  0.581498  1
  Ho  Ho16  1  0.171299  0.034950  0.918502  1
  Ho  Ho17  1  0.671299  0.965050  0.581498  1
  Ho  Ho18  1  0.828483  0.534730  0.080234  1
  Ho  Ho19  1  0.328483  0.465270  0.419766  1
  Co  Co20  1  0.433287  0.750000  0.496299  1
  Co  Co21  1  0.933287  0.250000  0.003701  1
  Co  Co22  1  0.566183  0.250000  0.505133  1
  Co  Co23  1  0.066183  0.750000  0.994867  1
  Pd  Pd24  1  0.935100  0.984607  0.331749  1
  Pd  Pd25  1  0.435100  0.015393  0.168251  1
  Pd  Pd26  1  0.064982  0.484328  0.669439  1
  Pd  Pd27  1  0.564982  0.515672  0.830561  1
  Pd  Pd28  1  0.064982  0.015672  0.669439  1
  Pd  Pd29  1  0.564982  0.984328  0.830561  1
  Pd  Pd30  1  0.935100  0.515393  0.331749  1
  Pd  Pd31  1  0.435100  0.484607  0.168251  1
