# generated using pymatgen
data_Er2PaRu2
_symmetry_space_group_name_H-M   'P 1'
_cell_length_a   5.87333028
_cell_length_b   5.87333013
_cell_length_c   5.87332941
_cell_angle_alpha   138.41135968
_cell_angle_beta   120.50509003
_cell_angle_gamma   75.19414269
_symmetry_Int_Tables_number   1
_chemical_formula_structural   Er2PaRu2
_chemical_formula_sum   'Er2 Pa1 Ru2'
_cell_volume   113.10909944
_cell_formula_units_Z   1
loop_
 _symmetry_equiv_pos_site_id
 _symmetry_equiv_pos_as_xyz
  1  'x, y, z'
loop_
 _atom_site_type_symbol
 _atom_site_label
 _atom_site_symmetry_multiplicity
 _atom_site_fract_x
 _atom_site_fract_y
 _atom_site_fract_z
 _atom_site_occupancy
  Er  Er0  1  0.694756  0.194757  0.500000  1
  Er  Er1  1  0.305243  0.805243  0.500000  1
  Pa  Pa2  1  0.000000  0.000000  0.000000  1
  Ru  Ru3  1  0.741797  0.500000  0.241797  1
  Ru  Ru4  1  0.258202  0.500000  0.758202  1
