# generated using pymatgen
data_Th5P12Pd19
_symmetry_space_group_name_H-M   'P 1'
_cell_length_a   15.81079844
_cell_length_b   15.81079805
_cell_length_c   9.96940844
_cell_angle_alpha   74.97695805
_cell_angle_beta   74.97695774
_cell_angle_gamma   14.48130837
_symmetry_Int_Tables_number   1
_chemical_formula_structural   Th5P12Pd19
_chemical_formula_sum   'Th5 P12 Pd19'
_cell_volume   601.55140562
_cell_formula_units_Z   1
loop_
 _symmetry_equiv_pos_site_id
 _symmetry_equiv_pos_as_xyz
  1  'x, y, z'
loop_
 _atom_site_type_symbol
 _atom_site_label
 _atom_site_symmetry_multiplicity
 _atom_site_fract_x
 _atom_site_fract_y
 _atom_site_fract_z
 _atom_site_occupancy
  Th  Th0  1  0.500000  0.500000  0.500000  1
  Th  Th1  1  0.577643  0.577643  0.813458  1
  Th  Th2  1  0.422357  0.422357  0.186542  1
  Th  Th3  1  0.175903  0.175903  0.235016  1
  Th  Th4  1  0.824097  0.824097  0.764984  1
  P  P5  1  0.925584  0.925584  0.957035  1
  P  P6  1  0.074416  0.074416  0.042965  1
  P  P7  1  0.694653  0.694653  0.978508  1
  P  P8  1  0.305347  0.305347  0.021492  1
  P  P9  1  0.400702  0.400702  0.622201  1
  P  P10  1  0.733358  0.733358  0.343391  1
  P  P11  1  0.146183  0.146183  0.663897  1
  P  P12  1  0.853817  0.853817  0.336103  1
  P  P13  1  0.015411  0.015411  0.718494  1
  P  P14  1  0.984589  0.984589  0.281506  1
  P  P15  1  0.599298  0.599298  0.377799  1
  P  P16  1  0.266642  0.266642  0.656609  1
  Pd  Pd17  1  0.782797  0.782797  0.508286  1
  Pd  Pd18  1  0.757435  0.757435  0.090553  1
  Pd  Pd19  1  0.242565  0.242565  0.909447  1
  Pd  Pd20  1  0.217203  0.217203  0.491714  1
  Pd  Pd21  1  0.348500  0.348500  0.482957  1
  Pd  Pd22  1  0.618853  0.618853  0.106946  1
  Pd  Pd23  1  0.381147  0.381147  0.893054  1
  Pd  Pd24  1  0.524505  0.524505  0.164192  1
  Pd  Pd25  1  0.475495  0.475495  0.835808  1
  Pd  Pd26  1  0.292351  0.292351  0.269358  1
  Pd  Pd27  1  0.707649  0.707649  0.730642  1
  Pd  Pd28  1  0.000000  0.000000  0.000000  1
  Pd  Pd29  1  0.849373  0.849373  0.096697  1
  Pd  Pd30  1  0.083831  0.083831  0.542901  1
  Pd  Pd31  1  0.916169  0.916169  0.457099  1
  Pd  Pd32  1  0.069752  0.069752  0.286794  1
  Pd  Pd33  1  0.930248  0.930248  0.713206  1
  Pd  Pd34  1  0.651500  0.651500  0.517043  1
  Pd  Pd35  1  0.150627  0.150627  0.903303  1
