# generated using pymatgen
data_SmSb16
_symmetry_space_group_name_H-M   'P 1'
_cell_length_a   4.34274440
_cell_length_b   4.34274316
_cell_length_c   32.25835100
_cell_angle_alpha   86.14039777
_cell_angle_beta   86.14039887
_cell_angle_gamma   60.00000439
_symmetry_Int_Tables_number   1
_chemical_formula_structural   SmSb16
_chemical_formula_sum   'Sm1 Sb16'
_cell_volume   525.27341906
_cell_formula_units_Z   1
loop_
 _symmetry_equiv_pos_site_id
 _symmetry_equiv_pos_as_xyz
  1  'x, y, z'
loop_
 _atom_site_type_symbol
 _atom_site_label
 _atom_site_symmetry_multiplicity
 _atom_site_fract_x
 _atom_site_fract_y
 _atom_site_fract_z
 _atom_site_occupancy
  Sm  Sm0  1  0.000000  0.000000  0.000000  1
  Sb  Sb1  1  0.291505  0.291505  0.125486  1
  Sb  Sb2  1  0.708495  0.708495  0.874514  1
  Sb  Sb3  1  0.235826  0.235826  0.292521  1
  Sb  Sb4  1  0.764174  0.764174  0.707479  1
  Sb  Sb5  1  0.469378  0.469378  0.591865  1
  Sb  Sb6  1  0.530622  0.530622  0.408135  1
  Sb  Sb7  1  0.353386  0.353386  0.939843  1
  Sb  Sb8  1  0.646614  0.646614  0.060157  1
  Sb  Sb9  1  0.058860  0.058860  0.823421  1
  Sb  Sb10  1  0.941140  0.941140  0.176579  1
  Sb  Sb11  1  0.414463  0.414463  0.756612  1
  Sb  Sb12  1  0.585537  0.585537  0.243388  1
  Sb  Sb13  1  0.119992  0.119992  0.640025  1
  Sb  Sb14  1  0.880008  0.880008  0.359975  1
  Sb  Sb15  1  0.174639  0.174639  0.476082  1
  Sb  Sb16  1  0.825361  0.825361  0.523918  1
