# generated using pymatgen
data_LiSm2Si4(AsPd10)2
_symmetry_space_group_name_H-M   'P 1'
_cell_length_a   8.71795792
_cell_length_b   8.79205124
_cell_length_c   8.79205160
_cell_angle_alpha   59.44323089
_cell_angle_beta   60.27838308
_cell_angle_gamma   60.27838648
_symmetry_Int_Tables_number   1
_chemical_formula_structural   LiSm2Si4(AsPd10)2
_chemical_formula_sum   'Li1 Sm2 Si4 As2 Pd20'
_cell_volume   476.45186777
_cell_formula_units_Z   1
loop_
 _symmetry_equiv_pos_site_id
 _symmetry_equiv_pos_as_xyz
  1  'x, y, z'
loop_
 _atom_site_type_symbol
 _atom_site_label
 _atom_site_symmetry_multiplicity
 _atom_site_fract_x
 _atom_site_fract_y
 _atom_site_fract_z
 _atom_site_occupancy
  Li  Li0  1  0.000000  0.000000  0.000000  1
  Sm  Sm1  1  0.250000  0.250000  0.250000  1
  Sm  Sm2  1  0.750000  0.750000  0.750000  1
  Si  Si3  1  0.263835  0.736165  0.263835  1
  Si  Si4  1  0.736165  0.263835  0.736165  1
  Si  Si5  1  0.263835  0.263835  0.736165  1
  Si  Si6  1  0.736165  0.736165  0.263835  1
  As  As7  1  0.737371  0.262629  0.262629  1
  As  As8  1  0.262629  0.737371  0.737371  1
  Pd  Pd9  1  0.380068  0.386888  0.386888  1
  Pd  Pd10  1  0.619932  0.613112  0.613112  1
  Pd  Pd11  1  0.386888  0.380068  0.846155  1
  Pd  Pd12  1  0.386888  0.846155  0.380068  1
  Pd  Pd13  1  0.613112  0.619932  0.153845  1
  Pd  Pd14  1  0.613112  0.153845  0.619932  1
  Pd  Pd15  1  0.846155  0.386888  0.386888  1
  Pd  Pd16  1  0.153845  0.613112  0.613112  1
  Pd  Pd17  1  0.345688  0.000000  0.000000  1
  Pd  Pd18  1  0.654312  0.000000  0.000000  1
  Pd  Pd19  1  0.000000  0.345688  0.654312  1
  Pd  Pd20  1  0.000000  0.654312  0.345688  1
  Pd  Pd21  1  0.006832  0.346368  0.993168  1
  Pd  Pd22  1  0.653632  0.993168  0.346368  1
  Pd  Pd23  1  0.993168  0.653632  0.006832  1
  Pd  Pd24  1  0.346368  0.006832  0.653632  1
  Pd  Pd25  1  0.006832  0.993168  0.346368  1
  Pd  Pd26  1  0.993168  0.006832  0.653632  1
  Pd  Pd27  1  0.653632  0.346368  0.993168  1
  Pd  Pd28  1  0.346368  0.653632  0.006832  1
