# generated using pymatgen
data_HoEr7Sc12Si15Ir
_symmetry_space_group_name_H-M   'P 1'
_cell_length_a   7.06779026
_cell_length_b   7.42337540
_cell_length_c   13.93062021
_cell_angle_alpha   90.01895505
_cell_angle_beta   90.00591768
_cell_angle_gamma   90.15895433
_symmetry_Int_Tables_number   1
_chemical_formula_structural   HoEr7Sc12Si15Ir
_chemical_formula_sum   'Ho1 Er7 Sc12 Si15 Ir1'
_cell_volume   730.89304926
_cell_formula_units_Z   1
loop_
 _symmetry_equiv_pos_site_id
 _symmetry_equiv_pos_as_xyz
  1  'x, y, z'
loop_
 _atom_site_type_symbol
 _atom_site_label
 _atom_site_symmetry_multiplicity
 _atom_site_fract_x
 _atom_site_fract_y
 _atom_site_fract_z
 _atom_site_occupancy
  Ho  Ho0  1  0.011776  0.179724  0.096074  1
  Er  Er1  1  0.990536  0.825246  0.904553  1
  Er  Er2  1  0.488923  0.676841  0.905254  1
  Er  Er3  1  0.990540  0.825281  0.595515  1
  Er  Er4  1  0.511431  0.323278  0.096149  1
  Er  Er5  1  0.011847  0.179956  0.403705  1
  Er  Er6  1  0.511501  0.323263  0.403815  1
  Er  Er7  1  0.488917  0.676809  0.594778  1
  Sc  Sc8  1  0.157807  0.502561  0.749995  1
  Sc  Sc9  1  0.838748  0.496701  0.250049  1
  Sc  Sc10  1  0.340257  0.006289  0.250040  1
  Sc  Sc11  1  0.666861  0.995859  0.750009  1
  Sc  Sc12  1  0.318657  0.171840  0.627312  1
  Sc  Sc13  1  0.672328  0.826113  0.373603  1
  Sc  Sc14  1  0.171327  0.678166  0.374170  1
  Sc  Sc15  1  0.672293  0.826053  0.126392  1
  Sc  Sc16  1  0.835584  0.319600  0.627273  1
  Sc  Sc17  1  0.318759  0.171822  0.872646  1
  Sc  Sc18  1  0.835518  0.319671  0.872693  1
  Sc  Sc19  1  0.171346  0.678153  0.125864  1
  Si  Si20  1  0.970368  0.887642  0.250082  1
  Si  Si21  1  0.469721  0.613746  0.250018  1
  Si  Si22  1  0.529138  0.388863  0.749987  1
  Si  Si23  1  0.287114  0.864871  0.749997  1
  Si  Si24  1  0.714160  0.132566  0.250145  1
  Si  Si25  1  0.214233  0.370888  0.250154  1
  Si  Si26  1  0.778427  0.626310  0.749984  1
  Si  Si27  1  0.160239  0.467846  0.537672  1
  Si  Si28  1  0.842172  0.535662  0.461549  1
  Si  Si29  1  0.344318  0.966866  0.460221  1
  Si  Si30  1  0.842066  0.535915  0.038383  1
  Si  Si31  1  0.656466  0.033951  0.538437  1
  Si  Si32  1  0.160299  0.468095  0.962243  1
  Si  Si33  1  0.656368  0.033907  0.961540  1
  Si  Si34  1  0.344678  0.966668  0.039705  1
  Ir  Ir35  1  0.025281  0.102979  0.749995  1
