# generated using pymatgen
data_Te7As5Br
_symmetry_space_group_name_H-M   'P 1'
_cell_length_a   7.73155521
_cell_length_b   7.73155589
_cell_length_c   13.80877414
_cell_angle_alpha   71.30541526
_cell_angle_beta   71.30541423
_cell_angle_gamma   30.48300892
_symmetry_Int_Tables_number   1
_chemical_formula_structural   Te7As5Br
_chemical_formula_sum   'Te7 As5 Br1'
_cell_volume   394.95316080
_cell_formula_units_Z   1
loop_
 _symmetry_equiv_pos_site_id
 _symmetry_equiv_pos_as_xyz
  1  'x, y, z'
loop_
 _atom_site_type_symbol
 _atom_site_label
 _atom_site_symmetry_multiplicity
 _atom_site_fract_x
 _atom_site_fract_y
 _atom_site_fract_z
 _atom_site_occupancy
  Te  Te0  1  0.170295  0.170295  0.632488  1
  Te  Te1  1  0.823688  0.823688  0.383614  1
  Te  Te2  1  0.901775  0.901775  0.662725  1
  Te  Te3  1  0.101555  0.101555  0.328909  1
  Te  Te4  1  0.483186  0.483186  0.855960  1
  Te  Te5  1  0.516670  0.516670  0.147102  1
  Te  Te6  1  0.802533  0.802533  0.087997  1
  As  As7  1  0.995028  0.995028  0.004634  1
  As  As8  1  0.676448  0.676448  0.771382  1
  As  As9  1  0.325045  0.325045  0.223139  1
  As  As10  1  0.363970  0.363970  0.548752  1
  As  As11  1  0.634340  0.634340  0.446182  1
  Br  Br12  1  0.205468  0.205468  0.907117  1
