# generated using pymatgen
data_Tb4Yb2Mn3CrC12
_symmetry_space_group_name_H-M   'P 1'
_cell_length_a   8.09120334
_cell_length_b   8.07969387
_cell_length_c   5.00158802
_cell_angle_alpha   90.00774008
_cell_angle_beta   90.00226414
_cell_angle_gamma   120.11328306
_symmetry_Int_Tables_number   1
_chemical_formula_structural   Tb4Yb2Mn3CrC12
_chemical_formula_sum   'Tb4 Yb2 Mn3 Cr1 C12'
_cell_volume   282.84576198
_cell_formula_units_Z   1
loop_
 _symmetry_equiv_pos_site_id
 _symmetry_equiv_pos_as_xyz
  1  'x, y, z'
loop_
 _atom_site_type_symbol
 _atom_site_label
 _atom_site_symmetry_multiplicity
 _atom_site_fract_x
 _atom_site_fract_y
 _atom_site_fract_z
 _atom_site_occupancy
  Tb  Tb0  1  0.684664  0.066670  0.251743  1
  Tb  Tb1  1  0.311834  0.932635  0.748828  1
  Tb  Tb2  1  0.066613  0.384172  0.748853  1
  Tb  Tb3  1  0.382232  0.316911  0.251064  1
  Yb  Yb4  1  0.613727  0.682829  0.748142  1
  Yb  Yb5  1  0.928415  0.614275  0.251493  1
  Mn  Mn6  1  0.997596  0.997059  0.999621  1
  Mn  Mn7  1  0.666620  0.330186  0.751238  1
  Mn  Mn8  1  0.336243  0.667814  0.248781  1
  Cr  Cr9  1  0.997964  0.997593  0.500554  1
  C  C10  1  0.957445  0.770635  0.749195  1
  C  C11  1  0.190546  0.961587  0.250286  1
  C  C12  1  0.775891  0.818379  0.251156  1
  C  C13  1  0.229433  0.193026  0.749564  1
  C  C14  1  0.817038  0.040218  0.749289  1
  C  C15  1  0.037200  0.229015  0.250081  1
  C  C16  1  0.858872  0.576609  0.753148  1
  C  C17  1  0.282708  0.859507  0.247178  1
  C  C18  1  0.581898  0.717199  0.246627  1
  C  C19  1  0.424548  0.284372  0.752605  1
  C  C20  1  0.141517  0.424514  0.247267  1
  C  C21  1  0.716994  0.134794  0.753287  1
