# generated using pymatgen
data_La5Tb(OsBr3)2
_symmetry_space_group_name_H-M   'P 1'
_cell_length_a   4.32048000
_cell_length_b   9.10572143
_cell_length_c   12.21028021
_cell_angle_alpha   86.96490006
_cell_angle_beta   90.00000000
_cell_angle_gamma   90.00000000
_symmetry_Int_Tables_number   1
_chemical_formula_structural   La5Tb(OsBr3)2
_chemical_formula_sum   'La5 Tb1 Os2 Br6'
_cell_volume   479.69188448
_cell_formula_units_Z   1
loop_
 _symmetry_equiv_pos_site_id
 _symmetry_equiv_pos_as_xyz
  1  'x, y, z'
loop_
 _atom_site_type_symbol
 _atom_site_label
 _atom_site_symmetry_multiplicity
 _atom_site_fract_x
 _atom_site_fract_y
 _atom_site_fract_z
 _atom_site_occupancy
  La  La0  1  0.750000  0.675181  0.123226  1
  La  La1  1  0.250000  0.885111  0.339355  1
  La  La2  1  0.250000  0.322936  0.881452  1
  La  La3  1  0.250000  0.897031  0.889951  1
  La  La4  1  0.750000  0.121213  0.659155  1
  Tb  Tb5  1  0.750000  0.092533  0.108190  1
  Os  Os6  1  0.250000  0.886466  0.126510  1
  Os  Os7  1  0.750000  0.113942  0.874306  1
  Br  Br8  1  0.250000  0.391670  0.131101  1
  Br  Br9  1  0.750000  0.124818  0.377586  1
  Br  Br10  1  0.750000  0.603914  0.870705  1
  Br  Br11  1  0.250000  0.357626  0.626943  1
  Br  Br12  1  0.750000  0.646683  0.375091  1
  Br  Br13  1  0.250000  0.880876  0.616429  1
