# generated using pymatgen
data_Ho4ReMo3N8
_symmetry_space_group_name_H-M   'P 1'
_cell_length_a   3.18546500
_cell_length_b   5.69059034
_cell_length_c   10.58102966
_cell_angle_alpha   89.81588237
_cell_angle_beta   90.00000000
_cell_angle_gamma   90.00000000
_symmetry_Int_Tables_number   1
_chemical_formula_structural   Ho4ReMo3N8
_chemical_formula_sum   'Ho4 Re1 Mo3 N8'
_cell_volume   191.80320052
_cell_formula_units_Z   1
loop_
 _symmetry_equiv_pos_site_id
 _symmetry_equiv_pos_as_xyz
  1  'x, y, z'
loop_
 _atom_site_type_symbol
 _atom_site_label
 _atom_site_symmetry_multiplicity
 _atom_site_fract_x
 _atom_site_fract_y
 _atom_site_fract_z
 _atom_site_occupancy
  Ho  Ho0  1  0.250000  0.078764  0.852388  1
  Ho  Ho1  1  0.250000  0.578626  0.646785  1
  Ho  Ho2  1  0.750000  0.919600  0.147176  1
  Ho  Ho3  1  0.750000  0.420087  0.352742  1
  Re  Re4  1  0.250000  0.434676  0.095770  1
  Mo  Mo5  1  0.250000  0.934593  0.407485  1
  Mo  Mo6  1  0.750000  0.566474  0.906572  1
  Mo  Mo7  1  0.750000  0.066382  0.592535  1
  N  N8  1  0.250000  0.167013  0.246632  1
  N  N9  1  0.250000  0.662611  0.248832  1
  N  N10  1  0.750000  0.835342  0.752610  1
  N  N11  1  0.750000  0.334532  0.748722  1
  N  N12  1  0.250000  0.758301  0.995167  1
  N  N13  1  0.250000  0.260432  0.505633  1
  N  N14  1  0.750000  0.242872  0.007295  1
  N  N15  1  0.750000  0.739694  0.493656  1
