# generated using pymatgen
data_Ba5Ho2UAl2O13
_symmetry_space_group_name_H-M   'P 1'
_cell_length_a   6.06714400
_cell_length_b   6.06714241
_cell_length_c   25.26625800
_cell_angle_alpha   90.00000000
_cell_angle_beta   90.00000000
_cell_angle_gamma   120.00000865
_symmetry_Int_Tables_number   1
_chemical_formula_structural   Ba5Ho2UAl2O13
_chemical_formula_sum   'Ba10 Ho4 U2 Al4 O26'
_cell_volume   805.45264556
_cell_formula_units_Z   2
loop_
 _symmetry_equiv_pos_site_id
 _symmetry_equiv_pos_as_xyz
  1  'x, y, z'
loop_
 _atom_site_type_symbol
 _atom_site_label
 _atom_site_symmetry_multiplicity
 _atom_site_fract_x
 _atom_site_fract_y
 _atom_site_fract_z
 _atom_site_occupancy
  Ba  Ba0  1  0.333333  0.666667  0.546486  1
  Ba  Ba1  1  0.666667  0.333333  0.453514  1
  Ba  Ba2  1  0.666667  0.333333  0.046486  1
  Ba  Ba3  1  0.333333  0.666667  0.953514  1
  Ba  Ba4  1  0.000000  0.000000  0.145949  1
  Ba  Ba5  1  0.000000  0.000000  0.854051  1
  Ba  Ba6  1  0.000000  0.000000  0.645949  1
  Ba  Ba7  1  0.000000  0.000000  0.354051  1
  Ba  Ba8  1  0.333333  0.666667  0.250000  1
  Ba  Ba9  1  0.666667  0.333333  0.750000  1
  Ho  Ho10  1  0.333333  0.666667  0.105948  1
  Ho  Ho11  1  0.666667  0.333333  0.894052  1
  Ho  Ho12  1  0.666667  0.333333  0.605948  1
  Ho  Ho13  1  0.333333  0.666667  0.394052  1
  U  U14  1  0.000000  0.000000  0.000000  1
  U  U15  1  0.000000  0.000000  0.500000  1
  Al  Al16  1  0.333333  0.666667  0.681529  1
  Al  Al17  1  0.666667  0.333333  0.318471  1
  Al  Al18  1  0.666667  0.333333  0.181529  1
  Al  Al19  1  0.333333  0.666667  0.818471  1
  O  O20  1  0.508316  0.016632  0.155271  1
  O  O21  1  0.491684  0.983368  0.844729  1
  O  O22  1  0.983368  0.491684  0.155271  1
  O  O23  1  0.491684  0.983368  0.655271  1
  O  O24  1  0.016632  0.508316  0.844729  1
  O  O25  1  0.508316  0.016632  0.344729  1
  O  O26  1  0.508316  0.491684  0.155271  1
  O  O27  1  0.016632  0.508316  0.655271  1
  O  O28  1  0.491684  0.508316  0.844729  1
  O  O29  1  0.983368  0.491684  0.344729  1
  O  O30  1  0.491684  0.508316  0.655271  1
  O  O31  1  0.508316  0.491684  0.344729  1
  O  O32  1  0.165428  0.330857  0.049859  1
  O  O33  1  0.834572  0.669143  0.950141  1
  O  O34  1  0.669143  0.834572  0.049859  1
  O  O35  1  0.834572  0.669143  0.549859  1
  O  O36  1  0.330857  0.165428  0.950141  1
  O  O37  1  0.165428  0.330857  0.450141  1
  O  O38  1  0.165428  0.834572  0.049859  1
  O  O39  1  0.330857  0.165428  0.549859  1
  O  O40  1  0.834572  0.165428  0.950141  1
  O  O41  1  0.669143  0.834572  0.450141  1
  O  O42  1  0.834572  0.165428  0.549859  1
  O  O43  1  0.165428  0.834572  0.450141  1
  O  O44  1  0.333333  0.666667  0.750000  1
  O  O45  1  0.666667  0.333333  0.250000  1
