# generated using pymatgen
data_Np(S8F)3
_symmetry_space_group_name_H-M   'P 1'
_cell_length_a   14.30034032
_cell_length_b   14.30034045
_cell_length_c   14.30034053
_cell_angle_alpha   118.56468155
_cell_angle_beta   118.56468379
_cell_angle_gamma   118.56467910
_symmetry_Int_Tables_number   1
_chemical_formula_structural   Np(S8F)3
_chemical_formula_sum   'Np1 S24 F3'
_cell_volume   903.63487724
_cell_formula_units_Z   1
loop_
 _symmetry_equiv_pos_site_id
 _symmetry_equiv_pos_as_xyz
  1  'x, y, z'
loop_
 _atom_site_type_symbol
 _atom_site_label
 _atom_site_symmetry_multiplicity
 _atom_site_fract_x
 _atom_site_fract_y
 _atom_site_fract_z
 _atom_site_occupancy
  Np  Np0  1  0.778036  0.778036  0.778036  1
  S  S1  1  0.800773  0.530528  0.530528  1
  S  S2  1  0.530528  0.530528  0.800773  1
  S  S3  1  0.530528  0.800773  0.530528  1
  S  S4  1  0.249062  0.385743  0.632727  1
  S  S5  1  0.341825  0.949670  0.341825  1
  S  S6  1  0.341825  0.341825  0.949670  1
  S  S7  1  0.949670  0.341825  0.341825  1
  S  S8  1  0.118217  0.737270  0.253636  1
  S  S9  1  0.253636  0.118217  0.737270  1
  S  S10  1  0.737270  0.253636  0.118217  1
  S  S11  1  0.737270  0.118217  0.253636  1
  S  S12  1  0.253636  0.737270  0.118217  1
  S  S13  1  0.118217  0.253636  0.737270  1
  S  S14  1  0.344649  0.879244  0.535435  1
  S  S15  1  0.535435  0.344649  0.879244  1
  S  S16  1  0.879244  0.535435  0.344649  1
  S  S17  1  0.879244  0.344649  0.535435  1
  S  S18  1  0.535435  0.879244  0.344649  1
  S  S19  1  0.344649  0.535435  0.879244  1
  S  S20  1  0.249062  0.632727  0.385743  1
  S  S21  1  0.385743  0.249062  0.632727  1
  S  S22  1  0.632727  0.385743  0.249062  1
  S  S23  1  0.632727  0.249062  0.385743  1
  S  S24  1  0.385743  0.632727  0.249062  1
  F  F25  1  0.911099  0.034523  0.034523  1
  F  F26  1  0.034523  0.034523  0.911099  1
  F  F27  1  0.034523  0.911099  0.034523  1
