# generated using pymatgen
data_HfSc3Co6Si6Os
_symmetry_space_group_name_H-M   'P 1'
_cell_length_a   6.70267711
_cell_length_b   6.69064140
_cell_length_c   6.70267700
_cell_angle_alpha   109.43485803
_cell_angle_beta   109.50756686
_cell_angle_gamma   109.43484384
_symmetry_Int_Tables_number   1
_chemical_formula_structural   HfSc3Co6Si6Os
_chemical_formula_sum   'Hf1 Sc3 Co6 Si6 Os1'
_cell_volume   231.49263787
_cell_formula_units_Z   1
loop_
 _symmetry_equiv_pos_site_id
 _symmetry_equiv_pos_as_xyz
  1  'x, y, z'
loop_
 _atom_site_type_symbol
 _atom_site_label
 _atom_site_symmetry_multiplicity
 _atom_site_fract_x
 _atom_site_fract_y
 _atom_site_fract_z
 _atom_site_occupancy
  Hf  Hf0  1  0.000000  0.500000  0.000000  1
  Sc  Sc1  1  0.000000  0.000000  0.500000  1
  Sc  Sc2  1  0.500000  0.000000  0.000000  1
  Sc  Sc3  1  0.500000  0.500000  0.500000  1
  Co  Co4  1  0.751122  0.251122  0.502245  1
  Co  Co5  1  0.751122  0.500000  0.248878  1
  Co  Co6  1  0.502245  0.251122  0.751122  1
  Co  Co7  1  0.248878  0.500000  0.751122  1
  Co  Co8  1  0.248878  0.748878  0.497755  1
  Co  Co9  1  0.497755  0.748878  0.248878  1
  Si  Si10  1  0.670589  0.672810  0.000000  1
  Si  Si11  1  0.329411  0.002220  0.329411  1
  Si  Si12  1  0.000000  0.327190  0.329411  1
  Si  Si13  1  0.329411  0.327190  0.000000  1
  Si  Si14  1  0.670589  0.997780  0.670589  1
  Si  Si15  1  0.000000  0.672810  0.670589  1
  Os  Os16  1  0.000000  0.000000  0.000000  1
