# generated using pymatgen
data_YU2(InPt)3
_symmetry_space_group_name_H-M   'P 1'
_cell_length_a   7.61094527
_cell_length_b   7.61094445
_cell_length_c   3.99968100
_cell_angle_alpha   90.00000000
_cell_angle_beta   90.00000000
_cell_angle_gamma   120.63340132
_symmetry_Int_Tables_number   1
_chemical_formula_structural   YU2(InPt)3
_chemical_formula_sum   'Y1 U2 In3 Pt3'
_cell_volume   199.35433599
_cell_formula_units_Z   1
loop_
 _symmetry_equiv_pos_site_id
 _symmetry_equiv_pos_as_xyz
  1  'x, y, z'
loop_
 _atom_site_type_symbol
 _atom_site_label
 _atom_site_symmetry_multiplicity
 _atom_site_fract_x
 _atom_site_fract_y
 _atom_site_fract_z
 _atom_site_occupancy
  Y  Y0  1  0.591992  0.591992  0.500000  1
  U  U1  1  0.411177  0.996949  0.500000  1
  U  U2  1  0.996949  0.411177  0.500000  1
  In  In3  1  0.744830  0.993196  0.000000  1
  In  In4  1  0.262074  0.262074  0.000000  1
  In  In5  1  0.993196  0.744830  0.000000  1
  Pt  Pt6  1  0.008301  0.008301  0.500000  1
  Pt  Pt7  1  0.669071  0.322410  0.000000  1
  Pt  Pt8  1  0.322410  0.669071  0.000000  1
