# generated using pymatgen
data_CaNd(Co3Si2)2
_symmetry_space_group_name_H-M   'P 1'
_cell_length_a   6.32467116
_cell_length_b   6.32467193
_cell_length_c   6.32467142
_cell_angle_alpha   130.21627093
_cell_angle_beta   114.66704246
_cell_angle_gamma   86.38688052
_symmetry_Int_Tables_number   1
_chemical_formula_structural   CaNd(Co3Si2)2
_chemical_formula_sum   'Ca1 Nd1 Co6 Si4'
_cell_volume   167.61256102
_cell_formula_units_Z   1
loop_
 _symmetry_equiv_pos_site_id
 _symmetry_equiv_pos_as_xyz
  1  'x, y, z'
loop_
 _atom_site_type_symbol
 _atom_site_label
 _atom_site_symmetry_multiplicity
 _atom_site_fract_x
 _atom_site_fract_y
 _atom_site_fract_z
 _atom_site_occupancy
  Ca  Ca0  1  0.750000  0.030981  0.280981  1
  Nd  Nd1  1  0.250000  0.967072  0.717072  1
  Co  Co2  1  0.220135  0.499434  0.720902  1
  Co  Co3  1  0.721468  0.000767  0.720902  1
  Co  Co4  1  0.778532  0.499434  0.279299  1
  Co  Co5  1  0.279865  0.000767  0.279299  1
  Co  Co6  1  0.496902  0.499917  0.496819  1
  Co  Co7  1  0.003098  0.499917  0.003015  1
  Si  Si8  1  0.583219  0.380227  0.797009  1
  Si  Si9  1  0.423949  0.627796  0.203848  1
  Si  Si10  1  0.076051  0.279899  0.203848  1
  Si  Si11  1  0.916781  0.713790  0.797009  1
