# generated using pymatgen
data_K2ScCrF7
_symmetry_space_group_name_H-M   'P 1'
_cell_length_a   7.99532518
_cell_length_b   7.99532333
_cell_length_c   7.99532561
_cell_angle_alpha   122.48397251
_cell_angle_beta   117.12666721
_cell_angle_gamma   90.39976904
_symmetry_Int_Tables_number   1
_chemical_formula_structural   K2ScCrF7
_chemical_formula_sum   'K4 Sc2 Cr2 F14'
_cell_volume   361.47585538
_cell_formula_units_Z   2
loop_
 _symmetry_equiv_pos_site_id
 _symmetry_equiv_pos_as_xyz
  1  'x, y, z'
loop_
 _atom_site_type_symbol
 _atom_site_label
 _atom_site_symmetry_multiplicity
 _atom_site_fract_x
 _atom_site_fract_y
 _atom_site_fract_z
 _atom_site_occupancy
  K  K0  1  0.500000  0.500000  0.000000  1
  K  K1  1  0.000000  0.000000  0.000000  1
  K  K2  1  0.000000  0.500000  0.000000  1
  K  K3  1  0.000000  0.000000  0.500000  1
  Sc  Sc4  1  0.000000  0.500000  0.500000  1
  Sc  Sc5  1  0.500000  0.000000  0.500000  1
  Cr  Cr6  1  0.500000  0.500000  0.500000  1
  Cr  Cr7  1  0.500000  0.000000  0.000000  1
  F  F8  1  0.872684  0.587271  0.285413  1
  F  F9  1  0.198141  0.912729  0.285413  1
  F  F10  1  0.182876  0.807054  0.761297  1
  F  F11  1  0.454243  0.692946  0.375822  1
  F  F12  1  0.454243  0.078421  0.761297  1
  F  F13  1  0.182876  0.421579  0.375822  1
  F  F14  1  0.817124  0.578421  0.624178  1
  F  F15  1  0.545757  0.921579  0.238703  1
  F  F16  1  0.545757  0.307054  0.624178  1
  F  F17  1  0.817124  0.192946  0.238703  1
  F  F18  1  0.416455  0.250000  0.166455  1
  F  F19  1  0.127316  0.412729  0.714587  1
  F  F20  1  0.801859  0.087271  0.714587  1
  F  F21  1  0.583545  0.750000  0.833545  1
