# generated using pymatgen
data_Tb5Dy3(WO6)4
_symmetry_space_group_name_H-M   'P 1'
_cell_length_a   5.41665216
_cell_length_b   7.72644311
_cell_length_c   11.50612568
_cell_angle_alpha   75.58304781
_cell_angle_beta   90.00057259
_cell_angle_gamma   90.02678138
_symmetry_Int_Tables_number   1
_chemical_formula_structural   Tb5Dy3(WO6)4
_chemical_formula_sum   'Tb5 Dy3 W4 O24'
_cell_volume   466.38387278
_cell_formula_units_Z   1
loop_
 _symmetry_equiv_pos_site_id
 _symmetry_equiv_pos_as_xyz
  1  'x, y, z'
loop_
 _atom_site_type_symbol
 _atom_site_label
 _atom_site_symmetry_multiplicity
 _atom_site_fract_x
 _atom_site_fract_y
 _atom_site_fract_z
 _atom_site_occupancy
  Tb  Tb0  1  0.738772  0.000184  0.750408  1
  Tb  Tb1  1  0.261270  0.000090  0.249683  1
  Tb  Tb2  1  0.187055  0.795961  0.577496  1
  Tb  Tb3  1  0.683716  0.499751  0.750337  1
  Tb  Tb4  1  0.316494  0.499913  0.249884  1
  Dy  Dy5  1  0.813346  0.795511  0.077715  1
  Dy  Dy6  1  0.186773  0.204467  0.922282  1
  Dy  Dy7  1  0.812896  0.204614  0.422171  1
  W  W8  1  0.254415  0.722713  0.886063  1
  W  W9  1  0.745867  0.722804  0.385435  1
  W  W10  1  0.254134  0.277096  0.614211  1
  W  W11  1  0.745809  0.277139  0.114221  1
  O  O12  1  0.042795  0.939010  0.895894  1
  O  O13  1  0.528657  0.848775  0.931621  1
  O  O14  1  0.957286  0.939257  0.395373  1
  O  O15  1  0.459787  0.787831  0.729060  1
  O  O16  1  0.472134  0.849361  0.430347  1
  O  O17  1  0.983375  0.709678  0.772176  1
  O  O18  1  0.541192  0.787930  0.228069  1
  O  O19  1  0.850486  0.634960  0.547574  1
  O  O20  1  0.361632  0.489932  0.887332  1
  O  O21  1  0.016802  0.709841  0.271540  1
  O  O22  1  0.362800  0.509417  0.612837  1
  O  O23  1  0.851687  0.364599  0.952196  1
  O  O24  1  0.148341  0.635203  0.048004  1
  O  O25  1  0.638068  0.489957  0.386856  1
  O  O26  1  0.983809  0.290487  0.728623  1
  O  O27  1  0.638400  0.509875  0.112738  1
  O  O28  1  0.148352  0.364775  0.452175  1
  O  O29  1  0.458732  0.211599  0.771743  1
  O  O30  1  0.016484  0.290101  0.228393  1
  O  O31  1  0.528063  0.150815  0.568842  1
  O  O32  1  0.541093  0.211892  0.271569  1
  O  O33  1  0.041045  0.061916  0.604219  1
  O  O34  1  0.471104  0.151513  0.068771  1
  O  O35  1  0.957331  0.061032  0.104141  1
