# generated using pymatgen
data_Ho6Al24ZnFe6Ru
_symmetry_space_group_name_H-M   'P 1'
_cell_length_a   8.70573313
_cell_length_b   8.69534016
_cell_length_c   9.34746873
_cell_angle_alpha   90.09919836
_cell_angle_beta   89.80517680
_cell_angle_gamma   119.82550032
_symmetry_Int_Tables_number   1
_chemical_formula_structural   Ho6Al24ZnFe6Ru
_chemical_formula_sum   'Ho6 Al24 Zn1 Fe6 Ru1'
_cell_volume   613.86806027
_cell_formula_units_Z   1
loop_
 _symmetry_equiv_pos_site_id
 _symmetry_equiv_pos_as_xyz
  1  'x, y, z'
loop_
 _atom_site_type_symbol
 _atom_site_label
 _atom_site_symmetry_multiplicity
 _atom_site_fract_x
 _atom_site_fract_y
 _atom_site_fract_z
 _atom_site_occupancy
  Ho  Ho0  1  0.192634  0.386301  0.247347  1
  Ho  Ho1  1  0.807366  0.613699  0.752653  1
  Ho  Ho2  1  0.613802  0.807669  0.246854  1
  Ho  Ho3  1  0.386198  0.192331  0.753146  1
  Ho  Ho4  1  0.194992  0.805405  0.253930  1
  Ho  Ho5  1  0.805008  0.194595  0.746070  1
  Al  Al6  1  0.326079  0.673837  0.015382  1
  Al  Al7  1  0.673921  0.326163  0.984618  1
  Al  Al8  1  0.660551  0.330563  0.515384  1
  Al  Al9  1  0.339449  0.669437  0.484616  1
  Al  Al10  1  0.162962  0.321119  0.573953  1
  Al  Al11  1  0.837038  0.678881  0.426047  1
  Al  Al12  1  0.678437  0.839744  0.573331  1
  Al  Al13  1  0.852653  0.681250  0.078495  1
  Al  Al14  1  0.321563  0.160256  0.426669  1
  Al  Al15  1  0.147347  0.318750  0.921505  1
  Al  Al16  1  0.164175  0.841899  0.577007  1
  Al  Al17  1  0.319138  0.147153  0.078823  1
  Al  Al18  1  0.835825  0.158101  0.422993  1
  Al  Al19  1  0.680862  0.852847  0.921177  1
  Al  Al20  1  0.838589  0.160555  0.076284  1
  Al  Al21  1  0.161411  0.839445  0.923716  1
  Al  Al22  1  0.558982  0.116676  0.248890  1
  Al  Al23  1  0.441018  0.883324  0.751110  1
  Al  Al24  1  0.880556  0.439584  0.244528  1
  Al  Al25  1  0.119444  0.560416  0.755472  1
  Al  Al26  1  0.562340  0.437228  0.259207  1
  Al  Al27  1  0.437660  0.562772  0.740793  1
  Al  Al28  1  0.998975  0.000379  0.250613  1
  Al  Al29  1  0.001025  0.999621  0.749387  1
  Zn  Zn30  1  0.500000  0.500000  0.000000  1
  Fe  Fe31  1  0.500000  0.000000  0.000000  1
  Fe  Fe32  1  0.000000  0.500000  0.000000  1
  Fe  Fe33  1  0.500000  0.000000  0.500000  1
  Fe  Fe34  1  0.500000  0.500000  0.500000  1
  Fe  Fe35  1  0.000000  0.000000  0.000000  1
  Fe  Fe36  1  0.000000  0.000000  0.500000  1
  Ru  Ru37  1  0.000000  0.500000  0.500000  1
