# generated using pymatgen
data_Y3Er5Tc(B8Os)3
_symmetry_space_group_name_H-M   'P 1'
_cell_length_a   3.64937500
_cell_length_b   9.12873469
_cell_length_c   11.51896200
_cell_angle_alpha   89.94700347
_cell_angle_beta   90.00000000
_cell_angle_gamma   90.00000000
_symmetry_Int_Tables_number   1
_chemical_formula_structural   Y3Er5Tc(B8Os)3
_chemical_formula_sum   'Y3 Er5 Tc1 B24 Os3'
_cell_volume   383.74456514
_cell_formula_units_Z   1
loop_
 _symmetry_equiv_pos_site_id
 _symmetry_equiv_pos_as_xyz
  1  'x, y, z'
loop_
 _atom_site_type_symbol
 _atom_site_label
 _atom_site_symmetry_multiplicity
 _atom_site_fract_x
 _atom_site_fract_y
 _atom_site_fract_z
 _atom_site_occupancy
  Y  Y0  1  0.000000  0.323625  0.412964  1
  Y  Y1  1  0.000000  0.677502  0.583731  1
  Y  Y2  1  0.000000  0.820152  0.088035  1
  Er  Er3  1  0.000000  0.177807  0.914800  1
  Er  Er4  1  0.000000  0.942971  0.372465  1
  Er  Er5  1  0.000000  0.056649  0.627636  1
  Er  Er6  1  0.000000  0.444687  0.128015  1
  Er  Er7  1  0.000000  0.556238  0.872267  1
  Tc  Tc8  1  0.000000  0.637889  0.320922  1
  B  B9  1  0.500000  0.553199  0.432794  1
  B  B10  1  0.500000  0.446167  0.567632  1
  B  B11  1  0.500000  0.054097  0.066866  1
  B  B12  1  0.500000  0.946703  0.932946  1
  B  B13  1  0.500000  0.748643  0.419143  1
  B  B14  1  0.500000  0.251519  0.580920  1
  B  B15  1  0.500000  0.248642  0.080042  1
  B  B16  1  0.500000  0.751449  0.919264  1
  B  B17  1  0.500000  0.791600  0.266433  1
  B  B18  1  0.500000  0.208488  0.734020  1
  B  B19  1  0.500000  0.291158  0.232758  1
  B  B20  1  0.500000  0.709255  0.766572  1
  B  B21  1  0.500000  0.631194  0.185717  1
  B  B22  1  0.500000  0.368093  0.815071  1
  B  B23  1  0.500000  0.131231  0.313974  1
  B  B24  1  0.500000  0.869212  0.685625  1
  B  B25  1  0.500000  0.983130  0.212991  1
  B  B26  1  0.500000  0.017532  0.787551  1
  B  B27  1  0.500000  0.482536  0.286814  1
  B  B28  1  0.500000  0.516479  0.713301  1
  B  B29  1  0.500000  0.606098  0.028955  1
  B  B30  1  0.500000  0.392878  0.970161  1
  B  B31  1  0.500000  0.106478  0.470680  1
  B  B32  1  0.500000  0.894642  0.529731  1
  Os  Os33  1  0.000000  0.361446  0.679968  1
  Os  Os34  1  0.000000  0.137716  0.177966  1
  Os  Os35  1  0.000000  0.862896  0.821272  1
