# generated using pymatgen
data_Tb8Ho5Er7Pb16
_symmetry_space_group_name_H-M   'P 1'
_cell_length_a   8.19044702
_cell_length_b   8.27291602
_cell_length_c   15.61131800
_cell_angle_alpha   89.99793678
_cell_angle_beta   90.00051933
_cell_angle_gamma   89.99134126
_symmetry_Int_Tables_number   1
_chemical_formula_structural   Tb8Ho5Er7Pb16
_chemical_formula_sum   'Tb8 Ho5 Er7 Pb16'
_cell_volume   1057.80541712
_cell_formula_units_Z   1
loop_
 _symmetry_equiv_pos_site_id
 _symmetry_equiv_pos_as_xyz
  1  'x, y, z'
loop_
 _atom_site_type_symbol
 _atom_site_label
 _atom_site_symmetry_multiplicity
 _atom_site_fract_x
 _atom_site_fract_y
 _atom_site_fract_z
 _atom_site_occupancy
  Tb  Tb0  1  0.534324  0.322973  0.899972  1
  Tb  Tb1  1  0.034345  0.177052  0.599971  1
  Tb  Tb2  1  0.465652  0.677041  0.400040  1
  Tb  Tb3  1  0.965686  0.822911  0.099960  1
  Tb  Tb4  1  0.465683  0.677080  0.100018  1
  Tb  Tb5  1  0.965689  0.822883  0.399997  1
  Tb  Tb6  1  0.534319  0.322887  0.600011  1
  Tb  Tb7  1  0.034286  0.177084  0.899995  1
  Ho  Ho8  1  0.376628  0.840792  0.879283  1
  Ho  Ho9  1  0.876608  0.659232  0.620732  1
  Ho  Ho10  1  0.623382  0.159234  0.379289  1
  Ho  Ho11  1  0.123391  0.340742  0.120739  1
  Ho  Ho12  1  0.623429  0.159194  0.120687  1
  Er  Er13  1  0.123404  0.340834  0.379266  1
  Er  Er14  1  0.376580  0.840816  0.620725  1
  Er  Er15  1  0.876548  0.659170  0.879280  1
  Er  Er16  1  0.208173  0.504433  0.750030  1
  Er  Er17  1  0.708191  0.995567  0.750040  1
  Er  Er18  1  0.791888  0.495643  0.250007  1
  Er  Er19  1  0.291766  0.004401  0.250022  1
  Pb  Pb20  1  0.282195  0.033852  0.042788  1
  Pb  Pb21  1  0.782414  0.466119  0.457169  1
  Pb  Pb22  1  0.717582  0.966107  0.542800  1
  Pb  Pb23  1  0.217570  0.533901  0.957183  1
  Pb  Pb24  1  0.717892  0.965959  0.957193  1
  Pb  Pb25  1  0.217839  0.533910  0.542686  1
  Pb  Pb26  1  0.282208  0.033915  0.457301  1
  Pb  Pb27  1  0.782316  0.466299  0.042662  1
  Pb  Pb28  1  0.571473  0.627548  0.749981  1
  Pb  Pb29  1  0.071472  0.872446  0.750020  1
  Pb  Pb30  1  0.428416  0.372550  0.250041  1
  Pb  Pb31  1  0.928627  0.127530  0.250060  1
  Pb  Pb32  1  0.345312  0.151935  0.749964  1
  Pb  Pb33  1  0.845322  0.348078  0.750041  1
  Pb  Pb34  1  0.654686  0.847968  0.250007  1
  Pb  Pb35  1  0.154705  0.651914  0.250038  1
