# generated using pymatgen
data_Nd3V(Ni4As3)2
_symmetry_space_group_name_H-M   'P 1'
_cell_length_a   3.95300800
_cell_length_b   11.13357900
_cell_length_c   12.83335700
_cell_angle_alpha   90.00000000
_cell_angle_beta   90.00000000
_cell_angle_gamma   90.00000000
_symmetry_Int_Tables_number   1
_chemical_formula_structural   Nd3V(Ni4As3)2
_chemical_formula_sum   'Nd6 V2 Ni16 As12'
_cell_volume   564.81050291
_cell_formula_units_Z   2
loop_
 _symmetry_equiv_pos_site_id
 _symmetry_equiv_pos_as_xyz
  1  'x, y, z'
loop_
 _atom_site_type_symbol
 _atom_site_label
 _atom_site_symmetry_multiplicity
 _atom_site_fract_x
 _atom_site_fract_y
 _atom_site_fract_z
 _atom_site_occupancy
  Nd  Nd0  1  0.000000  0.500000  0.520769  1
  Nd  Nd1  1  0.500000  0.000000  0.479231  1
  Nd  Nd2  1  0.500000  0.816834  0.205586  1
  Nd  Nd3  1  0.500000  0.183166  0.205586  1
  Nd  Nd4  1  0.000000  0.683166  0.794414  1
  Nd  Nd5  1  0.000000  0.316834  0.794414  1
  V  V6  1  0.500000  0.500000  0.143870  1
  V  V7  1  0.000000  0.000000  0.856130  1
  Ni  Ni8  1  0.500000  0.500000  0.698767  1
  Ni  Ni9  1  0.000000  0.000000  0.301233  1
  Ni  Ni10  1  0.000000  0.500000  0.982388  1
  Ni  Ni11  1  0.500000  0.000000  0.017612  1
  Ni  Ni12  1  0.500000  0.334320  0.993183  1
  Ni  Ni13  1  0.500000  0.665680  0.993183  1
  Ni  Ni14  1  0.000000  0.165680  0.006817  1
  Ni  Ni15  1  0.000000  0.834320  0.006817  1
  Ni  Ni16  1  0.500000  0.303945  0.422888  1
  Ni  Ni17  1  0.500000  0.696055  0.422888  1
  Ni  Ni18  1  0.000000  0.196055  0.577112  1
  Ni  Ni19  1  0.000000  0.803945  0.577112  1
  Ni  Ni20  1  0.500000  0.882941  0.711123  1
  Ni  Ni21  1  0.500000  0.117059  0.711123  1
  Ni  Ni22  1  0.000000  0.617059  0.288877  1
  Ni  Ni23  1  0.000000  0.382941  0.288877  1
  As  As24  1  0.500000  0.500000  0.879363  1
  As  As25  1  0.000000  0.000000  0.120637  1
  As  As26  1  0.500000  0.500000  0.339045  1
  As  As27  1  0.000000  0.000000  0.660955  1
  As  As28  1  0.500000  0.310928  0.611533  1
  As  As29  1  0.500000  0.689072  0.611533  1
  As  As30  1  0.000000  0.189072  0.388467  1
  As  As31  1  0.000000  0.810928  0.388467  1
  As  As32  1  0.500000  0.847060  0.893877  1
  As  As33  1  0.500000  0.152940  0.893877  1
  As  As34  1  0.000000  0.652940  0.106123  1
  As  As35  1  0.000000  0.347060  0.106123  1
