# generated using pymatgen
data_Ta2S8I
_symmetry_space_group_name_H-M   'P 1'
_cell_length_a   9.09235269
_cell_length_b   9.09235258
_cell_length_c   9.09235188
_cell_angle_alpha   118.20341990
_cell_angle_beta   118.20342280
_cell_angle_gamma   93.14099080
_symmetry_Int_Tables_number   1
_chemical_formula_structural   Ta2S8I
_chemical_formula_sum   'Ta4 S16 I2'
_cell_volume   545.06027720
_cell_formula_units_Z   2
loop_
 _symmetry_equiv_pos_site_id
 _symmetry_equiv_pos_as_xyz
  1  'x, y, z'
loop_
 _atom_site_type_symbol
 _atom_site_label
 _atom_site_symmetry_multiplicity
 _atom_site_fract_x
 _atom_site_fract_y
 _atom_site_fract_z
 _atom_site_occupancy
  Ta  Ta0  1  0.250000  0.750000  0.500000  1
  Ta  Ta1  1  0.750000  0.250000  0.500000  1
  Ta  Ta2  1  0.000000  0.500000  0.500000  1
  Ta  Ta3  1  0.500000  0.000000  0.500000  1
  S  S4  1  0.338134  0.667106  0.744113  1
  S  S5  1  0.922993  0.594021  0.255887  1
  S  S6  1  0.332894  0.661866  0.255887  1
  S  S7  1  0.594021  0.338134  0.671027  1
  S  S8  1  0.667106  0.922993  0.328973  1
  S  S9  1  0.661866  0.405979  0.328973  1
  S  S10  1  0.205364  0.003614  0.448707  1
  S  S11  1  0.003614  0.554907  0.798250  1
  S  S12  1  0.756656  0.205364  0.201750  1
  S  S13  1  0.445093  0.996386  0.201750  1
  S  S14  1  0.794636  0.243344  0.798250  1
  S  S15  1  0.554907  0.756656  0.551293  1
  S  S16  1  0.996386  0.794636  0.551293  1
  S  S17  1  0.243344  0.445093  0.448707  1
  S  S18  1  0.405979  0.077007  0.744113  1
  S  S19  1  0.077007  0.332894  0.671027  1
  I  I20  1  0.845422  0.845422  0.000000  1
  I  I21  1  0.154578  0.154578  0.000000  1
