# generated using pymatgen
data_La2Tb4IrBr10
_symmetry_space_group_name_H-M   'P 1'
_cell_length_a   7.51432320
_cell_length_b   9.42630008
_cell_length_c   9.43537329
_cell_angle_alpha   109.61743503
_cell_angle_beta   96.90669556
_cell_angle_gamma   104.27941937
_symmetry_Int_Tables_number   1
_chemical_formula_structural   La2Tb4IrBr10
_chemical_formula_sum   'La2 Tb4 Ir1 Br10'
_cell_volume   594.79996392
_cell_formula_units_Z   1
loop_
 _symmetry_equiv_pos_site_id
 _symmetry_equiv_pos_as_xyz
  1  'x, y, z'
loop_
 _atom_site_type_symbol
 _atom_site_label
 _atom_site_symmetry_multiplicity
 _atom_site_fract_x
 _atom_site_fract_y
 _atom_site_fract_z
 _atom_site_occupancy
  La  La0  1  0.970357  0.297639  0.098586  1
  La  La1  1  0.029643  0.702361  0.901414  1
  Tb  Tb2  1  0.637509  0.867213  0.816259  1
  Tb  Tb3  1  0.362491  0.132787  0.183741  1
  Tb  Tb4  1  0.124422  0.042521  0.749056  1
  Tb  Tb5  1  0.875578  0.957479  0.250944  1
  Ir  Ir6  1  0.000000  0.000000  0.000000  1
  Br  Br7  1  0.538634  0.169975  0.916489  1
  Br  Br8  1  0.461366  0.830025  0.083511  1
  Br  Br9  1  0.752549  0.916617  0.543385  1
  Br  Br10  1  0.247451  0.083383  0.456615  1
  Br  Br11  1  0.093942  0.359773  0.820949  1
  Br  Br12  1  0.906058  0.640227  0.179051  1
  Br  Br13  1  0.222784  0.750853  0.642232  1
  Br  Br14  1  0.777216  0.249147  0.357768  1
  Br  Br15  1  0.629134  0.551163  0.725523  1
  Br  Br16  1  0.370866  0.448837  0.274477  1
