# generated using pymatgen
data_Sm5Mn2P12Ir17
_symmetry_space_group_name_H-M   'P 1'
_cell_length_a   12.63333100
_cell_length_b   12.72459085
_cell_length_c   3.97152100
_cell_angle_alpha   90.00000000
_cell_angle_beta   90.00000000
_cell_angle_gamma   119.76303418
_symmetry_Int_Tables_number   1
_chemical_formula_structural   Sm5Mn2P12Ir17
_chemical_formula_sum   'Sm5 Mn2 P12 Ir17'
_cell_volume   554.21882244
_cell_formula_units_Z   1
loop_
 _symmetry_equiv_pos_site_id
 _symmetry_equiv_pos_as_xyz
  1  'x, y, z'
loop_
 _atom_site_type_symbol
 _atom_site_label
 _atom_site_symmetry_multiplicity
 _atom_site_fract_x
 _atom_site_fract_y
 _atom_site_fract_z
 _atom_site_occupancy
  Sm  Sm0  1  0.332230  0.663662  0.500000  1
  Sm  Sm1  1  0.668568  0.336338  0.500000  1
  Sm  Sm2  1  0.000368  0.811159  0.000000  1
  Sm  Sm3  1  0.189209  0.188841  0.000000  1
  Sm  Sm4  1  0.813467  0.000000  0.000000  1
  Mn  Mn5  1  0.998950  0.456622  0.500000  1
  Mn  Mn6  1  0.542329  0.543378  0.500000  1
  P  P7  1  0.999528  0.633150  0.500000  1
  P  P8  1  0.366377  0.366850  0.500000  1
  P  P9  1  0.642153  0.000000  0.500000  1
  P  P10  1  0.516245  0.683970  0.000000  1
  P  P11  1  0.308872  0.824726  0.000000  1
  P  P12  1  0.165902  0.480450  0.000000  1
  P  P13  1  0.484147  0.175274  0.000000  1
  P  P14  1  0.685452  0.519550  0.000000  1
  P  P15  1  0.832275  0.316030  0.000000  1
  P  P16  1  0.999854  0.178571  0.500000  1
  P  P17  1  0.821284  0.821429  0.500000  1
  P  P18  1  0.179995  0.000000  0.500000  1
  Ir  Ir19  1  0.507133  0.867905  0.000000  1
  Ir  Ir20  1  0.127615  0.637675  0.000000  1
  Ir  Ir21  1  0.358852  0.490632  0.000000  1
  Ir  Ir22  1  0.489942  0.362325  0.000000  1
  Ir  Ir23  1  0.868221  0.509368  0.000000  1
  Ir  Ir24  1  0.639229  0.132095  0.000000  1
  Ir  Ir25  1  0.461380  0.000000  0.500000  1
  Ir  Ir26  1  0.998082  0.283164  0.000000  1
  Ir  Ir27  1  0.714918  0.716836  0.000000  1
  Ir  Ir28  1  0.288320  0.000000  0.000000  1
  Ir  Ir29  1  0.621022  0.802707  0.500000  1
  Ir  Ir30  1  0.200122  0.821728  0.500000  1
  Ir  Ir31  1  0.177672  0.374869  0.500000  1
  Ir  Ir32  1  0.378395  0.178272  0.500000  1
  Ir  Ir33  1  0.802803  0.625131  0.500000  1
  Ir  Ir34  1  0.818314  0.197293  0.500000  1
  Ir  Ir35  1  0.000774  0.000000  0.500000  1
