# generated using pymatgen
data_Ce2Fe2NiP4
_symmetry_space_group_name_H-M   'P 1'
_cell_length_a   3.89422200
_cell_length_b   3.89422200
_cell_length_c   9.23288300
_cell_angle_alpha   90.00000000
_cell_angle_beta   90.00000000
_cell_angle_gamma   90.00000000
_symmetry_Int_Tables_number   1
_chemical_formula_structural   Ce2Fe2NiP4
_chemical_formula_sum   'Ce2 Fe2 Ni1 P4'
_cell_volume   140.01634741
_cell_formula_units_Z   1
loop_
 _symmetry_equiv_pos_site_id
 _symmetry_equiv_pos_as_xyz
  1  'x, y, z'
loop_
 _atom_site_type_symbol
 _atom_site_label
 _atom_site_symmetry_multiplicity
 _atom_site_fract_x
 _atom_site_fract_y
 _atom_site_fract_z
 _atom_site_occupancy
  Ce  Ce0  1  0.500000  0.000000  0.760721  1
  Ce  Ce1  1  0.000000  0.500000  0.239279  1
  Fe  Fe2  1  0.000000  0.000000  0.500000  1
  Fe  Fe3  1  0.500000  0.500000  0.500000  1
  Ni  Ni4  1  0.000000  0.000000  0.000000  1
  P  P5  1  0.000000  0.500000  0.875139  1
  P  P6  1  0.500000  0.000000  0.380311  1
  P  P7  1  0.500000  0.000000  0.124861  1
  P  P8  1  0.000000  0.500000  0.619689  1
