# generated using pymatgen
data_Er5ReOsC7
_symmetry_space_group_name_H-M   'P 1'
_cell_length_a   8.18274223
_cell_length_b   8.18274253
_cell_length_c   3.44185300
_cell_angle_alpha   90.00000000
_cell_angle_beta   90.00000000
_cell_angle_gamma   122.03755469
_symmetry_Int_Tables_number   1
_chemical_formula_structural   Er5ReOsC7
_chemical_formula_sum   'Er5 Re1 Os1 C7'
_cell_volume   195.35860850
_cell_formula_units_Z   1
loop_
 _symmetry_equiv_pos_site_id
 _symmetry_equiv_pos_as_xyz
  1  'x, y, z'
loop_
 _atom_site_type_symbol
 _atom_site_label
 _atom_site_symmetry_multiplicity
 _atom_site_fract_x
 _atom_site_fract_y
 _atom_site_fract_z
 _atom_site_occupancy
  Er  Er0  1  0.500591  0.499409  0.000000  1
  Er  Er1  1  0.076153  0.336719  0.500000  1
  Er  Er2  1  0.922189  0.662324  0.500000  1
  Er  Er3  1  0.663281  0.923847  0.500000  1
  Er  Er4  1  0.337676  0.077811  0.500000  1
  Re  Re5  1  0.284965  0.715035  0.000000  1
  Os  Os6  1  0.713182  0.286818  0.000000  1
  C  C7  1  0.629734  0.370266  0.500000  1
  C  C8  1  0.375094  0.624906  0.500000  1
  C  C9  1  0.999579  0.000421  0.000000  1
  C  C10  1  0.171081  0.171598  0.000000  1
  C  C11  1  0.828402  0.828919  0.000000  1
  C  C12  1  0.999191  0.501117  0.000000  1
  C  C13  1  0.498883  0.000809  0.000000  1
