# generated using pymatgen
data_Lu12Mn2ZnSn2
_symmetry_space_group_name_H-M   'P 1'
_cell_length_a   8.22801994
_cell_length_b   8.22921556
_cell_length_c   8.22906400
_cell_angle_alpha   109.39767072
_cell_angle_beta   109.39395802
_cell_angle_gamma   109.61339748
_symmetry_Int_Tables_number   1
_chemical_formula_structural   Lu12Mn2ZnSn2
_chemical_formula_sum   'Lu12 Mn2 Zn1 Sn2'
_cell_volume   428.97011080
_cell_formula_units_Z   1
loop_
 _symmetry_equiv_pos_site_id
 _symmetry_equiv_pos_as_xyz
  1  'x, y, z'
loop_
 _atom_site_type_symbol
 _atom_site_label
 _atom_site_symmetry_multiplicity
 _atom_site_fract_x
 _atom_site_fract_y
 _atom_site_fract_z
 _atom_site_occupancy
  Lu  Lu0  1  0.305964  0.305957  0.611951  1
  Lu  Lu1  1  0.694036  0.694043  0.388049  1
  Lu  Lu2  1  0.694044  0.306000  0.999997  1
  Lu  Lu3  1  0.305956  0.694000  0.000003  1
  Lu  Lu4  1  0.202514  0.444318  0.241820  1
  Lu  Lu5  1  0.797486  0.555682  0.758180  1
  Lu  Lu6  1  0.202490  0.960683  0.758244  1
  Lu  Lu7  1  0.960711  0.202526  0.758201  1
  Lu  Lu8  1  0.797510  0.039317  0.241756  1
  Lu  Lu9  1  0.039289  0.797474  0.241799  1
  Lu  Lu10  1  0.444288  0.202461  0.241794  1
  Lu  Lu11  1  0.555712  0.797539  0.758206  1
  Mn  Mn12  1  0.389277  0.389403  0.999979  1
  Mn  Mn13  1  0.610723  0.610597  0.000021  1
  Zn  Zn14  1  0.000000  0.000000  0.000000  1
  Sn  Sn15  1  0.000000  0.500000  0.500000  1
  Sn  Sn16  1  0.500000  0.000000  0.500000  1
