# generated using pymatgen
data_Ho5Hg13
_symmetry_space_group_name_H-M   'P 1'
_cell_length_a   15.91195863
_cell_length_b   15.91195811
_cell_length_c   7.12923700
_cell_angle_alpha   95.06599235
_cell_angle_beta   95.06599219
_cell_angle_gamma   14.34502821
_symmetry_Int_Tables_number   1
_chemical_formula_structural   Ho5Hg13
_chemical_formula_sum   'Ho5 Hg13'
_cell_volume   445.44644231
_cell_formula_units_Z   1
loop_
 _symmetry_equiv_pos_site_id
 _symmetry_equiv_pos_as_xyz
  1  'x, y, z'
loop_
 _atom_site_type_symbol
 _atom_site_label
 _atom_site_symmetry_multiplicity
 _atom_site_fract_x
 _atom_site_fract_y
 _atom_site_fract_z
 _atom_site_occupancy
  Ho  Ho0  1  0.000000  0.000000  0.000000  1
  Ho  Ho1  1  0.673487  0.673487  0.318772  1
  Ho  Ho2  1  0.892184  0.892184  0.414291  1
  Ho  Ho3  1  0.107816  0.107816  0.585710  1
  Ho  Ho4  1  0.326513  0.326513  0.681228  1
  Hg  Hg5  1  0.111259  0.111259  0.080161  1
  Hg  Hg6  1  0.225006  0.225006  0.101230  1
  Hg  Hg7  1  0.334224  0.334224  0.165432  1
  Hg  Hg8  1  0.443776  0.443776  0.181005  1
  Hg  Hg9  1  0.557235  0.557235  0.301257  1
  Hg  Hg10  1  0.780321  0.780321  0.383759  1
  Hg  Hg11  1  0.000000  0.000000  0.500000  1
  Hg  Hg12  1  0.219679  0.219679  0.616242  1
  Hg  Hg13  1  0.442765  0.442765  0.698743  1
  Hg  Hg14  1  0.556224  0.556224  0.818994  1
  Hg  Hg15  1  0.665775  0.665775  0.834568  1
  Hg  Hg16  1  0.774993  0.774993  0.898769  1
  Hg  Hg17  1  0.888742  0.888742  0.919840  1
