# generated using pymatgen
data_Nd4ErRh2
_symmetry_space_group_name_H-M   'P 1'
_cell_length_a   6.60206721
_cell_length_b   7.20943037
_cell_length_c   9.04563100
_cell_angle_alpha   96.79914229
_cell_angle_beta   111.40335513
_cell_angle_gamma   90.00000219
_symmetry_Int_Tables_number   1
_chemical_formula_structural   Nd4ErRh2
_chemical_formula_sum   'Nd8 Er2 Rh4'
_cell_volume   397.59937098
_cell_formula_units_Z   2
loop_
 _symmetry_equiv_pos_site_id
 _symmetry_equiv_pos_as_xyz
  1  'x, y, z'
loop_
 _atom_site_type_symbol
 _atom_site_label
 _atom_site_symmetry_multiplicity
 _atom_site_fract_x
 _atom_site_fract_y
 _atom_site_fract_z
 _atom_site_occupancy
  Nd  Nd0  1  0.796053  0.078159  0.814567  1
  Nd  Nd1  1  0.981488  0.421841  0.185433  1
  Nd  Nd2  1  0.203947  0.921841  0.185433  1
  Nd  Nd3  1  0.018512  0.578159  0.814567  1
  Nd  Nd4  1  0.213955  0.188897  0.571604  1
  Nd  Nd5  1  0.642351  0.311103  0.428396  1
  Nd  Nd6  1  0.786045  0.811103  0.428396  1
  Nd  Nd7  1  0.357649  0.688897  0.571604  1
  Er  Er8  1  0.434575  0.250000  0.000000  1
  Er  Er9  1  0.565425  0.750000  0.000000  1
  Rh  Rh10  1  0.591923  0.429255  0.787894  1
  Rh  Rh11  1  0.804028  0.070745  0.212106  1
  Rh  Rh12  1  0.408077  0.570745  0.212106  1
  Rh  Rh13  1  0.195972  0.929255  0.787894  1
