# generated using pymatgen
data_Ba2DyB2ClO6
_symmetry_space_group_name_H-M   'P 1'
_cell_length_a   6.47162735
_cell_length_b   5.35131600
_cell_length_c   11.51525695
_cell_angle_alpha   90.00000000
_cell_angle_beta   95.87131104
_cell_angle_gamma   90.00000000
_symmetry_Int_Tables_number   1
_chemical_formula_structural   Ba2DyB2ClO6
_chemical_formula_sum   'Ba4 Dy2 B4 Cl2 O12'
_cell_volume   396.70118438
_cell_formula_units_Z   2
loop_
 _symmetry_equiv_pos_site_id
 _symmetry_equiv_pos_as_xyz
  1  'x, y, z'
loop_
 _atom_site_type_symbol
 _atom_site_label
 _atom_site_symmetry_multiplicity
 _atom_site_fract_x
 _atom_site_fract_y
 _atom_site_fract_z
 _atom_site_occupancy
  Ba  Ba0  1  0.339905  0.250000  0.075665  1
  Ba  Ba1  1  0.904140  0.750001  0.293689  1
  Ba  Ba2  1  0.095859  0.250000  0.706311  1
  Ba  Ba3  1  0.660096  0.750001  0.924336  1
  Dy  Dy4  1  0.346239  0.250000  0.412705  1
  Dy  Dy5  1  0.653761  0.750001  0.587295  1
  B  B6  1  0.375019  0.750001  0.225566  1
  B  B7  1  0.789238  0.250000  0.427641  1
  B  B8  1  0.210762  0.750001  0.572359  1
  B  B9  1  0.624980  0.250000  0.774433  1
  Cl  Cl10  1  0.849110  0.250000  0.085617  1
  Cl  Cl11  1  0.150890  0.750001  0.914382  1
  O  O12  1  0.521760  0.750001  0.146188  1
  O  O13  1  0.291354  0.527532  0.263008  1
  O  O14  1  0.291354  0.972469  0.263008  1
  O  O15  1  0.991983  0.250000  0.405306  1
  O  O16  1  0.674737  0.030612  0.435622  1
  O  O17  1  0.674737  0.469389  0.435622  1
  O  O18  1  0.325262  0.530611  0.564377  1
  O  O19  1  0.325262  0.969388  0.564377  1
  O  O20  1  0.008018  0.750001  0.594694  1
  O  O21  1  0.708646  0.027531  0.736991  1
  O  O22  1  0.708646  0.472468  0.736991  1
  O  O23  1  0.478239  0.250000  0.853812  1
