# generated using pymatgen
data_Ho2UCo2
_symmetry_space_group_name_H-M   'P 1'
_cell_length_a   5.87181918
_cell_length_b   5.87182046
_cell_length_c   5.87182033
_cell_angle_alpha   144.70386043
_cell_angle_beta   118.55452402
_cell_angle_gamma   72.89214613
_symmetry_Int_Tables_number   1
_chemical_formula_structural   Ho2UCo2
_chemical_formula_sum   'Ho2 U1 Co2'
_cell_volume   100.89437860
_cell_formula_units_Z   1
loop_
 _symmetry_equiv_pos_site_id
 _symmetry_equiv_pos_as_xyz
  1  'x, y, z'
loop_
 _atom_site_type_symbol
 _atom_site_label
 _atom_site_symmetry_multiplicity
 _atom_site_fract_x
 _atom_site_fract_y
 _atom_site_fract_z
 _atom_site_occupancy
  Ho  Ho0  1  0.695469  0.195469  0.500000  1
  Ho  Ho1  1  0.304532  0.804532  0.500001  1
  U  U2  1  0.000000  0.000000  0.000000  1
  Co  Co3  1  0.726904  0.500000  0.226904  1
  Co  Co4  1  0.273096  0.500001  0.773097  1
