# generated using pymatgen
data_Tb4Dy2Lu6Co5Bi
_symmetry_space_group_name_H-M   'P 1'
_cell_length_a   8.23490560
_cell_length_b   8.23490574
_cell_length_c   8.21257174
_cell_angle_alpha   111.32928432
_cell_angle_beta   110.53314918
_cell_angle_gamma   106.70602303
_symmetry_Int_Tables_number   1
_chemical_formula_structural   Tb4Dy2Lu6Co5Bi
_chemical_formula_sum   'Tb4 Dy2 Lu6 Co5 Bi1'
_cell_volume   427.30911192
_cell_formula_units_Z   1
loop_
 _symmetry_equiv_pos_site_id
 _symmetry_equiv_pos_as_xyz
  1  'x, y, z'
loop_
 _atom_site_type_symbol
 _atom_site_label
 _atom_site_symmetry_multiplicity
 _atom_site_fract_x
 _atom_site_fract_y
 _atom_site_fract_z
 _atom_site_occupancy
  Tb  Tb0  1  0.596266  0.792912  0.805586  1
  Tb  Tb1  1  0.403734  0.207088  0.194414  1
  Tb  Tb2  1  0.987327  0.790681  0.194414  1
  Tb  Tb3  1  0.012673  0.209319  0.805586  1
  Dy  Dy4  1  0.817451  0.710028  0.527478  1
  Dy  Dy5  1  0.182549  0.289972  0.472522  1
  Lu  Lu6  1  0.183067  0.710401  0.893468  1
  Lu  Lu7  1  0.816933  0.289599  0.106532  1
  Lu  Lu8  1  0.687573  0.376205  0.690213  1
  Lu  Lu9  1  0.312427  0.623795  0.309787  1
  Lu  Lu10  1  0.685992  0.997360  0.309787  1
  Lu  Lu11  1  0.314008  0.002640  0.690213  1
  Co  Co12  1  0.623089  0.000224  0.623313  1
  Co  Co13  1  0.376911  0.999776  0.376687  1
  Co  Co14  1  0.112208  0.612208  0.500000  1
  Co  Co15  1  0.887792  0.387792  0.500000  1
  Co  Co16  1  0.000000  0.000000  0.000000  1
  Bi  Bi17  1  0.500000  0.500000  0.000000  1
