# generated using pymatgen
data_SrEu(MnN2)2
_symmetry_space_group_name_H-M   'P 1'
_cell_length_a   7.37836200
_cell_length_b   5.85932386
_cell_length_c   5.85289203
_cell_angle_alpha   67.31966761
_cell_angle_beta   90.00000000
_cell_angle_gamma   90.00000000
_symmetry_Int_Tables_number   1
_chemical_formula_structural   SrEu(MnN2)2
_chemical_formula_sum   'Sr2 Eu2 Mn4 N8'
_cell_volume   233.46652083
_cell_formula_units_Z   2
loop_
 _symmetry_equiv_pos_site_id
 _symmetry_equiv_pos_as_xyz
  1  'x, y, z'
loop_
 _atom_site_type_symbol
 _atom_site_label
 _atom_site_symmetry_multiplicity
 _atom_site_fract_x
 _atom_site_fract_y
 _atom_site_fract_z
 _atom_site_occupancy
  Sr  Sr0  1  0.925118  0.680577  0.674374  1
  Sr  Sr1  1  0.425118  0.819423  0.325626  1
  Eu  Eu2  1  0.066403  0.306344  0.314906  1
  Eu  Eu3  1  0.566403  0.193656  0.685094  1
  Mn  Mn4  1  0.637588  0.409148  0.109474  1
  Mn  Mn5  1  0.137588  0.090852  0.890526  1
  Mn  Mn6  1  0.365555  0.584726  0.905931  1
  Mn  Mn7  1  0.865555  0.915274  0.094069  1
  N  N8  1  0.085266  0.932930  0.232428  1
  N  N9  1  0.585266  0.567070  0.767572  1
  N  N10  1  0.913769  0.082268  0.751324  1
  N  N11  1  0.413769  0.417732  0.248676  1
  N  N12  1  0.704798  0.103097  0.163987  1
  N  N13  1  0.204798  0.396903  0.836013  1
  N  N14  1  0.301504  0.899713  0.828995  1
  N  N15  1  0.801504  0.600287  0.171005  1
