# generated using pymatgen
data_Na4Al11InTe20
_symmetry_space_group_name_H-M   'P 1'
_cell_length_a   10.57133226
_cell_length_b   10.58087854
_cell_length_c   10.63625561
_cell_angle_alpha   90.95312804
_cell_angle_beta   90.82980151
_cell_angle_gamma   90.62626395
_symmetry_Int_Tables_number   1
_chemical_formula_structural   Na4Al11InTe20
_chemical_formula_sum   'Na4 Al11 In1 Te20'
_cell_volume   1189.34393441
_cell_formula_units_Z   1
loop_
 _symmetry_equiv_pos_site_id
 _symmetry_equiv_pos_as_xyz
  1  'x, y, z'
loop_
 _atom_site_type_symbol
 _atom_site_label
 _atom_site_symmetry_multiplicity
 _atom_site_fract_x
 _atom_site_fract_y
 _atom_site_fract_z
 _atom_site_occupancy
  Na  Na0  1  0.257577  0.000867  0.743659  1
  Na  Na1  1  0.743486  0.256447  0.999799  1
  Na  Na2  1  0.000047  0.742465  0.254901  1
  Na  Na3  1  0.499029  0.499500  0.499734  1
  Al  Al4  1  0.569798  0.837138  0.881300  1
  Al  Al5  1  0.879044  0.571524  0.842504  1
  Al  Al6  1  0.162880  0.428536  0.120802  1
  Al  Al7  1  0.125518  0.163357  0.426160  1
  Al  Al8  1  0.428735  0.121570  0.161163  1
  Al  Al9  1  0.743353  0.164758  0.347010  1
  Al  Al10  1  0.344232  0.746266  0.163174  1
  Al  Al11  1  0.161707  0.346223  0.746364  1
  Al  Al12  1  0.254313  0.654533  0.837711  1
  Al  Al13  1  0.835712  0.256114  0.653456  1
  Al  Al14  1  0.652680  0.834265  0.251288  1
  In  In15  1  0.841321  0.876485  0.572875  1
  Te  Te16  1  0.176396  0.823589  0.000036  1
  Te  Te17  1  0.822555  0.999087  0.181228  1
  Te  Te18  1  0.178384  0.178748  0.176508  1
  Te  Te19  1  0.822254  0.821501  0.838403  1
  Te  Te20  1  0.999200  0.175669  0.820234  1
  Te  Te21  1  0.926095  0.497354  0.075667  1
  Te  Te22  1  0.091422  0.925214  0.492517  1
  Te  Te23  1  0.500010  0.074097  0.926342  1
  Te  Te24  1  0.744416  0.679040  0.416624  1
  Te  Te25  1  0.429206  0.747320  0.692426  1
  Te  Te26  1  0.691833  0.431552  0.748578  1
  Te  Te27  1  0.252275  0.571472  0.308045  1
  Te  Te28  1  0.309654  0.256462  0.571913  1
  Te  Te29  1  0.570654  0.310614  0.249611  1
  Te  Te30  1  0.667051  0.080864  0.571383  1
  Te  Te31  1  0.567867  0.674218  0.069324  1
  Te  Te32  1  0.068997  0.572491  0.679136  1
  Te  Te33  1  0.323139  0.428429  0.928840  1
  Te  Te34  1  0.930265  0.322076  0.429011  1
  Te  Te35  1  0.428894  0.930154  0.322273  1
