# generated using pymatgen
data_Nb10GaSi4As
_symmetry_space_group_name_H-M   'P 1'
_cell_length_a   6.59630700
_cell_length_b   7.59563435
_cell_length_c   6.59630700
_cell_angle_alpha   115.73547616
_cell_angle_beta   90.00000000
_cell_angle_gamma   115.73547616
_symmetry_Int_Tables_number   1
_chemical_formula_structural   Nb10GaSi4As
_chemical_formula_sum   'Nb10 Ga1 Si4 As1'
_cell_volume   260.84281703
_cell_formula_units_Z   1
loop_
 _symmetry_equiv_pos_site_id
 _symmetry_equiv_pos_as_xyz
  1  'x, y, z'
loop_
 _atom_site_type_symbol
 _atom_site_label
 _atom_site_symmetry_multiplicity
 _atom_site_fract_x
 _atom_site_fract_y
 _atom_site_fract_z
 _atom_site_occupancy
  Nb  Nb0  1  0.001410  0.002819  0.001410  1
  Nb  Nb1  1  0.498590  0.997181  0.498590  1
  Nb  Nb2  1  0.517637  0.703889  0.688623  1
  Nb  Nb3  1  0.186251  0.703889  0.015264  1
  Nb  Nb4  1  0.688623  0.703889  0.186251  1
  Nb  Nb5  1  0.015264  0.703889  0.517637  1
  Nb  Nb6  1  0.484736  0.296111  0.313749  1
  Nb  Nb7  1  0.811377  0.296111  0.982363  1
  Nb  Nb8  1  0.313749  0.296111  0.811377  1
  Nb  Nb9  1  0.982363  0.296111  0.484736  1
  Ga  Ga10  1  0.250000  0.500000  0.250000  1
  Si  Si11  1  0.870027  0.000000  0.629973  1
  Si  Si12  1  0.129973  0.000000  0.370027  1
  Si  Si13  1  0.629973  0.000000  0.129973  1
  Si  Si14  1  0.370027  0.000000  0.870027  1
  As  As15  1  0.750000  0.500000  0.750000  1
