# generated using pymatgen
data_CaTb4Nd2FeI12
_symmetry_space_group_name_H-M   'P 1'
_cell_length_a   9.89814034
_cell_length_b   9.80924167
_cell_length_c   9.81797172
_cell_angle_alpha   106.85528183
_cell_angle_beta   106.64947317
_cell_angle_gamma   107.12974826
_symmetry_Int_Tables_number   1
_chemical_formula_structural   CaTb4Nd2FeI12
_chemical_formula_sum   'Ca1 Tb4 Nd2 Fe1 I12'
_cell_volume   796.49582200
_cell_formula_units_Z   1
loop_
 _symmetry_equiv_pos_site_id
 _symmetry_equiv_pos_as_xyz
  1  'x, y, z'
loop_
 _atom_site_type_symbol
 _atom_site_label
 _atom_site_symmetry_multiplicity
 _atom_site_fract_x
 _atom_site_fract_y
 _atom_site_fract_z
 _atom_site_occupancy
  Ca  Ca0  1  0.499969  0.499751  0.499881  1
  Tb  Tb1  1  0.300338  0.024813  0.096330  1
  Tb  Tb2  1  0.906218  0.712424  0.974791  1
  Tb  Tb3  1  0.975526  0.905810  0.713973  1
  Tb  Tb4  1  0.698885  0.973917  0.901070  1
  Nd  Nd5  1  0.095318  0.293575  0.024545  1
  Nd  Nd6  1  0.023721  0.093207  0.292130  1
  Fe  Fe7  1  0.999571  0.000849  0.000247  1
  I  I8  1  0.461831  0.378106  0.153203  1
  I  I9  1  0.155956  0.464304  0.385312  1
  I  I10  1  0.383110  0.150634  0.456053  1
  I  I11  1  0.546251  0.622148  0.850460  1
  I  I12  1  0.849367  0.545356  0.623278  1
  I  I13  1  0.624902  0.850106  0.544780  1
  I  I14  1  0.769971  0.316317  0.925143  1
  I  I15  1  0.924063  0.766495  0.313610  1
  I  I16  1  0.316000  0.926738  0.774892  1
  I  I17  1  0.221937  0.684448  0.072121  1
  I  I18  1  0.071727  0.219989  0.678388  1
  I  I19  1  0.675339  0.071016  0.219793  1
