# generated using pymatgen
data_YbDy4V3(P3Ir4)4
_symmetry_space_group_name_H-M   'P 1'
_cell_length_a   12.68146000
_cell_length_b   12.68146042
_cell_length_c   3.95576300
_cell_angle_alpha   90.00000000
_cell_angle_beta   90.00000000
_cell_angle_gamma   119.99999891
_symmetry_Int_Tables_number   1
_chemical_formula_structural   YbDy4V3(P3Ir4)4
_chemical_formula_sum   'Yb1 Dy4 V3 P12 Ir16'
_cell_volume   550.93381247
_cell_formula_units_Z   1
loop_
 _symmetry_equiv_pos_site_id
 _symmetry_equiv_pos_as_xyz
  1  'x, y, z'
loop_
 _atom_site_type_symbol
 _atom_site_label
 _atom_site_symmetry_multiplicity
 _atom_site_fract_x
 _atom_site_fract_y
 _atom_site_fract_z
 _atom_site_occupancy
  Yb  Yb0  1  0.333333  0.666667  0.500000  1
  Dy  Dy1  1  0.666667  0.333333  0.500000  1
  Dy  Dy2  1  0.999581  0.811301  0.000000  1
  Dy  Dy3  1  0.188699  0.188280  0.000000  1
  Dy  Dy4  1  0.811720  0.000419  0.000000  1
  V  V5  1  0.999419  0.449503  0.500000  1
  V  V6  1  0.550497  0.549916  0.500000  1
  V  V7  1  0.450084  0.000581  0.500000  1
  P  P8  1  0.001126  0.635272  0.500000  1
  P  P9  1  0.364728  0.365854  0.500000  1
  P  P10  1  0.634146  0.998874  0.500000  1
  P  P11  1  0.515088  0.683406  0.000000  1
  P  P12  1  0.316594  0.831681  0.000000  1
  P  P13  1  0.168319  0.484912  0.000000  1
  P  P14  1  0.482754  0.166421  0.000000  1
  P  P15  1  0.683666  0.517246  0.000000  1
  P  P16  1  0.833579  0.316334  0.000000  1
  P  P17  1  0.000148  0.177833  0.500000  1
  P  P18  1  0.822167  0.822315  0.500000  1
  P  P19  1  0.177685  0.999852  0.500000  1
  Ir  Ir20  1  0.511531  0.869481  0.000000  1
  Ir  Ir21  1  0.130519  0.642051  0.000000  1
  Ir  Ir22  1  0.357949  0.488469  0.000000  1
  Ir  Ir23  1  0.490977  0.357903  0.000000  1
  Ir  Ir24  1  0.866927  0.509023  0.000000  1
  Ir  Ir25  1  0.642097  0.133073  0.000000  1
  Ir  Ir26  1  0.000259  0.284784  0.000000  1
  Ir  Ir27  1  0.715216  0.715476  0.000000  1
  Ir  Ir28  1  0.284524  0.999741  0.000000  1
  Ir  Ir29  1  0.625693  0.804255  0.500000  1
  Ir  Ir30  1  0.195745  0.821438  0.500000  1
  Ir  Ir31  1  0.178562  0.374307  0.500000  1
  Ir  Ir32  1  0.374597  0.179131  0.500000  1
  Ir  Ir33  1  0.804534  0.625403  0.500000  1
  Ir  Ir34  1  0.820869  0.195466  0.500000  1
  Ir  Ir35  1  0.000000  0.000000  0.500000  1
