# generated using pymatgen
data_Ta3Nb5Si2(B2Mo)2
_symmetry_space_group_name_H-M   'P 1'
_cell_length_a   7.27968289
_cell_length_b   7.28255439
_cell_length_c   7.28086597
_cell_angle_alpha   129.63872370
_cell_angle_beta   129.63719871
_cell_angle_gamma   73.98701783
_symmetry_Int_Tables_number   1
_chemical_formula_structural   Ta3Nb5Si2(B2Mo)2
_chemical_formula_sum   'Ta3 Nb5 Si2 B4 Mo2'
_cell_volume   223.24525687
_cell_formula_units_Z   1
loop_
 _symmetry_equiv_pos_site_id
 _symmetry_equiv_pos_as_xyz
  1  'x, y, z'
loop_
 _atom_site_type_symbol
 _atom_site_label
 _atom_site_symmetry_multiplicity
 _atom_site_fract_x
 _atom_site_fract_y
 _atom_site_fract_z
 _atom_site_occupancy
  Ta  Ta0  1  0.693672  0.193952  0.164152  1
  Ta  Ta1  1  0.969794  0.469533  0.163435  1
  Ta  Ta2  1  0.470284  0.306138  0.499991  1
  Nb  Nb3  1  0.806936  0.970548  0.499998  1
  Nb  Nb4  1  0.306964  0.806694  0.836958  1
  Nb  Nb5  1  0.193069  0.029634  0.499964  1
  Nb  Nb6  1  0.529750  0.693272  0.499980  1
  Nb  Nb7  1  0.029364  0.529632  0.836377  1
  Si  Si8  1  0.749658  0.749655  0.999552  1
  Si  Si9  1  0.250142  0.250108  0.000491  1
  B  B10  1  0.382183  0.883263  0.264563  1
  B  B11  1  0.881439  0.616507  0.497886  1
  B  B12  1  0.619664  0.120733  0.739561  1
  B  B13  1  0.117889  0.380717  0.497901  1
  Mo  Mo14  1  0.999664  0.999658  0.999495  1
  Mo  Mo15  1  0.499527  0.499956  0.999698  1
