# generated using pymatgen
data_NaLaPd4
_symmetry_space_group_name_H-M   'P 1'
_cell_length_a   5.48400369
_cell_length_b   5.48400238
_cell_length_c   5.48400400
_cell_angle_alpha   60.00000229
_cell_angle_beta   60.00001021
_cell_angle_gamma   59.99999541
_symmetry_Int_Tables_number   1
_chemical_formula_structural   NaLaPd4
_chemical_formula_sum   'Na1 La1 Pd4'
_cell_volume   116.62137675
_cell_formula_units_Z   1
loop_
 _symmetry_equiv_pos_site_id
 _symmetry_equiv_pos_as_xyz
  1  'x, y, z'
loop_
 _atom_site_type_symbol
 _atom_site_label
 _atom_site_symmetry_multiplicity
 _atom_site_fract_x
 _atom_site_fract_y
 _atom_site_fract_z
 _atom_site_occupancy
  Na  Na0  1  0.750000  0.750000  0.750000  1
  La  La1  1  0.500000  0.500000  0.500000  1
  Pd  Pd2  1  0.124852  0.625444  0.124852  1
  Pd  Pd3  1  0.124852  0.124852  0.625444  1
  Pd  Pd4  1  0.625444  0.124852  0.124852  1
  Pd  Pd5  1  0.124852  0.124852  0.124852  1
