# generated using pymatgen
data_ZrSc3Tc5Os3
_symmetry_space_group_name_H-M   'P 1'
_cell_length_a   5.21171827
_cell_length_b   5.21171832
_cell_length_c   8.75794601
_cell_angle_alpha   90.00417628
_cell_angle_beta   89.99582336
_cell_angle_gamma   120.96901285
_symmetry_Int_Tables_number   1
_chemical_formula_structural   ZrSc3Tc5Os3
_chemical_formula_sum   'Zr1 Sc3 Tc5 Os3'
_cell_volume   203.97209928
_cell_formula_units_Z   1
loop_
 _symmetry_equiv_pos_site_id
 _symmetry_equiv_pos_as_xyz
  1  'x, y, z'
loop_
 _atom_site_type_symbol
 _atom_site_label
 _atom_site_symmetry_multiplicity
 _atom_site_fract_x
 _atom_site_fract_y
 _atom_site_fract_z
 _atom_site_occupancy
  Zr  Zr0  1  0.334851  0.665149  0.434734  1
  Sc  Sc1  1  0.665578  0.334422  0.566393  1
  Sc  Sc2  1  0.665646  0.334354  0.936139  1
  Sc  Sc3  1  0.334663  0.665337  0.062264  1
  Tc  Tc4  1  0.170787  0.343636  0.750023  1
  Tc  Tc5  1  0.172044  0.827956  0.750192  1
  Tc  Tc6  1  0.343612  0.172695  0.249630  1
  Tc  Tc7  1  0.827305  0.656388  0.249630  1
  Tc  Tc8  1  0.656364  0.829213  0.750023  1
  Os  Os9  1  0.001243  0.998757  0.001128  1
  Os  Os10  1  0.826044  0.173956  0.249968  1
  Os  Os11  1  0.001861  0.998139  0.499875  1
