# generated using pymatgen
data_Pr6U(P3Rh5)4
_symmetry_space_group_name_H-M   'P 1'
_cell_length_a   13.60686900
_cell_length_b   13.60686719
_cell_length_c   4.01916600
_cell_angle_alpha   90.00000000
_cell_angle_beta   90.00000000
_cell_angle_gamma   119.99999710
_symmetry_Int_Tables_number   1
_chemical_formula_structural   Pr6U(P3Rh5)4
_chemical_formula_sum   'Pr6 U1 P12 Rh20'
_cell_volume   644.44066608
_cell_formula_units_Z   1
loop_
 _symmetry_equiv_pos_site_id
 _symmetry_equiv_pos_as_xyz
  1  'x, y, z'
loop_
 _atom_site_type_symbol
 _atom_site_label
 _atom_site_symmetry_multiplicity
 _atom_site_fract_x
 _atom_site_fract_y
 _atom_site_fract_z
 _atom_site_occupancy
  Pr  Pr0  1  0.527462  0.716047  0.256984  1
  Pr  Pr1  1  0.283953  0.811415  0.256984  1
  Pr  Pr2  1  0.188585  0.472538  0.256984  1
  Pr  Pr3  1  0.472538  0.283953  0.743016  1
  Pr  Pr4  1  0.716047  0.188585  0.743016  1
  Pr  Pr5  1  0.811415  0.527462  0.743016  1
  U  U6  1  0.000000  0.000000  0.000000  1
  P  P7  1  0.522180  0.135198  0.247908  1
  P  P8  1  0.864802  0.386983  0.247908  1
  P  P9  1  0.613017  0.477820  0.247908  1
  P  P10  1  0.949032  0.718156  0.238989  1
  P  P11  1  0.281844  0.230876  0.238989  1
  P  P12  1  0.769124  0.050968  0.238989  1
  P  P13  1  0.386983  0.522180  0.752092  1
  P  P14  1  0.477820  0.864802  0.752092  1
  P  P15  1  0.135198  0.613017  0.752092  1
  P  P16  1  0.718156  0.769124  0.761011  1
  P  P17  1  0.230876  0.949032  0.761011  1
  P  P18  1  0.050968  0.281844  0.761011  1
  Rh  Rh19  1  0.333333  0.666667  0.745212  1
  Rh  Rh20  1  0.924338  0.252837  0.228154  1
  Rh  Rh21  1  0.747163  0.671502  0.228154  1
  Rh  Rh22  1  0.328498  0.075662  0.228154  1
  Rh  Rh23  1  0.442014  0.024758  0.743966  1
  Rh  Rh24  1  0.975242  0.417258  0.743966  1
  Rh  Rh25  1  0.582742  0.557986  0.743966  1
  Rh  Rh26  1  0.666667  0.333333  0.254788  1
  Rh  Rh27  1  0.098054  0.202031  0.277915  1
  Rh  Rh28  1  0.797969  0.896022  0.277915  1
  Rh  Rh29  1  0.103978  0.901946  0.277915  1
  Rh  Rh30  1  0.024758  0.582742  0.256034  1
  Rh  Rh31  1  0.417258  0.442014  0.256034  1
  Rh  Rh32  1  0.557986  0.975242  0.256034  1
  Rh  Rh33  1  0.671502  0.924338  0.771846  1
  Rh  Rh34  1  0.075662  0.747163  0.771846  1
  Rh  Rh35  1  0.252837  0.328498  0.771846  1
  Rh  Rh36  1  0.901946  0.797969  0.722085  1
  Rh  Rh37  1  0.202031  0.103978  0.722085  1
  Rh  Rh38  1  0.896022  0.098054  0.722085  1
