# generated using pymatgen
data_Hf16TaCo5Pt2
_symmetry_space_group_name_H-M   'P 1'
_cell_length_a   8.64783736
_cell_length_b   8.57636349
_cell_length_c   8.57623589
_cell_angle_alpha   60.21072611
_cell_angle_beta   60.50748453
_cell_angle_gamma   60.50508223
_symmetry_Int_Tables_number   1
_chemical_formula_structural   Hf16TaCo5Pt2
_chemical_formula_sum   'Hf16 Ta1 Co5 Pt2'
_cell_volume   453.91138944
_cell_formula_units_Z   1
loop_
 _symmetry_equiv_pos_site_id
 _symmetry_equiv_pos_as_xyz
  1  'x, y, z'
loop_
 _atom_site_type_symbol
 _atom_site_label
 _atom_site_symmetry_multiplicity
 _atom_site_fract_x
 _atom_site_fract_y
 _atom_site_fract_z
 _atom_site_occupancy
  Hf  Hf0  1  0.071496  0.642456  0.642451  1
  Hf  Hf1  1  0.650663  0.050041  0.648818  1
  Hf  Hf2  1  0.650672  0.648822  0.050029  1
  Hf  Hf3  1  0.649679  0.650823  0.650819  1
  Hf  Hf4  1  0.808842  0.802013  0.194528  1
  Hf  Hf5  1  0.198749  0.198532  0.799486  1
  Hf  Hf6  1  0.808838  0.194524  0.802021  1
  Hf  Hf7  1  0.198747  0.799483  0.198537  1
  Hf  Hf8  1  0.197605  0.802141  0.802142  1
  Hf  Hf9  1  0.806277  0.196220  0.196227  1
  Hf  Hf10  1  0.434214  0.436676  0.072836  1
  Hf  Hf11  1  0.053376  0.073261  0.437147  1
  Hf  Hf12  1  0.434210  0.072835  0.436675  1
  Hf  Hf13  1  0.053381  0.437145  0.073255  1
  Hf  Hf14  1  0.057429  0.437341  0.437346  1
  Hf  Hf15  1  0.434789  0.064306  0.064308  1
  Ta  Ta16  1  0.732686  0.421252  0.421246  1
  Co  Co17  1  0.414738  0.408536  0.408534  1
  Co  Co18  1  0.420333  0.860305  0.860307  1
  Co  Co19  1  0.864363  0.425922  0.854946  1
  Co  Co20  1  0.864359  0.854947  0.425931  1
  Co  Co21  1  0.865206  0.854291  0.854279  1
  Pt  Pt22  1  0.414676  0.756875  0.411250  1
  Pt  Pt23  1  0.414674  0.411254  0.756880  1
