# generated using pymatgen
data_LiSc2Al3Ge2Pt
_symmetry_space_group_name_H-M   'P 1'
_cell_length_a   6.69038500
_cell_length_b   6.66600424
_cell_length_c   4.07959000
_cell_angle_alpha   90.00000000
_cell_angle_beta   90.00000000
_cell_angle_gamma   120.12105735
_symmetry_Int_Tables_number   1
_chemical_formula_structural   LiSc2Al3Ge2Pt
_chemical_formula_sum   'Li1 Sc2 Al3 Ge2 Pt1'
_cell_volume   157.37392491
_cell_formula_units_Z   1
loop_
 _symmetry_equiv_pos_site_id
 _symmetry_equiv_pos_as_xyz
  1  'x, y, z'
loop_
 _atom_site_type_symbol
 _atom_site_label
 _atom_site_symmetry_multiplicity
 _atom_site_fract_x
 _atom_site_fract_y
 _atom_site_fract_z
 _atom_site_occupancy
  Li  Li0  1  0.411424  0.000000  0.000000  1
  Sc  Sc1  1  0.002324  0.422819  0.000000  1
  Sc  Sc2  1  0.579507  0.577182  0.000000  1
  Al  Al3  1  0.758524  0.000000  0.500000  1
  Al  Al4  1  0.240900  0.238313  0.500000  1
  Al  Al5  1  0.002586  0.761686  0.500000  1
  Ge  Ge6  1  0.669518  0.334151  0.500000  1
  Ge  Ge7  1  0.335366  0.665848  0.500000  1
  Pt  Pt8  1  0.999851  0.000000  0.000000  1
