# generated using pymatgen
data_Sc4Ga3As3Ir7
_symmetry_space_group_name_H-M   'P 1'
_cell_length_a   7.10774805
_cell_length_b   7.10774870
_cell_length_c   7.14525500
_cell_angle_alpha   109.57814340
_cell_angle_beta   109.57814526
_cell_angle_gamma   109.36409090
_symmetry_Int_Tables_number   1
_chemical_formula_structural   Sc4Ga3As3Ir7
_chemical_formula_sum   'Sc4 Ga3 As3 Ir7'
_cell_volume   277.51413832
_cell_formula_units_Z   1
loop_
 _symmetry_equiv_pos_site_id
 _symmetry_equiv_pos_as_xyz
  1  'x, y, z'
loop_
 _atom_site_type_symbol
 _atom_site_label
 _atom_site_symmetry_multiplicity
 _atom_site_fract_x
 _atom_site_fract_y
 _atom_site_fract_z
 _atom_site_occupancy
  Sc  Sc0  1  0.000000  0.000000  0.529250  1
  Sc  Sc1  1  0.000000  0.489181  0.006567  1
  Sc  Sc2  1  0.489181  0.000000  0.006567  1
  Sc  Sc3  1  0.510819  0.510819  0.517386  1
  Ga  Ga4  1  0.710407  0.710407  0.014086  1
  Ga  Ga5  1  0.289593  0.000000  0.303679  1
  Ga  Ga6  1  0.000000  0.289593  0.303679  1
  As  As7  1  0.328625  0.328625  0.007121  1
  As  As8  1  0.671375  0.000000  0.678496  1
  As  As9  1  0.000000  0.671375  0.678496  1
  Ir  Ir10  1  0.744023  0.244734  0.494164  1
  Ir  Ir11  1  0.755266  0.499289  0.249430  1
  Ir  Ir12  1  0.500711  0.255977  0.750141  1
  Ir  Ir13  1  0.255977  0.500711  0.750141  1
  Ir  Ir14  1  0.244734  0.744023  0.494164  1
  Ir  Ir15  1  0.499289  0.755266  0.249430  1
  Ir  Ir16  1  0.000000  0.000000  0.967204  1
