# generated using pymatgen
data_Sc12Co2IrBr16
_symmetry_space_group_name_H-M   'P 1'
_cell_length_a   8.80846408
_cell_length_b   10.84861537
_cell_length_c   11.51816445
_cell_angle_alpha   116.79032285
_cell_angle_beta   101.69855470
_cell_angle_gamma   101.42984919
_symmetry_Int_Tables_number   1
_chemical_formula_structural   Sc12Co2IrBr16
_chemical_formula_sum   'Sc12 Co2 Ir1 Br16'
_cell_volume   907.79776393
_cell_formula_units_Z   1
loop_
 _symmetry_equiv_pos_site_id
 _symmetry_equiv_pos_as_xyz
  1  'x, y, z'
loop_
 _atom_site_type_symbol
 _atom_site_label
 _atom_site_symmetry_multiplicity
 _atom_site_fract_x
 _atom_site_fract_y
 _atom_site_fract_z
 _atom_site_occupancy
  Sc  Sc0  1  0.083488  0.254899  0.348552  1
  Sc  Sc1  1  0.916512  0.745101  0.651448  1
  Sc  Sc2  1  0.775859  0.536373  0.318719  1
  Sc  Sc3  1  0.224141  0.463627  0.681281  1
  Sc  Sc4  1  0.284381  0.745791  0.651458  1
  Sc  Sc5  1  0.715619  0.254209  0.348542  1
  Sc  Sc6  1  0.143448  0.536533  0.318975  1
  Sc  Sc7  1  0.856552  0.463467  0.681025  1
  Sc  Sc8  1  0.400704  0.350656  0.262065  1
  Sc  Sc9  1  0.599296  0.649344  0.737935  1
  Sc  Sc10  1  0.457480  0.304323  0.520873  1
  Sc  Sc11  1  0.542520  0.695677  0.479127  1
  Co  Co12  1  0.341692  0.500202  0.499376  1
  Co  Co13  1  0.658309  0.499798  0.500624  1
  Ir  Ir14  1  0.000000  0.500000  0.500000  1
  Br  Br15  1  0.399378  0.747434  0.893724  1
  Br  Br16  1  0.600622  0.252566  0.106276  1
  Br  Br17  1  0.193532  0.978565  0.789734  1
  Br  Br18  1  0.806468  0.021435  0.210266  1
  Br  Br19  1  0.333877  0.084091  0.245648  1
  Br  Br20  1  0.666123  0.915909  0.754352  1
  Br  Br21  1  0.556669  0.435401  0.805368  1
  Br  Br22  1  0.443331  0.564599  0.194632  1
  Br  Br23  1  0.310914  0.834022  0.462039  1
  Br  Br24  1  0.689086  0.165978  0.537961  1
  Br  Br25  1  0.165328  0.165234  0.534117  1
  Br  Br26  1  0.834672  0.834766  0.465883  1
  Br  Br27  1  0.925866  0.581006  0.154300  1
  Br  Br28  1  0.074134  0.418994  0.845700  1
  Br  Br29  1  0.928078  0.746089  0.893783  1
  Br  Br30  1  0.071922  0.253911  0.106217  1
