# generated using pymatgen
data_Tb15Tm3(LuSn8)2
_symmetry_space_group_name_H-M   'P 1'
_cell_length_a   8.01213819
_cell_length_b   8.16687902
_cell_length_c   15.46568704
_cell_angle_alpha   90.02420272
_cell_angle_beta   89.95541896
_cell_angle_gamma   90.05185460
_symmetry_Int_Tables_number   1
_chemical_formula_structural   Tb15Tm3(LuSn8)2
_chemical_formula_sum   'Tb15 Tm3 Lu2 Sn16'
_cell_volume   1011.98348032
_cell_formula_units_Z   1
loop_
 _symmetry_equiv_pos_site_id
 _symmetry_equiv_pos_as_xyz
  1  'x, y, z'
loop_
 _atom_site_type_symbol
 _atom_site_label
 _atom_site_symmetry_multiplicity
 _atom_site_fract_x
 _atom_site_fract_y
 _atom_site_fract_z
 _atom_site_occupancy
  Tb  Tb0  1  0.865182  0.662425  0.623150  1
  Tb  Tb1  1  0.634436  0.162158  0.377551  1
  Tb  Tb2  1  0.135571  0.337569  0.121002  1
  Tb  Tb3  1  0.634394  0.162941  0.122741  1
  Tb  Tb4  1  0.134146  0.337317  0.377616  1
  Tb  Tb5  1  0.365888  0.837598  0.622871  1
  Tb  Tb6  1  0.865957  0.662195  0.878124  1
  Tb  Tb7  1  0.518789  0.320193  0.903487  1
  Tb  Tb8  1  0.019814  0.178981  0.597425  1
  Tb  Tb9  1  0.480965  0.679663  0.403641  1
  Tb  Tb10  1  0.980208  0.820410  0.096531  1
  Tb  Tb11  1  0.481454  0.680368  0.095200  1
  Tb  Tb12  1  0.981012  0.820604  0.403267  1
  Tb  Tb13  1  0.519188  0.320814  0.597427  1
  Tb  Tb14  1  0.018799  0.178482  0.903035  1
  Tm  Tm15  1  0.364493  0.838513  0.876071  1
  Tm  Tm16  1  0.197237  0.503402  0.750726  1
  Tm  Tm17  1  0.696371  0.996446  0.750475  1
  Lu  Lu18  1  0.803618  0.496732  0.250055  1
  Lu  Lu19  1  0.303315  0.002864  0.249459  1
  Sn  Sn20  1  0.295201  0.035202  0.040633  1
  Sn  Sn21  1  0.794147  0.463569  0.457660  1
  Sn  Sn22  1  0.706364  0.963600  0.542747  1
  Sn  Sn23  1  0.207818  0.539827  0.956698  1
  Sn  Sn24  1  0.701186  0.962463  0.957262  1
  Sn  Sn25  1  0.205645  0.536327  0.543026  1
  Sn  Sn26  1  0.293968  0.036245  0.457277  1
  Sn  Sn27  1  0.794151  0.463425  0.042876  1
  Sn  Sn28  1  0.561654  0.618589  0.750965  1
  Sn  Sn29  1  0.062869  0.882163  0.750958  1
  Sn  Sn30  1  0.437861  0.383296  0.250076  1
  Sn  Sn31  1  0.938381  0.117199  0.249369  1
  Sn  Sn32  1  0.328629  0.149079  0.750602  1
  Sn  Sn33  1  0.828224  0.350126  0.750479  1
  Sn  Sn34  1  0.671509  0.849663  0.249846  1
  Sn  Sn35  1  0.171556  0.649553  0.249671  1
