# generated using pymatgen
data_Tm3GaAs2Rh3
_symmetry_space_group_name_H-M   'P 1'
_cell_length_a   6.93509100
_cell_length_b   6.93509126
_cell_length_c   3.92141200
_cell_angle_alpha   90.00000000
_cell_angle_beta   90.00000000
_cell_angle_gamma   120.00000351
_symmetry_Int_Tables_number   1
_chemical_formula_structural   Tm3GaAs2Rh3
_chemical_formula_sum   'Tm3 Ga1 As2 Rh3'
_cell_volume   163.33431467
_cell_formula_units_Z   1
loop_
 _symmetry_equiv_pos_site_id
 _symmetry_equiv_pos_as_xyz
  1  'x, y, z'
loop_
 _atom_site_type_symbol
 _atom_site_label
 _atom_site_symmetry_multiplicity
 _atom_site_fract_x
 _atom_site_fract_y
 _atom_site_fract_z
 _atom_site_occupancy
  Tm  Tm0  1  0.414329  0.000000  0.500001  1
  Tm  Tm1  1  0.000000  0.414329  0.500001  1
  Tm  Tm2  1  0.585670  0.585671  0.500001  1
  Ga  Ga3  1  0.000000  0.000000  0.500001  1
  As  As4  1  0.666666  0.333333  0.000000  1
  As  As5  1  0.333334  0.666667  0.000000  1
  Rh  Rh6  1  0.757646  0.000000  0.000000  1
  Rh  Rh7  1  0.242353  0.242354  0.000000  1
  Rh  Rh8  1  0.000000  0.757646  0.000000  1
