# generated using pymatgen
data_CsIn3Cl8
_symmetry_space_group_name_H-M   'P 1'
_cell_length_a   7.88470200
_cell_length_b   10.39016562
_cell_length_c   10.86522975
_cell_angle_alpha   84.93972250
_cell_angle_beta   90.00000000
_cell_angle_gamma   90.00000000
_symmetry_Int_Tables_number   1
_chemical_formula_structural   CsIn3Cl8
_chemical_formula_sum   'Cs2 In6 Cl16'
_cell_volume   886.64685694
_cell_formula_units_Z   2
loop_
 _symmetry_equiv_pos_site_id
 _symmetry_equiv_pos_as_xyz
  1  'x, y, z'
loop_
 _atom_site_type_symbol
 _atom_site_label
 _atom_site_symmetry_multiplicity
 _atom_site_fract_x
 _atom_site_fract_y
 _atom_site_fract_z
 _atom_site_occupancy
  Cs  Cs0  1  0.186278  0.750000  0.750000  1
  Cs  Cs1  1  0.813722  0.250000  0.250000  1
  In  In2  1  0.748038  0.684506  0.491262  1
  In  In3  1  0.251962  0.315494  0.508738  1
  In  In4  1  0.748038  0.815494  0.008738  1
  In  In5  1  0.251962  0.184506  0.991262  1
  In  In6  1  0.326389  0.750000  0.250000  1
  In  In7  1  0.673611  0.250000  0.750000  1
  Cl  Cl8  1  0.505075  0.817369  0.520542  1
  Cl  Cl9  1  0.494925  0.182631  0.479458  1
  Cl  Cl10  1  0.997763  0.812126  0.448285  1
  Cl  Cl11  1  0.997763  0.687874  0.051715  1
  Cl  Cl12  1  0.002237  0.187874  0.551715  1
  Cl  Cl13  1  0.002237  0.312126  0.948285  1
  Cl  Cl14  1  0.505075  0.682631  0.979458  1
  Cl  Cl15  1  0.494925  0.317369  0.020542  1
  Cl  Cl16  1  0.820640  0.548022  0.673707  1
  Cl  Cl17  1  0.179360  0.451978  0.326293  1
  Cl  Cl18  1  0.659886  0.564394  0.323046  1
  Cl  Cl19  1  0.659886  0.935606  0.176954  1
  Cl  Cl20  1  0.340114  0.435606  0.676954  1
  Cl  Cl21  1  0.340114  0.064394  0.823046  1
  Cl  Cl22  1  0.820640  0.951978  0.826293  1
  Cl  Cl23  1  0.179360  0.048022  0.173707  1
