# generated using pymatgen
data_Co2Re4OsRu
_symmetry_space_group_name_H-M   'P 1'
_cell_length_a   5.39064200
_cell_length_b   5.40929274
_cell_length_c   4.31830800
_cell_angle_alpha   90.00000000
_cell_angle_beta   90.00000000
_cell_angle_gamma   119.88602174
_symmetry_Int_Tables_number   1
_chemical_formula_structural   Co2Re4OsRu
_chemical_formula_sum   'Co2 Re4 Os1 Ru1'
_cell_volume   109.17491785
_cell_formula_units_Z   1
loop_
 _symmetry_equiv_pos_site_id
 _symmetry_equiv_pos_as_xyz
  1  'x, y, z'
loop_
 _atom_site_type_symbol
 _atom_site_label
 _atom_site_symmetry_multiplicity
 _atom_site_fract_x
 _atom_site_fract_y
 _atom_site_fract_z
 _atom_site_occupancy
  Co  Co0  1  0.333333  0.666665  0.750000  1
  Co  Co1  1  0.664671  0.329342  0.250000  1
  Re  Re2  1  0.662168  0.831295  0.250000  1
  Re  Re3  1  0.169125  0.831295  0.250000  1
  Re  Re4  1  0.337146  0.170217  0.750000  1
  Re  Re5  1  0.833072  0.170217  0.750000  1
  Os  Os6  1  0.831945  0.663890  0.750000  1
  Ru  Ru7  1  0.168539  0.337079  0.250000  1
