# generated using pymatgen
data_Pr5YIn4(GaO4)6
_symmetry_space_group_name_H-M   'P 1'
_cell_length_a   11.23661288
_cell_length_b   11.23661283
_cell_length_c   11.22360409
_cell_angle_alpha   109.38347015
_cell_angle_beta   109.38346899
_cell_angle_gamma   109.69362227
_symmetry_Int_Tables_number   1
_chemical_formula_structural   Pr5YIn4(GaO4)6
_chemical_formula_sum   'Pr10 Y2 In8 Ga12 O48'
_cell_volume   1090.25095287
_cell_formula_units_Z   2
loop_
 _symmetry_equiv_pos_site_id
 _symmetry_equiv_pos_as_xyz
  1  'x, y, z'
loop_
 _atom_site_type_symbol
 _atom_site_label
 _atom_site_symmetry_multiplicity
 _atom_site_fract_x
 _atom_site_fract_y
 _atom_site_fract_z
 _atom_site_occupancy
  Pr  Pr0  1  0.249880  0.375496  0.124052  1
  Pr  Pr1  1  0.750120  0.624504  0.875948  1
  Pr  Pr2  1  0.751444  0.125828  0.375948  1
  Pr  Pr3  1  0.124504  0.250120  0.375948  1
  Pr  Pr4  1  0.374172  0.748556  0.124052  1
  Pr  Pr5  1  0.248556  0.874172  0.624052  1
  Pr  Pr6  1  0.875496  0.749880  0.624052  1
  Pr  Pr7  1  0.625828  0.251444  0.875948  1
  Pr  Pr8  1  0.375000  0.125000  0.250000  1
  Pr  Pr9  1  0.625000  0.875000  0.750000  1
  Y  Y10  1  0.125000  0.375000  0.750000  1
  Y  Y11  1  0.875000  0.625000  0.250000  1
  In  In12  1  0.000000  0.000000  0.000000  1
  In  In13  1  0.500000  0.000000  0.500000  1
  In  In14  1  0.000000  0.500000  0.500000  1
  In  In15  1  0.500000  0.000000  0.000000  1
  In  In16  1  0.500000  0.500000  0.000000  1
  In  In17  1  0.500000  0.500000  0.500000  1
  In  In18  1  0.000000  0.000000  0.500000  1
  In  In19  1  0.000000  0.500000  0.000000  1
  Ga  Ga20  1  0.247927  0.624587  0.373942  1
  Ga  Ga21  1  0.752073  0.375413  0.626058  1
  Ga  Ga22  1  0.750645  0.873985  0.126058  1
  Ga  Ga23  1  0.373985  0.250645  0.626058  1
  Ga  Ga24  1  0.626015  0.749355  0.373942  1
  Ga  Ga25  1  0.249355  0.126015  0.873942  1
  Ga  Ga26  1  0.124587  0.747927  0.873942  1
  Ga  Ga27  1  0.875413  0.252073  0.126058  1
  Ga  Ga28  1  0.627231  0.377231  0.250000  1
  Ga  Ga29  1  0.372769  0.622769  0.750000  1
  Ga  Ga30  1  0.877231  0.127231  0.750000  1
  Ga  Ga31  1  0.122769  0.872769  0.250000  1
  O  O32  1  0.474490  0.375554  0.286534  1
  O  O33  1  0.525510  0.624446  0.713466  1
  O  O34  1  0.589021  0.187956  0.213466  1
  O  O35  1  0.919849  0.132763  0.602385  1
  O  O36  1  0.285848  0.473571  0.375374  1
  O  O37  1  0.312044  0.910979  0.286534  1
  O  O38  1  0.410979  0.812044  0.786534  1
  O  O39  1  0.080151  0.867237  0.397615  1
  O  O40  1  0.714152  0.526429  0.624626  1
  O  O41  1  0.687956  0.089021  0.713466  1
  O  O42  1  0.030378  0.317464  0.897615  1
  O  O43  1  0.213327  0.587855  0.186074  1
  O  O44  1  0.124446  0.025510  0.213466  1
  O  O45  1  0.969622  0.682536  0.102385  1
  O  O46  1  0.786673  0.412145  0.813926  1
  O  O47  1  0.875554  0.974490  0.786534  1
  O  O48  1  0.598197  0.910475  0.124626  1
  O  O49  1  0.182536  0.469622  0.602385  1
  O  O50  1  0.401803  0.089525  0.875374  1
  O  O51  1  0.817464  0.530378  0.397615  1
  O  O52  1  0.901782  0.027253  0.313926  1
  O  O53  1  0.367237  0.580151  0.897615  1
  O  O54  1  0.098218  0.972747  0.686074  1
  O  O55  1  0.632763  0.419849  0.102385  1
  O  O56  1  0.373944  0.286408  0.473195  1
  O  O57  1  0.589525  0.901803  0.375374  1
  O  O58  1  0.626056  0.713592  0.526805  1
  O  O59  1  0.410475  0.098197  0.624626  1
  O  O60  1  0.124704  0.595083  0.908694  1
  O  O61  1  0.026429  0.214152  0.124626  1
  O  O62  1  0.875296  0.404917  0.091306  1
  O  O63  1  0.973571  0.785848  0.875374  1
  O  O64  1  0.313213  0.900749  0.026805  1
  O  O65  1  0.912145  0.286673  0.313926  1
  O  O66  1  0.686787  0.099251  0.973195  1
  O  O67  1  0.087855  0.713327  0.686074  1
  O  O68  1  0.186390  0.216011  0.591306  1
  O  O69  1  0.472747  0.598218  0.186074  1
  O  O70  1  0.813610  0.783989  0.408694  1
  O  O71  1  0.527253  0.401782  0.813926  1
  O  O72  1  0.283989  0.313610  0.908694  1
  O  O73  1  0.716011  0.686390  0.091306  1
  O  O74  1  0.213592  0.126056  0.026805  1
  O  O75  1  0.786408  0.873944  0.973195  1
  O  O76  1  0.904917  0.375296  0.591306  1
  O  O77  1  0.095083  0.624704  0.408694  1
  O  O78  1  0.599251  0.186787  0.473195  1
  O  O79  1  0.400749  0.813213  0.526805  1
