# generated using pymatgen
data_TbY3Al18(CoNi2)2
_symmetry_space_group_name_H-M   'P 1'
_cell_length_a   7.42587114
_cell_length_b   7.42484029
_cell_length_c   9.27121800
_cell_angle_alpha   90.00000000
_cell_angle_beta   90.00000000
_cell_angle_gamma   119.36793991
_symmetry_Int_Tables_number   1
_chemical_formula_structural   TbY3Al18(CoNi2)2
_chemical_formula_sum   'Tb1 Y3 Al18 Co2 Ni4'
_cell_volume   445.48481977
_cell_formula_units_Z   1
loop_
 _symmetry_equiv_pos_site_id
 _symmetry_equiv_pos_as_xyz
  1  'x, y, z'
loop_
 _atom_site_type_symbol
 _atom_site_label
 _atom_site_symmetry_multiplicity
 _atom_site_fract_x
 _atom_site_fract_y
 _atom_site_fract_z
 _atom_site_occupancy
  Tb  Tb0  1  0.992675  0.667948  0.250000  1
  Y  Y1  1  0.007480  0.331925  0.750000  1
  Y  Y2  1  0.668184  0.993061  0.250000  1
  Y  Y3  1  0.331842  0.007211  0.750000  1
  Al  Al4  1  0.122701  0.123029  0.250000  1
  Al  Al5  1  0.877658  0.877535  0.750000  1
  Al  Al6  1  0.330151  0.330064  0.546481  1
  Al  Al7  1  0.669345  0.669902  0.047190  1
  Al  Al8  1  0.330151  0.330064  0.953519  1
  Al  Al9  1  0.669345  0.669902  0.452810  1
  Al  Al10  1  0.339595  0.551514  0.250000  1
  Al  Al11  1  0.660355  0.448363  0.750000  1
  Al  Al12  1  0.550816  0.339397  0.250000  1
  Al  Al13  1  0.448675  0.660173  0.750000  1
  Al  Al14  1  0.997278  0.331040  0.071530  1
  Al  Al15  1  0.002438  0.668548  0.571710  1
  Al  Al16  1  0.331917  0.997690  0.428459  1
  Al  Al17  1  0.668657  0.002569  0.928470  1
  Al  Al18  1  0.002438  0.668548  0.928290  1
  Al  Al19  1  0.997278  0.331040  0.428470  1
  Al  Al20  1  0.668657  0.002569  0.571530  1
  Al  Al21  1  0.331917  0.997690  0.071541  1
  Co  Co22  1  0.999925  0.000135  0.000074  1
  Co  Co23  1  0.999925  0.000135  0.499926  1
  Ni  Ni24  1  0.670574  0.328948  0.999888  1
  Ni  Ni25  1  0.329725  0.671023  0.500130  1
  Ni  Ni26  1  0.329725  0.671023  0.999870  1
  Ni  Ni27  1  0.670574  0.328948  0.500112  1
