# generated using pymatgen
data_Ca9Pr8Sm3Sn16
_symmetry_space_group_name_H-M   'P 1'
_cell_length_a   8.01868719
_cell_length_b   8.53518728
_cell_length_c   16.09924774
_cell_angle_alpha   90.02636675
_cell_angle_beta   89.93879564
_cell_angle_gamma   89.98684173
_symmetry_Int_Tables_number   1
_chemical_formula_structural   Ca9Pr8Sm3Sn16
_chemical_formula_sum   'Ca9 Pr8 Sm3 Sn16'
_cell_volume   1101.84779031
_cell_formula_units_Z   1
loop_
 _symmetry_equiv_pos_site_id
 _symmetry_equiv_pos_as_xyz
  1  'x, y, z'
loop_
 _atom_site_type_symbol
 _atom_site_label
 _atom_site_symmetry_multiplicity
 _atom_site_fract_x
 _atom_site_fract_y
 _atom_site_fract_z
 _atom_site_occupancy
  Ca  Ca0  1  0.165182  0.326325  0.123422  1
  Ca  Ca1  1  0.665961  0.174258  0.123545  1
  Ca  Ca2  1  0.165999  0.325568  0.376731  1
  Ca  Ca3  1  0.333899  0.826052  0.623262  1
  Ca  Ca4  1  0.834370  0.673925  0.876958  1
  Ca  Ca5  1  0.163751  0.500255  0.749934  1
  Ca  Ca6  1  0.663734  0.999749  0.750178  1
  Ca  Ca7  1  0.836968  0.499288  0.249494  1
  Ca  Ca8  1  0.335727  0.001023  0.249595  1
  Pr  Pr9  1  0.494127  0.315060  0.903926  1
  Pr  Pr10  1  0.994427  0.184898  0.595846  1
  Pr  Pr11  1  0.504606  0.684799  0.403953  1
  Pr  Pr12  1  0.005908  0.814067  0.095860  1
  Pr  Pr13  1  0.506347  0.684695  0.096146  1
  Pr  Pr14  1  0.007376  0.815293  0.404362  1
  Pr  Pr15  1  0.493633  0.315516  0.595859  1
  Pr  Pr16  1  0.994045  0.185452  0.904482  1
  Sm  Sm17  1  0.334053  0.825649  0.875599  1
  Sm  Sm18  1  0.834477  0.674600  0.624135  1
  Sm  Sm19  1  0.664625  0.175255  0.375368  1
  Sn  Sn20  1  0.328556  0.033248  0.037542  1
  Sn  Sn21  1  0.826170  0.464574  0.462089  1
  Sn  Sn22  1  0.673883  0.964468  0.537650  1
  Sn  Sn23  1  0.172443  0.535489  0.961491  1
  Sn  Sn24  1  0.670168  0.965777  0.961217  1
  Sn  Sn25  1  0.170891  0.534534  0.538923  1
  Sn  Sn26  1  0.329359  0.034539  0.461280  1
  Sn  Sn27  1  0.828497  0.466107  0.038363  1
  Sn  Sn28  1  0.535889  0.603323  0.750067  1
  Sn  Sn29  1  0.036091  0.896063  0.750263  1
  Sn  Sn30  1  0.464589  0.396796  0.250915  1
  Sn  Sn31  1  0.962838  0.101751  0.250937  1
  Sn  Sn32  1  0.291302  0.141492  0.750584  1
  Sn  Sn33  1  0.791487  0.358619  0.749021  1
  Sn  Sn34  1  0.708831  0.859134  0.250915  1
  Sn  Sn35  1  0.209790  0.642358  0.250085  1
