# generated using pymatgen
data_DyHo3(Al5Pt3)4
_symmetry_space_group_name_H-M   'P 1'
_cell_length_a   4.07439600
_cell_length_b   7.41495500
_cell_length_c   20.58806901
_cell_angle_alpha   90.00268095
_cell_angle_beta   89.99991886
_cell_angle_gamma   89.99941106
_symmetry_Int_Tables_number   1
_chemical_formula_structural   DyHo3(Al5Pt3)4
_chemical_formula_sum   'Dy1 Ho3 Al20 Pt12'
_cell_volume   621.99568432
_cell_formula_units_Z   1
loop_
 _symmetry_equiv_pos_site_id
 _symmetry_equiv_pos_as_xyz
  1  'x, y, z'
loop_
 _atom_site_type_symbol
 _atom_site_label
 _atom_site_symmetry_multiplicity
 _atom_site_fract_x
 _atom_site_fract_y
 _atom_site_fract_z
 _atom_site_occupancy
  Dy  Dy0  1  0.249968  0.116104  0.639736  1
  Ho  Ho1  1  0.750036  0.884081  0.360338  1
  Ho  Ho2  1  0.250040  0.384082  0.139647  1
  Ho  Ho3  1  0.749959  0.615939  0.860256  1
  Al  Al4  1  0.749999  0.354754  0.381865  1
  Al  Al5  1  0.750002  0.883561  0.984000  1
  Al  Al6  1  0.750008  0.685192  0.200309  1
  Al  Al7  1  0.250003  0.869517  0.491097  1
  Al  Al8  1  0.249993  0.630386  0.991129  1
  Al  Al9  1  0.249994  0.314863  0.799705  1
  Al  Al10  1  0.750005  0.073541  0.209179  1
  Al  Al11  1  0.250000  0.645140  0.618118  1
  Al  Al12  1  0.250008  0.573557  0.290787  1
  Al  Al13  1  0.250009  0.185210  0.299695  1
  Al  Al14  1  0.750003  0.145299  0.881994  1
  Al  Al15  1  0.249992  0.926262  0.790883  1
  Al  Al16  1  0.750004  0.369626  0.008874  1
  Al  Al17  1  0.750002  0.616432  0.483854  1
  Al  Al18  1  0.749996  0.130370  0.508874  1
  Al  Al19  1  0.249999  0.116448  0.016000  1
  Al  Al20  1  0.249996  0.854757  0.118111  1
  Al  Al21  1  0.250002  0.383814  0.515939  1
  Al  Al22  1  0.749993  0.426331  0.709194  1
  Al  Al23  1  0.749995  0.814696  0.700369  1
  Pt  Pt24  1  0.750005  0.381649  0.258831  1
  Pt  Pt25  1  0.250000  0.881698  0.241140  1
  Pt  Pt26  1  0.249995  0.618276  0.741122  1
  Pt  Pt27  1  0.749993  0.118243  0.759112  1
  Pt  Pt28  1  0.249994  0.159249  0.425832  1
  Pt  Pt29  1  0.750003  0.418142  0.585745  1
  Pt  Pt30  1  0.749998  0.082450  0.085829  1
  Pt  Pt31  1  0.250005  0.917454  0.914217  1
  Pt  Pt32  1  0.750001  0.840312  0.574106  1
  Pt  Pt33  1  0.250009  0.340770  0.925834  1
  Pt  Pt34  1  0.749992  0.659294  0.074171  1
  Pt  Pt35  1  0.249999  0.582504  0.414107  1
