# generated using pymatgen
data_Tb3Er3ScCo17P12
_symmetry_space_group_name_H-M   'P 1'
_cell_length_a   3.71186300
_cell_length_b   10.59306501
_cell_length_c   12.27889301
_cell_angle_alpha   89.99571262
_cell_angle_beta   90.00000000
_cell_angle_gamma   90.00000000
_symmetry_Int_Tables_number   1
_chemical_formula_structural   Tb3Er3ScCo17P12
_chemical_formula_sum   'Tb3 Er3 Sc1 Co17 P12'
_cell_volume   482.80614613
_cell_formula_units_Z   1
loop_
 _symmetry_equiv_pos_site_id
 _symmetry_equiv_pos_as_xyz
  1  'x, y, z'
loop_
 _atom_site_type_symbol
 _atom_site_label
 _atom_site_symmetry_multiplicity
 _atom_site_fract_x
 _atom_site_fract_y
 _atom_site_fract_z
 _atom_site_occupancy
  Tb  Tb0  1  0.000000  0.500163  0.528108  1
  Tb  Tb1  1  0.500000  0.999736  0.477724  1
  Tb  Tb2  1  0.500000  0.178455  0.207311  1
  Er  Er3  1  0.500000  0.821377  0.207257  1
  Er  Er4  1  0.000000  0.682085  0.795594  1
  Er  Er5  1  0.000000  0.317893  0.796151  1
  Sc  Sc6  1  0.500000  0.500353  0.152254  1
  Co  Co7  1  0.000000  0.999870  0.837173  1
  Co  Co8  1  0.500000  0.500262  0.704716  1
  Co  Co9  1  0.000000  0.998862  0.294963  1
  Co  Co10  1  0.000000  0.500565  0.984154  1
  Co  Co11  1  0.500000  0.999403  0.012090  1
  Co  Co12  1  0.500000  0.327094  0.989004  1
  Co  Co13  1  0.500000  0.673480  0.989616  1
  Co  Co14  1  0.000000  0.161986  0.000813  1
  Co  Co15  1  0.000000  0.837336  0.000898  1
  Co  Co16  1  0.500000  0.294540  0.435055  1
  Co  Co17  1  0.500000  0.705314  0.434091  1
  Co  Co18  1  0.000000  0.202118  0.571652  1
  Co  Co19  1  0.000000  0.797718  0.570925  1
  Co  Co20  1  0.500000  0.880032  0.708234  1
  Co  Co21  1  0.500000  0.119906  0.708606  1
  Co  Co22  1  0.000000  0.623388  0.295527  1
  Co  Co23  1  0.000000  0.378158  0.297277  1
  P  P24  1  0.500000  0.500375  0.882912  1
  P  P25  1  0.000000  0.999018  0.115246  1
  P  P26  1  0.500000  0.499926  0.357679  1
  P  P27  1  0.000000  0.999970  0.655399  1
  P  P28  1  0.500000  0.309023  0.619256  1
  P  P29  1  0.500000  0.691176  0.618605  1
  P  P30  1  0.000000  0.189255  0.386968  1
  P  P31  1  0.000000  0.810628  0.385659  1
  P  P32  1  0.500000  0.850740  0.888207  1
  P  P33  1  0.500000  0.148913  0.888619  1
  P  P34  1  0.000000  0.664037  0.101823  1
  P  P35  1  0.000000  0.336842  0.100436  1
