# generated using pymatgen
data_Dy(HoPt2)9
_symmetry_space_group_name_H-M   'P 1'
_cell_length_a   9.75810310
_cell_length_b   9.75380210
_cell_length_c   5.76794700
_cell_angle_alpha   90.00000000
_cell_angle_beta   90.00000000
_cell_angle_gamma   90.01658508
_symmetry_Int_Tables_number   1
_chemical_formula_structural   Dy(HoPt2)9
_chemical_formula_sum   'Dy1 Ho9 Pt18'
_cell_volume   548.98513512
_cell_formula_units_Z   1
loop_
 _symmetry_equiv_pos_site_id
 _symmetry_equiv_pos_as_xyz
  1  'x, y, z'
loop_
 _atom_site_type_symbol
 _atom_site_label
 _atom_site_symmetry_multiplicity
 _atom_site_fract_x
 _atom_site_fract_y
 _atom_site_fract_z
 _atom_site_occupancy
  Dy  Dy0  1  0.452331  0.809376  0.000000  1
  Ho  Ho1  1  0.547699  0.190638  0.000000  1
  Ho  Ho2  1  0.190509  0.547629  0.000000  1
  Ho  Ho3  1  0.809433  0.452307  0.000000  1
  Ho  Ho4  1  0.499997  0.499965  0.500000  1
  Ho  Ho5  1  0.309383  0.047731  0.500000  1
  Ho  Ho6  1  0.690643  0.952357  0.500000  1
  Ho  Ho7  1  0.952329  0.690583  0.500000  1
  Ho  Ho8  1  0.047669  0.309412  0.500000  1
  Ho  Ho9  1  0.999993  0.000008  0.000000  1
  Pt  Pt10  1  0.191237  0.808490  0.250974  1
  Pt  Pt11  1  0.808497  0.191519  0.749213  1
  Pt  Pt12  1  0.808497  0.191519  0.250787  1
  Pt  Pt13  1  0.191237  0.808490  0.749026  1
  Pt  Pt14  1  0.440255  0.781502  0.500000  1
  Pt  Pt15  1  0.559725  0.218462  0.500000  1
  Pt  Pt16  1  0.218487  0.559708  0.500000  1
  Pt  Pt17  1  0.781531  0.440265  0.500000  1
  Pt  Pt18  1  0.308490  0.308516  0.249220  1
  Pt  Pt19  1  0.691738  0.691426  0.750615  1
  Pt  Pt20  1  0.691738  0.691426  0.249385  1
  Pt  Pt21  1  0.308490  0.308516  0.750780  1
  Pt  Pt22  1  0.281367  0.059943  0.000000  1
  Pt  Pt23  1  0.718731  0.940348  0.000000  1
  Pt  Pt24  1  0.940268  0.718458  0.000000  1
  Pt  Pt25  1  0.059720  0.281551  0.000000  1
  Pt  Pt26  1  0.999977  0.000026  0.500000  1
  Pt  Pt27  1  0.500031  0.499828  0.000000  1
