# generated using pymatgen
data_Ca6Re2SeN6
_symmetry_space_group_name_H-M   'P 1'
_cell_length_a   6.26955180
_cell_length_b   6.26955259
_cell_length_c   6.26955263
_cell_angle_alpha   95.28221915
_cell_angle_beta   95.28222009
_cell_angle_gamma   95.28221893
_symmetry_Int_Tables_number   1
_chemical_formula_structural   Ca6Re2SeN6
_chemical_formula_sum   'Ca6 Re2 Se1 N6'
_cell_volume   243.09108273
_cell_formula_units_Z   1
loop_
 _symmetry_equiv_pos_site_id
 _symmetry_equiv_pos_as_xyz
  1  'x, y, z'
loop_
 _atom_site_type_symbol
 _atom_site_label
 _atom_site_symmetry_multiplicity
 _atom_site_fract_x
 _atom_site_fract_y
 _atom_site_fract_z
 _atom_site_occupancy
  Ca  Ca0  1  0.615519  0.117546  0.790814  1
  Ca  Ca1  1  0.117546  0.790814  0.615519  1
  Ca  Ca2  1  0.790814  0.615519  0.117546  1
  Ca  Ca3  1  0.384481  0.882454  0.209186  1
  Ca  Ca4  1  0.882454  0.209186  0.384481  1
  Ca  Ca5  1  0.209186  0.384481  0.882454  1
  Re  Re6  1  0.622579  0.622579  0.622579  1
  Re  Re7  1  0.377421  0.377421  0.377421  1
  Se  Se8  1  0.000000  0.000000  0.000000  1
  N  N9  1  0.723614  0.853089  0.467618  1
  N  N10  1  0.853089  0.467618  0.723614  1
  N  N11  1  0.467618  0.723614  0.853089  1
  N  N12  1  0.276386  0.146911  0.532382  1
  N  N13  1  0.146911  0.532382  0.276386  1
  N  N14  1  0.532382  0.276386  0.146911  1
