# generated using pymatgen
data_Tb5GaSb2
_symmetry_space_group_name_H-M   'P 1'
_cell_length_a   8.90803740
_cell_length_b   8.90341289
_cell_length_c   6.45418500
_cell_angle_alpha   90.00000000
_cell_angle_beta   90.00000000
_cell_angle_gamma   119.98282347
_symmetry_Int_Tables_number   1
_chemical_formula_structural   Tb5GaSb2
_chemical_formula_sum   'Tb10 Ga2 Sb4'
_cell_volume   443.38983221
_cell_formula_units_Z   2
loop_
 _symmetry_equiv_pos_site_id
 _symmetry_equiv_pos_as_xyz
  1  'x, y, z'
loop_
 _atom_site_type_symbol
 _atom_site_label
 _atom_site_symmetry_multiplicity
 _atom_site_fract_x
 _atom_site_fract_y
 _atom_site_fract_z
 _atom_site_occupancy
  Tb  Tb0  1  0.010123  0.765543  0.750000  1
  Tb  Tb1  1  0.010123  0.244579  0.250000  1
  Tb  Tb2  1  0.752270  0.752847  0.250000  1
  Tb  Tb3  1  0.752270  0.999423  0.750000  1
  Tb  Tb4  1  0.244100  0.233206  0.750000  1
  Tb  Tb5  1  0.244100  0.010895  0.250000  1
  Tb  Tb6  1  0.336627  0.668314  0.500000  1
  Tb  Tb7  1  0.653914  0.326956  0.000000  1
  Tb  Tb8  1  0.653914  0.326956  0.500000  1
  Tb  Tb9  1  0.336627  0.668314  0.000000  1
  Ga  Ga10  1  0.394688  0.997844  0.750000  1
  Ga  Ga11  1  0.394688  0.396844  0.250000  1
  Sb  Sb12  1  0.999278  0.607639  0.250000  1
  Sb  Sb13  1  0.999278  0.391638  0.750000  1
  Sb  Sb14  1  0.609001  0.607710  0.750000  1
  Sb  Sb15  1  0.609001  0.001291  0.250000  1
