# generated using pymatgen
data_TbEr3Co4HgI
_symmetry_space_group_name_H-M   'P 1'
_cell_length_a   3.92764400
_cell_length_b   3.92764345
_cell_length_c   16.71876300
_cell_angle_alpha   90.00000000
_cell_angle_beta   90.00000000
_cell_angle_gamma   119.99997095
_symmetry_Int_Tables_number   1
_chemical_formula_structural   TbEr3Co4HgI
_chemical_formula_sum   'Tb1 Er3 Co4 Hg1 I1'
_cell_volume   223.35674533
_cell_formula_units_Z   1
loop_
 _symmetry_equiv_pos_site_id
 _symmetry_equiv_pos_as_xyz
  1  'x, y, z'
loop_
 _atom_site_type_symbol
 _atom_site_label
 _atom_site_symmetry_multiplicity
 _atom_site_fract_x
 _atom_site_fract_y
 _atom_site_fract_z
 _atom_site_occupancy
  Tb  Tb0  1  0.000000  0.000000  0.901048  1
  Er  Er1  1  0.000000  0.000000  0.115862  1
  Er  Er2  1  0.000000  0.000000  0.597085  1
  Er  Er3  1  0.000000  0.000000  0.384753  1
  Co  Co4  1  0.666667  0.333333  0.006881  1
  Co  Co5  1  0.333333  0.666667  0.007550  1
  Co  Co6  1  0.666667  0.333333  0.494609  1
  Co  Co7  1  0.333333  0.666667  0.493528  1
  Hg  Hg8  1  0.666667  0.333333  0.249585  1
  I  I9  1  0.333333  0.666667  0.749100  1
