# generated using pymatgen
data_Ac2Ni5C3
_symmetry_space_group_name_H-M   'P 1'
_cell_length_a   8.39355000
_cell_length_b   8.39355000
_cell_length_c   4.17264500
_cell_angle_alpha   90.00000000
_cell_angle_beta   90.00000000
_cell_angle_gamma   90.00000000
_symmetry_Int_Tables_number   1
_chemical_formula_structural   Ac2Ni5C3
_chemical_formula_sum   'Ac4 Ni10 C6'
_cell_volume   293.96985698
_cell_formula_units_Z   2
loop_
 _symmetry_equiv_pos_site_id
 _symmetry_equiv_pos_as_xyz
  1  'x, y, z'
loop_
 _atom_site_type_symbol
 _atom_site_label
 _atom_site_symmetry_multiplicity
 _atom_site_fract_x
 _atom_site_fract_y
 _atom_site_fract_z
 _atom_site_occupancy
  Ac  Ac0  1  0.334509  0.165491  0.000000  1
  Ac  Ac1  1  0.665491  0.834509  0.000000  1
  Ac  Ac2  1  0.165491  0.665491  0.000000  1
  Ac  Ac3  1  0.834509  0.334509  0.000000  1
  Ni  Ni4  1  0.926984  0.786906  0.500000  1
  Ni  Ni5  1  0.713094  0.573016  0.500000  1
  Ni  Ni6  1  0.426984  0.713094  0.500000  1
  Ni  Ni7  1  0.286906  0.426984  0.500000  1
  Ni  Ni8  1  0.573016  0.286906  0.500000  1
  Ni  Ni9  1  0.786906  0.073016  0.500000  1
  Ni  Ni10  1  0.073016  0.213094  0.500000  1
  Ni  Ni11  1  0.213094  0.926984  0.500000  1
  Ni  Ni12  1  0.500000  0.500000  0.000000  1
  Ni  Ni13  1  0.000000  0.000000  0.000000  1
  C  C14  1  0.442551  0.942551  0.500000  1
  C  C15  1  0.057449  0.442551  0.500000  1
  C  C16  1  0.942551  0.557449  0.500000  1
  C  C17  1  0.500000  0.500000  0.500000  1
  C  C18  1  0.557449  0.057449  0.500000  1
  C  C19  1  0.000000  0.000000  0.500000  1
