# generated using pymatgen
data_Tb8Zr12Si15Ru
_symmetry_space_group_name_H-M   'P 1'
_cell_length_a   7.34779534
_cell_length_b   7.36832575
_cell_length_c   13.56042509
_cell_angle_alpha   89.87797581
_cell_angle_beta   89.76750308
_cell_angle_gamma   90.09921895
_symmetry_Int_Tables_number   1
_chemical_formula_structural   Tb8Zr12Si15Ru
_chemical_formula_sum   'Tb8 Zr12 Si15 Ru1'
_cell_volume   734.16546967
_cell_formula_units_Z   1
loop_
 _symmetry_equiv_pos_site_id
 _symmetry_equiv_pos_as_xyz
  1  'x, y, z'
loop_
 _atom_site_type_symbol
 _atom_site_label
 _atom_site_symmetry_multiplicity
 _atom_site_fract_x
 _atom_site_fract_y
 _atom_site_fract_z
 _atom_site_occupancy
  Tb  Tb0  1  0.998664  0.349426  0.213568  1
  Tb  Tb1  1  0.005035  0.652906  0.713288  1
  Tb  Tb2  1  0.157438  0.496313  0.461743  1
  Tb  Tb3  1  0.504107  0.845266  0.034981  1
  Tb  Tb4  1  0.846365  0.502853  0.964147  1
  Tb  Tb5  1  0.497093  0.155648  0.537240  1
  Tb  Tb6  1  0.346010  0.996908  0.786387  1
  Tb  Tb7  1  0.653055  0.003640  0.285105  1
  Zr  Zr8  1  0.176423  0.176467  0.998712  1
  Zr  Zr9  1  0.826198  0.824645  0.500131  1
  Zr  Zr10  1  0.324519  0.675335  0.251648  1
  Zr  Zr11  1  0.675625  0.324974  0.750161  1
  Zr  Zr12  1  0.153867  0.004152  0.372787  1
  Zr  Zr13  1  0.852668  0.003411  0.875241  1
  Zr  Zr14  1  0.503118  0.648511  0.625996  1
  Zr  Zr15  1  0.353440  0.496340  0.873413  1
  Zr  Zr16  1  0.492501  0.347901  0.129211  1
  Zr  Zr17  1  0.639708  0.498437  0.377265  1
  Zr  Zr18  1  0.996944  0.147514  0.625643  1
  Zr  Zr19  1  0.999154  0.849650  0.123951  1
  Si  Si20  1  0.641090  0.706296  0.817579  1
  Si  Si21  1  0.206648  0.860983  0.566159  1
  Si  Si22  1  0.139336  0.794139  0.933337  1
  Si  Si23  1  0.794861  0.139213  0.065775  1
  Si  Si24  1  0.860446  0.202576  0.435366  1
  Si  Si25  1  0.294539  0.359941  0.684399  1
  Si  Si26  1  0.702637  0.640820  0.183873  1
  Si  Si27  1  0.290495  0.046315  0.182540  1
  Si  Si28  1  0.705556  0.948141  0.687073  1
  Si  Si29  1  0.449928  0.797688  0.439486  1
  Si  Si30  1  0.206243  0.552757  0.060717  1
  Si  Si31  1  0.550880  0.204744  0.937031  1
  Si  Si32  1  0.795859  0.449389  0.564170  1
  Si  Si33  1  0.051202  0.295116  0.813121  1
  Si  Si34  1  0.945035  0.709159  0.312871  1
  Ru  Ru35  1  0.363313  0.292425  0.315885  1
