# generated using pymatgen
data_Hf5Zr(GaPt)6
_symmetry_space_group_name_H-M   'P 1'
_cell_length_a   7.16084165
_cell_length_b   7.17392183
_cell_length_c   7.11758303
_cell_angle_alpha   90.00901071
_cell_angle_beta   89.99201505
_cell_angle_gamma   120.24598839
_symmetry_Int_Tables_number   1
_chemical_formula_structural   Hf5Zr(GaPt)6
_chemical_formula_sum   'Hf5 Zr1 Ga6 Pt6'
_cell_volume   315.86537964
_cell_formula_units_Z   1
loop_
 _symmetry_equiv_pos_site_id
 _symmetry_equiv_pos_as_xyz
  1  'x, y, z'
loop_
 _atom_site_type_symbol
 _atom_site_label
 _atom_site_symmetry_multiplicity
 _atom_site_fract_x
 _atom_site_fract_y
 _atom_site_fract_z
 _atom_site_occupancy
  Hf  Hf0  1  0.591923  0.976266  0.750102  1
  Hf  Hf1  1  0.386420  0.409395  0.749986  1
  Hf  Hf2  1  0.024571  0.615358  0.749925  1
  Hf  Hf3  1  0.975348  0.590002  0.249969  1
  Hf  Hf4  1  0.614389  0.024145  0.249962  1
  Zr  Zr5  1  0.409826  0.384607  0.250093  1
  Ga  Ga6  1  0.267444  0.000631  0.999970  1
  Ga  Ga7  1  0.267489  0.000612  0.500039  1
  Ga  Ga8  1  0.000007  0.267224  0.499621  1
  Ga  Ga9  1  0.000091  0.267261  0.000343  1
  Ga  Ga10  1  0.731696  0.731602  0.999237  1
  Ga  Ga11  1  0.731714  0.731668  0.500777  1
  Pt  Pt12  1  0.668502  0.333409  0.536352  1
  Pt  Pt13  1  0.000106  0.999879  0.749983  1
  Pt  Pt14  1  0.668423  0.333344  0.963672  1
  Pt  Pt15  1  0.332675  0.669199  0.031877  1
  Pt  Pt16  1  0.332729  0.669259  0.468100  1
  Pt  Pt17  1  0.996644  0.996137  0.249994  1
