# generated using pymatgen
data_Er3AgSn3Ir2
_symmetry_space_group_name_H-M   'P 1'
_cell_length_a   7.67034100
_cell_length_b   7.67034061
_cell_length_c   3.85082600
_cell_angle_alpha   90.00000000
_cell_angle_beta   90.00000000
_cell_angle_gamma   119.99999737
_symmetry_Int_Tables_number   1
_chemical_formula_structural   Er3AgSn3Ir2
_chemical_formula_sum   'Er3 Ag1 Sn3 Ir2'
_cell_volume   196.20671206
_cell_formula_units_Z   1
loop_
 _symmetry_equiv_pos_site_id
 _symmetry_equiv_pos_as_xyz
  1  'x, y, z'
loop_
 _atom_site_type_symbol
 _atom_site_label
 _atom_site_symmetry_multiplicity
 _atom_site_fract_x
 _atom_site_fract_y
 _atom_site_fract_z
 _atom_site_occupancy
  Er  Er0  1  0.384696  0.409932  0.500000  1
  Er  Er1  1  0.590068  0.974764  0.500000  1
  Er  Er2  1  0.025236  0.615304  0.500000  1
  Ag  Ag3  1  0.666667  0.333333  0.000000  1
  Sn  Sn4  1  0.742373  0.737763  0.000000  1
  Sn  Sn5  1  0.262237  0.004610  0.000000  1
  Sn  Sn6  1  0.995390  0.257627  0.000000  1
  Ir  Ir7  1  0.333333  0.666667  0.000000  1
  Ir  Ir8  1  0.000000  0.000000  0.500000  1
