# generated using pymatgen
data_Mn5Nb6FeSi12
_symmetry_space_group_name_H-M   'P 1'
_cell_length_a   9.54372560
_cell_length_b   9.54230623
_cell_length_c   9.54254927
_cell_angle_alpha   149.27420176
_cell_angle_beta   132.51365932
_cell_angle_gamma   57.62664628
_symmetry_Int_Tables_number   1
_chemical_formula_structural   Mn5Nb6FeSi12
_chemical_formula_sum   'Mn5 Nb6 Fe1 Si12'
_cell_volume   324.89621067
_cell_formula_units_Z   1
loop_
 _symmetry_equiv_pos_site_id
 _symmetry_equiv_pos_as_xyz
  1  'x, y, z'
loop_
 _atom_site_type_symbol
 _atom_site_label
 _atom_site_symmetry_multiplicity
 _atom_site_fract_x
 _atom_site_fract_y
 _atom_site_fract_z
 _atom_site_occupancy
  Mn  Mn0  1  0.749350  0.999985  0.749326  1
  Mn  Mn1  1  0.999745  0.000017  0.499863  1
  Mn  Mn2  1  0.499869  0.500131  0.499926  1
  Mn  Mn3  1  0.499868  0.999974  0.999746  1
  Mn  Mn4  1  0.999737  0.499886  0.999726  1
  Nb  Nb5  1  0.853665  0.593001  0.260651  1
  Nb  Nb6  1  0.147533  0.407157  0.740390  1
  Nb  Nb7  1  0.667660  0.406990  0.260652  1
  Nb  Nb8  1  0.333238  0.592858  0.740396  1
  Nb  Nb9  1  0.139984  0.140865  0.999063  1
  Nb  Nb10  1  0.858199  0.859137  0.999126  1
  Fe  Fe11  1  0.252091  0.000010  0.252105  1
  Si  Si12  1  0.480685  0.134482  0.346162  1
  Si  Si13  1  0.517161  0.865070  0.652090  1
  Si  Si14  1  0.211672  0.865528  0.346204  1
  Si  Si15  1  0.787049  0.134898  0.652069  1
  Si  Si16  1  0.699684  0.699181  0.000552  1
  Si  Si17  1  0.301350  0.300852  0.000505  1
  Si  Si18  1  0.499327  0.741249  0.240581  1
  Si  Si19  1  0.499339  0.258735  0.758075  1
  Si  Si20  1  0.001704  0.258137  0.259827  1
  Si  Si21  1  0.208633  0.709012  0.499728  1
  Si  Si22  1  0.001688  0.741854  0.743562  1
  Si  Si23  1  0.790767  0.290992  0.499673  1
