# generated using pymatgen
data_La8SnPI12
_symmetry_space_group_name_H-M   'P 1'
_cell_length_a   4.44189400
_cell_length_b   14.67241965
_cell_length_c   15.50464300
_cell_angle_alpha   89.82093599
_cell_angle_beta   90.00000000
_cell_angle_gamma   90.00000000
_symmetry_Int_Tables_number   1
_chemical_formula_structural   La8SnPI12
_chemical_formula_sum   'La8 Sn1 P1 I12'
_cell_volume   1010.48432379
_cell_formula_units_Z   1
loop_
 _symmetry_equiv_pos_site_id
 _symmetry_equiv_pos_as_xyz
  1  'x, y, z'
loop_
 _atom_site_type_symbol
 _atom_site_label
 _atom_site_symmetry_multiplicity
 _atom_site_fract_x
 _atom_site_fract_y
 _atom_site_fract_z
 _atom_site_occupancy
  La  La0  1  0.500000  0.122557  0.336343  1
  La  La1  1  0.500000  0.877443  0.663657  1
  La  La2  1  0.500000  0.612011  0.150221  1
  La  La3  1  0.500000  0.387989  0.849779  1
  La  La4  1  0.000000  0.123343  0.582706  1
  La  La5  1  0.000000  0.876657  0.417294  1
  La  La6  1  0.000000  0.607402  0.928291  1
  La  La7  1  0.000000  0.392598  0.071709  1
  Sn  Sn8  1  0.500000  0.000000  0.500000  1
  P  P9  1  0.500000  0.500000  0.000000  1
  I  I10  1  0.500000  0.247952  0.159175  1
  I  I11  1  0.500000  0.752048  0.840825  1
  I  I12  1  0.500000  0.738055  0.333565  1
  I  I13  1  0.500000  0.261945  0.666435  1
  I  I14  1  0.000000  0.261752  0.414207  1
  I  I15  1  0.000000  0.738248  0.585793  1
  I  I16  1  0.000000  0.757531  0.084609  1
  I  I17  1  0.000000  0.242469  0.915391  1
  I  I18  1  0.000000  0.998812  0.237469  1
  I  I19  1  0.000000  0.001188  0.762531  1
  I  I20  1  0.000000  0.497840  0.258048  1
  I  I21  1  0.000000  0.502160  0.741952  1
