# generated using pymatgen
data_La3YTl5
_symmetry_space_group_name_H-M   'P 1'
_cell_length_a   8.83357733
_cell_length_b   8.83357780
_cell_length_c   8.83357794
_cell_angle_alpha   66.21989204
_cell_angle_beta   66.21989467
_cell_angle_gamma   66.21986548
_symmetry_Int_Tables_number   1
_chemical_formula_structural   La3YTl5
_chemical_formula_sum   'La6 Y2 Tl10'
_cell_volume   552.88162489
_cell_formula_units_Z   2
loop_
 _symmetry_equiv_pos_site_id
 _symmetry_equiv_pos_as_xyz
  1  'x, y, z'
loop_
 _atom_site_type_symbol
 _atom_site_label
 _atom_site_symmetry_multiplicity
 _atom_site_fract_x
 _atom_site_fract_y
 _atom_site_fract_z
 _atom_site_occupancy
  La  La0  1  0.892129  0.180538  0.628640  1
  La  La1  1  0.628640  0.892129  0.180538  1
  La  La2  1  0.180538  0.628640  0.892129  1
  La  La3  1  0.107871  0.819462  0.371360  1
  La  La4  1  0.371360  0.107871  0.819462  1
  La  La5  1  0.819462  0.371360  0.107871  1
  Y  Y6  1  0.656258  0.656258  0.656258  1
  Y  Y7  1  0.343742  0.343742  0.343742  1
  Tl  Tl8  1  0.000000  0.000000  0.000000  1
  Tl  Tl9  1  0.500000  0.500000  0.500000  1
  Tl  Tl10  1  0.808986  0.808986  0.808986  1
  Tl  Tl11  1  0.191014  0.191014  0.191014  1
  Tl  Tl12  1  0.947116  0.561095  0.307310  1
  Tl  Tl13  1  0.307310  0.947116  0.561095  1
  Tl  Tl14  1  0.561095  0.307310  0.947116  1
  Tl  Tl15  1  0.052884  0.438905  0.692690  1
  Tl  Tl16  1  0.692690  0.052884  0.438905  1
  Tl  Tl17  1  0.438905  0.692690  0.052884  1
