# generated using pymatgen
data_TbLuCoB6
_symmetry_space_group_name_H-M   'P 1'
_cell_length_a   3.54508200
_cell_length_b   9.05926100
_cell_length_c   11.43204900
_cell_angle_alpha   90.00000000
_cell_angle_beta   90.00000000
_cell_angle_gamma   90.00000000
_symmetry_Int_Tables_number   1
_chemical_formula_structural   TbLuCoB6
_chemical_formula_sum   'Tb4 Lu4 Co4 B24'
_cell_volume   367.14966340
_cell_formula_units_Z   4
loop_
 _symmetry_equiv_pos_site_id
 _symmetry_equiv_pos_as_xyz
  1  'x, y, z'
loop_
 _atom_site_type_symbol
 _atom_site_label
 _atom_site_symmetry_multiplicity
 _atom_site_fract_x
 _atom_site_fract_y
 _atom_site_fract_z
 _atom_site_occupancy
  Tb  Tb0  1  0.000000  0.323344  0.414641  1
  Tb  Tb1  1  0.000000  0.676656  0.585359  1
  Tb  Tb2  1  0.000000  0.823344  0.085359  1
  Tb  Tb3  1  0.000000  0.176656  0.914641  1
  Lu  Lu4  1  0.000000  0.943385  0.370541  1
  Lu  Lu5  1  0.000000  0.056615  0.629459  1
  Lu  Lu6  1  0.000000  0.443385  0.129459  1
  Lu  Lu7  1  0.000000  0.556615  0.870541  1
  Co  Co8  1  0.000000  0.640206  0.319493  1
  Co  Co9  1  0.000000  0.359794  0.680507  1
  Co  Co10  1  0.000000  0.140206  0.180507  1
  Co  Co11  1  0.000000  0.859794  0.819493  1
  B  B12  1  0.500000  0.554747  0.432170  1
  B  B13  1  0.500000  0.445253  0.567830  1
  B  B14  1  0.500000  0.054747  0.067830  1
  B  B15  1  0.500000  0.945253  0.932170  1
  B  B16  1  0.500000  0.748947  0.417606  1
  B  B17  1  0.500000  0.251053  0.582394  1
  B  B18  1  0.500000  0.248947  0.082394  1
  B  B19  1  0.500000  0.751053  0.917606  1
  B  B20  1  0.500000  0.791204  0.264886  1
  B  B21  1  0.500000  0.208796  0.735114  1
  B  B22  1  0.500000  0.291204  0.235114  1
  B  B23  1  0.500000  0.708796  0.764886  1
  B  B24  1  0.500000  0.631710  0.184099  1
  B  B25  1  0.500000  0.368290  0.815901  1
  B  B26  1  0.500000  0.131710  0.315901  1
  B  B27  1  0.500000  0.868290  0.684099  1
  B  B28  1  0.500000  0.985746  0.212000  1
  B  B29  1  0.500000  0.014254  0.788000  1
  B  B30  1  0.500000  0.485746  0.288000  1
  B  B31  1  0.500000  0.514254  0.712000  1
  B  B32  1  0.500000  0.603375  0.028081  1
  B  B33  1  0.500000  0.396625  0.971919  1
  B  B34  1  0.500000  0.103375  0.471919  1
  B  B35  1  0.500000  0.896625  0.528081  1
