# generated using pymatgen
data_ZrZnCu3Rh
_symmetry_space_group_name_H-M   'P 1'
_cell_length_a   4.88542873
_cell_length_b   4.88542957
_cell_length_c   4.93959396
_cell_angle_alpha   60.36207998
_cell_angle_beta   60.36207604
_cell_angle_gamma   60.00000380
_symmetry_Int_Tables_number   1
_chemical_formula_structural   ZrZnCu3Rh
_chemical_formula_sum   'Zr1 Zn1 Cu3 Rh1'
_cell_volume   83.81793561
_cell_formula_units_Z   1
loop_
 _symmetry_equiv_pos_site_id
 _symmetry_equiv_pos_as_xyz
  1  'x, y, z'
loop_
 _atom_site_type_symbol
 _atom_site_label
 _atom_site_symmetry_multiplicity
 _atom_site_fract_x
 _atom_site_fract_y
 _atom_site_fract_z
 _atom_site_occupancy
  Zr  Zr0  1  0.249817  0.249817  0.250549  1
  Zn  Zn1  1  0.627408  0.627408  0.117776  1
  Cu  Cu2  1  0.625832  0.124308  0.624029  1
  Cu  Cu3  1  0.124308  0.625832  0.624029  1
  Cu  Cu4  1  0.625832  0.625832  0.624029  1
  Rh  Rh5  1  0.996803  0.996803  0.009591  1
