# generated using pymatgen
data_HfMg2(PPd)3
_symmetry_space_group_name_H-M   'P 1'
_cell_length_a   6.70928476
_cell_length_b   6.70928492
_cell_length_c   3.67361800
_cell_angle_alpha   90.00000000
_cell_angle_beta   90.00000000
_cell_angle_gamma   119.75682398
_symmetry_Int_Tables_number   1
_chemical_formula_structural   HfMg2(PPd)3
_chemical_formula_sum   'Hf1 Mg2 P3 Pd3'
_cell_volume   143.56086799
_cell_formula_units_Z   1
loop_
 _symmetry_equiv_pos_site_id
 _symmetry_equiv_pos_as_xyz
  1  'x, y, z'
loop_
 _atom_site_type_symbol
 _atom_site_label
 _atom_site_symmetry_multiplicity
 _atom_site_fract_x
 _atom_site_fract_y
 _atom_site_fract_z
 _atom_site_occupancy
  Hf  Hf0  1  0.403918  0.403918  0.000000  1
  Mg  Mg1  1  0.594173  0.991057  0.000000  1
  Mg  Mg2  1  0.991057  0.594173  0.000000  1
  P  P3  1  0.335383  0.649318  0.500000  1
  P  P4  1  0.649318  0.335383  0.500000  1
  P  P5  1  0.018637  0.018637  0.000000  1
  Pd  Pd6  1  0.264326  0.977091  0.500000  1
  Pd  Pd7  1  0.977091  0.264326  0.500000  1
  Pd  Pd8  1  0.766098  0.766098  0.500000  1
