# generated using pymatgen
data_Yb3ZrAl14(Si2Ir3)2
_symmetry_space_group_name_H-M   'P 1'
_cell_length_a   7.47582216
_cell_length_b   7.44904554
_cell_length_c   9.39883879
_cell_angle_alpha   89.96861068
_cell_angle_beta   90.06670730
_cell_angle_gamma   119.87168839
_symmetry_Int_Tables_number   1
_chemical_formula_structural   Yb3ZrAl14(Si2Ir3)2
_chemical_formula_sum   'Yb3 Zr1 Al14 Si4 Ir6'
_cell_volume   453.86239393
_cell_formula_units_Z   1
loop_
 _symmetry_equiv_pos_site_id
 _symmetry_equiv_pos_as_xyz
  1  'x, y, z'
loop_
 _atom_site_type_symbol
 _atom_site_label
 _atom_site_symmetry_multiplicity
 _atom_site_fract_x
 _atom_site_fract_y
 _atom_site_fract_z
 _atom_site_occupancy
  Yb  Yb0  1  0.006299  0.342341  0.754623  1
  Yb  Yb1  1  0.669813  0.001518  0.250163  1
  Yb  Yb2  1  0.320204  0.990920  0.745340  1
  Zr  Zr3  1  0.000249  0.667531  0.250061  1
  Al  Al4  1  0.129010  0.122362  0.249996  1
  Al  Al5  1  0.871947  0.869963  0.749964  1
  Al  Al6  1  0.000108  0.329756  0.427503  1
  Al  Al7  1  0.669545  0.000260  0.575965  1
  Al  Al8  1  0.663303  0.998779  0.923831  1
  Al  Al9  1  0.338560  0.003180  0.073599  1
  Al  Al10  1  0.332563  0.333714  0.558249  1
  Al  Al11  1  0.664958  0.668246  0.438575  1
  Al  Al12  1  0.664955  0.668754  0.061412  1
  Al  Al13  1  0.336150  0.332449  0.941801  1
  Al  Al14  1  0.331547  0.546587  0.250170  1
  Al  Al15  1  0.660477  0.450946  0.751111  1
  Al  Al16  1  0.552457  0.347832  0.249548  1
  Al  Al17  1  0.455606  0.660281  0.748936  1
  Si  Si18  1  0.001685  0.329909  0.077116  1
  Si  Si19  1  0.998398  0.671673  0.936075  1
  Si  Si20  1  0.992251  0.659380  0.563917  1
  Si  Si21  1  0.337688  0.004525  0.422382  1
  Ir  Ir22  1  0.690339  0.339776  0.004932  1
  Ir  Ir23  1  0.311894  0.663134  0.000561  1
  Ir  Ir24  1  0.319555  0.678729  0.497021  1
  Ir  Ir25  1  0.672945  0.330212  0.497546  1
  Ir  Ir26  1  0.000278  0.997812  0.002511  1
  Ir  Ir27  1  0.007217  0.989429  0.497090  1
