# generated using pymatgen
data_Hf5(SiSb)2
_symmetry_space_group_name_H-M   'P 1'
_cell_length_a   7.95814726
_cell_length_b   7.95814770
_cell_length_c   7.17487300
_cell_angle_alpha   90.00000000
_cell_angle_beta   90.00000000
_cell_angle_gamma   125.97793900
_symmetry_Int_Tables_number   1
_chemical_formula_structural   Hf5(SiSb)2
_chemical_formula_sum   'Hf10 Si4 Sb4'
_cell_volume   367.72001773
_cell_formula_units_Z   2
loop_
 _symmetry_equiv_pos_site_id
 _symmetry_equiv_pos_as_xyz
  1  'x, y, z'
loop_
 _atom_site_type_symbol
 _atom_site_label
 _atom_site_symmetry_multiplicity
 _atom_site_fract_x
 _atom_site_fract_y
 _atom_site_fract_z
 _atom_site_occupancy
  Hf  Hf0  1  0.040306  0.286383  0.334156  1
  Hf  Hf1  1  0.959694  0.713617  0.665844  1
  Hf  Hf2  1  0.459694  0.213617  0.834156  1
  Hf  Hf3  1  0.786383  0.540306  0.165844  1
  Hf  Hf4  1  0.540306  0.786383  0.165844  1
  Hf  Hf5  1  0.213617  0.459694  0.834156  1
  Hf  Hf6  1  0.713617  0.959694  0.665844  1
  Hf  Hf7  1  0.286383  0.040306  0.334156  1
  Hf  Hf8  1  0.000000  0.000000  0.000000  1
  Hf  Hf9  1  0.500000  0.500000  0.500000  1
  Si  Si10  1  0.372491  0.372491  0.126620  1
  Si  Si11  1  0.627509  0.627509  0.873380  1
  Si  Si12  1  0.127509  0.127509  0.626620  1
  Si  Si13  1  0.872491  0.872491  0.373380  1
  Sb  Sb14  1  0.792404  0.207596  0.000000  1
  Sb  Sb15  1  0.207596  0.792404  0.000000  1
  Sb  Sb16  1  0.707596  0.292404  0.500000  1
  Sb  Sb17  1  0.292404  0.707596  0.500000  1
