# generated using pymatgen
data_SrNd2Ho(Ir2O7)2
_symmetry_space_group_name_H-M   'P 1'
_cell_length_a   7.36681002
_cell_length_b   7.34515963
_cell_length_c   7.36681093
_cell_angle_alpha   60.07109459
_cell_angle_beta   60.30756011
_cell_angle_gamma   60.07108686
_symmetry_Int_Tables_number   1
_chemical_formula_structural   SrNd2Ho(Ir2O7)2
_chemical_formula_sum   'Sr1 Nd2 Ho1 Ir4 O14'
_cell_volume   282.82158451
_cell_formula_units_Z   1
loop_
 _symmetry_equiv_pos_site_id
 _symmetry_equiv_pos_as_xyz
  1  'x, y, z'
loop_
 _atom_site_type_symbol
 _atom_site_label
 _atom_site_symmetry_multiplicity
 _atom_site_fract_x
 _atom_site_fract_y
 _atom_site_fract_z
 _atom_site_occupancy
  Sr  Sr0  1  0.125000  0.625000  0.125000  1
  Nd  Nd1  1  0.625000  0.125000  0.125000  1
  Nd  Nd2  1  0.125000  0.125000  0.625000  1
  Ho  Ho3  1  0.125000  0.125000  0.125000  1
  Ir  Ir4  1  0.125000  0.625000  0.625000  1
  Ir  Ir5  1  0.625000  0.125000  0.625000  1
  Ir  Ir6  1  0.625000  0.625000  0.125000  1
  Ir  Ir7  1  0.625000  0.625000  0.625000  1
  O  O8  1  0.695979  0.709485  0.296873  1
  O  O9  1  0.294951  0.292805  0.713741  1
  O  O10  1  0.706221  0.292359  0.706221  1
  O  O11  1  0.296401  0.719003  0.296401  1
  O  O12  1  0.296873  0.709485  0.695979  1
  O  O13  1  0.713741  0.292805  0.294951  1
  O  O14  1  0.554021  0.540515  0.953127  1
  O  O15  1  0.955049  0.957195  0.536259  1
  O  O16  1  0.543779  0.957641  0.543779  1
  O  O17  1  0.953599  0.530997  0.953599  1
  O  O18  1  0.953127  0.540515  0.554021  1
  O  O19  1  0.536259  0.957195  0.955049  1
  O  O20  1  0.250019  0.233884  0.250019  1
  O  O21  1  0.999981  0.016116  0.999981  1
