# generated using pymatgen
data_Sc3Al2GaAu3
_symmetry_space_group_name_H-M   'P 1'
_cell_length_a   7.24551786
_cell_length_b   7.22445203
_cell_length_c   7.45796167
_cell_angle_alpha   90.00000226
_cell_angle_beta   90.09841586
_cell_angle_gamma   119.90386888
_symmetry_Int_Tables_number   1
_chemical_formula_structural   Sc3Al2GaAu3
_chemical_formula_sum   'Sc6 Al4 Ga2 Au6'
_cell_volume   338.41074785
_cell_formula_units_Z   2
loop_
 _symmetry_equiv_pos_site_id
 _symmetry_equiv_pos_as_xyz
  1  'x, y, z'
loop_
 _atom_site_type_symbol
 _atom_site_label
 _atom_site_symmetry_multiplicity
 _atom_site_fract_x
 _atom_site_fract_y
 _atom_site_fract_z
 _atom_site_occupancy
  Sc  Sc0  1  0.588526  0.985248  0.751238  1
  Sc  Sc1  1  0.014476  0.604592  0.750769  1
  Sc  Sc2  1  0.397414  0.411327  0.751144  1
  Sc  Sc3  1  0.985524  0.590116  0.249231  1
  Sc  Sc4  1  0.602586  0.013913  0.248856  1
  Sc  Sc5  1  0.411474  0.396723  0.248762  1
  Al  Al6  1  0.000000  0.259875  0.000000  1
  Al  Al7  1  0.741042  0.741157  0.499944  1
  Al  Al8  1  0.258958  0.000115  0.500056  1
  Al  Al9  1  0.000000  0.259579  0.500000  1
  Ga  Ga10  1  0.735301  0.736918  0.999970  1
  Ga  Ga11  1  0.264699  0.001617  0.000030  1
  Au  Au12  1  0.000109  0.002090  0.749095  1
  Au  Au13  1  0.999891  0.001981  0.250905  1
  Au  Au14  1  0.670970  0.332974  0.979710  1
  Au  Au15  1  0.666485  0.333126  0.519402  1
  Au  Au16  1  0.333515  0.666643  0.480598  1
  Au  Au17  1  0.329030  0.662005  0.020290  1
