# generated using pymatgen
data_Tb5Dy11Cd4TcPt3
_symmetry_space_group_name_H-M   'P 1'
_cell_length_a   9.72707176
_cell_length_b   9.72666782
_cell_length_c   9.72666828
_cell_angle_alpha   59.47903168
_cell_angle_beta   59.47305996
_cell_angle_gamma   59.47306112
_symmetry_Int_Tables_number   1
_chemical_formula_structural   Tb5Dy11Cd4TcPt3
_chemical_formula_sum   'Tb5 Dy11 Cd4 Tc1 Pt3'
_cell_volume   642.95174889
_cell_formula_units_Z   1
loop_
 _symmetry_equiv_pos_site_id
 _symmetry_equiv_pos_as_xyz
  1  'x, y, z'
loop_
 _atom_site_type_symbol
 _atom_site_label
 _atom_site_symmetry_multiplicity
 _atom_site_fract_x
 _atom_site_fract_y
 _atom_site_fract_z
 _atom_site_occupancy
  Tb  Tb0  1  0.556692  0.937901  0.937901  1
  Tb  Tb1  1  0.564880  0.935635  0.564735  1
  Tb  Tb2  1  0.937893  0.556728  0.937721  1
  Tb  Tb3  1  0.564880  0.564735  0.935635  1
  Tb  Tb4  1  0.937893  0.937721  0.556728  1
  Dy  Dy5  1  0.351553  0.351602  0.351602  1
  Dy  Dy6  1  0.350130  0.350154  0.949052  1
  Dy  Dy7  1  0.350130  0.949052  0.350154  1
  Dy  Dy8  1  0.948951  0.350229  0.350229  1
  Dy  Dy9  1  0.815489  0.188251  0.188251  1
  Dy  Dy10  1  0.189032  0.809552  0.809552  1
  Dy  Dy11  1  0.188162  0.815439  0.188363  1
  Dy  Dy12  1  0.809573  0.189153  0.809489  1
  Dy  Dy13  1  0.188162  0.188363  0.815439  1
  Dy  Dy14  1  0.809573  0.809489  0.189153  1
  Dy  Dy15  1  0.935856  0.564644  0.564644  1
  Cd  Cd16  1  0.580105  0.579966  0.579966  1
  Cd  Cd17  1  0.580844  0.580854  0.254542  1
  Cd  Cd18  1  0.580844  0.254542  0.580854  1
  Cd  Cd19  1  0.254367  0.580874  0.580874  1
  Tc  Tc20  1  0.143613  0.143585  0.143585  1
  Pt  Pt21  1  0.144193  0.144349  0.572966  1
  Pt  Pt22  1  0.144193  0.572966  0.144349  1
  Pt  Pt23  1  0.572996  0.144217  0.144217  1
