# generated using pymatgen
data_La3ErTl5
_symmetry_space_group_name_H-M   'P 1'
_cell_length_a   8.81667790
_cell_length_b   8.81667901
_cell_length_c   8.81667945
_cell_angle_alpha   66.04464588
_cell_angle_beta   66.04464053
_cell_angle_gamma   66.04462132
_symmetry_Int_Tables_number   1
_chemical_formula_structural   La3ErTl5
_chemical_formula_sum   'La6 Er2 Tl10'
_cell_volume   547.98465230
_cell_formula_units_Z   2
loop_
 _symmetry_equiv_pos_site_id
 _symmetry_equiv_pos_as_xyz
  1  'x, y, z'
loop_
 _atom_site_type_symbol
 _atom_site_label
 _atom_site_symmetry_multiplicity
 _atom_site_fract_x
 _atom_site_fract_y
 _atom_site_fract_z
 _atom_site_occupancy
  La  La0  1  0.892277  0.180793  0.627411  1
  La  La1  1  0.627411  0.892277  0.180793  1
  La  La2  1  0.180793  0.627411  0.892277  1
  La  La3  1  0.107723  0.819207  0.372589  1
  La  La4  1  0.372589  0.107723  0.819207  1
  La  La5  1  0.819207  0.372589  0.107723  1
  Er  Er6  1  0.655569  0.655569  0.655569  1
  Er  Er7  1  0.344431  0.344431  0.344431  1
  Tl  Tl8  1  0.000000  0.000000  0.000000  1
  Tl  Tl9  1  0.500000  0.500000  0.500000  1
  Tl  Tl10  1  0.807289  0.807289  0.807289  1
  Tl  Tl11  1  0.192711  0.192711  0.192711  1
  Tl  Tl12  1  0.945479  0.559177  0.310864  1
  Tl  Tl13  1  0.310864  0.945479  0.559177  1
  Tl  Tl14  1  0.559177  0.310864  0.945479  1
  Tl  Tl15  1  0.054521  0.440823  0.689136  1
  Tl  Tl16  1  0.689136  0.054521  0.440823  1
  Tl  Tl17  1  0.440823  0.689136  0.054521  1
