# generated using pymatgen
data_CaLaTb5FeBr12
_symmetry_space_group_name_H-M   'P 1'
_cell_length_a   9.13308017
_cell_length_b   9.38045374
_cell_length_c   9.41992826
_cell_angle_alpha   106.78101113
_cell_angle_beta   106.18939334
_cell_angle_gamma   107.11745624
_symmetry_Int_Tables_number   1
_chemical_formula_structural   CaLaTb5FeBr12
_chemical_formula_sum   'Ca1 La1 Tb5 Fe1 Br12'
_cell_volume   677.56260775
_cell_formula_units_Z   1
loop_
 _symmetry_equiv_pos_site_id
 _symmetry_equiv_pos_as_xyz
  1  'x, y, z'
loop_
 _atom_site_type_symbol
 _atom_site_label
 _atom_site_symmetry_multiplicity
 _atom_site_fract_x
 _atom_site_fract_y
 _atom_site_fract_z
 _atom_site_occupancy
  Ca  Ca0  1  0.503209  0.499376  0.495918  1
  La  La1  1  0.711901  0.904355  0.978262  1
  Tb  Tb2  1  0.283250  0.095653  0.023096  1
  Tb  Tb3  1  0.020566  0.313089  0.106100  1
  Tb  Tb4  1  0.105334  0.023513  0.311452  1
  Tb  Tb5  1  0.897052  0.976990  0.691089  1
  Tb  Tb6  1  0.974587  0.686493  0.894702  1
  Fe  Fe7  1  0.980086  0.994481  0.001008  1
  Br  Br8  1  0.683495  0.234756  0.077511  1
  Br  Br9  1  0.371517  0.447842  0.155002  1
  Br  Br10  1  0.075702  0.682182  0.215875  1
  Br  Br11  1  0.789155  0.930981  0.332839  1
  Br  Br12  1  0.453687  0.156086  0.366387  1
  Br  Br13  1  0.156418  0.372161  0.452835  1
  Br  Br14  1  0.853014  0.629581  0.549489  1
  Br  Br15  1  0.543432  0.837473  0.611199  1
  Br  Br16  1  0.224271  0.075816  0.692242  1
  Br  Br17  1  0.933526  0.320124  0.786235  1
  Br  Br18  1  0.623659  0.531587  0.828497  1
  Br  Br19  1  0.316140  0.787463  0.930261  1
