# generated using pymatgen
data_Dy(NbS2)3
_symmetry_space_group_name_H-M   'P 1'
_cell_length_a   5.84153000
_cell_length_b   5.84153104
_cell_length_c   13.81893000
_cell_angle_alpha   90.00000000
_cell_angle_beta   90.00000000
_cell_angle_gamma   120.00000544
_symmetry_Int_Tables_number   1
_chemical_formula_structural   Dy(NbS2)3
_chemical_formula_sum   'Dy2 Nb6 S12'
_cell_volume   408.37422653
_cell_formula_units_Z   2
loop_
 _symmetry_equiv_pos_site_id
 _symmetry_equiv_pos_as_xyz
  1  'x, y, z'
loop_
 _atom_site_type_symbol
 _atom_site_label
 _atom_site_symmetry_multiplicity
 _atom_site_fract_x
 _atom_site_fract_y
 _atom_site_fract_z
 _atom_site_occupancy
  Dy  Dy0  1  0.000000  0.000000  0.000000  1
  Dy  Dy1  1  0.000000  0.000000  0.500000  1
  Nb  Nb2  1  0.333333  0.666667  0.250000  1
  Nb  Nb3  1  0.000000  0.000000  0.250000  1
  Nb  Nb4  1  0.000000  0.000000  0.750000  1
  Nb  Nb5  1  0.333333  0.666667  0.750000  1
  Nb  Nb6  1  0.666667  0.333333  0.750000  1
  Nb  Nb7  1  0.666667  0.333333  0.250000  1
  S  S8  1  0.000000  0.662291  0.635692  1
  S  S9  1  0.000000  0.662291  0.864308  1
  S  S10  1  0.000000  0.337709  0.135692  1
  S  S11  1  0.000000  0.337709  0.364308  1
  S  S12  1  0.337709  0.337709  0.635692  1
  S  S13  1  0.337709  0.337709  0.864308  1
  S  S14  1  0.662291  0.662291  0.135692  1
  S  S15  1  0.662291  0.662291  0.364308  1
  S  S16  1  0.337709  0.000000  0.135692  1
  S  S17  1  0.337709  0.000000  0.364308  1
  S  S18  1  0.662291  0.000000  0.635692  1
  S  S19  1  0.662291  0.000000  0.864308  1
