# generated using pymatgen
data_CeU7SbS17
_symmetry_space_group_name_H-M   'P 1'
_cell_length_a   7.89781289
_cell_length_b   7.90519178
_cell_length_c   10.67374999
_cell_angle_alpha   80.08557401
_cell_angle_beta   79.49014566
_cell_angle_gamma   64.93876240
_symmetry_Int_Tables_number   1
_chemical_formula_structural   CeU7SbS17
_chemical_formula_sum   'Ce1 U7 Sb1 S17'
_cell_volume   590.15686123
_cell_formula_units_Z   1
loop_
 _symmetry_equiv_pos_site_id
 _symmetry_equiv_pos_as_xyz
  1  'x, y, z'
loop_
 _atom_site_type_symbol
 _atom_site_label
 _atom_site_symmetry_multiplicity
 _atom_site_fract_x
 _atom_site_fract_y
 _atom_site_fract_z
 _atom_site_occupancy
  Ce  Ce0  1  0.813831  0.309069  0.304024  1
  U  U1  1  0.306313  0.818376  0.305477  1
  U  U2  1  0.181918  0.694093  0.693917  1
  U  U3  1  0.695651  0.181366  0.696758  1
  U  U4  1  0.206152  0.202905  0.538564  1
  U  U5  1  0.795299  0.791083  0.462990  1
  U  U6  1  0.671703  0.677104  0.981159  1
  U  U7  1  0.322754  0.329011  0.016511  1
  Sb  Sb8  1  0.999849  0.001356  0.001900  1
  S  S9  1  0.825555  0.430373  0.538623  1
  S  S10  1  0.431836  0.819345  0.534565  1
  S  S11  1  0.180722  0.565386  0.466069  1
  S  S12  1  0.570432  0.169460  0.471553  1
  S  S13  1  0.948646  0.339022  0.036958  1
  S  S14  1  0.333132  0.952736  0.043060  1
  S  S15  1  0.049828  0.666417  0.953996  1
  S  S16  1  0.663135  0.054753  0.956383  1
  S  S17  1  0.220780  0.208112  0.280912  1
  S  S18  1  0.786678  0.787329  0.719582  1
  S  S19  1  0.058436  0.054678  0.757703  1
  S  S20  1  0.951064  0.932439  0.244908  1
  S  S21  1  0.302831  0.302987  0.751130  1
  S  S22  1  0.692222  0.707086  0.246938  1
  S  S23  1  0.518526  0.521421  0.828596  1
  S  S24  1  0.470362  0.490006  0.164576  1
  S  S25  1  0.002344  0.994086  0.503146  1
