# generated using pymatgen
data_AcLa(YbSi4)2
_symmetry_space_group_name_H-M   'P 1'
_cell_length_a   4.39084800
_cell_length_b   4.39084800
_cell_length_c   13.49958100
_cell_angle_alpha   90.00000000
_cell_angle_beta   90.00000000
_cell_angle_gamma   90.00000000
_symmetry_Int_Tables_number   1
_chemical_formula_structural   AcLa(YbSi4)2
_chemical_formula_sum   'Ac1 La1 Yb2 Si8'
_cell_volume   260.26579502
_cell_formula_units_Z   1
loop_
 _symmetry_equiv_pos_site_id
 _symmetry_equiv_pos_as_xyz
  1  'x, y, z'
loop_
 _atom_site_type_symbol
 _atom_site_label
 _atom_site_symmetry_multiplicity
 _atom_site_fract_x
 _atom_site_fract_y
 _atom_site_fract_z
 _atom_site_occupancy
  Ac  Ac0  1  0.000000  0.000000  0.500000  1
  La  La1  1  0.500000  0.500000  0.000000  1
  Yb  Yb2  1  0.500000  0.000000  0.751083  1
  Yb  Yb3  1  0.000000  0.500000  0.248917  1
  Si  Si4  1  0.000000  0.000000  0.914912  1
  Si  Si5  1  0.500000  0.500000  0.413448  1
  Si  Si6  1  0.000000  0.500000  0.837281  1
  Si  Si7  1  0.500000  0.000000  0.332681  1
  Si  Si8  1  0.000000  0.000000  0.085088  1
  Si  Si9  1  0.500000  0.500000  0.586552  1
  Si  Si10  1  0.500000  0.000000  0.162719  1
  Si  Si11  1  0.000000  0.500000  0.667319  1
