# generated using pymatgen
data_Mg(Sn2Ir)3
_symmetry_space_group_name_H-M   'P 1'
_cell_length_a   8.26437877
_cell_length_b   8.17271111
_cell_length_c   8.17271035
_cell_angle_alpha   109.24289772
_cell_angle_beta   109.69859027
_cell_angle_gamma   109.69858731
_symmetry_Int_Tables_number   1
_chemical_formula_structural   Mg(Sn2Ir)3
_chemical_formula_sum   'Mg2 Sn12 Ir6'
_cell_volume   423.73490368
_cell_formula_units_Z   2
loop_
 _symmetry_equiv_pos_site_id
 _symmetry_equiv_pos_as_xyz
  1  'x, y, z'
loop_
 _atom_site_type_symbol
 _atom_site_label
 _atom_site_symmetry_multiplicity
 _atom_site_fract_x
 _atom_site_fract_y
 _atom_site_fract_z
 _atom_site_occupancy
  Mg  Mg0  1  0.685616  0.000000  0.000000  1
  Mg  Mg1  1  0.314384  0.000000  0.000000  1
  Sn  Sn2  1  0.500000  0.756240  0.243760  1
  Sn  Sn3  1  0.500000  0.243760  0.756240  1
  Sn  Sn4  1  0.256240  0.512480  0.756240  1
  Sn  Sn5  1  0.743760  0.487520  0.243760  1
  Sn  Sn6  1  0.743760  0.243760  0.487520  1
  Sn  Sn7  1  0.256240  0.756240  0.512480  1
  Sn  Sn8  1  0.329500  0.323863  0.323863  1
  Sn  Sn9  1  0.670500  0.676137  0.676137  1
  Sn  Sn10  1  0.005637  0.000000  0.676137  1
  Sn  Sn11  1  0.005637  0.676137  0.000000  1
  Sn  Sn12  1  0.994363  0.000000  0.323863  1
  Sn  Sn13  1  0.994363  0.323863  0.000000  1
  Ir  Ir14  1  0.008506  0.348633  0.348633  1
  Ir  Ir15  1  0.991494  0.651367  0.651367  1
  Ir  Ir16  1  0.340127  0.000000  0.348633  1
  Ir  Ir17  1  0.659873  0.000000  0.651367  1
  Ir  Ir18  1  0.340127  0.348633  0.000000  1
  Ir  Ir19  1  0.659873  0.651367  0.000000  1
