# generated using pymatgen
data_PaSi3Ni
_symmetry_space_group_name_H-M   'P 1'
_cell_length_a   10.66998672
_cell_length_b   10.66998595
_cell_length_c   3.95561600
_cell_angle_alpha   90.00000000
_cell_angle_beta   90.00000000
_cell_angle_gamma   158.48353864
_symmetry_Int_Tables_number   1
_chemical_formula_structural   PaSi3Ni
_chemical_formula_sum   'Pa2 Si6 Ni2'
_cell_volume   165.17104256
_cell_formula_units_Z   2
loop_
 _symmetry_equiv_pos_site_id
 _symmetry_equiv_pos_as_xyz
  1  'x, y, z'
loop_
 _atom_site_type_symbol
 _atom_site_label
 _atom_site_symmetry_multiplicity
 _atom_site_fract_x
 _atom_site_fract_y
 _atom_site_fract_z
 _atom_site_occupancy
  Pa  Pa0  1  0.168503  0.831497  0.000000  1
  Pa  Pa1  1  0.831497  0.168503  0.000000  1
  Si  Si2  1  0.720133  0.279867  0.500000  1
  Si  Si3  1  0.443731  0.556269  0.000000  1
  Si  Si4  1  0.279867  0.720133  0.500000  1
  Si  Si5  1  0.556269  0.443731  0.000000  1
  Si  Si6  1  0.943806  0.056194  0.500000  1
  Si  Si7  1  0.056194  0.943806  0.500000  1
  Ni  Ni8  1  0.611273  0.388727  0.500000  1
  Ni  Ni9  1  0.388727  0.611273  0.500000  1
