# generated using pymatgen
data_TbHoLu3(ReO6)2
_symmetry_space_group_name_H-M   'P 1'
_cell_length_a   6.74930025
_cell_length_b   6.74930004
_cell_length_c   7.44374669
_cell_angle_alpha   74.04606648
_cell_angle_beta   74.04606583
_cell_angle_gamma   49.38946686
_symmetry_Int_Tables_number   1
_chemical_formula_structural   TbHoLu3(ReO6)2
_chemical_formula_sum   'Tb1 Ho1 Lu3 Re2 O12'
_cell_volume   245.35446148
_cell_formula_units_Z   1
loop_
 _symmetry_equiv_pos_site_id
 _symmetry_equiv_pos_as_xyz
  1  'x, y, z'
loop_
 _atom_site_type_symbol
 _atom_site_label
 _atom_site_symmetry_multiplicity
 _atom_site_fract_x
 _atom_site_fract_y
 _atom_site_fract_z
 _atom_site_occupancy
  Tb  Tb0  1  0.697004  0.697004  0.641595  1
  Ho  Ho1  1  0.302943  0.302943  0.357779  1
  Lu  Lu2  1  0.314448  0.314448  0.823574  1
  Lu  Lu3  1  0.685524  0.685524  0.176209  1
  Lu  Lu4  1  0.000186  0.000186  0.499609  1
  Re  Re5  1  0.213806  0.785786  0.000419  1
  Re  Re6  1  0.785786  0.213806  0.000419  1
  O  O7  1  0.500706  0.500706  0.179543  1
  O  O8  1  0.498308  0.498308  0.821827  1
  O  O9  1  0.000250  0.000250  0.210358  1
  O  O10  1  0.999594  0.999594  0.789798  1
  O  O11  1  0.915922  0.418670  0.916908  1
  O  O12  1  0.580228  0.084779  0.084870  1
  O  O13  1  0.084779  0.580228  0.084870  1
  O  O14  1  0.595225  0.102788  0.575434  1
  O  O15  1  0.900832  0.403000  0.422223  1
  O  O16  1  0.403000  0.900832  0.422223  1
  O  O17  1  0.102788  0.595225  0.575434  1
  O  O18  1  0.418670  0.915922  0.916908  1
