# generated using pymatgen
data_Eu2Ga5Pt3
_symmetry_space_group_name_H-M   'P 1'
_cell_length_a   8.73133398
_cell_length_b   8.73133328
_cell_length_c   8.73133378
_cell_angle_alpha   140.76528901
_cell_angle_beta   106.86541389
_cell_angle_gamma   86.29117999
_symmetry_Int_Tables_number   1
_chemical_formula_structural   Eu2Ga5Pt3
_chemical_formula_sum   'Eu4 Ga10 Pt6'
_cell_volume   388.57304879
_cell_formula_units_Z   2
loop_
 _symmetry_equiv_pos_site_id
 _symmetry_equiv_pos_as_xyz
  1  'x, y, z'
loop_
 _atom_site_type_symbol
 _atom_site_label
 _atom_site_symmetry_multiplicity
 _atom_site_fract_x
 _atom_site_fract_y
 _atom_site_fract_z
 _atom_site_occupancy
  Eu  Eu0  1  0.635329  0.362219  0.273110  1
  Eu  Eu1  1  0.364671  0.637781  0.726890  1
  Eu  Eu2  1  0.089109  0.862219  0.226890  1
  Eu  Eu3  1  0.910891  0.137781  0.773110  1
  Ga  Ga4  1  0.430551  0.096092  0.334460  1
  Ga  Ga5  1  0.569449  0.903908  0.665540  1
  Ga  Ga6  1  0.761631  0.596092  0.165540  1
  Ga  Ga7  1  0.238369  0.403908  0.834460  1
  Ga  Ga8  1  0.287668  0.537668  0.250000  1
  Ga  Ga9  1  0.712332  0.462332  0.750000  1
  Ga  Ga10  1  0.712332  0.962332  0.250000  1
  Ga  Ga11  1  0.287668  0.037668  0.750000  1
  Ga  Ga12  1  0.000000  0.250000  0.250000  1
  Ga  Ga13  1  0.000000  0.750000  0.750000  1
  Pt  Pt14  1  0.500000  0.250000  0.750000  1
  Pt  Pt15  1  0.500000  0.750000  0.250000  1
  Pt  Pt16  1  0.244432  0.143685  0.100747  1
  Pt  Pt17  1  0.755568  0.856315  0.899253  1
  Pt  Pt18  1  0.042938  0.643685  0.399253  1
  Pt  Pt19  1  0.957062  0.356315  0.600747  1
