# generated using pymatgen
data_YbNp3Al16(SiIr3)2
_symmetry_space_group_name_H-M   'P 1'
_cell_length_a   7.57555793
_cell_length_b   7.55197005
_cell_length_c   9.40834987
_cell_angle_alpha   90.12574220
_cell_angle_beta   89.84420710
_cell_angle_gamma   119.68319739
_symmetry_Int_Tables_number   1
_chemical_formula_structural   YbNp3Al16(SiIr3)2
_chemical_formula_sum   'Yb1 Np3 Al16 Si2 Ir6'
_cell_volume   467.62178154
_cell_formula_units_Z   1
loop_
 _symmetry_equiv_pos_site_id
 _symmetry_equiv_pos_as_xyz
  1  'x, y, z'
loop_
 _atom_site_type_symbol
 _atom_site_label
 _atom_site_symmetry_multiplicity
 _atom_site_fract_x
 _atom_site_fract_y
 _atom_site_fract_z
 _atom_site_occupancy
  Yb  Yb0  1  0.323792  0.006476  0.749475  1
  Np  Np1  1  0.996754  0.663872  0.249928  1
  Np  Np2  1  0.004411  0.322565  0.758041  1
  Np  Np3  1  0.675567  0.003332  0.249209  1
  Al  Al4  1  0.127832  0.126634  0.248678  1
  Al  Al5  1  0.999226  0.670382  0.921259  1
  Al  Al6  1  0.000503  0.663190  0.578583  1
  Al  Al7  1  0.334739  0.001635  0.425880  1
  Al  Al8  1  0.004673  0.334502  0.433550  1
  Al  Al9  1  0.662075  0.000276  0.577414  1
  Al  Al10  1  0.653658  0.991012  0.922727  1
  Al  Al11  1  0.333269  0.998856  0.073875  1
  Al  Al12  1  0.336665  0.335494  0.556374  1
  Al  Al13  1  0.667617  0.667481  0.443353  1
  Al  Al14  1  0.668919  0.669350  0.058901  1
  Al  Al15  1  0.342118  0.336070  0.946245  1
  Al  Al16  1  0.341138  0.548410  0.248923  1
  Al  Al17  1  0.665742  0.451287  0.749274  1
  Al  Al18  1  0.543890  0.338655  0.248393  1
  Al  Al19  1  0.447444  0.658236  0.748347  1
  Si  Si20  1  0.866983  0.871874  0.748618  1
  Si  Si21  1  0.000235  0.335398  0.072885  1
  Ir  Ir22  1  0.679989  0.330771  0.000284  1
  Ir  Ir23  1  0.320983  0.663476  0.998960  1
  Ir  Ir24  1  0.330501  0.673098  0.497436  1
  Ir  Ir25  1  0.673761  0.331017  0.496899  1
  Ir  Ir26  1  0.998489  0.007883  0.992320  1
  Ir  Ir27  1  0.999024  0.998765  0.504167  1
