# generated using pymatgen
data_Dy7Tm3Co4
_symmetry_space_group_name_H-M   'P 1'
_cell_length_a   6.23111618
_cell_length_b   6.84119240
_cell_length_c   8.47666352
_cell_angle_alpha   96.25536087
_cell_angle_beta   111.41418694
_cell_angle_gamma   90.02693793
_symmetry_Int_Tables_number   1
_chemical_formula_structural   Dy7Tm3Co4
_chemical_formula_sum   'Dy7 Tm3 Co4'
_cell_volume   334.08078177
_cell_formula_units_Z   1
loop_
 _symmetry_equiv_pos_site_id
 _symmetry_equiv_pos_as_xyz
  1  'x, y, z'
loop_
 _atom_site_type_symbol
 _atom_site_label
 _atom_site_symmetry_multiplicity
 _atom_site_fract_x
 _atom_site_fract_y
 _atom_site_fract_z
 _atom_site_occupancy
  Dy  Dy0  1  0.795383  0.086796  0.812780  1
  Dy  Dy1  1  0.983162  0.413811  0.188899  1
  Dy  Dy2  1  0.204229  0.912883  0.188285  1
  Dy  Dy3  1  0.017366  0.586960  0.811188  1
  Dy  Dy4  1  0.217295  0.185659  0.568394  1
  Dy  Dy5  1  0.647849  0.314737  0.431752  1
  Dy  Dy6  1  0.783832  0.814756  0.431543  1
  Tm  Tm7  1  0.353367  0.685663  0.569107  1
  Tm  Tm8  1  0.430032  0.249899  0.000410  1
  Tm  Tm9  1  0.569324  0.749319  0.999245  1
  Co  Co10  1  0.599748  0.429433  0.779143  1
  Co  Co11  1  0.818898  0.069917  0.217649  1
  Co  Co12  1  0.399283  0.571256  0.222332  1
  Co  Co13  1  0.180230  0.928911  0.779276  1
