# generated using pymatgen
data_CsSb2(PPt3)3
_symmetry_space_group_name_H-M   'P 1'
_cell_length_a   7.25158700
_cell_length_b   7.25162301
_cell_length_c   12.96200100
_cell_angle_alpha   89.99993896
_cell_angle_beta   89.99996652
_cell_angle_gamma   120.00001183
_symmetry_Int_Tables_number   1
_chemical_formula_structural   CsSb2(PPt3)3
_chemical_formula_sum   'Cs2 Sb4 P6 Pt18'
_cell_volume   590.29745506
_cell_formula_units_Z   2
loop_
 _symmetry_equiv_pos_site_id
 _symmetry_equiv_pos_as_xyz
  1  'x, y, z'
loop_
 _atom_site_type_symbol
 _atom_site_label
 _atom_site_symmetry_multiplicity
 _atom_site_fract_x
 _atom_site_fract_y
 _atom_site_fract_z
 _atom_site_occupancy
  Cs  Cs0  1  0.000000  0.000000  0.499999  1
  Cs  Cs1  1  0.000000  0.000000  0.000001  1
  Sb  Sb2  1  0.333334  0.666668  0.443315  1
  Sb  Sb3  1  0.666666  0.333332  0.943348  1
  Sb  Sb4  1  0.666666  0.333332  0.556660  1
  Sb  Sb5  1  0.333335  0.666668  0.056679  1
  P  P6  1  0.179026  0.358048  0.749998  1
  P  P7  1  0.820922  0.179061  0.250000  1
  P  P8  1  0.179030  0.820985  0.749998  1
  P  P9  1  0.820925  0.641856  0.250002  1
  P  P10  1  0.358140  0.179066  0.250001  1
  P  P11  1  0.641955  0.820982  0.749998  1
  Pt  Pt12  1  0.463963  0.927925  0.882199  1
  Pt  Pt13  1  0.927926  0.463962  0.117841  1
  Pt  Pt14  1  0.536040  0.072078  0.117842  1
  Pt  Pt15  1  0.072078  0.536040  0.617780  1
  Pt  Pt16  1  0.187467  0.374934  0.250011  1
  Pt  Pt17  1  0.812523  0.187479  0.749990  1
  Pt  Pt18  1  0.374966  0.187485  0.749990  1
  Pt  Pt19  1  0.625049  0.812523  0.250010  1
  Pt  Pt20  1  0.187472  0.812528  0.250010  1
  Pt  Pt21  1  0.812526  0.625054  0.749989  1
  Pt  Pt22  1  0.463960  0.927921  0.617780  1
  Pt  Pt23  1  0.536037  0.463957  0.382181  1
  Pt  Pt24  1  0.927919  0.463960  0.382181  1
  Pt  Pt25  1  0.072071  0.536036  0.882199  1
  Pt  Pt26  1  0.463965  0.536036  0.882199  1
  Pt  Pt27  1  0.536041  0.072081  0.382180  1
  Pt  Pt28  1  0.536038  0.463964  0.117841  1
  Pt  Pt29  1  0.463962  0.536040  0.617779  1
