# generated using pymatgen
data_HoMg2Si2(PPd5)4
_symmetry_space_group_name_H-M   'P 1'
_cell_length_a   8.62438655
_cell_length_b   8.61825550
_cell_length_c   8.61825518
_cell_angle_alpha   60.04707894
_cell_angle_beta   59.97645980
_cell_angle_gamma   59.97646872
_symmetry_Int_Tables_number   1
_chemical_formula_structural   HoMg2Si2(PPd5)4
_chemical_formula_sum   'Ho1 Mg2 Si2 P4 Pd20'
_cell_volume   452.95130451
_cell_formula_units_Z   1
loop_
 _symmetry_equiv_pos_site_id
 _symmetry_equiv_pos_as_xyz
  1  'x, y, z'
loop_
 _atom_site_type_symbol
 _atom_site_label
 _atom_site_symmetry_multiplicity
 _atom_site_fract_x
 _atom_site_fract_y
 _atom_site_fract_z
 _atom_site_occupancy
  Ho  Ho0  1  0.750000  0.750000  0.750000  1
  Mg  Mg1  1  0.250000  0.250000  0.250000  1
  Mg  Mg2  1  0.000000  0.000000  0.000000  1
  Si  Si3  1  0.735175  0.264825  0.264825  1
  Si  Si4  1  0.264825  0.735175  0.735175  1
  P  P5  1  0.265248  0.734752  0.265248  1
  P  P6  1  0.734752  0.265248  0.734752  1
  P  P7  1  0.265248  0.265248  0.734752  1
  P  P8  1  0.734752  0.734752  0.265248  1
  Pd  Pd9  1  0.380360  0.381776  0.381776  1
  Pd  Pd10  1  0.615855  0.613750  0.613750  1
  Pd  Pd11  1  0.381776  0.380360  0.856088  1
  Pd  Pd12  1  0.381776  0.856088  0.380360  1
  Pd  Pd13  1  0.613750  0.615855  0.156643  1
  Pd  Pd14  1  0.613750  0.156643  0.615855  1
  Pd  Pd15  1  0.856088  0.381776  0.381776  1
  Pd  Pd16  1  0.156643  0.613750  0.613750  1
  Pd  Pd17  1  0.342954  0.999404  0.999404  1
  Pd  Pd18  1  0.658237  0.999404  0.999404  1
  Pd  Pd19  1  0.999404  0.342954  0.658237  1
  Pd  Pd20  1  0.999404  0.658237  0.342954  1
  Pd  Pd21  1  0.000857  0.345127  0.997072  1
  Pd  Pd22  1  0.656945  0.997072  0.345127  1
  Pd  Pd23  1  0.997072  0.656945  0.000857  1
  Pd  Pd24  1  0.345127  0.000857  0.656945  1
  Pd  Pd25  1  0.000857  0.997072  0.345127  1
  Pd  Pd26  1  0.997072  0.000857  0.656945  1
  Pd  Pd27  1  0.656945  0.345127  0.997072  1
  Pd  Pd28  1  0.345127  0.656945  0.000857  1
