# generated using pymatgen
data_BaUF8
_symmetry_space_group_name_H-M   'P 1'
_cell_length_a   7.53938800
_cell_length_b   7.53938800
_cell_length_c   5.36412600
_cell_angle_alpha   90.00000000
_cell_angle_beta   90.00000000
_cell_angle_gamma   90.00000000
_symmetry_Int_Tables_number   1
_chemical_formula_structural   BaUF8
_chemical_formula_sum   'Ba2 U2 F16'
_cell_volume   304.90964241
_cell_formula_units_Z   2
loop_
 _symmetry_equiv_pos_site_id
 _symmetry_equiv_pos_as_xyz
  1  'x, y, z'
loop_
 _atom_site_type_symbol
 _atom_site_label
 _atom_site_symmetry_multiplicity
 _atom_site_fract_x
 _atom_site_fract_y
 _atom_site_fract_z
 _atom_site_occupancy
  Ba  Ba0  1  0.249999  0.750000  0.500001  1
  Ba  Ba1  1  0.750000  0.249999  0.500001  1
  U  U2  1  0.249999  0.249999  0.086968  1
  U  U3  1  0.750000  0.750000  0.913031  1
  F  F4  1  0.085454  0.085454  0.318763  1
  F  F5  1  0.414547  0.414547  0.318763  1
  F  F6  1  0.585455  0.914546  0.681239  1
  F  F7  1  0.914546  0.585455  0.681239  1
  F  F8  1  0.914546  0.914546  0.681239  1
  F  F9  1  0.585455  0.585455  0.681239  1
  F  F10  1  0.085454  0.414547  0.318763  1
  F  F11  1  0.414547  0.085454  0.318763  1
  F  F12  1  0.009522  0.249999  0.879161  1
  F  F13  1  0.490478  0.249999  0.879161  1
  F  F14  1  0.509521  0.750000  0.120839  1
  F  F15  1  0.990478  0.750000  0.120839  1
  F  F16  1  0.750000  0.990478  0.120839  1
  F  F17  1  0.750000  0.509521  0.120839  1
  F  F18  1  0.249999  0.490478  0.879161  1
  F  F19  1  0.249999  0.009522  0.879161  1
