# generated using pymatgen
data_Tm12InGaFe2Tc
_symmetry_space_group_name_H-M   'P 1'
_cell_length_a   8.22556463
_cell_length_b   8.22133539
_cell_length_c   8.22556626
_cell_angle_alpha   108.31667141
_cell_angle_beta   109.67917582
_cell_angle_gamma   110.44570072
_symmetry_Int_Tables_number   1
_chemical_formula_structural   Tm12InGaFe2Tc
_chemical_formula_sum   'Tm12 In1 Ga1 Fe2 Tc1'
_cell_volume   427.94439581
_cell_formula_units_Z   1
loop_
 _symmetry_equiv_pos_site_id
 _symmetry_equiv_pos_as_xyz
  1  'x, y, z'
loop_
 _atom_site_type_symbol
 _atom_site_label
 _atom_site_symmetry_multiplicity
 _atom_site_fract_x
 _atom_site_fract_y
 _atom_site_fract_z
 _atom_site_occupancy
  Tm  Tm0  1  0.191402  0.426246  0.234844  1
  Tm  Tm1  1  0.808598  0.573754  0.765156  1
  Tm  Tm2  1  0.191395  0.956535  0.765139  1
  Tm  Tm3  1  0.943043  0.190927  0.752114  1
  Tm  Tm4  1  0.808605  0.043465  0.234861  1
  Tm  Tm5  1  0.056957  0.809073  0.247886  1
  Tm  Tm6  1  0.438813  0.190927  0.247885  1
  Tm  Tm7  1  0.561187  0.809073  0.752115  1
  Tm  Tm8  1  0.308878  0.306985  0.615854  1
  Tm  Tm9  1  0.691122  0.693015  0.384146  1
  Tm  Tm10  1  0.691131  0.306985  0.998107  1
  Tm  Tm11  1  0.308869  0.693015  0.001893  1
  In  In12  1  0.000000  0.500000  0.500000  1
  Ga  Ga13  1  0.500000  0.000000  0.500000  1
  Fe  Fe14  1  0.383482  0.383358  0.999876  1
  Fe  Fe15  1  0.616518  0.616642  0.000124  1
  Tc  Tc16  1  0.000000  0.000000  0.000000  1
