# generated using pymatgen
data_Tm12Al(InOs)2
_symmetry_space_group_name_H-M   'P 1'
_cell_length_a   8.40893146
_cell_length_b   8.40893099
_cell_length_c   8.40893100
_cell_angle_alpha   110.38994433
_cell_angle_beta   110.38995041
_cell_angle_gamma   107.64899042
_symmetry_Int_Tables_number   1
_chemical_formula_structural   Tm12Al(InOs)2
_chemical_formula_sum   'Tm12 Al1 In2 Os2'
_cell_volume   457.37477547
_cell_formula_units_Z   1
loop_
 _symmetry_equiv_pos_site_id
 _symmetry_equiv_pos_as_xyz
  1  'x, y, z'
loop_
 _atom_site_type_symbol
 _atom_site_label
 _atom_site_symmetry_multiplicity
 _atom_site_fract_x
 _atom_site_fract_y
 _atom_site_fract_z
 _atom_site_occupancy
  Tm  Tm0  1  0.317043  0.317043  0.634085  1
  Tm  Tm1  1  0.682957  0.682957  0.365915  1
  Tm  Tm2  1  0.317043  0.682957  0.000000  1
  Tm  Tm3  1  0.682957  0.317043  0.000000  1
  Tm  Tm4  1  0.444794  0.196015  0.248780  1
  Tm  Tm5  1  0.555206  0.803985  0.751220  1
  Tm  Tm6  1  0.947235  0.196015  0.751220  1
  Tm  Tm7  1  0.196015  0.947235  0.751220  1
  Tm  Tm8  1  0.052765  0.803985  0.248780  1
  Tm  Tm9  1  0.803985  0.052765  0.248780  1
  Tm  Tm10  1  0.196015  0.444794  0.248780  1
  Tm  Tm11  1  0.803985  0.555206  0.751220  1
  Al  Al12  1  0.000000  0.000000  0.000000  1
  In  In13  1  0.500000  0.000000  0.500000  1
  In  In14  1  0.000000  0.500000  0.500000  1
  Os  Os15  1  0.343140  0.343140  0.000000  1
  Os  Os16  1  0.656860  0.656860  0.000000  1
