# generated using pymatgen
data_Cs4Na2TbGaAs4
_symmetry_space_group_name_H-M   'P 1'
_cell_length_a   9.83909325
_cell_length_b   9.83909450
_cell_length_c   9.83907314
_cell_angle_alpha   139.31236578
_cell_angle_beta   137.41512035
_cell_angle_gamma   60.36009468
_symmetry_Int_Tables_number   1
_chemical_formula_structural   Cs4Na2TbGaAs4
_chemical_formula_sum   'Cs4 Na2 Tb1 Ga1 As4'
_cell_volume   415.78617865
_cell_formula_units_Z   1
loop_
 _symmetry_equiv_pos_site_id
 _symmetry_equiv_pos_as_xyz
  1  'x, y, z'
loop_
 _atom_site_type_symbol
 _atom_site_label
 _atom_site_symmetry_multiplicity
 _atom_site_fract_x
 _atom_site_fract_y
 _atom_site_fract_z
 _atom_site_occupancy
  Cs  Cs0  1  0.095750  0.329133  0.775540  1
  Cs  Cs1  1  0.446422  0.170864  0.266631  1
  Cs  Cs2  1  0.904233  0.679791  0.233369  1
  Cs  Cs3  1  0.553594  0.820210  0.724460  1
  Na  Na4  1  0.500001  0.750001  0.250000  1
  Na  Na5  1  0.500001  0.250001  0.750000  1
  Tb  Tb6  1  0.999994  0.249994  0.250000  1
  Ga  Ga7  1  0.000008  0.750008  0.750000  1
  As  As8  1  0.123371  0.893381  0.194129  1
  As  As9  1  0.876639  0.070765  0.770029  1
  As  As10  1  0.300736  0.606610  0.729971  1
  As  As11  1  0.699253  0.429242  0.305871  1
