# generated using pymatgen
data_Y3Tl2InNiPd2
_symmetry_space_group_name_H-M   'P 1'
_cell_length_a   7.82175700
_cell_length_b   7.82175732
_cell_length_c   3.71920900
_cell_angle_alpha   90.00000000
_cell_angle_beta   90.00000000
_cell_angle_gamma   119.99691670
_symmetry_Int_Tables_number   1
_chemical_formula_structural   Y3Tl2InNiPd2
_chemical_formula_sum   'Y3 Tl2 In1 Ni1 Pd2'
_cell_volume   197.06221742
_cell_formula_units_Z   1
loop_
 _symmetry_equiv_pos_site_id
 _symmetry_equiv_pos_as_xyz
  1  'x, y, z'
loop_
 _atom_site_type_symbol
 _atom_site_label
 _atom_site_symmetry_multiplicity
 _atom_site_fract_x
 _atom_site_fract_y
 _atom_site_fract_z
 _atom_site_occupancy
  Y  Y0  1  0.999387  0.593085  0.500000  1
  Y  Y1  1  0.593085  0.999387  0.500000  1
  Y  Y2  1  0.408162  0.408162  0.500000  1
  Tl  Tl3  1  0.999642  0.255211  0.000000  1
  Tl  Tl4  1  0.255211  0.999642  0.000000  1
  In  In5  1  0.746092  0.746092  0.000000  1
  Ni  Ni6  1  0.991451  0.991451  0.500000  1
  Pd  Pd7  1  0.667081  0.339888  0.000000  1
  Pd  Pd8  1  0.339888  0.667081  0.000000  1
