# generated using pymatgen
data_Er2PdPtPb
_symmetry_space_group_name_H-M   'P 1'
_cell_length_a   7.94539600
_cell_length_b   7.93155700
_cell_length_c   3.55531200
_cell_angle_alpha   90.00000000
_cell_angle_beta   90.00000000
_cell_angle_gamma   90.00000000
_symmetry_Int_Tables_number   1
_chemical_formula_structural   Er2PdPtPb
_chemical_formula_sum   'Er4 Pd2 Pt2 Pb2'
_cell_volume   224.05349133
_cell_formula_units_Z   2
loop_
 _symmetry_equiv_pos_site_id
 _symmetry_equiv_pos_as_xyz
  1  'x, y, z'
loop_
 _atom_site_type_symbol
 _atom_site_label
 _atom_site_symmetry_multiplicity
 _atom_site_fract_x
 _atom_site_fract_y
 _atom_site_fract_z
 _atom_site_occupancy
  Er  Er0  1  0.656684  0.170328  0.500000  1
  Er  Er1  1  0.177443  0.333520  0.500000  1
  Er  Er2  1  0.843316  0.670328  0.500000  1
  Er  Er3  1  0.322557  0.833520  0.500000  1
  Pd  Pd4  1  0.628873  0.868123  0.000000  1
  Pd  Pd5  1  0.871127  0.368123  0.000000  1
  Pt  Pt6  1  0.373884  0.120187  0.000000  1
  Pt  Pt7  1  0.126116  0.620187  0.000000  1
  Pb  Pb8  1  0.991709  0.007842  0.000000  1
  Pb  Pb9  1  0.508291  0.507842  0.000000  1
