# generated using pymatgen
data_Li2TbYb2AlGe3
_symmetry_space_group_name_H-M   'P 1'
_cell_length_a   7.10310188
_cell_length_b   7.14453610
_cell_length_c   4.29857400
_cell_angle_alpha   90.00000000
_cell_angle_beta   90.00000000
_cell_angle_gamma   120.76414965
_symmetry_Int_Tables_number   1
_chemical_formula_structural   Li2TbYb2AlGe3
_chemical_formula_sum   'Li2 Tb1 Yb2 Al1 Ge3'
_cell_volume   187.44818918
_cell_formula_units_Z   1
loop_
 _symmetry_equiv_pos_site_id
 _symmetry_equiv_pos_as_xyz
  1  'x, y, z'
loop_
 _atom_site_type_symbol
 _atom_site_label
 _atom_site_symmetry_multiplicity
 _atom_site_fract_x
 _atom_site_fract_y
 _atom_site_fract_z
 _atom_site_occupancy
  Li  Li0  1  0.238848  0.997692  0.500000  1
  Li  Li1  1  0.996881  0.235891  0.500000  1
  Tb  Tb2  1  0.007370  0.578890  0.000000  1
  Yb  Yb3  1  0.422438  0.423126  0.000000  1
  Yb  Yb4  1  0.573739  0.007207  0.000000  1
  Al  Al5  1  0.755043  0.754122  0.500000  1
  Ge  Ge6  1  0.339520  0.669525  0.500000  1
  Ge  Ge7  1  0.678166  0.349330  0.500000  1
  Ge  Ge8  1  0.987997  0.984219  0.000000  1
