# generated using pymatgen
data_ScTaNb5Sn6
_symmetry_space_group_name_H-M   'P 1'
_cell_length_a   5.79488100
_cell_length_b   5.79326468
_cell_length_c   9.57286100
_cell_angle_alpha   90.00000000
_cell_angle_beta   90.00000000
_cell_angle_gamma   120.00922393
_symmetry_Int_Tables_number   1
_chemical_formula_structural   ScTaNb5Sn6
_chemical_formula_sum   'Sc1 Ta1 Nb5 Sn6'
_cell_volume   278.29147595
_cell_formula_units_Z   1
loop_
 _symmetry_equiv_pos_site_id
 _symmetry_equiv_pos_as_xyz
  1  'x, y, z'
loop_
 _atom_site_type_symbol
 _atom_site_label
 _atom_site_symmetry_multiplicity
 _atom_site_fract_x
 _atom_site_fract_y
 _atom_site_fract_z
 _atom_site_occupancy
  Sc  Sc0  1  0.000000  0.000000  0.000077  1
  Ta  Ta1  1  0.500000  0.000000  0.248113  1
  Nb  Nb2  1  0.500000  0.000000  0.751114  1
  Nb  Nb3  1  0.500000  0.500000  0.751434  1
  Nb  Nb4  1  0.000000  0.500000  0.751434  1
  Nb  Nb5  1  0.500000  0.500000  0.248693  1
  Nb  Nb6  1  0.000000  0.500000  0.248693  1
  Sn  Sn7  1  0.000000  0.000000  0.675918  1
  Sn  Sn8  1  0.000000  0.000000  0.324701  1
  Sn  Sn9  1  0.333613  0.667228  0.500058  1
  Sn  Sn10  1  0.666387  0.332772  0.500058  1
  Sn  Sn11  1  0.333329  0.666660  0.999854  1
  Sn  Sn12  1  0.666671  0.333340  0.999854  1
