# generated using pymatgen
data_Ca3CeSb3
_symmetry_space_group_name_H-M   'P 1'
_cell_length_a   8.25528172
_cell_length_b   8.30262351
_cell_length_c   8.34057179
_cell_angle_alpha   109.89122877
_cell_angle_beta   109.51615130
_cell_angle_gamma   109.32898856
_symmetry_Int_Tables_number   1
_chemical_formula_structural   Ca3CeSb3
_chemical_formula_sum   'Ca6 Ce2 Sb6'
_cell_volume   438.29980833
_cell_formula_units_Z   2
loop_
 _symmetry_equiv_pos_site_id
 _symmetry_equiv_pos_as_xyz
  1  'x, y, z'
loop_
 _atom_site_type_symbol
 _atom_site_label
 _atom_site_symmetry_multiplicity
 _atom_site_fract_x
 _atom_site_fract_y
 _atom_site_fract_z
 _atom_site_occupancy
  Ca  Ca0  1  0.498481  0.001918  0.856930  1
  Ca  Ca1  1  0.858447  0.498635  0.002675  1
  Ca  Ca2  1  0.141553  0.140188  0.144228  1
  Ca  Ca3  1  0.002665  0.857278  0.499393  1
  Ca  Ca4  1  0.501519  0.003438  0.358450  1
  Ca  Ca5  1  0.997335  0.354612  0.496727  1
  Ce  Ce6  1  0.354915  0.500610  0.999351  1
  Ce  Ce7  1  0.645085  0.645695  0.644436  1
  Sb  Sb8  1  0.746816  0.872524  0.120876  1
  Sb  Sb9  1  0.375284  0.251995  0.626507  1
  Sb  Sb10  1  0.253184  0.625708  0.374060  1
  Sb  Sb11  1  0.876874  0.123781  0.751009  1
  Sb  Sb12  1  0.624716  0.376711  0.251223  1
  Sb  Sb13  1  0.123126  0.746906  0.874135  1
