# generated using pymatgen
data_Er4Tc7W
_symmetry_space_group_name_H-M   'P 1'
_cell_length_a   5.33326487
_cell_length_b   5.33326511
_cell_length_c   8.94282400
_cell_angle_alpha   90.00000000
_cell_angle_beta   90.00000000
_cell_angle_gamma   118.68742446
_symmetry_Int_Tables_number   1
_chemical_formula_structural   Er4Tc7W
_chemical_formula_sum   'Er4 Tc7 W1'
_cell_volume   223.14396733
_cell_formula_units_Z   1
loop_
 _symmetry_equiv_pos_site_id
 _symmetry_equiv_pos_as_xyz
  1  'x, y, z'
loop_
 _atom_site_type_symbol
 _atom_site_label
 _atom_site_symmetry_multiplicity
 _atom_site_fract_x
 _atom_site_fract_y
 _atom_site_fract_z
 _atom_site_occupancy
  Er  Er0  1  0.332536  0.667464  0.438439  1
  Er  Er1  1  0.666555  0.333445  0.563958  1
  Er  Er2  1  0.666555  0.333445  0.936042  1
  Er  Er3  1  0.332536  0.667464  0.061561  1
  Tc  Tc4  1  0.000079  0.999921  0.507012  1
  Tc  Tc5  1  0.000079  0.999921  0.992988  1
  Tc  Tc6  1  0.830495  0.657857  0.250000  1
  Tc  Tc7  1  0.342143  0.169505  0.250000  1
  Tc  Tc8  1  0.171491  0.828509  0.750000  1
  Tc  Tc9  1  0.170788  0.346059  0.750000  1
  Tc  Tc10  1  0.653941  0.829212  0.750000  1
  W  W11  1  0.832804  0.167196  0.250000  1
