# generated using pymatgen
data_Er4Sc4Ir3Au
_symmetry_space_group_name_H-M   'P 1'
_cell_length_a   4.44420300
_cell_length_b   7.04012884
_cell_length_c   8.50022900
_cell_angle_alpha   90.79876391
_cell_angle_beta   90.00000000
_cell_angle_gamma   90.00000000
_symmetry_Int_Tables_number   1
_chemical_formula_structural   Er4Sc4Ir3Au
_chemical_formula_sum   'Er4 Sc4 Ir3 Au1'
_cell_volume   265.92729526
_cell_formula_units_Z   1
loop_
 _symmetry_equiv_pos_site_id
 _symmetry_equiv_pos_as_xyz
  1  'x, y, z'
loop_
 _atom_site_type_symbol
 _atom_site_label
 _atom_site_symmetry_multiplicity
 _atom_site_fract_x
 _atom_site_fract_y
 _atom_site_fract_z
 _atom_site_occupancy
  Er  Er0  1  0.250000  0.017060  0.334052  1
  Er  Er1  1  0.250000  0.537184  0.179672  1
  Er  Er2  1  0.750000  0.978977  0.671287  1
  Er  Er3  1  0.750000  0.478530  0.819730  1
  Sc  Sc4  1  0.250000  0.136034  0.924310  1
  Sc  Sc5  1  0.250000  0.643041  0.567730  1
  Sc  Sc6  1  0.750000  0.851505  0.061626  1
  Sc  Sc7  1  0.750000  0.358262  0.436865  1
  Ir  Ir8  1  0.250000  0.262129  0.610594  1
  Ir  Ir9  1  0.250000  0.753295  0.893328  1
  Ir  Ir10  1  0.750000  0.741414  0.387769  1
  Au  Au11  1  0.750000  0.242567  0.113036  1
