# generated using pymatgen
data_Sr14TlBi11
_symmetry_space_group_name_H-M   'P 1'
_cell_length_a   17.42021604
_cell_length_b   17.42021590
_cell_length_c   17.42021600
_cell_angle_alpha   117.53088632
_cell_angle_beta   117.53088608
_cell_angle_gamma   94.33262965
_symmetry_Int_Tables_number   1
_chemical_formula_structural   Sr14TlBi11
_chemical_formula_sum   'Sr56 Tl4 Bi44'
_cell_volume   3865.60386945
_cell_formula_units_Z   4
loop_
 _symmetry_equiv_pos_site_id
 _symmetry_equiv_pos_as_xyz
  1  'x, y, z'
loop_
 _atom_site_type_symbol
 _atom_site_label
 _atom_site_symmetry_multiplicity
 _atom_site_fract_x
 _atom_site_fract_y
 _atom_site_fract_z
 _atom_site_occupancy
  Sr  Sr0  1  0.500018  0.602905  0.848974  1
  Sr  Sr1  1  0.625000  0.227399  0.102399  1
  Sr  Sr2  1  0.160953  0.029637  0.782282  1
  Sr  Sr3  1  0.897007  0.377452  0.839840  1
  Sr  Sr4  1  0.125000  0.022601  0.397601  1
  Sr  Sr5  1  0.772601  0.875000  0.397601  1
  Sr  Sr6  1  0.128671  0.410953  0.631317  1
  Sr  Sr7  1  0.753931  0.651045  0.151026  1
  Sr  Sr8  1  0.712389  0.372548  0.019556  1
  Sr  Sr9  1  0.442833  0.962389  0.839840  1
  Sr  Sr10  1  0.307167  0.287611  0.660160  1
  Sr  Sr11  1  0.037611  0.877452  0.480444  1
  Sr  Sr12  1  0.496069  0.147095  0.397113  1
  Sr  Sr13  1  0.352905  0.003931  0.602887  1
  Sr  Sr14  1  0.125000  0.522601  0.897601  1
  Sr  Sr15  1  0.996069  0.598955  0.348974  1
  Sr  Sr16  1  0.942833  0.102993  0.480444  1
  Sr  Sr17  1  0.627452  0.647007  0.339840  1
  Sr  Sr18  1  0.897095  0.999982  0.151026  1
  Sr  Sr19  1  0.352993  0.692833  0.980444  1
  Sr  Sr20  1  0.122548  0.602993  0.160160  1
  Sr  Sr21  1  0.000018  0.151045  0.897113  1
  Sr  Sr22  1  0.660953  0.878671  0.131317  1
  Sr  Sr23  1  0.502646  0.871329  0.282282  1
  Sr  Sr24  1  0.852993  0.872548  0.660160  1
  Sr  Sr25  1  0.212389  0.192833  0.339840  1
  Sr  Sr26  1  0.002646  0.720363  0.631317  1
  Sr  Sr27  1  0.747354  0.529637  0.868683  1
  Sr  Sr28  1  0.253931  0.102905  0.102887  1
  Sr  Sr29  1  0.247354  0.378671  0.217718  1
  Sr  Sr30  1  0.348955  0.499982  0.102887  1
  Sr  Sr31  1  0.249982  0.647095  0.651026  1
  Sr  Sr32  1  0.749982  0.098955  0.602887  1
  Sr  Sr33  1  0.625000  0.727399  0.602399  1
  Sr  Sr34  1  0.901045  0.503931  0.651026  1
  Sr  Sr35  1  0.848955  0.746069  0.848974  1
  Sr  Sr36  1  0.621329  0.839047  0.868683  1
  Sr  Sr37  1  0.279637  0.910953  0.282282  1
  Sr  Sr38  1  0.852905  0.250018  0.348974  1
  Sr  Sr39  1  0.127452  0.787611  0.980444  1
  Sr  Sr40  1  0.779637  0.497354  0.368683  1
  Sr  Sr41  1  0.970363  0.752646  0.131317  1
  Sr  Sr42  1  0.121329  0.252646  0.782282  1
  Sr  Sr43  1  0.589047  0.220363  0.717718  1
  Sr  Sr44  1  0.622548  0.462389  0.519556  1
  Sr  Sr45  1  0.977399  0.375000  0.102399  1
  Sr  Sr46  1  0.537611  0.057167  0.160160  1
  Sr  Sr47  1  0.397095  0.246069  0.897113  1
  Sr  Sr48  1  0.401045  0.750018  0.397113  1
  Sr  Sr49  1  0.477399  0.375000  0.602399  1
  Sr  Sr50  1  0.089047  0.371329  0.368683  1
  Sr  Sr51  1  0.807167  0.147007  0.019556  1
  Sr  Sr52  1  0.272601  0.875000  0.897601  1
  Sr  Sr53  1  0.470363  0.339047  0.217718  1
  Sr  Sr54  1  0.397007  0.557167  0.519556  1
  Sr  Sr55  1  0.628671  0.997354  0.717718  1
  Tl  Tl56  1  0.250000  0.750000  0.500000  1
  Tl  Tl57  1  0.750000  0.250000  0.500000  1
  Tl  Tl58  1  0.000000  0.000000  0.000000  1
  Tl  Tl59  1  0.500000  0.500000  0.000000  1
  Bi  Bi60  1  0.865673  0.365673  0.231346  1
  Bi  Bi61  1  0.291105  0.698758  0.145906  1
  Bi  Bi62  1  0.884327  0.884327  0.268654  1
  Bi  Bi63  1  0.552852  0.145199  0.854094  1
  Bi  Bi64  1  0.948758  0.041105  0.645906  1
  Bi  Bi65  1  0.365673  0.134327  0.500000  1
  Bi  Bi66  1  0.458895  0.551242  0.354094  1
  Bi  Bi67  1  0.354801  0.947148  0.145906  1
  Bi  Bi68  1  0.060381  0.212709  0.140699  1
  Bi  Bi69  1  0.052852  0.198758  0.407652  1
  Bi  Bi70  1  0.500000  0.000000  0.500000  1
  Bi  Bi71  1  0.197148  0.104801  0.645906  1
  Bi  Bi72  1  0.787291  0.927989  0.847672  1
  Bi  Bi73  1  0.677989  0.330319  0.640699  1
  Bi  Bi74  1  0.462709  0.810381  0.640699  1
  Bi  Bi75  1  0.169681  0.822011  0.359301  1
  Bi  Bi76  1  0.572011  0.712709  0.152328  1
  Bi  Bi77  1  0.669681  0.310381  0.347672  1
  Bi  Bi78  1  0.080319  0.939619  0.152328  1
  Bi  Bi79  1  0.750000  0.750000  0.000000  1
  Bi  Bi80  1  0.560381  0.419681  0.847672  1
  Bi  Bi81  1  0.384327  0.115673  0.000000  1
  Bi  Bi82  1  0.072011  0.919681  0.859301  1
  Bi  Bi83  1  0.000000  0.500000  0.500000  1
  Bi  Bi84  1  0.287291  0.439619  0.859301  1
  Bi  Bi85  1  0.801242  0.208895  0.854094  1
  Bi  Bi86  1  0.250000  0.250000  0.000000  1
  Bi  Bi87  1  0.395199  0.302852  0.354094  1
  Bi  Bi88  1  0.301242  0.447148  0.592348  1
  Bi  Bi89  1  0.697148  0.051242  0.092348  1
  Bi  Bi90  1  0.791105  0.645199  0.592348  1
  Bi  Bi91  1  0.189619  0.830319  0.652328  1
  Bi  Bi92  1  0.958895  0.604801  0.907652  1
  Bi  Bi93  1  0.115673  0.384327  0.000000  1
  Bi  Bi94  1  0.962709  0.322011  0.652328  1
  Bi  Bi95  1  0.634327  0.865673  0.500000  1
  Bi  Bi96  1  0.689619  0.037291  0.359301  1
  Bi  Bi97  1  0.580319  0.427989  0.140699  1
  Bi  Bi98  1  0.854801  0.708895  0.407652  1
  Bi  Bi99  1  0.895199  0.541105  0.092348  1
  Bi  Bi100  1  0.448758  0.802852  0.907652  1
  Bi  Bi101  1  0.134327  0.634327  0.768654  1
  Bi  Bi102  1  0.615673  0.615673  0.731346  1
  Bi  Bi103  1  0.177989  0.537291  0.347672  1
