# generated using pymatgen
data_Er8SiPd13Pt11
_symmetry_space_group_name_H-M   'P 1'
_cell_length_a   8.29637100
_cell_length_b   8.30771300
_cell_length_c   8.31023400
_cell_angle_alpha   90.00000000
_cell_angle_beta   90.00000000
_cell_angle_gamma   90.00000000
_symmetry_Int_Tables_number   1
_chemical_formula_structural   Er8SiPd13Pt11
_chemical_formula_sum   'Er8 Si1 Pd13 Pt11'
_cell_volume   572.77348132
_cell_formula_units_Z   1
loop_
 _symmetry_equiv_pos_site_id
 _symmetry_equiv_pos_as_xyz
  1  'x, y, z'
loop_
 _atom_site_type_symbol
 _atom_site_label
 _atom_site_symmetry_multiplicity
 _atom_site_fract_x
 _atom_site_fract_y
 _atom_site_fract_z
 _atom_site_occupancy
  Er  Er0  1  0.253457  0.253603  0.253231  1
  Er  Er1  1  0.746514  0.746549  0.746401  1
  Er  Er2  1  0.746514  0.746549  0.253599  1
  Er  Er3  1  0.746514  0.253451  0.746401  1
  Er  Er4  1  0.253457  0.253603  0.746769  1
  Er  Er5  1  0.253457  0.746397  0.253231  1
  Er  Er6  1  0.253457  0.746397  0.746769  1
  Er  Er7  1  0.746514  0.253451  0.253599  1
  Si  Si8  1  0.000375  0.000000  0.000000  1
  Pd  Pd9  1  0.742595  0.500000  0.000000  1
  Pd  Pd10  1  0.999957  0.257352  0.500000  1
  Pd  Pd11  1  0.500078  0.257138  0.000000  1
  Pd  Pd12  1  0.999957  0.742648  0.500000  1
  Pd  Pd13  1  0.500078  0.742862  0.000000  1
  Pd  Pd14  1  0.500015  0.000000  0.257712  1
  Pd  Pd15  1  0.257527  0.000000  0.500000  1
  Pd  Pd16  1  0.500015  0.000000  0.742288  1
  Pd  Pd17  1  0.742569  0.000000  0.500000  1
  Pd  Pd18  1  0.000039  0.500000  0.257818  1
  Pd  Pd19  1  0.000039  0.500000  0.742182  1
  Pd  Pd20  1  0.999979  0.000000  0.281545  1
  Pd  Pd21  1  0.999979  0.000000  0.718455  1
  Pt  Pt22  1  0.257338  0.500000  0.000000  1
  Pt  Pt23  1  0.251547  0.500000  0.500000  1
  Pt  Pt24  1  0.748239  0.500000  0.500000  1
  Pt  Pt25  1  0.500053  0.251502  0.500000  1
  Pt  Pt26  1  0.500053  0.748498  0.500000  1
  Pt  Pt27  1  0.499922  0.500000  0.251823  1
  Pt  Pt28  1  0.499922  0.500000  0.748177  1
  Pt  Pt29  1  0.280479  0.000000  0.000000  1
  Pt  Pt30  1  0.719804  0.000000  0.000000  1
  Pt  Pt31  1  0.999778  0.280148  0.000000  1
  Pt  Pt32  1  0.999778  0.719852  0.000000  1
