# generated using pymatgen
data_YHo3Os7W
_symmetry_space_group_name_H-M   'P 1'
_cell_length_a   5.29886376
_cell_length_b   5.29886274
_cell_length_c   8.88645105
_cell_angle_alpha   90.01046402
_cell_angle_beta   89.98953372
_cell_angle_gamma   117.95931426
_symmetry_Int_Tables_number   1
_chemical_formula_structural   YHo3Os7W
_chemical_formula_sum   'Y1 Ho3 Os7 W1'
_cell_volume   220.39032636
_cell_formula_units_Z   1
loop_
 _symmetry_equiv_pos_site_id
 _symmetry_equiv_pos_as_xyz
  1  'x, y, z'
loop_
 _atom_site_type_symbol
 _atom_site_label
 _atom_site_symmetry_multiplicity
 _atom_site_fract_x
 _atom_site_fract_y
 _atom_site_fract_z
 _atom_site_occupancy
  Y  Y0  1  0.328830  0.671170  0.437714  1
  Ho  Ho1  1  0.665945  0.334055  0.566687  1
  Ho  Ho2  1  0.665893  0.334107  0.933680  1
  Ho  Ho3  1  0.328734  0.671266  0.061809  1
  Os  Os4  1  0.992145  0.007855  0.502724  1
  Os  Os5  1  0.992390  0.007610  0.997528  1
  Os  Os6  1  0.824942  0.649269  0.249459  1
  Os  Os7  1  0.350731  0.175058  0.249459  1
  Os  Os8  1  0.178471  0.821529  0.750617  1
  Os  Os9  1  0.172074  0.337137  0.750277  1
  Os  Os10  1  0.662863  0.827926  0.750277  1
  W  W11  1  0.836982  0.163018  0.249766  1
