# generated using pymatgen
data_Cs4Na2HoErAs4
_symmetry_space_group_name_H-M   'P 1'
_cell_length_a   9.80196897
_cell_length_b   9.80196814
_cell_length_c   9.80196866
_cell_angle_alpha   136.48905910
_cell_angle_beta   136.79756513
_cell_angle_gamma   62.98765604
_symmetry_Int_Tables_number   1
_chemical_formula_structural   Cs4Na2HoErAs4
_chemical_formula_sum   'Cs4 Na2 Ho1 Er1 As4'
_cell_volume   438.30044025
_cell_formula_units_Z   1
loop_
 _symmetry_equiv_pos_site_id
 _symmetry_equiv_pos_as_xyz
  1  'x, y, z'
loop_
 _atom_site_type_symbol
 _atom_site_label
 _atom_site_symmetry_multiplicity
 _atom_site_fract_x
 _atom_site_fract_y
 _atom_site_fract_z
 _atom_site_occupancy
  Cs  Cs0  1  0.681039  0.401932  0.720919  1
  Cs  Cs1  1  0.818961  0.039880  0.220894  1
  Cs  Cs2  1  0.181014  0.960120  0.779081  1
  Cs  Cs3  1  0.318986  0.598068  0.279106  1
  Na  Na4  1  0.750000  0.000000  0.750000  1
  Na  Na5  1  0.250000  0.000000  0.250000  1
  Ho  Ho6  1  0.250000  0.500000  0.750000  1
  Er  Er7  1  0.750000  0.500000  0.250000  1
  As  As8  1  0.410825  0.190966  0.781308  1
  As  As9  1  0.590341  0.809034  0.219859  1
  As  As10  1  0.089175  0.370484  0.280141  1
  As  As11  1  0.909659  0.629516  0.718692  1
