# generated using pymatgen
data_Er2Zn2Ag5
_symmetry_space_group_name_H-M   'P 1'
_cell_length_a   5.39025711
_cell_length_b   5.27639287
_cell_length_c   14.02089200
_cell_angle_alpha   90.00000000
_cell_angle_beta   90.00000000
_cell_angle_gamma   119.16587294
_symmetry_Int_Tables_number   1
_chemical_formula_structural   Er2Zn2Ag5
_chemical_formula_sum   'Er4 Zn4 Ag10'
_cell_volume   348.21076735
_cell_formula_units_Z   2
loop_
 _symmetry_equiv_pos_site_id
 _symmetry_equiv_pos_as_xyz
  1  'x, y, z'
loop_
 _atom_site_type_symbol
 _atom_site_label
 _atom_site_symmetry_multiplicity
 _atom_site_fract_x
 _atom_site_fract_y
 _atom_site_fract_z
 _atom_site_occupancy
  Er  Er0  1  0.320270  0.322378  0.119588  1
  Er  Er1  1  0.679730  0.677622  0.619588  1
  Er  Er2  1  0.320270  0.322378  0.380412  1
  Er  Er3  1  0.679730  0.677622  0.880412  1
  Zn  Zn4  1  0.828943  0.831056  0.250000  1
  Zn  Zn5  1  0.171057  0.168944  0.750000  1
  Zn  Zn6  1  0.827421  0.332374  0.250000  1
  Zn  Zn7  1  0.172579  0.667626  0.750000  1
  Ag  Ag8  1  0.332297  0.828730  0.250000  1
  Ag  Ag9  1  0.667703  0.171270  0.750000  1
  Ag  Ag10  1  0.976040  0.658210  0.077232  1
  Ag  Ag11  1  0.023960  0.341790  0.577232  1
  Ag  Ag12  1  0.670030  0.994623  0.424417  1
  Ag  Ag13  1  0.329970  0.005377  0.924417  1
  Ag  Ag14  1  0.023960  0.341790  0.922768  1
  Ag  Ag15  1  0.976040  0.658210  0.422768  1
  Ag  Ag16  1  0.329970  0.005377  0.575583  1
  Ag  Ag17  1  0.670030  0.994623  0.075583  1
