# generated using pymatgen
data_HfTa8CrO25
_symmetry_space_group_name_H-M   'P 1'
_cell_length_a   3.87082436
_cell_length_b   11.48288590
_cell_length_c   11.45002823
_cell_angle_alpha   88.52459338
_cell_angle_beta   80.21135926
_cell_angle_gamma   80.34299726
_symmetry_Int_Tables_number   1
_chemical_formula_structural   HfTa8CrO25
_chemical_formula_sum   'Hf1 Ta8 Cr1 O25'
_cell_volume   494.41549772
_cell_formula_units_Z   1
loop_
 _symmetry_equiv_pos_site_id
 _symmetry_equiv_pos_as_xyz
  1  'x, y, z'
loop_
 _atom_site_type_symbol
 _atom_site_label
 _atom_site_symmetry_multiplicity
 _atom_site_fract_x
 _atom_site_fract_y
 _atom_site_fract_z
 _atom_site_occupancy
  Hf  Hf0  1  0.779126  0.125286  0.323579  1
  Ta  Ta1  1  0.878669  0.802237  0.442055  1
  Ta  Ta2  1  0.124927  0.194411  0.558257  1
  Ta  Ta3  1  0.679168  0.443873  0.194702  1
  Ta  Ta4  1  0.319558  0.557850  0.802912  1
  Ta  Ta5  1  0.899179  0.319606  0.875954  1
  Ta  Ta6  1  0.095228  0.681284  0.122273  1
  Ta  Ta7  1  0.224141  0.876768  0.680279  1
  Ta  Ta8  1  0.996417  0.002532  0.004660  1
  Cr  Cr9  1  0.252417  0.499253  0.500359  1
  O  O10  1  0.946674  0.620698  0.513216  1
  O  O11  1  0.538563  0.512529  0.375409  1
  O  O12  1  0.429371  0.488040  0.624810  1
  O  O13  1  0.083810  0.376725  0.489477  1
  O  O14  1  0.505724  0.997193  0.991105  1
  O  O15  1  0.241965  0.146601  0.376845  1
  O  O16  1  0.384235  0.365990  0.858530  1
  O  O17  1  0.607851  0.637654  0.139426  1
  O  O18  1  0.757600  0.856743  0.634447  1
  O  O19  1  0.832685  0.956019  0.392039  1
  O  O20  1  0.986068  0.731037  0.291803  1
  O  O21  1  0.722782  0.297636  0.261867  1
  O  O22  1  0.281979  0.706410  0.734531  1
  O  O23  1  0.009849  0.268162  0.708420  1
  O  O24  1  0.948867  0.167839  0.932710  1
  O  O25  1  0.119164  0.932351  0.830773  1
  O  O26  1  0.887996  0.062858  0.161429  1
  O  O27  1  0.778773  0.393675  0.035437  1
  O  O28  1  0.358853  0.800790  0.489821  1
  O  O29  1  0.152592  0.491947  0.192746  1
  O  O30  1  0.837742  0.511258  0.804803  1
  O  O31  1  0.645966  0.197799  0.519402  1
  O  O32  1  0.182254  0.036862  0.610370  1
  O  O33  1  0.208801  0.608021  0.961798  1
  O  O34  1  0.051014  0.832065  0.063753  1
