# generated using pymatgen
data_Hf4Ti2Al7
_symmetry_space_group_name_H-M   'P 1'
_cell_length_a   10.08659499
_cell_length_b   10.08659519
_cell_length_c   10.08659500
_cell_angle_alpha   30.13515216
_cell_angle_beta   30.13516146
_cell_angle_gamma   30.13515710
_symmetry_Int_Tables_number   1
_chemical_formula_structural   Hf4Ti2Al7
_chemical_formula_sum   'Hf4 Ti2 Al7'
_cell_volume   229.15378341
_cell_formula_units_Z   1
loop_
 _symmetry_equiv_pos_site_id
 _symmetry_equiv_pos_as_xyz
  1  'x, y, z'
loop_
 _atom_site_type_symbol
 _atom_site_label
 _atom_site_symmetry_multiplicity
 _atom_site_fract_x
 _atom_site_fract_y
 _atom_site_fract_z
 _atom_site_occupancy
  Hf  Hf0  1  0.834382  0.834382  0.834382  1
  Hf  Hf1  1  0.165618  0.165618  0.165618  1
  Hf  Hf2  1  0.648631  0.648631  0.648631  1
  Hf  Hf3  1  0.351369  0.351369  0.351369  1
  Ti  Ti4  1  0.542975  0.542975  0.542975  1
  Ti  Ti5  1  0.457025  0.457025  0.457025  1
  Al  Al6  1  0.000000  0.000000  0.000000  1
  Al  Al7  1  0.908262  0.414746  0.908262  1
  Al  Al8  1  0.908262  0.908262  0.414746  1
  Al  Al9  1  0.414746  0.908262  0.908262  1
  Al  Al10  1  0.091738  0.585254  0.091738  1
  Al  Al11  1  0.091738  0.091738  0.585254  1
  Al  Al12  1  0.585254  0.091738  0.091738  1
