# generated using pymatgen
data_Cu2PRh3S8
_symmetry_space_group_name_H-M   'P 1'
_cell_length_a   7.01564493
_cell_length_b   6.91420256
_cell_length_c   7.01564500
_cell_angle_alpha   59.51347357
_cell_angle_beta   60.00000438
_cell_angle_gamma   59.51346653
_symmetry_Int_Tables_number   1
_chemical_formula_structural   Cu2PRh3S8
_chemical_formula_sum   'Cu2 P1 Rh3 S8'
_cell_volume   238.85212425
_cell_formula_units_Z   1
loop_
 _symmetry_equiv_pos_site_id
 _symmetry_equiv_pos_as_xyz
  1  'x, y, z'
loop_
 _atom_site_type_symbol
 _atom_site_label
 _atom_site_symmetry_multiplicity
 _atom_site_fract_x
 _atom_site_fract_y
 _atom_site_fract_z
 _atom_site_occupancy
  Cu  Cu0  1  0.750952  0.747143  0.750952  1
  Cu  Cu1  1  0.499048  0.502857  0.499048  1
  P  P2  1  0.125000  0.625000  0.125000  1
  Rh  Rh3  1  0.125000  0.125000  0.625000  1
  Rh  Rh4  1  0.625000  0.125000  0.125000  1
  Rh  Rh5  1  0.125000  0.125000  0.125000  1
  S  S6  1  0.884555  0.346334  0.884555  1
  S  S7  1  0.361401  0.369621  0.907577  1
  S  S8  1  0.361401  0.369621  0.361401  1
  S  S9  1  0.907577  0.369621  0.361401  1
  S  S10  1  0.888599  0.880379  0.888599  1
  S  S11  1  0.342423  0.880379  0.888599  1
  S  S12  1  0.365445  0.903666  0.365445  1
  S  S13  1  0.888599  0.880379  0.342423  1
