# generated using pymatgen
data_SmDyCu2(TeO6)2
_symmetry_space_group_name_H-M   'P 1'
_cell_length_a   5.15810124
_cell_length_b   5.15806990
_cell_length_c   9.99284241
_cell_angle_alpha   89.99971041
_cell_angle_beta   90.00066354
_cell_angle_gamma   120.00191165
_symmetry_Int_Tables_number   1
_chemical_formula_structural   SmDyCu2(TeO6)2
_chemical_formula_sum   'Sm1 Dy1 Cu2 Te2 O12'
_cell_volume   230.24403617
_cell_formula_units_Z   1
loop_
 _symmetry_equiv_pos_site_id
 _symmetry_equiv_pos_as_xyz
  1  'x, y, z'
loop_
 _atom_site_type_symbol
 _atom_site_label
 _atom_site_symmetry_multiplicity
 _atom_site_fract_x
 _atom_site_fract_y
 _atom_site_fract_z
 _atom_site_occupancy
  Sm  Sm0  1  0.999998  0.999995  0.000006  1
  Dy  Dy1  1  0.999999  0.999993  0.500005  1
  Cu  Cu2  1  0.333326  0.666616  0.253158  1
  Cu  Cu3  1  0.666680  0.333392  0.746845  1
  Te  Te4  1  0.666682  0.333305  0.253398  1
  Te  Te5  1  0.333329  0.666713  0.746585  1
  O  O6  1  0.636528  0.627359  0.142452  1
  O  O7  1  0.990860  0.363414  0.142454  1
  O  O8  1  0.372559  0.009057  0.142451  1
  O  O9  1  0.989474  0.636347  0.362122  1
  O  O10  1  0.363619  0.353045  0.362121  1
  O  O11  1  0.646919  0.010486  0.362112  1
  O  O12  1  0.353100  0.989518  0.637886  1
  O  O13  1  0.636371  0.646944  0.637881  1
  O  O14  1  0.010521  0.363648  0.637880  1
  O  O15  1  0.009145  0.636603  0.857543  1
  O  O16  1  0.627439  0.990935  0.857548  1
  O  O17  1  0.363452  0.372629  0.857552  1
