# generated using pymatgen
data_Y3Mg3SiNiGe
_symmetry_space_group_name_H-M   'P 1'
_cell_length_a   7.21307000
_cell_length_b   7.21307099
_cell_length_c   4.23920200
_cell_angle_alpha   90.00000000
_cell_angle_beta   90.00000000
_cell_angle_gamma   119.99999547
_symmetry_Int_Tables_number   1
_chemical_formula_structural   Y3Mg3SiNiGe
_chemical_formula_sum   'Y3 Mg3 Si1 Ni1 Ge1'
_cell_volume   191.00956527
_cell_formula_units_Z   1
loop_
 _symmetry_equiv_pos_site_id
 _symmetry_equiv_pos_as_xyz
  1  'x, y, z'
loop_
 _atom_site_type_symbol
 _atom_site_label
 _atom_site_symmetry_multiplicity
 _atom_site_fract_x
 _atom_site_fract_y
 _atom_site_fract_z
 _atom_site_occupancy
  Y  Y0  1  0.997979  0.587713  0.000000  1
  Y  Y1  1  0.412287  0.410266  0.000000  1
  Y  Y2  1  0.589734  0.002021  0.000000  1
  Mg  Mg3  1  0.240862  0.001520  0.500000  1
  Mg  Mg4  1  0.760658  0.759138  0.500000  1
  Mg  Mg5  1  0.998480  0.239342  0.500000  1
  Si  Si6  1  0.666667  0.333333  0.500000  1
  Ni  Ni7  1  0.000000  0.000000  0.000000  1
  Ge  Ge8  1  0.333333  0.666667  0.500000  1
