# generated using pymatgen
data_Rb2Th2S5
_symmetry_space_group_name_H-M   'P 1'
_cell_length_a   4.11391748
_cell_length_b   8.74293452
_cell_length_c   10.90350500
_cell_angle_alpha   128.43980344
_cell_angle_beta   84.45847836
_cell_angle_gamma   101.16749014
_symmetry_Int_Tables_number   1
_chemical_formula_structural   Rb2Th2S5
_chemical_formula_sum   'Rb2 Th2 S5'
_cell_volume   301.21361947
_cell_formula_units_Z   1
loop_
 _symmetry_equiv_pos_site_id
 _symmetry_equiv_pos_as_xyz
  1  'x, y, z'
loop_
 _atom_site_type_symbol
 _atom_site_label
 _atom_site_symmetry_multiplicity
 _atom_site_fract_x
 _atom_site_fract_y
 _atom_site_fract_z
 _atom_site_occupancy
  Rb  Rb0  1  0.630276  0.658655  0.842551  1
  Rb  Rb1  1  0.072355  0.295526  0.098235  1
  Th  Th2  1  0.682655  0.102236  0.373745  1
  Th  Th3  1  0.027585  0.852496  0.566134  1
  S  S4  1  0.854102  0.478309  0.471840  1
  S  S5  1  0.166955  0.203553  0.592507  1
  S  S6  1  0.542986  0.750342  0.346594  1
  S  S7  1  0.182763  0.968800  0.158977  1
  S  S8  1  0.528529  0.988651  0.781041  1
