# generated using pymatgen
data_Lu10In4BiSb
_symmetry_space_group_name_H-M   'P 1'
_cell_length_a   6.47366901
_cell_length_b   8.86933293
_cell_length_c   8.77662418
_cell_angle_alpha   120.17937843
_cell_angle_beta   90.00665710
_cell_angle_gamma   89.99731626
_symmetry_Int_Tables_number   1
_chemical_formula_structural   Lu10In4BiSb
_chemical_formula_sum   'Lu10 In4 Bi1 Sb1'
_cell_volume   435.62393586
_cell_formula_units_Z   1
loop_
 _symmetry_equiv_pos_site_id
 _symmetry_equiv_pos_as_xyz
  1  'x, y, z'
loop_
 _atom_site_type_symbol
 _atom_site_label
 _atom_site_symmetry_multiplicity
 _atom_site_fract_x
 _atom_site_fract_y
 _atom_site_fract_z
 _atom_site_occupancy
  Lu  Lu0  1  0.498717  0.325794  0.656904  1
  Lu  Lu1  1  0.498860  0.670842  0.343133  1
  Lu  Lu2  1  0.001081  0.670057  0.343072  1
  Lu  Lu3  1  0.001283  0.326476  0.656900  1
  Lu  Lu4  1  0.750157  0.233387  0.998935  1
  Lu  Lu5  1  0.750037  0.773261  0.758386  1
  Lu  Lu6  1  0.749956  0.012330  0.239762  1
  Lu  Lu7  1  0.250003  0.765278  0.001226  1
  Lu  Lu8  1  0.249960  0.229308  0.239644  1
  Lu  Lu9  1  0.249908  0.992250  0.762271  1
  In  In10  1  0.749906  0.404428  0.400378  1
  In  In11  1  0.750442  0.004708  0.599048  1
  In  In12  1  0.250246  0.596935  0.601623  1
  In  In13  1  0.249430  0.994600  0.398981  1
  Bi  Bi14  1  0.749994  0.608405  0.999169  1
  Sb  Sb15  1  0.250021  0.391945  0.000568  1
