# generated using pymatgen
data_La2Gd3YTa2O14
_symmetry_space_group_name_H-M   'P 1'
_cell_length_a   6.58902985
_cell_length_b   6.58311141
_cell_length_c   7.69167600
_cell_angle_alpha   90.00000000
_cell_angle_beta   90.00000000
_cell_angle_gamma   109.27719458
_symmetry_Int_Tables_number   1
_chemical_formula_structural   La2Gd3YTa2O14
_chemical_formula_sum   'La2 Gd3 Y1 Ta2 O14'
_cell_volume   314.93038882
_cell_formula_units_Z   1
loop_
 _symmetry_equiv_pos_site_id
 _symmetry_equiv_pos_as_xyz
  1  'x, y, z'
loop_
 _atom_site_type_symbol
 _atom_site_label
 _atom_site_symmetry_multiplicity
 _atom_site_fract_x
 _atom_site_fract_y
 _atom_site_fract_z
 _atom_site_occupancy
  La  La0  1  0.498338  0.498587  0.500649  1
  La  La1  1  0.498338  0.498587  0.999351  1
  Gd  Gd2  1  0.532527  0.000214  0.750000  1
  Gd  Gd3  1  0.000443  0.531835  0.250000  1
  Gd  Gd4  1  0.467495  0.999536  0.250000  1
  Y  Y5  1  0.999324  0.466750  0.750000  1
  Ta  Ta6  1  0.999798  0.999353  0.500586  1
  Ta  Ta7  1  0.999798  0.999353  0.999414  1
  O  O8  1  0.683473  0.931947  0.468094  1
  O  O9  1  0.936587  0.684893  0.535258  1
  O  O10  1  0.683473  0.931947  0.031906  1
  O  O11  1  0.936587  0.684893  0.964742  1
  O  O12  1  0.317293  0.068371  0.531332  1
  O  O13  1  0.066320  0.317779  0.470389  1
  O  O14  1  0.317293  0.068371  0.968668  1
  O  O15  1  0.066320  0.317779  0.029611  1
  O  O16  1  0.939009  0.062938  0.750000  1
  O  O17  1  0.059199  0.939446  0.250000  1
  O  O18  1  0.360951  0.632784  0.750000  1
  O  O19  1  0.635215  0.365408  0.250000  1
  O  O20  1  0.644840  0.357481  0.750000  1
  O  O21  1  0.357379  0.641748  0.250000  1
