# generated using pymatgen
data_Y(Th2Fe)3
_symmetry_space_group_name_H-M   'P 1'
_cell_length_a   9.68767300
_cell_length_b   9.68767332
_cell_length_c   6.20894000
_cell_angle_alpha   90.00000000
_cell_angle_beta   90.00000000
_cell_angle_gamma   120.00000233
_symmetry_Int_Tables_number   1
_chemical_formula_structural   Y(Th2Fe)3
_chemical_formula_sum   'Y2 Th12 Fe6'
_cell_volume   504.64623914
_cell_formula_units_Z   2
loop_
 _symmetry_equiv_pos_site_id
 _symmetry_equiv_pos_as_xyz
  1  'x, y, z'
loop_
 _atom_site_type_symbol
 _atom_site_label
 _atom_site_symmetry_multiplicity
 _atom_site_fract_x
 _atom_site_fract_y
 _atom_site_fract_z
 _atom_site_occupancy
  Y  Y0  1  0.333333  0.666667  0.040170  1
  Y  Y1  1  0.666667  0.333333  0.540170  1
  Th  Th2  1  0.125459  0.874541  0.250300  1
  Th  Th3  1  0.250917  0.125459  0.750300  1
  Th  Th4  1  0.874541  0.749083  0.750300  1
  Th  Th5  1  0.125459  0.250917  0.250300  1
  Th  Th6  1  0.749083  0.874541  0.250300  1
  Th  Th7  1  0.874541  0.125459  0.750300  1
  Th  Th8  1  0.541450  0.458550  0.069682  1
  Th  Th9  1  0.082900  0.541450  0.569682  1
  Th  Th10  1  0.458550  0.917100  0.569682  1
  Th  Th11  1  0.541450  0.082900  0.069682  1
  Th  Th12  1  0.917100  0.458550  0.069682  1
  Th  Th13  1  0.458550  0.541450  0.569682  1
  Fe  Fe14  1  0.820138  0.179862  0.276628  1
  Fe  Fe15  1  0.640275  0.820138  0.776628  1
  Fe  Fe16  1  0.179862  0.359725  0.776628  1
  Fe  Fe17  1  0.820138  0.640275  0.276628  1
  Fe  Fe18  1  0.359725  0.179862  0.276628  1
  Fe  Fe19  1  0.179862  0.820138  0.776628  1
