# generated using pymatgen
data_Tb4DyCr3(P3Ir4)4
_symmetry_space_group_name_H-M   'P 1'
_cell_length_a   12.65245200
_cell_length_b   12.65245163
_cell_length_c   3.96313900
_cell_angle_alpha   90.00000000
_cell_angle_beta   90.00000000
_cell_angle_gamma   119.99999574
_symmetry_Int_Tables_number   1
_chemical_formula_structural   Tb4DyCr3(P3Ir4)4
_chemical_formula_sum   'Tb4 Dy1 Cr3 P12 Ir16'
_cell_volume   549.43881780
_cell_formula_units_Z   1
loop_
 _symmetry_equiv_pos_site_id
 _symmetry_equiv_pos_as_xyz
  1  'x, y, z'
loop_
 _atom_site_type_symbol
 _atom_site_label
 _atom_site_symmetry_multiplicity
 _atom_site_fract_x
 _atom_site_fract_y
 _atom_site_fract_z
 _atom_site_occupancy
  Tb  Tb0  1  0.333333  0.666667  0.500000  1
  Tb  Tb1  1  0.000002  0.810643  0.000000  1
  Tb  Tb2  1  0.189357  0.189359  0.000000  1
  Tb  Tb3  1  0.810641  0.999998  0.000000  1
  Dy  Dy4  1  0.666667  0.333333  0.500000  1
  Cr  Cr5  1  0.999995  0.453264  0.500000  1
  Cr  Cr6  1  0.546736  0.546731  0.500000  1
  Cr  Cr7  1  0.453269  0.000005  0.500000  1
  P  P8  1  0.000012  0.632228  0.500000  1
  P  P9  1  0.367772  0.367785  0.500000  1
  P  P10  1  0.632215  0.999988  0.500000  1
  P  P11  1  0.516367  0.684237  0.000000  1
  P  P12  1  0.315763  0.832129  0.000000  1
  P  P13  1  0.167871  0.483633  0.000000  1
  P  P14  1  0.483735  0.167959  0.000000  1
  P  P15  1  0.684224  0.516265  0.000000  1
  P  P16  1  0.832041  0.315776  0.000000  1
  P  P17  1  0.999999  0.177798  0.500000  1
  P  P18  1  0.822202  0.822200  0.500000  1
  P  P19  1  0.177800  0.000001  0.500000  1
  Ir  Ir20  1  0.509512  0.868732  0.000000  1
  Ir  Ir21  1  0.131268  0.640781  0.000000  1
  Ir  Ir22  1  0.359219  0.490488  0.000000  1
  Ir  Ir23  1  0.490630  0.359205  0.000000  1
  Ir  Ir24  1  0.868576  0.509370  0.000000  1
  Ir  Ir25  1  0.640795  0.131424  0.000000  1
  Ir  Ir26  1  0.999996  0.287327  0.000000  1
  Ir  Ir27  1  0.712673  0.712669  0.000000  1
  Ir  Ir28  1  0.287331  0.000004  0.000000  1
  Ir  Ir29  1  0.623646  0.802572  0.500000  1
  Ir  Ir30  1  0.197428  0.821074  0.500000  1
  Ir  Ir31  1  0.178926  0.376354  0.500000  1
  Ir  Ir32  1  0.376412  0.178961  0.500000  1
  Ir  Ir33  1  0.802549  0.623588  0.500000  1
  Ir  Ir34  1  0.821039  0.197451  0.500000  1
  Ir  Ir35  1  0.000000  0.000000  0.500000  1
