# generated using pymatgen
data_Dy5Tm(CoSn6)2
_symmetry_space_group_name_H-M   'P 1'
_cell_length_a   8.49738857
_cell_length_b   8.49738924
_cell_length_c   13.11004024
_cell_angle_alpha   89.99769725
_cell_angle_beta   90.00230246
_cell_angle_gamma   148.92953269
_symmetry_Int_Tables_number   1
_chemical_formula_structural   Dy5Tm(CoSn6)2
_chemical_formula_sum   'Dy5 Tm1 Co2 Sn12'
_cell_volume   488.54217376
_cell_formula_units_Z   1
loop_
 _symmetry_equiv_pos_site_id
 _symmetry_equiv_pos_as_xyz
  1  'x, y, z'
loop_
 _atom_site_type_symbol
 _atom_site_label
 _atom_site_symmetry_multiplicity
 _atom_site_fract_x
 _atom_site_fract_y
 _atom_site_fract_z
 _atom_site_occupancy
  Dy  Dy0  1  0.898701  0.101299  0.093437  1
  Dy  Dy1  1  0.101040  0.898960  0.593664  1
  Dy  Dy2  1  0.900272  0.099728  0.751293  1
  Dy  Dy3  1  0.100702  0.899298  0.906911  1
  Dy  Dy4  1  0.099639  0.900361  0.249585  1
  Tm  Tm5  1  0.898567  0.101433  0.405403  1
  Co  Co6  1  0.300317  0.699683  0.250743  1
  Co  Co7  1  0.699908  0.300092  0.749175  1
  Sn  Sn8  1  0.757569  0.242431  0.571314  1
  Sn  Sn9  1  0.428027  0.571973  0.574958  1
  Sn  Sn10  1  0.572247  0.427753  0.423768  1
  Sn  Sn11  1  0.734103  0.265897  0.249823  1
  Sn  Sn12  1  0.265934  0.734066  0.750291  1
  Sn  Sn13  1  0.243895  0.756105  0.071858  1
  Sn  Sn14  1  0.244227  0.755773  0.428607  1
  Sn  Sn15  1  0.571977  0.428023  0.075581  1
  Sn  Sn16  1  0.453798  0.546202  0.250489  1
  Sn  Sn17  1  0.546021  0.453979  0.750439  1
  Sn  Sn18  1  0.755809  0.244191  0.928086  1
  Sn  Sn19  1  0.427249  0.572751  0.924575  1
