# generated using pymatgen
data_Ho12ZnSi7Rh8
_symmetry_space_group_name_H-M   'P 1'
_cell_length_a   5.55861700
_cell_length_b   7.80555878
_cell_length_c   13.02695000
_cell_angle_alpha   89.86463590
_cell_angle_beta   90.00000000
_cell_angle_gamma   90.00000000
_symmetry_Int_Tables_number   1
_chemical_formula_structural   Ho12ZnSi7Rh8
_chemical_formula_sum   'Ho12 Zn1 Si7 Rh8'
_cell_volume   565.21318496
_cell_formula_units_Z   1
loop_
 _symmetry_equiv_pos_site_id
 _symmetry_equiv_pos_as_xyz
  1  'x, y, z'
loop_
 _atom_site_type_symbol
 _atom_site_label
 _atom_site_symmetry_multiplicity
 _atom_site_fract_x
 _atom_site_fract_y
 _atom_site_fract_z
 _atom_site_occupancy
  Ho  Ho0  1  0.632418  0.253392  0.250888  1
  Ho  Ho1  1  0.368768  0.746079  0.749328  1
  Ho  Ho2  1  0.368768  0.753921  0.250672  1
  Ho  Ho3  1  0.632418  0.246608  0.749112  1
  Ho  Ho4  1  0.148471  0.399239  0.102522  1
  Ho  Ho5  1  0.856726  0.606448  0.898123  1
  Ho  Ho6  1  0.858807  0.605207  0.601700  1
  Ho  Ho7  1  0.858807  0.894793  0.398300  1
  Ho  Ho8  1  0.141336  0.394171  0.397613  1
  Ho  Ho9  1  0.141336  0.105829  0.602387  1
  Ho  Ho10  1  0.148471  0.100761  0.897478  1
  Ho  Ho11  1  0.856726  0.893552  0.101877  1
  Zn  Zn12  1  0.642204  0.250000  0.000000  1
  Si  Si13  1  0.136589  0.110039  0.250687  1
  Si  Si14  1  0.865353  0.892682  0.748169  1
  Si  Si15  1  0.865353  0.607318  0.251831  1
  Si  Si16  1  0.136589  0.389961  0.749313  1
  Si  Si17  1  0.365850  0.750000  0.000000  1
  Si  Si18  1  0.377280  0.750000  0.500000  1
  Si  Si19  1  0.619737  0.250000  0.500000  1
  Rh  Rh20  1  0.354212  0.025480  0.093953  1
  Rh  Rh21  1  0.635493  0.957581  0.905319  1
  Rh  Rh22  1  0.636194  0.969482  0.591590  1
  Rh  Rh23  1  0.636194  0.530518  0.408410  1
  Rh  Rh24  1  0.363099  0.030510  0.408104  1
  Rh  Rh25  1  0.363099  0.469490  0.591896  1
  Rh  Rh26  1  0.354212  0.474520  0.906047  1
  Rh  Rh27  1  0.635493  0.542419  0.094681  1
