# generated using pymatgen
data_Tb3Fe(P3Ir4)2
_symmetry_space_group_name_H-M   'P 1'
_cell_length_a   3.95040500
_cell_length_b   11.19459200
_cell_length_c   12.67277800
_cell_angle_alpha   90.00000000
_cell_angle_beta   90.00000000
_cell_angle_gamma   90.00000000
_symmetry_Int_Tables_number   1
_chemical_formula_structural   Tb3Fe(P3Ir4)2
_chemical_formula_sum   'Tb6 Fe2 P12 Ir16'
_cell_volume   560.43044387
_cell_formula_units_Z   2
loop_
 _symmetry_equiv_pos_site_id
 _symmetry_equiv_pos_as_xyz
  1  'x, y, z'
loop_
 _atom_site_type_symbol
 _atom_site_label
 _atom_site_symmetry_multiplicity
 _atom_site_fract_x
 _atom_site_fract_y
 _atom_site_fract_z
 _atom_site_occupancy
  Tb  Tb0  1  0.000000  0.500000  0.522133  1
  Tb  Tb1  1  0.500000  0.000000  0.477867  1
  Tb  Tb2  1  0.500000  0.819862  0.200611  1
  Tb  Tb3  1  0.500000  0.180138  0.200611  1
  Tb  Tb4  1  0.000000  0.680138  0.799389  1
  Tb  Tb5  1  0.000000  0.319862  0.799389  1
  Fe  Fe6  1  0.000000  0.500000  0.995592  1
  Fe  Fe7  1  0.500000  0.000000  0.004408  1
  P  P8  1  0.500000  0.500000  0.882332  1
  P  P9  1  0.000000  0.000000  0.117668  1
  P  P10  1  0.500000  0.500000  0.355272  1
  P  P11  1  0.000000  0.000000  0.644728  1
  P  P12  1  0.500000  0.315407  0.619493  1
  P  P13  1  0.500000  0.684593  0.619493  1
  P  P14  1  0.000000  0.184593  0.380507  1
  P  P15  1  0.000000  0.815407  0.380507  1
  P  P16  1  0.500000  0.846009  0.896509  1
  P  P17  1  0.500000  0.153991  0.896509  1
  P  P18  1  0.000000  0.653991  0.103491  1
  P  P19  1  0.000000  0.346009  0.103491  1
  Ir  Ir20  1  0.500000  0.500000  0.172030  1
  Ir  Ir21  1  0.000000  0.000000  0.827970  1
  Ir  Ir22  1  0.500000  0.500000  0.701422  1
  Ir  Ir23  1  0.000000  0.000000  0.298578  1
  Ir  Ir24  1  0.500000  0.337478  0.993781  1
  Ir  Ir25  1  0.500000  0.662522  0.993781  1
  Ir  Ir26  1  0.000000  0.162522  0.006219  1
  Ir  Ir27  1  0.000000  0.837478  0.006219  1
  Ir  Ir28  1  0.500000  0.293468  0.428797  1
  Ir  Ir29  1  0.500000  0.706532  0.428797  1
  Ir  Ir30  1  0.000000  0.206532  0.571203  1
  Ir  Ir31  1  0.000000  0.793468  0.571203  1
  Ir  Ir32  1  0.500000  0.870783  0.715170  1
  Ir  Ir33  1  0.500000  0.129217  0.715170  1
  Ir  Ir34  1  0.000000  0.629217  0.284830  1
  Ir  Ir35  1  0.000000  0.370783  0.284830  1
