# generated using pymatgen
data_Cs11Mn10S16F
_symmetry_space_group_name_H-M   'P 1'
_cell_length_a   11.55402777
_cell_length_b   11.55402763
_cell_length_c   11.55402726
_cell_angle_alpha   112.63957850
_cell_angle_beta   112.63957584
_cell_angle_gamma   103.30496293
_symmetry_Int_Tables_number   1
_chemical_formula_structural   Cs11Mn10S16F
_chemical_formula_sum   'Cs11 Mn10 S16 F1'
_cell_volume   1177.18636798
_cell_formula_units_Z   1
loop_
 _symmetry_equiv_pos_site_id
 _symmetry_equiv_pos_as_xyz
  1  'x, y, z'
loop_
 _atom_site_type_symbol
 _atom_site_label
 _atom_site_symmetry_multiplicity
 _atom_site_fract_x
 _atom_site_fract_y
 _atom_site_fract_z
 _atom_site_occupancy
  Cs  Cs0  1  0.500000  0.500000  0.000000  1
  Cs  Cs1  1  0.779783  0.779783  0.000000  1
  Cs  Cs2  1  0.220217  0.220217  0.000000  1
  Cs  Cs3  1  0.168855  0.168855  0.337709  1
  Cs  Cs4  1  0.831145  0.831145  0.662291  1
  Cs  Cs5  1  0.168855  0.831145  0.000000  1
  Cs  Cs6  1  0.831145  0.168855  0.000000  1
  Cs  Cs7  1  0.171004  0.500000  0.671004  1
  Cs  Cs8  1  0.828996  0.500000  0.328996  1
  Cs  Cs9  1  0.500000  0.828996  0.328996  1
  Cs  Cs10  1  0.500000  0.171004  0.671004  1
  Mn  Mn11  1  0.750000  0.250000  0.500000  1
  Mn  Mn12  1  0.250000  0.750000  0.500000  1
  Mn  Mn13  1  0.916653  0.416653  0.833306  1
  Mn  Mn14  1  0.583347  0.083347  0.166694  1
  Mn  Mn15  1  0.916653  0.083347  0.500000  1
  Mn  Mn16  1  0.583347  0.416653  0.500000  1
  Mn  Mn17  1  0.416653  0.583347  0.500000  1
  Mn  Mn18  1  0.083347  0.916653  0.500000  1
  Mn  Mn19  1  0.416653  0.916653  0.833306  1
  Mn  Mn20  1  0.083347  0.583347  0.166694  1
  S  S21  1  0.842616  0.181563  0.338948  1
  S  S22  1  0.842616  0.503669  0.661052  1
  S  S23  1  0.181563  0.842616  0.338948  1
  S  S24  1  0.503669  0.842616  0.661052  1
  S  S25  1  0.157384  0.818437  0.661052  1
  S  S26  1  0.157384  0.496331  0.338948  1
  S  S27  1  0.818437  0.157384  0.661052  1
  S  S28  1  0.496331  0.157384  0.338948  1
  S  S29  1  0.831851  0.831851  0.356465  1
  S  S30  1  0.475385  0.475385  0.643535  1
  S  S31  1  0.831851  0.475385  0.000000  1
  S  S32  1  0.475385  0.831851  0.000000  1
  S  S33  1  0.168149  0.168149  0.643535  1
  S  S34  1  0.524615  0.524615  0.356465  1
  S  S35  1  0.168149  0.524615  0.000000  1
  S  S36  1  0.524615  0.168149  0.000000  1
  F  F37  1  0.000000  0.000000  0.000000  1
