# generated using pymatgen
data_Dy4Si2B8Mo
_symmetry_space_group_name_H-M   'P 1'
_cell_length_a   7.12629200
_cell_length_b   7.12629200
_cell_length_c   7.63346900
_cell_angle_alpha   90.00000000
_cell_angle_beta   90.00000000
_cell_angle_gamma   90.00000000
_symmetry_Int_Tables_number   1
_chemical_formula_structural   Dy4Si2B8Mo
_chemical_formula_sum   'Dy8 Si4 B16 Mo2'
_cell_volume   387.65837724
_cell_formula_units_Z   2
loop_
 _symmetry_equiv_pos_site_id
 _symmetry_equiv_pos_as_xyz
  1  'x, y, z'
loop_
 _atom_site_type_symbol
 _atom_site_label
 _atom_site_symmetry_multiplicity
 _atom_site_fract_x
 _atom_site_fract_y
 _atom_site_fract_z
 _atom_site_occupancy
  Dy  Dy0  1  0.680166  0.180166  0.237824  1
  Dy  Dy1  1  0.319834  0.819834  0.762176  1
  Dy  Dy2  1  0.319834  0.819834  0.237824  1
  Dy  Dy3  1  0.819834  0.680166  0.237824  1
  Dy  Dy4  1  0.819834  0.680166  0.762176  1
  Dy  Dy5  1  0.680166  0.180166  0.762176  1
  Dy  Dy6  1  0.180166  0.319834  0.762176  1
  Dy  Dy7  1  0.180166  0.319834  0.237824  1
  Si  Si8  1  0.123099  0.623099  0.500000  1
  Si  Si9  1  0.876901  0.376901  0.500000  1
  Si  Si10  1  0.376901  0.123099  0.500000  1
  Si  Si11  1  0.623099  0.876901  0.500000  1
  B  B12  1  0.171942  0.039049  0.000000  1
  B  B13  1  0.828058  0.960951  0.000000  1
  B  B14  1  0.960951  0.171942  0.000000  1
  B  B15  1  0.328058  0.539049  0.000000  1
  B  B16  1  0.039049  0.828058  0.000000  1
  B  B17  1  0.671942  0.460951  0.000000  1
  B  B18  1  0.539049  0.671942  0.000000  1
  B  B19  1  0.460951  0.328058  0.000000  1
  B  B20  1  0.089962  0.589962  0.000000  1
  B  B21  1  0.910038  0.410038  0.000000  1
  B  B22  1  0.410038  0.089962  0.000000  1
  B  B23  1  0.589962  0.910038  0.000000  1
  B  B24  1  0.000000  0.000000  0.175305  1
  B  B25  1  0.000000  0.000000  0.824695  1
  B  B26  1  0.500000  0.500000  0.824695  1
  B  B27  1  0.500000  0.500000  0.175305  1
  Mo  Mo28  1  0.000000  0.000000  0.500000  1
  Mo  Mo29  1  0.500000  0.500000  0.500000  1
