# generated using pymatgen
data_PrNd(Co5As3)2
_symmetry_space_group_name_H-M   'P 1'
_cell_length_a   3.85125300
_cell_length_b   10.79874500
_cell_length_c   12.27344400
_cell_angle_alpha   90.00000000
_cell_angle_beta   90.00000000
_cell_angle_gamma   90.00000000
_symmetry_Int_Tables_number   1
_chemical_formula_structural   PrNd(Co5As3)2
_chemical_formula_sum   'Pr2 Nd2 Co20 As12'
_cell_volume   510.43656916
_cell_formula_units_Z   2
loop_
 _symmetry_equiv_pos_site_id
 _symmetry_equiv_pos_as_xyz
  1  'x, y, z'
loop_
 _atom_site_type_symbol
 _atom_site_label
 _atom_site_symmetry_multiplicity
 _atom_site_fract_x
 _atom_site_fract_y
 _atom_site_fract_z
 _atom_site_occupancy
  Pr  Pr0  1  0.250000  0.583320  0.700704  1
  Pr  Pr1  1  0.250000  0.916680  0.200704  1
  Nd  Nd2  1  0.750000  0.416757  0.299509  1
  Nd  Nd3  1  0.750000  0.083243  0.799509  1
  Co  Co4  1  0.250000  0.709029  0.990023  1
  Co  Co5  1  0.250000  0.790971  0.490023  1
  Co  Co6  1  0.750000  0.291161  0.009653  1
  Co  Co7  1  0.750000  0.208839  0.509653  1
  Co  Co8  1  0.250000  0.405460  0.489235  1
  Co  Co9  1  0.250000  0.094540  0.989235  1
  Co  Co10  1  0.750000  0.593973  0.509790  1
  Co  Co11  1  0.750000  0.906027  0.009790  1
  Co  Co12  1  0.250000  0.215456  0.177038  1
  Co  Co13  1  0.250000  0.284544  0.677038  1
  Co  Co14  1  0.750000  0.784497  0.822871  1
  Co  Co15  1  0.750000  0.715503  0.322871  1
  Co  Co16  1  0.250000  0.884893  0.695917  1
  Co  Co17  1  0.250000  0.615107  0.195917  1
  Co  Co18  1  0.750000  0.115801  0.304359  1
  Co  Co19  1  0.750000  0.384199  0.804359  1
  Co  Co20  1  0.250000  0.470729  0.933410  1
  Co  Co21  1  0.250000  0.029271  0.433410  1
  Co  Co22  1  0.750000  0.528189  0.067498  1
  Co  Co23  1  0.750000  0.971811  0.567498  1
  As  As24  1  0.250000  0.414548  0.112574  1
  As  As25  1  0.250000  0.085452  0.612574  1
  As  As26  1  0.750000  0.585032  0.888474  1
  As  As27  1  0.750000  0.914968  0.388474  1
  As  As28  1  0.250000  0.273870  0.870432  1
  As  As29  1  0.250000  0.226130  0.370432  1
  As  As30  1  0.750000  0.725445  0.128969  1
  As  As31  1  0.750000  0.774555  0.628969  1
  As  As32  1  0.250000  0.603657  0.392081  1
  As  As33  1  0.250000  0.896343  0.892081  1
  As  As34  1  0.750000  0.395724  0.607462  1
  As  As35  1  0.750000  0.104276  0.107462  1
