# generated using pymatgen
data_TbHo3Ga12Au
_symmetry_space_group_name_H-M   'P 1'
_cell_length_a   7.51057593
_cell_length_b   7.52159096
_cell_length_c   7.52159101
_cell_angle_alpha   109.50086448
_cell_angle_beta   109.44155556
_cell_angle_gamma   109.44155624
_symmetry_Int_Tables_number   1
_chemical_formula_structural   TbHo3Ga12Au
_chemical_formula_sum   'Tb1 Ho3 Ga12 Au1'
_cell_volume   327.21233490
_cell_formula_units_Z   1
loop_
 _symmetry_equiv_pos_site_id
 _symmetry_equiv_pos_as_xyz
  1  'x, y, z'
loop_
 _atom_site_type_symbol
 _atom_site_label
 _atom_site_symmetry_multiplicity
 _atom_site_fract_x
 _atom_site_fract_y
 _atom_site_fract_z
 _atom_site_occupancy
  Tb  Tb0  1  0.500000  0.000000  0.000000  1
  Ho  Ho1  1  0.500000  0.500000  0.500000  1
  Ho  Ho2  1  0.000000  0.000000  0.500000  1
  Ho  Ho3  1  0.000000  0.500000  0.000000  1
  Ga  Ga4  1  0.500000  0.749896  0.250104  1
  Ga  Ga5  1  0.500000  0.250104  0.749896  1
  Ga  Ga6  1  0.249896  0.499792  0.749896  1
  Ga  Ga7  1  0.750104  0.500208  0.250104  1
  Ga  Ga8  1  0.750104  0.250104  0.500208  1
  Ga  Ga9  1  0.249896  0.749896  0.499792  1
  Ga  Ga10  1  0.000147  0.304549  0.304549  1
  Ga  Ga11  1  0.999853  0.695451  0.695451  1
  Ga  Ga12  1  0.304402  0.000000  0.304549  1
  Ga  Ga13  1  0.695598  0.000000  0.695451  1
  Ga  Ga14  1  0.304402  0.304549  0.000000  1
  Ga  Ga15  1  0.695598  0.695451  0.000000  1
  Au  Au16  1  0.000000  0.000000  0.000000  1
