# generated using pymatgen
data_Lu2HfN3
_symmetry_space_group_name_H-M   'P 1'
_cell_length_a   5.72448341
_cell_length_b   5.72448220
_cell_length_c   5.72448190
_cell_angle_alpha   146.66172021
_cell_angle_beta   131.71062478
_cell_angle_gamma   59.94645627
_symmetry_Int_Tables_number   1
_chemical_formula_structural   Lu2HfN3
_chemical_formula_sum   'Lu2 Hf1 N3'
_cell_volume   76.26605661
_cell_formula_units_Z   1
loop_
 _symmetry_equiv_pos_site_id
 _symmetry_equiv_pos_as_xyz
  1  'x, y, z'
loop_
 _atom_site_type_symbol
 _atom_site_label
 _atom_site_symmetry_multiplicity
 _atom_site_fract_x
 _atom_site_fract_y
 _atom_site_fract_z
 _atom_site_occupancy
  Lu  Lu0  1  0.666678  0.666678  0.000000  1
  Lu  Lu1  1  0.333322  0.333322  0.000000  1
  Hf  Hf2  1  0.000000  0.000000  0.000000  1
  N  N3  1  0.842557  0.342557  0.500000  1
  N  N4  1  0.500000  0.000000  0.500000  1
  N  N5  1  0.157443  0.657443  0.500000  1
