# generated using pymatgen
data_Gd3Er2(OsO6)2
_symmetry_space_group_name_H-M   'P 1'
_cell_length_a   6.90889251
_cell_length_b   6.90889290
_cell_length_c   7.55125134
_cell_angle_alpha   74.34095063
_cell_angle_beta   74.34095022
_cell_angle_gamma   48.40570699
_symmetry_Int_Tables_number   1
_chemical_formula_structural   Gd3Er2(OsO6)2
_chemical_formula_sum   'Gd3 Er2 Os2 O12'
_cell_volume   257.48865153
_cell_formula_units_Z   1
loop_
 _symmetry_equiv_pos_site_id
 _symmetry_equiv_pos_as_xyz
  1  'x, y, z'
loop_
 _atom_site_type_symbol
 _atom_site_label
 _atom_site_symmetry_multiplicity
 _atom_site_fract_x
 _atom_site_fract_y
 _atom_site_fract_z
 _atom_site_occupancy
  Gd  Gd0  1  0.697214  0.697214  0.643870  1
  Gd  Gd1  1  0.302786  0.302786  0.356130  1
  Gd  Gd2  1  0.000000  0.000000  0.500000  1
  Er  Er3  1  0.690059  0.690059  0.166581  1
  Er  Er4  1  0.309941  0.309941  0.833419  1
  Os  Os5  1  0.780745  0.219255  0.000000  1
  Os  Os6  1  0.219255  0.780745  0.000000  1
  O  O7  1  0.999062  0.999062  0.202429  1
  O  O8  1  0.000938  0.000938  0.797571  1
  O  O9  1  0.584260  0.085289  0.079359  1
  O  O10  1  0.415740  0.914711  0.920641  1
  O  O11  1  0.914711  0.415740  0.920641  1
  O  O12  1  0.085289  0.584260  0.079359  1
  O  O13  1  0.501212  0.501212  0.171926  1
  O  O14  1  0.498788  0.498788  0.828074  1
  O  O15  1  0.408319  0.900784  0.419188  1
  O  O16  1  0.591681  0.099216  0.580812  1
  O  O17  1  0.099216  0.591681  0.580812  1
  O  O18  1  0.900784  0.408319  0.419188  1
