# generated using pymatgen
data_La5Tc4(P4Rh5)3
_symmetry_space_group_name_H-M   'P 1'
_cell_length_a   12.82550688
_cell_length_b   12.83861244
_cell_length_c   4.05475300
_cell_angle_alpha   90.00000000
_cell_angle_beta   90.00000000
_cell_angle_gamma   120.22484250
_symmetry_Int_Tables_number   1
_chemical_formula_structural   La5Tc4(P4Rh5)3
_chemical_formula_sum   'La5 Tc4 P12 Rh15'
_cell_volume   576.89826443
_cell_formula_units_Z   1
loop_
 _symmetry_equiv_pos_site_id
 _symmetry_equiv_pos_as_xyz
  1  'x, y, z'
loop_
 _atom_site_type_symbol
 _atom_site_label
 _atom_site_symmetry_multiplicity
 _atom_site_fract_x
 _atom_site_fract_y
 _atom_site_fract_z
 _atom_site_occupancy
  La  La0  1  0.999516  0.814239  0.500000  1
  La  La1  1  0.183799  0.184442  0.500000  1
  La  La2  1  0.816261  0.999531  0.500000  1
  La  La3  1  0.333078  0.666965  0.000000  1
  La  La4  1  0.666044  0.331840  0.000000  1
  Tc  Tc5  1  0.000153  0.289046  0.500000  1
  Tc  Tc6  1  0.710203  0.709431  0.500000  1
  Tc  Tc7  1  0.288053  0.000129  0.500000  1
  Tc  Tc8  1  0.515720  0.880005  0.500000  1
  P  P9  1  0.999315  0.185420  0.000000  1
  P  P10  1  0.814209  0.812430  0.000000  1
  P  P11  1  0.184689  0.999283  0.000000  1
  P  P12  1  0.522714  0.697634  0.500000  1
  P  P13  1  0.313354  0.833564  0.500000  1
  P  P14  1  0.170113  0.478418  0.500000  1
  P  P15  1  0.476788  0.168422  0.500000  1
  P  P16  1  0.690539  0.521484  0.500000  1
  P  P17  1  0.831841  0.309270  0.500000  1
  P  P18  1  0.001056  0.630428  0.000000  1
  P  P19  1  0.368781  0.369977  0.000000  1
  P  P20  1  0.623485  0.991980  0.000000  1
  Rh  Rh21  1  0.621805  0.800327  0.000000  1
  Rh  Rh22  1  0.196037  0.817127  0.000000  1
  Rh  Rh23  1  0.183067  0.380644  0.000000  1
  Rh  Rh24  1  0.377540  0.184078  0.000000  1
  Rh  Rh25  1  0.803975  0.619246  0.000000  1
  Rh  Rh26  1  0.815468  0.193306  0.000000  1
  Rh  Rh27  1  0.127120  0.637425  0.500000  1
  Rh  Rh28  1  0.365065  0.489847  0.500000  1
  Rh  Rh29  1  0.488972  0.361883  0.500000  1
  Rh  Rh30  1  0.874066  0.510966  0.500000  1
  Rh  Rh31  1  0.637396  0.129720  0.500000  1
  Rh  Rh32  1  0.999499  0.999768  0.000000  1
  Rh  Rh33  1  0.998072  0.449612  0.000000  1
  Rh  Rh34  1  0.550702  0.545533  0.000000  1
  Rh  Rh35  1  0.451505  0.006580  0.000000  1
