# generated using pymatgen
data_Tb2Sm2Al18(IrPt)3
_symmetry_space_group_name_H-M   'P 1'
_cell_length_a   7.61105247
_cell_length_b   7.61245431
_cell_length_c   9.48440513
_cell_angle_alpha   89.99690373
_cell_angle_beta   89.98453841
_cell_angle_gamma   119.62177990
_symmetry_Int_Tables_number   1
_chemical_formula_structural   Tb2Sm2Al18(IrPt)3
_chemical_formula_sum   'Tb2 Sm2 Al18 Ir3 Pt3'
_cell_volume   477.69722069
_cell_formula_units_Z   1
loop_
 _symmetry_equiv_pos_site_id
 _symmetry_equiv_pos_as_xyz
  1  'x, y, z'
loop_
 _atom_site_type_symbol
 _atom_site_label
 _atom_site_symmetry_multiplicity
 _atom_site_fract_x
 _atom_site_fract_y
 _atom_site_fract_z
 _atom_site_occupancy
  Tb  Tb0  1  0.671412  0.995715  0.250419  1
  Tb  Tb1  1  0.329346  0.005229  0.749549  1
  Sm  Sm2  1  0.994579  0.670727  0.250385  1
  Sm  Sm3  1  0.004401  0.328564  0.749629  1
  Al  Al4  1  0.132786  0.132268  0.250452  1
  Al  Al5  1  0.868149  0.866901  0.749554  1
  Al  Al6  1  0.004154  0.338063  0.076858  1
  Al  Al7  1  0.002689  0.665840  0.923199  1
  Al  Al8  1  0.999989  0.661785  0.574911  1
  Al  Al9  1  0.339403  0.000607  0.425480  1
  Al  Al10  1  0.000451  0.337910  0.424573  1
  Al  Al11  1  0.660973  0.999041  0.575026  1
  Al  Al12  1  0.660906  0.995375  0.923477  1
  Al  Al13  1  0.335335  0.997933  0.076435  1
  Al  Al14  1  0.336475  0.335964  0.552889  1
  Al  Al15  1  0.663603  0.664058  0.447114  1
  Al  Al16  1  0.662662  0.666464  0.056207  1
  Al  Al17  1  0.334085  0.336890  0.943819  1
  Al  Al18  1  0.340033  0.549749  0.250478  1
  Al  Al19  1  0.660681  0.452795  0.747284  1
  Al  Al20  1  0.546710  0.338583  0.252720  1
  Al  Al21  1  0.450835  0.660824  0.749512  1
  Ir  Ir22  1  0.329107  0.671975  0.000047  1
  Ir  Ir23  1  0.329366  0.671752  0.499956  1
  Ir  Ir24  1  0.671002  0.327744  0.500015  1
  Pt  Pt25  1  0.671046  0.327393  0.999983  1
  Pt  Pt26  1  0.999678  0.000136  0.000020  1
  Pt  Pt27  1  0.000141  0.999716  0.500010  1
