# generated using pymatgen
data_Re(SeI2)2
_symmetry_space_group_name_H-M   'P 1'
_cell_length_a   11.34623849
_cell_length_b   11.34624003
_cell_length_c   11.34623883
_cell_angle_alpha   115.54944764
_cell_angle_beta   115.54944761
_cell_angle_gamma   97.89858937
_symmetry_Int_Tables_number   1
_chemical_formula_structural   Re(SeI2)2
_chemical_formula_sum   'Re4 Se8 I16'
_cell_volume   1091.09205856
_cell_formula_units_Z   4
loop_
 _symmetry_equiv_pos_site_id
 _symmetry_equiv_pos_as_xyz
  1  'x, y, z'
loop_
 _atom_site_type_symbol
 _atom_site_label
 _atom_site_symmetry_multiplicity
 _atom_site_fract_x
 _atom_site_fract_y
 _atom_site_fract_z
 _atom_site_occupancy
  Re  Re0  1  0.206745  0.849579  0.420722  1
  Re  Re1  1  0.150421  0.571144  0.357166  1
  Re  Re2  1  0.428856  0.786023  0.579278  1
  Re  Re3  1  0.213977  0.793255  0.642834  1
  Se  Se4  1  0.624930  0.681060  0.570805  1
  Se  Se5  1  0.389534  0.000900  0.705265  1
  Se  Se6  1  0.318940  0.889745  0.943871  1
  Se  Se7  1  0.295635  0.684269  0.294735  1
  Se  Se8  1  0.110255  0.054126  0.429195  1
  Se  Se9  1  0.999100  0.704365  0.388632  1
  Se  Se10  1  0.945874  0.375070  0.056129  1
  Se  Se11  1  0.315731  0.610466  0.611368  1
  I  I12  1  0.697040  0.406618  0.961411  1
  I  I13  1  0.123129  0.999281  0.783176  1
  I  I14  1  0.942946  0.352479  0.306059  1
  I  I15  1  0.593382  0.554792  0.290421  1
  I  I16  1  0.543106  0.137768  0.134841  1
  I  I17  1  0.591736  0.456894  0.594661  1
  I  I18  1  0.000719  0.783894  0.123848  1
  I  I19  1  0.046420  0.636886  0.693941  1
  I  I20  1  0.445208  0.735630  0.038589  1
  I  I21  1  0.647521  0.953580  0.590467  1
  I  I22  1  0.216106  0.339954  0.216824  1
  I  I23  1  0.363114  0.057054  0.409533  1
  I  I24  1  0.660046  0.876871  0.876152  1
  I  I25  1  0.264370  0.302960  0.709579  1
  I  I26  1  0.862232  0.997074  0.405339  1
  I  I27  1  0.002926  0.408264  0.865159  1
