# generated using pymatgen
data_TbNp5(Sb4Au3)2
_symmetry_space_group_name_H-M   'P 1'
_cell_length_a   8.69349556
_cell_length_b   8.69349610
_cell_length_c   8.69349491
_cell_angle_alpha   109.47097727
_cell_angle_beta   109.47098067
_cell_angle_gamma   109.47169966
_symmetry_Int_Tables_number   1
_chemical_formula_structural   TbNp5(Sb4Au3)2
_chemical_formula_sum   'Tb1 Np5 Sb8 Au6'
_cell_volume   505.77974961
_cell_formula_units_Z   1
loop_
 _symmetry_equiv_pos_site_id
 _symmetry_equiv_pos_as_xyz
  1  'x, y, z'
loop_
 _atom_site_type_symbol
 _atom_site_label
 _atom_site_symmetry_multiplicity
 _atom_site_fract_x
 _atom_site_fract_y
 _atom_site_fract_z
 _atom_site_occupancy
  Tb  Tb0  1  0.375000  0.625000  0.750000  1
  Np  Np1  1  0.875144  0.249186  0.125384  1
  Np  Np2  1  0.623802  0.749760  0.374616  1
  Np  Np3  1  0.250240  0.124856  0.874042  1
  Np  Np4  1  0.750814  0.376198  0.625958  1
  Np  Np5  1  0.125000  0.875000  0.250000  1
  Sb  Sb6  1  0.679183  0.499640  0.001002  1
  Sb  Sb7  1  0.500311  0.004682  0.677332  1
  Sb  Sb8  1  0.998638  0.678182  0.498998  1
  Sb  Sb9  1  0.827351  0.822979  0.822668  1
  Sb  Sb10  1  0.500360  0.001362  0.179542  1
  Sb  Sb11  1  0.177021  0.499689  0.004372  1
  Sb  Sb12  1  0.995318  0.172649  0.495628  1
  Sb  Sb13  1  0.321818  0.320817  0.320458  1
  Au  Au14  1  0.374820  0.258251  0.628039  1
  Au  Au15  1  0.130213  0.746781  0.871961  1
  Au  Au16  1  0.253219  0.625180  0.383432  1
  Au  Au17  1  0.741749  0.869787  0.116568  1
  Au  Au18  1  0.625000  0.375000  0.250000  1
  Au  Au19  1  0.875000  0.125000  0.750000  1
