# generated using pymatgen
data_Nd6Fe4Co13NiP12
_symmetry_space_group_name_H-M   'P 1'
_cell_length_a   3.77781300
_cell_length_b   10.69299200
_cell_length_c   12.33033100
_cell_angle_alpha   90.00000000
_cell_angle_beta   90.00000000
_cell_angle_gamma   90.00000000
_symmetry_Int_Tables_number   1
_chemical_formula_structural   Nd6Fe4Co13NiP12
_chemical_formula_sum   'Nd6 Fe4 Co13 Ni1 P12'
_cell_volume   498.09758234
_cell_formula_units_Z   1
loop_
 _symmetry_equiv_pos_site_id
 _symmetry_equiv_pos_as_xyz
  1  'x, y, z'
loop_
 _atom_site_type_symbol
 _atom_site_label
 _atom_site_symmetry_multiplicity
 _atom_site_fract_x
 _atom_site_fract_y
 _atom_site_fract_z
 _atom_site_occupancy
  Nd  Nd0  1  0.000000  0.500000  0.518523  1
  Nd  Nd1  1  0.500000  0.000000  0.479096  1
  Nd  Nd2  1  0.500000  0.819123  0.205095  1
  Nd  Nd3  1  0.500000  0.180877  0.205095  1
  Nd  Nd4  1  0.000000  0.682729  0.796054  1
  Nd  Nd5  1  0.000000  0.317271  0.796054  1
  Fe  Fe6  1  0.500000  0.500000  0.153577  1
  Fe  Fe7  1  0.000000  0.000000  0.846292  1
  Fe  Fe8  1  0.000000  0.500000  0.989792  1
  Fe  Fe9  1  0.500000  0.000000  0.010139  1
  Co  Co10  1  0.000000  0.000000  0.297253  1
  Co  Co11  1  0.500000  0.332032  0.995950  1
  Co  Co12  1  0.500000  0.667968  0.995950  1
  Co  Co13  1  0.000000  0.167738  0.003935  1
  Co  Co14  1  0.000000  0.832262  0.003935  1
  Co  Co15  1  0.500000  0.296989  0.430070  1
  Co  Co16  1  0.500000  0.703011  0.430070  1
  Co  Co17  1  0.000000  0.203308  0.569795  1
  Co  Co18  1  0.000000  0.796692  0.569795  1
  Co  Co19  1  0.500000  0.880616  0.710910  1
  Co  Co20  1  0.500000  0.119384  0.710910  1
  Co  Co21  1  0.000000  0.619103  0.289287  1
  Co  Co22  1  0.000000  0.380897  0.289287  1
  Ni  Ni23  1  0.500000  0.500000  0.702796  1
  P  P24  1  0.500000  0.500000  0.890282  1
  P  P25  1  0.000000  0.000000  0.111346  1
  P  P26  1  0.500000  0.500000  0.336651  1
  P  P27  1  0.000000  0.000000  0.663081  1
  P  P28  1  0.500000  0.304428  0.613720  1
  P  P29  1  0.500000  0.695572  0.613720  1
  P  P30  1  0.000000  0.194210  0.385453  1
  P  P31  1  0.000000  0.805790  0.385453  1
  P  P32  1  0.500000  0.848545  0.895863  1
  P  P33  1  0.500000  0.151455  0.895863  1
  P  P34  1  0.000000  0.651972  0.104453  1
  P  P35  1  0.000000  0.348028  0.104453  1
