# generated using pymatgen
data_Th2InCoPd
_symmetry_space_group_name_H-M   'P 1'
_cell_length_a   7.84829800
_cell_length_b   7.77456700
_cell_length_c   3.73723300
_cell_angle_alpha   90.00000000
_cell_angle_beta   90.00000000
_cell_angle_gamma   90.00000000
_symmetry_Int_Tables_number   1
_chemical_formula_structural   Th2InCoPd
_chemical_formula_sum   'Th4 In2 Co2 Pd2'
_cell_volume   228.03518933
_cell_formula_units_Z   2
loop_
 _symmetry_equiv_pos_site_id
 _symmetry_equiv_pos_as_xyz
  1  'x, y, z'
loop_
 _atom_site_type_symbol
 _atom_site_label
 _atom_site_symmetry_multiplicity
 _atom_site_fract_x
 _atom_site_fract_y
 _atom_site_fract_z
 _atom_site_occupancy
  Th  Th0  1  0.323982  0.188708  0.500001  1
  Th  Th1  1  0.823982  0.311292  0.500001  1
  Th  Th2  1  0.172294  0.649006  0.500001  1
  Th  Th3  1  0.672295  0.850995  0.500001  1
  In  In4  1  0.003639  0.000022  0.000000  1
  In  In5  1  0.503639  0.499978  0.000000  1
  Co  Co6  1  0.633735  0.130455  0.000000  1
  Co  Co7  1  0.133736  0.369545  0.000000  1
  Pd  Pd8  1  0.866351  0.625235  0.000000  1
  Pd  Pd9  1  0.366349  0.874766  0.000000  1
