# generated using pymatgen
data_LaTb2SbO7
_symmetry_space_group_name_H-M   'P 1'
_cell_length_a   6.57005688
_cell_length_b   6.57005739
_cell_length_c   7.67796300
_cell_angle_alpha   90.00000000
_cell_angle_beta   90.00000000
_cell_angle_gamma   108.97175533
_symmetry_Int_Tables_number   1
_chemical_formula_structural   LaTb2SbO7
_chemical_formula_sum   'La2 Tb4 Sb2 O14'
_cell_volume   313.42095627
_cell_formula_units_Z   2
loop_
 _symmetry_equiv_pos_site_id
 _symmetry_equiv_pos_as_xyz
  1  'x, y, z'
loop_
 _atom_site_type_symbol
 _atom_site_label
 _atom_site_symmetry_multiplicity
 _atom_site_fract_x
 _atom_site_fract_y
 _atom_site_fract_z
 _atom_site_occupancy
  La  La0  1  0.500000  0.500000  0.500000  1
  La  La1  1  0.500000  0.500000  0.000000  1
  Tb  Tb2  1  0.531227  0.000860  0.750000  1
  Tb  Tb3  1  0.000860  0.531227  0.250000  1
  Tb  Tb4  1  0.468773  0.999140  0.250000  1
  Tb  Tb5  1  0.999140  0.468773  0.750000  1
  Sb  Sb6  1  0.000000  0.000000  0.500000  1
  Sb  Sb7  1  0.000000  0.000000  0.000000  1
  O  O8  1  0.682136  0.934098  0.470358  1
  O  O9  1  0.934098  0.682136  0.529642  1
  O  O10  1  0.682136  0.934098  0.029642  1
  O  O11  1  0.934098  0.682136  0.970358  1
  O  O12  1  0.317864  0.065902  0.529642  1
  O  O13  1  0.065902  0.317864  0.470358  1
  O  O14  1  0.317864  0.065902  0.970358  1
  O  O15  1  0.065902  0.317864  0.029642  1
  O  O16  1  0.932149  0.067851  0.750000  1
  O  O17  1  0.067851  0.932149  0.250000  1
  O  O18  1  0.363261  0.636739  0.750000  1
  O  O19  1  0.636739  0.363261  0.250000  1
  O  O20  1  0.642448  0.357552  0.750000  1
  O  O21  1  0.357552  0.642448  0.250000  1
