# generated using pymatgen
data_TmLu3Si3Ge
_symmetry_space_group_name_H-M   'P 1'
_cell_length_a   3.80066900
_cell_length_b   4.18658900
_cell_length_c   10.37617700
_cell_angle_alpha   90.00000000
_cell_angle_beta   90.00000000
_cell_angle_gamma   90.00000000
_symmetry_Int_Tables_number   1
_chemical_formula_structural   TmLu3Si3Ge
_chemical_formula_sum   'Tm1 Lu3 Si3 Ge1'
_cell_volume   165.10405815
_cell_formula_units_Z   1
loop_
 _symmetry_equiv_pos_site_id
 _symmetry_equiv_pos_as_xyz
  1  'x, y, z'
loop_
 _atom_site_type_symbol
 _atom_site_label
 _atom_site_symmetry_multiplicity
 _atom_site_fract_x
 _atom_site_fract_y
 _atom_site_fract_z
 _atom_site_occupancy
  Tm  Tm0  1  0.500000  0.500000  0.359244  1
  Lu  Lu1  1  0.000000  0.000000  0.136992  1
  Lu  Lu2  1  0.000000  0.500000  0.641870  1
  Lu  Lu3  1  0.500000  0.000000  0.860637  1
  Si  Si4  1  0.000000  0.500000  0.922321  1
  Si  Si5  1  0.500000  0.500000  0.078021  1
  Si  Si6  1  0.500000  0.000000  0.582991  1
  Ge  Ge7  1  0.000000  0.000000  0.417926  1
