# generated using pymatgen
data_NdHo11(SiAu)12
_symmetry_space_group_name_H-M   'P 1'
_cell_length_a   4.33151300
_cell_length_b   7.52988100
_cell_length_c   22.38772927
_cell_angle_alpha   89.99291806
_cell_angle_beta   90.00000000
_cell_angle_gamma   90.00000000
_symmetry_Int_Tables_number   1
_chemical_formula_structural   NdHo11(SiAu)12
_chemical_formula_sum   'Nd1 Ho11 Si12 Au12'
_cell_volume   730.19318991
_cell_formula_units_Z   1
loop_
 _symmetry_equiv_pos_site_id
 _symmetry_equiv_pos_as_xyz
  1  'x, y, z'
loop_
 _atom_site_type_symbol
 _atom_site_label
 _atom_site_symmetry_multiplicity
 _atom_site_fract_x
 _atom_site_fract_y
 _atom_site_fract_z
 _atom_site_occupancy
  Nd  Nd0  1  0.250000  0.772107  0.497571  1
  Ho  Ho1  1  0.250000  0.725005  0.329809  1
  Ho  Ho2  1  0.750000  0.262032  0.668312  1
  Ho  Ho3  1  0.750000  0.219014  0.164662  1
  Ho  Ho4  1  0.250000  0.767696  0.836053  1
  Ho  Ho5  1  0.250000  0.780537  0.165772  1
  Ho  Ho6  1  0.750000  0.232585  0.835134  1
  Ho  Ho7  1  0.750000  0.270811  0.330318  1
  Ho  Ho8  1  0.250000  0.736834  0.669816  1
  Ho  Ho9  1  0.250000  0.724697  0.000019  1
  Ho  Ho10  1  0.750000  0.273898  0.002429  1
  Ho  Ho11  1  0.750000  0.226413  0.500553  1
  Si  Si12  1  0.250000  0.089117  0.077431  1
  Si  Si13  1  0.750000  0.912398  0.929176  1
  Si  Si14  1  0.750000  0.584491  0.409872  1
  Si  Si15  1  0.250000  0.413384  0.574185  1
  Si  Si16  1  0.250000  0.089320  0.248573  1
  Si  Si17  1  0.750000  0.914096  0.758126  1
  Si  Si18  1  0.750000  0.589391  0.237092  1
  Si  Si19  1  0.250000  0.411701  0.752419  1
  Si  Si20  1  0.250000  0.089447  0.409011  1
  Si  Si21  1  0.750000  0.913415  0.584567  1
  Si  Si22  1  0.750000  0.589982  0.097912  1
  Si  Si23  1  0.250000  0.411409  0.913934  1
  Au  Au24  1  0.250000  0.420368  0.238498  1
  Au  Au25  1  0.750000  0.580490  0.758158  1
  Au  Au26  1  0.750000  0.919590  0.259213  1
  Au  Au27  1  0.250000  0.079484  0.743188  1
  Au  Au28  1  0.250000  0.416277  0.425564  1
  Au  Au29  1  0.750000  0.579302  0.585982  1
  Au  Au30  1  0.750000  0.916456  0.069497  1
  Au  Au31  1  0.250000  0.081390  0.926733  1
  Au  Au32  1  0.250000  0.422878  0.092615  1
  Au  Au33  1  0.750000  0.580014  0.911129  1
  Au  Au34  1  0.750000  0.920943  0.400142  1
  Au  Au35  1  0.250000  0.083031  0.596536  1
