# generated using pymatgen
data_PrNd3Lu4(B6Ru)4
_symmetry_space_group_name_H-M   'P 1'
_cell_length_a   3.68631900
_cell_length_b   9.16976900
_cell_length_c   11.60593701
_cell_angle_alpha   90.00377284
_cell_angle_beta   90.00000000
_cell_angle_gamma   90.00000000
_symmetry_Int_Tables_number   1
_chemical_formula_structural   PrNd3Lu4(B6Ru)4
_chemical_formula_sum   'Pr1 Nd3 Lu4 B24 Ru4'
_cell_volume   392.31193297
_cell_formula_units_Z   1
loop_
 _symmetry_equiv_pos_site_id
 _symmetry_equiv_pos_as_xyz
  1  'x, y, z'
loop_
 _atom_site_type_symbol
 _atom_site_label
 _atom_site_symmetry_multiplicity
 _atom_site_fract_x
 _atom_site_fract_y
 _atom_site_fract_z
 _atom_site_occupancy
  Pr  Pr0  1  0.000000  0.322735  0.414855  1
  Nd  Nd1  1  0.000000  0.677309  0.585295  1
  Nd  Nd2  1  0.000000  0.822664  0.084907  1
  Nd  Nd3  1  0.000000  0.177282  0.914765  1
  Lu  Lu4  1  0.000000  0.944639  0.372051  1
  Lu  Lu5  1  0.000000  0.055190  0.628073  1
  Lu  Lu6  1  0.000000  0.444721  0.127683  1
  Lu  Lu7  1  0.000000  0.555344  0.872269  1
  B  B8  1  0.500000  0.557675  0.429722  1
  B  B9  1  0.500000  0.443090  0.570805  1
  B  B10  1  0.500000  0.056851  0.069844  1
  B  B11  1  0.500000  0.942949  0.929932  1
  B  B12  1  0.500000  0.751787  0.416750  1
  B  B13  1  0.500000  0.248395  0.583866  1
  B  B14  1  0.500000  0.251473  0.082978  1
  B  B15  1  0.500000  0.748518  0.916788  1
  B  B16  1  0.500000  0.792208  0.265958  1
  B  B17  1  0.500000  0.207845  0.734218  1
  B  B18  1  0.500000  0.291744  0.233331  1
  B  B19  1  0.500000  0.707988  0.766237  1
  B  B20  1  0.500000  0.630566  0.183861  1
  B  B21  1  0.500000  0.369660  0.816182  1
  B  B22  1  0.500000  0.129938  0.315481  1
  B  B23  1  0.500000  0.869550  0.684149  1
  B  B24  1  0.500000  0.985382  0.214485  1
  B  B25  1  0.500000  0.014391  0.785361  1
  B  B26  1  0.500000  0.486157  0.284900  1
  B  B27  1  0.500000  0.514510  0.715042  1
  B  B28  1  0.500000  0.600784  0.027096  1
  B  B29  1  0.500000  0.399297  0.972887  1
  B  B30  1  0.500000  0.099860  0.473079  1
  B  B31  1  0.500000  0.899367  0.527117  1
  Ru  Ru32  1  0.000000  0.641042  0.318245  1
  Ru  Ru33  1  0.000000  0.359340  0.682224  1
  Ru  Ru34  1  0.000000  0.140335  0.181150  1
  Ru  Ru35  1  0.000000  0.859415  0.818416  1
