# generated using pymatgen
data_Tm8Sc12Si15As
_symmetry_space_group_name_H-M   'P 1'
_cell_length_a   7.09561535
_cell_length_b   7.32617221
_cell_length_c   13.90218526
_cell_angle_alpha   89.87140884
_cell_angle_beta   88.64662366
_cell_angle_gamma   90.19361086
_symmetry_Int_Tables_number   1
_chemical_formula_structural   Tm8Sc12Si15As
_chemical_formula_sum   'Tm8 Sc12 Si15 As1'
_cell_volume   722.47934999
_cell_formula_units_Z   1
loop_
 _symmetry_equiv_pos_site_id
 _symmetry_equiv_pos_as_xyz
  1  'x, y, z'
loop_
 _atom_site_type_symbol
 _atom_site_label
 _atom_site_symmetry_multiplicity
 _atom_site_fract_x
 _atom_site_fract_y
 _atom_site_fract_z
 _atom_site_occupancy
  Tm  Tm0  1  0.011833  0.177158  0.097008  1
  Tm  Tm1  1  0.988691  0.823448  0.902668  1
  Tm  Tm2  1  0.489320  0.676067  0.902791  1
  Tm  Tm3  1  0.995528  0.821298  0.595396  1
  Tm  Tm4  1  0.511091  0.324468  0.097152  1
  Tm  Tm5  1  0.002042  0.178602  0.404267  1
  Tm  Tm6  1  0.501499  0.320222  0.402380  1
  Tm  Tm7  1  0.503477  0.678593  0.597403  1
  Sc  Sc8  1  0.168253  0.500930  0.749519  1
  Sc  Sc9  1  0.831521  0.498860  0.253157  1
  Sc  Sc10  1  0.332015  0.002130  0.251990  1
  Sc  Sc11  1  0.668111  0.998006  0.748417  1
  Sc  Sc12  1  0.344928  0.169566  0.626827  1
  Sc  Sc13  1  0.656022  0.828610  0.373758  1
  Sc  Sc14  1  0.153948  0.671030  0.377595  1
  Sc  Sc15  1  0.667386  0.823696  0.125564  1
  Sc  Sc16  1  0.843310  0.329894  0.622295  1
  Sc  Sc17  1  0.332229  0.175737  0.873892  1
  Sc  Sc18  1  0.833962  0.322829  0.874539  1
  Sc  Sc19  1  0.166270  0.677349  0.124971  1
  Si  Si20  1  0.038404  0.114321  0.749522  1
  Si  Si21  1  0.961044  0.886103  0.249557  1
  Si  Si22  1  0.457019  0.615225  0.249056  1
  Si  Si23  1  0.541723  0.384903  0.750564  1
  Si  Si24  1  0.290768  0.868037  0.750311  1
  Si  Si25  1  0.710259  0.130204  0.249023  1
  Si  Si26  1  0.207911  0.371544  0.249704  1
  Si  Si27  1  0.793781  0.629308  0.750442  1
  Si  Si28  1  0.806507  0.539942  0.457828  1
  Si  Si29  1  0.325302  0.962201  0.460944  1
  Si  Si30  1  0.841641  0.534718  0.039316  1
  Si  Si31  1  0.674355  0.038019  0.539771  1
  Si  Si32  1  0.158141  0.465881  0.960231  1
  Si  Si33  1  0.656735  0.034061  0.959613  1
  Si  Si34  1  0.343255  0.966665  0.040148  1
  As  As35  1  0.191722  0.460378  0.542382  1
