# generated using pymatgen
data_Ce3Si2SeS8
_symmetry_space_group_name_H-M   'P 1'
_cell_length_a   7.71831955
_cell_length_b   8.64962183
_cell_length_c   10.98184543
_cell_angle_alpha   96.02869264
_cell_angle_beta   89.96013388
_cell_angle_gamma   116.51981128
_symmetry_Int_Tables_number   1
_chemical_formula_structural   Ce3Si2SeS8
_chemical_formula_sum   'Ce6 Si4 Se2 S16'
_cell_volume   651.50354851
_cell_formula_units_Z   2
loop_
 _symmetry_equiv_pos_site_id
 _symmetry_equiv_pos_as_xyz
  1  'x, y, z'
loop_
 _atom_site_type_symbol
 _atom_site_label
 _atom_site_symmetry_multiplicity
 _atom_site_fract_x
 _atom_site_fract_y
 _atom_site_fract_z
 _atom_site_occupancy
  Ce  Ce0  1  0.072124  0.382679  0.185929  1
  Ce  Ce1  1  0.373971  0.999874  0.249722  1
  Ce  Ce2  1  0.689662  0.618344  0.313540  1
  Ce  Ce3  1  0.309695  0.381469  0.686360  1
  Ce  Ce4  1  0.626192  0.999865  0.750354  1
  Ce  Ce5  1  0.928958  0.618152  0.814418  1
  Si  Si6  1  0.629966  0.320887  0.029004  1
  Si  Si7  1  0.308701  0.678685  0.471011  1
  Si  Si8  1  0.691093  0.321101  0.528661  1
  Si  Si9  1  0.370444  0.679199  0.971275  1
  Se  Se10  1  0.003050  0.999011  0.250027  1
  Se  Se11  1  0.996186  0.000257  0.750103  1
  S  S12  1  0.721468  0.128257  0.051174  1
  S  S13  1  0.860500  0.572174  0.084472  1
  S  S14  1  0.398373  0.295102  0.142407  1
  S  S15  1  0.441620  0.704434  0.161581  1
  S  S16  1  0.736807  0.295906  0.338114  1
  S  S17  1  0.103723  0.705032  0.357480  1
  S  S18  1  0.288962  0.428109  0.415356  1
  S  S19  1  0.593068  0.871315  0.448648  1
  S  S20  1  0.406540  0.128519  0.550536  1
  S  S21  1  0.711372  0.572060  0.584235  1
  S  S22  1  0.896479  0.295127  0.642309  1
  S  S23  1  0.262893  0.704087  0.661458  1
  S  S24  1  0.558609  0.295625  0.838562  1
  S  S25  1  0.601632  0.704921  0.857936  1
  S  S26  1  0.139448  0.428188  0.915812  1
  S  S27  1  0.278465  0.871623  0.949516  1
