# generated using pymatgen
data_Y3Ho2P12Ru16Pt3
_symmetry_space_group_name_H-M   'P 1'
_cell_length_a   12.59008300
_cell_length_b   12.59008386
_cell_length_c   3.98904800
_cell_angle_alpha   90.00000000
_cell_angle_beta   90.00000000
_cell_angle_gamma   119.99999510
_symmetry_Int_Tables_number   1
_chemical_formula_structural   Y3Ho2P12Ru16Pt3
_chemical_formula_sum   'Y3 Ho2 P12 Ru16 Pt3'
_cell_volume   547.59204639
_cell_formula_units_Z   1
loop_
 _symmetry_equiv_pos_site_id
 _symmetry_equiv_pos_as_xyz
  1  'x, y, z'
loop_
 _atom_site_type_symbol
 _atom_site_label
 _atom_site_symmetry_multiplicity
 _atom_site_fract_x
 _atom_site_fract_y
 _atom_site_fract_z
 _atom_site_occupancy
  Y  Y0  1  0.000000  0.182098  0.500000  1
  Y  Y1  1  0.817902  0.817902  0.500000  1
  Y  Y2  1  0.182098  0.000000  0.500000  1
  Ho  Ho3  1  0.666667  0.333333  0.000000  1
  Ho  Ho4  1  0.333333  0.666667  0.000000  1
  P  P5  1  0.000000  0.814898  0.000000  1
  P  P6  1  0.185102  0.185102  0.000000  1
  P  P7  1  0.814898  0.000000  0.000000  1
  P  P8  1  0.699885  0.180451  0.500000  1
  P  P9  1  0.819549  0.519435  0.500000  1
  P  P10  1  0.480565  0.300115  0.500000  1
  P  P11  1  0.180451  0.699885  0.500000  1
  P  P12  1  0.519435  0.819549  0.500000  1
  P  P13  1  0.300115  0.480565  0.500000  1
  P  P14  1  0.000000  0.365461  0.000000  1
  P  P15  1  0.634539  0.634539  0.000000  1
  P  P16  1  0.365461  0.000000  0.000000  1
  Ru  Ru17  1  0.000000  0.710891  0.500000  1
  Ru  Ru18  1  0.289109  0.289109  0.500000  1
  Ru  Ru19  1  0.710891  0.000000  0.500000  1
  Ru  Ru20  1  0.806297  0.185055  0.000000  1
  Ru  Ru21  1  0.814945  0.621244  0.000000  1
  Ru  Ru22  1  0.378756  0.193703  0.000000  1
  Ru  Ru23  1  0.185055  0.806297  0.000000  1
  Ru  Ru24  1  0.621244  0.814945  0.000000  1
  Ru  Ru25  1  0.193703  0.378756  0.000000  1
  Ru  Ru26  1  0.875094  0.369350  0.500000  1
  Ru  Ru27  1  0.630650  0.505745  0.500000  1
  Ru  Ru28  1  0.494255  0.124906  0.500000  1
  Ru  Ru29  1  0.369350  0.875094  0.500000  1
  Ru  Ru30  1  0.505745  0.630650  0.500000  1
  Ru  Ru31  1  0.124906  0.494255  0.500000  1
  Ru  Ru32  1  0.000000  0.000000  0.000000  1
  Pt  Pt33  1  0.000000  0.551425  0.000000  1
  Pt  Pt34  1  0.448575  0.448575  0.000000  1
  Pt  Pt35  1  0.551425  0.000000  0.000000  1
