# generated using pymatgen
data_Li3Ti2PRh6
_symmetry_space_group_name_H-M   'P 1'
_cell_length_a   4.23342800
_cell_length_b   5.93214600
_cell_length_c   12.52386900
_cell_angle_alpha   89.99983072
_cell_angle_beta   89.99896855
_cell_angle_gamma   89.99994396
_symmetry_Int_Tables_number   1
_chemical_formula_structural   Li3Ti2PRh6
_chemical_formula_sum   'Li6 Ti4 P2 Rh12'
_cell_volume   314.51584185
_cell_formula_units_Z   2
loop_
 _symmetry_equiv_pos_site_id
 _symmetry_equiv_pos_as_xyz
  1  'x, y, z'
loop_
 _atom_site_type_symbol
 _atom_site_label
 _atom_site_symmetry_multiplicity
 _atom_site_fract_x
 _atom_site_fract_y
 _atom_site_fract_z
 _atom_site_occupancy
  Li  Li0  1  0.999998  0.500000  0.000311  1
  Li  Li1  1  0.499948  0.999999  0.166358  1
  Li  Li2  1  0.999943  0.499999  0.330725  1
  Li  Li3  1  0.499997  0.000000  0.494932  1
  Li  Li4  1  0.000077  0.499999  0.671733  1
  Li  Li5  1  0.500056  0.000000  0.835942  1
  Ti  Ti6  1  0.999941  0.000000  0.330642  1
  Ti  Ti7  1  0.500000  0.499999  0.496666  1
  Ti  Ti8  1  0.000065  0.000000  0.670001  1
  Ti  Ti9  1  0.500052  0.499999  0.836024  1
  P  P10  1  0.999970  0.000000  0.004300  1
  P  P11  1  0.499928  0.500000  0.162366  1
  Rh  Rh12  1  0.499993  0.245929  0.006901  1
  Rh  Rh13  1  0.499993  0.754072  0.006900  1
  Rh  Rh14  1  0.999960  0.254072  0.159767  1
  Rh  Rh15  1  0.999960  0.745927  0.159767  1
  Rh  Rh16  1  0.499950  0.259030  0.321542  1
  Rh  Rh17  1  0.499947  0.740970  0.321542  1
  Rh  Rh18  1  0.000005  0.249923  0.498453  1
  Rh  Rh19  1  0.000007  0.750077  0.498453  1
  Rh  Rh20  1  0.500063  0.250075  0.668213  1
  Rh  Rh21  1  0.500061  0.749924  0.668213  1
  Rh  Rh22  1  0.000047  0.240971  0.845124  1
  Rh  Rh23  1  0.000045  0.759028  0.845124  1
