# generated using pymatgen
data_ErNi2(AsRu)3
_symmetry_space_group_name_H-M   'P 1'
_cell_length_a   3.90716100
_cell_length_b   11.14570800
_cell_length_c   12.48911800
_cell_angle_alpha   90.00000000
_cell_angle_beta   90.00000000
_cell_angle_gamma   90.00000000
_symmetry_Int_Tables_number   1
_chemical_formula_structural   ErNi2(AsRu)3
_chemical_formula_sum   'Er4 Ni8 As12 Ru12'
_cell_volume   543.87705503
_cell_formula_units_Z   4
loop_
 _symmetry_equiv_pos_site_id
 _symmetry_equiv_pos_as_xyz
  1  'x, y, z'
loop_
 _atom_site_type_symbol
 _atom_site_label
 _atom_site_symmetry_multiplicity
 _atom_site_fract_x
 _atom_site_fract_y
 _atom_site_fract_z
 _atom_site_occupancy
  Er  Er0  1  0.250000  0.589639  0.704057  1
  Er  Er1  1  0.250000  0.910361  0.204057  1
  Er  Er2  1  0.750000  0.410361  0.295943  1
  Er  Er3  1  0.750000  0.089639  0.795943  1
  Ni  Ni4  1  0.250000  0.889637  0.695752  1
  Ni  Ni5  1  0.250000  0.610363  0.195752  1
  Ni  Ni6  1  0.750000  0.110363  0.304248  1
  Ni  Ni7  1  0.750000  0.389637  0.804248  1
  Ni  Ni8  1  0.250000  0.465823  0.928480  1
  Ni  Ni9  1  0.250000  0.034177  0.428480  1
  Ni  Ni10  1  0.750000  0.534177  0.071520  1
  Ni  Ni11  1  0.750000  0.965823  0.571520  1
  As  As12  1  0.250000  0.416815  0.111561  1
  As  As13  1  0.250000  0.083185  0.611561  1
  As  As14  1  0.750000  0.583185  0.888439  1
  As  As15  1  0.750000  0.916815  0.388439  1
  As  As16  1  0.250000  0.269533  0.876735  1
  As  As17  1  0.250000  0.230467  0.376735  1
  As  As18  1  0.750000  0.730467  0.123265  1
  As  As19  1  0.750000  0.769533  0.623265  1
  As  As20  1  0.250000  0.598428  0.385875  1
  As  As21  1  0.250000  0.901572  0.885875  1
  As  As22  1  0.750000  0.401572  0.614125  1
  As  As23  1  0.750000  0.098428  0.114125  1
  Ru  Ru24  1  0.250000  0.709575  0.986247  1
  Ru  Ru25  1  0.250000  0.790425  0.486247  1
  Ru  Ru26  1  0.750000  0.290425  0.013753  1
  Ru  Ru27  1  0.750000  0.209575  0.513753  1
  Ru  Ru28  1  0.250000  0.407913  0.486751  1
  Ru  Ru29  1  0.250000  0.092087  0.986751  1
  Ru  Ru30  1  0.750000  0.592087  0.513249  1
  Ru  Ru31  1  0.750000  0.907913  0.013249  1
  Ru  Ru32  1  0.250000  0.218159  0.182826  1
  Ru  Ru33  1  0.250000  0.281841  0.682826  1
  Ru  Ru34  1  0.750000  0.781841  0.817174  1
  Ru  Ru35  1  0.750000  0.718159  0.317174  1
