# generated using pymatgen
data_Y2Zr2PtRh
_symmetry_space_group_name_H-M   'P 1'
_cell_length_a   4.70284500
_cell_length_b   7.15571400
_cell_length_c   8.17570000
_cell_angle_alpha   90.00000000
_cell_angle_beta   90.00000000
_cell_angle_gamma   90.00000000
_symmetry_Int_Tables_number   1
_chemical_formula_structural   Y2Zr2PtRh
_chemical_formula_sum   'Y4 Zr4 Pt2 Rh2'
_cell_volume   275.13040442
_cell_formula_units_Z   2
loop_
 _symmetry_equiv_pos_site_id
 _symmetry_equiv_pos_as_xyz
  1  'x, y, z'
loop_
 _atom_site_type_symbol
 _atom_site_label
 _atom_site_symmetry_multiplicity
 _atom_site_fract_x
 _atom_site_fract_y
 _atom_site_fract_z
 _atom_site_occupancy
  Y  Y0  1  0.250000  0.017888  0.676711  1
  Y  Y1  1  0.250000  0.517888  0.823289  1
  Y  Y2  1  0.750000  0.981746  0.323677  1
  Y  Y3  1  0.750000  0.481746  0.176323  1
  Zr  Zr4  1  0.250000  0.141792  0.080903  1
  Zr  Zr5  1  0.250000  0.641792  0.419097  1
  Zr  Zr6  1  0.750000  0.853902  0.922856  1
  Zr  Zr7  1  0.750000  0.353902  0.577144  1
  Pt  Pt8  1  0.750000  0.728606  0.593693  1
  Pt  Pt9  1  0.750000  0.228606  0.906307  1
  Rh  Rh10  1  0.250000  0.276067  0.410340  1
  Rh  Rh11  1  0.250000  0.776067  0.089660  1
