# generated using pymatgen
data_Dy2YZr2Sn3O
_symmetry_space_group_name_H-M   'P 1'
_cell_length_a   8.78595483
_cell_length_b   8.77933240
_cell_length_c   6.05112300
_cell_angle_alpha   90.00000000
_cell_angle_beta   90.00000000
_cell_angle_gamma   119.97506760
_symmetry_Int_Tables_number   1
_chemical_formula_structural   Dy2YZr2Sn3O
_chemical_formula_sum   'Dy4 Y2 Zr4 Sn6 O2'
_cell_volume   404.32083965
_cell_formula_units_Z   2
loop_
 _symmetry_equiv_pos_site_id
 _symmetry_equiv_pos_as_xyz
  1  'x, y, z'
loop_
 _atom_site_type_symbol
 _atom_site_label
 _atom_site_symmetry_multiplicity
 _atom_site_fract_x
 _atom_site_fract_y
 _atom_site_fract_z
 _atom_site_occupancy
  Dy  Dy0  1  0.000236  0.773996  0.750000  1
  Dy  Dy1  1  0.000236  0.226240  0.250000  1
  Dy  Dy2  1  0.226184  0.226300  0.750000  1
  Dy  Dy3  1  0.226184  0.999884  0.250000  1
  Y  Y4  1  0.772195  0.771985  0.250000  1
  Y  Y5  1  0.772195  0.000210  0.750000  1
  Zr  Zr6  1  0.333066  0.666534  0.000000  1
  Zr  Zr7  1  0.333066  0.666534  0.500000  1
  Zr  Zr8  1  0.666739  0.333369  0.000000  1
  Zr  Zr9  1  0.666739  0.333369  0.500000  1
  Sn  Sn10  1  0.000211  0.593834  0.250000  1
  Sn  Sn11  1  0.000211  0.406377  0.750000  1
  Sn  Sn12  1  0.405786  0.405869  0.250000  1
  Sn  Sn13  1  0.593545  0.593546  0.750000  1
  Sn  Sn14  1  0.405786  0.999917  0.750000  1
  Sn  Sn15  1  0.593545  0.999999  0.250000  1
  O  O16  1  0.002037  0.001019  0.000000  1
  O  O17  1  0.002037  0.001019  0.500000  1
