# generated using pymatgen
data_Na2Ga2SiSe6
_symmetry_space_group_name_H-M   'P 1'
_cell_length_a   7.39109277
_cell_length_b   7.39109293
_cell_length_c   12.36955528
_cell_angle_alpha   76.30565834
_cell_angle_beta   76.30566022
_cell_angle_gamma   68.64089558
_symmetry_Int_Tables_number   1
_chemical_formula_structural   Na2Ga2SiSe6
_chemical_formula_sum   'Na4 Ga4 Si2 Se12'
_cell_volume   602.90685268
_cell_formula_units_Z   2
loop_
 _symmetry_equiv_pos_site_id
 _symmetry_equiv_pos_as_xyz
  1  'x, y, z'
loop_
 _atom_site_type_symbol
 _atom_site_label
 _atom_site_symmetry_multiplicity
 _atom_site_fract_x
 _atom_site_fract_y
 _atom_site_fract_z
 _atom_site_occupancy
  Na  Na0  1  0.197349  0.329543  0.007414  1
  Na  Na1  1  0.329543  0.197349  0.507414  1
  Na  Na2  1  0.353971  0.741411  0.168953  1
  Na  Na3  1  0.741411  0.353971  0.668953  1
  Ga  Ga4  1  0.848986  0.965543  0.013058  1
  Ga  Ga5  1  0.965543  0.848986  0.513058  1
  Ga  Ga6  1  0.659295  0.801022  0.813358  1
  Ga  Ga7  1  0.801022  0.659295  0.313358  1
  Si  Si8  1  0.186176  0.754459  0.764021  1
  Si  Si9  1  0.754459  0.186176  0.264021  1
  Se  Se10  1  0.049007  0.047413  0.829089  1
  Se  Se11  1  0.047413  0.049007  0.329089  1
  Se  Se12  1  0.802779  0.275848  0.072876  1
  Se  Se13  1  0.275848  0.802779  0.572876  1
  Se  Se14  1  0.020213  0.664276  0.131705  1
  Se  Se15  1  0.664276  0.020213  0.631705  1
  Se  Se16  1  0.538640  0.967412  0.976400  1
  Se  Se17  1  0.967412  0.538640  0.476400  1
  Se  Se18  1  0.467096  0.570842  0.842330  1
  Se  Se19  1  0.570842  0.467096  0.342330  1
  Se  Se20  1  0.991989  0.556587  0.812565  1
  Se  Se21  1  0.556587  0.991989  0.312565  1
