# generated using pymatgen
data_Zr10Zn2Sn4BiSb
_symmetry_space_group_name_H-M   'P 1'
_cell_length_a   8.73740104
_cell_length_b   8.73292487
_cell_length_c   5.89548900
_cell_angle_alpha   90.00000000
_cell_angle_beta   90.00000000
_cell_angle_gamma   119.94046200
_symmetry_Int_Tables_number   1
_chemical_formula_structural   Zr10Zn2Sn4BiSb
_chemical_formula_sum   'Zr10 Zn2 Sn4 Bi1 Sb1'
_cell_volume   389.80975133
_cell_formula_units_Z   1
loop_
 _symmetry_equiv_pos_site_id
 _symmetry_equiv_pos_as_xyz
  1  'x, y, z'
loop_
 _atom_site_type_symbol
 _atom_site_label
 _atom_site_symmetry_multiplicity
 _atom_site_fract_x
 _atom_site_fract_y
 _atom_site_fract_z
 _atom_site_occupancy
  Zr  Zr0  1  0.668391  0.331769  0.001416  1
  Zr  Zr1  1  0.333905  0.669854  0.001523  1
  Zr  Zr2  1  0.333905  0.669854  0.498477  1
  Zr  Zr3  1  0.668391  0.331769  0.498584  1
  Zr  Zr4  1  0.734571  0.735614  0.750000  1
  Zr  Zr5  1  0.266692  0.995453  0.750000  1
  Zr  Zr6  1  0.994438  0.265166  0.750000  1
  Zr  Zr7  1  0.267670  0.267827  0.250000  1
  Zr  Zr8  1  0.730901  0.000651  0.250000  1
  Zr  Zr9  1  0.000569  0.731474  0.250000  1
  Zn  Zn10  1  0.000694  0.999632  0.002138  1
  Zn  Zn11  1  0.000694  0.999632  0.497862  1
  Sn  Sn12  1  0.999217  0.614408  0.750000  1
  Sn  Sn13  1  0.617105  0.616277  0.250000  1
  Sn  Sn14  1  0.383132  0.000624  0.250000  1
  Sn  Sn15  1  0.001349  0.385417  0.250000  1
  Bi  Bi16  1  0.384820  0.385100  0.750000  1
  Sb  Sb17  1  0.613555  0.999480  0.750000  1
