# generated using pymatgen
data_ErTm7B24MoRu3
_symmetry_space_group_name_H-M   'P 1'
_cell_length_a   3.62080200
_cell_length_b   9.10048506
_cell_length_c   11.47931402
_cell_angle_alpha   89.87175195
_cell_angle_beta   90.00000000
_cell_angle_gamma   90.00000000
_symmetry_Int_Tables_number   1
_chemical_formula_structural   ErTm7B24MoRu3
_chemical_formula_sum   'Er1 Tm7 B24 Mo1 Ru3'
_cell_volume   378.25455431
_cell_formula_units_Z   1
loop_
 _symmetry_equiv_pos_site_id
 _symmetry_equiv_pos_as_xyz
  1  'x, y, z'
loop_
 _atom_site_type_symbol
 _atom_site_label
 _atom_site_symmetry_multiplicity
 _atom_site_fract_x
 _atom_site_fract_y
 _atom_site_fract_z
 _atom_site_occupancy
  Er  Er0  1  0.000000  0.322048  0.413464  1
  Tm  Tm1  1  0.000000  0.677561  0.584525  1
  Tm  Tm2  1  0.000000  0.820083  0.087414  1
  Tm  Tm3  1  0.000000  0.177471  0.914889  1
  Tm  Tm4  1  0.000000  0.945408  0.372592  1
  Tm  Tm5  1  0.000000  0.057900  0.629182  1
  Tm  Tm6  1  0.000000  0.442936  0.126630  1
  Tm  Tm7  1  0.000000  0.556960  0.870583  1
  B  B8  1  0.500000  0.551129  0.435964  1
  B  B9  1  0.500000  0.446124  0.568071  1
  B  B10  1  0.500000  0.053408  0.066610  1
  B  B11  1  0.500000  0.946109  0.933547  1
  B  B12  1  0.500000  0.751277  0.421999  1
  B  B13  1  0.500000  0.251721  0.581169  1
  B  B14  1  0.500000  0.248494  0.079842  1
  B  B15  1  0.500000  0.751114  0.919173  1
  B  B16  1  0.500000  0.794848  0.264187  1
  B  B17  1  0.500000  0.208427  0.735054  1
  B  B18  1  0.500000  0.290872  0.233039  1
  B  B19  1  0.500000  0.709104  0.765162  1
  B  B20  1  0.500000  0.631466  0.182631  1
  B  B21  1  0.500000  0.368246  0.815382  1
  B  B22  1  0.500000  0.131248  0.314239  1
  B  B23  1  0.500000  0.869598  0.685232  1
  B  B24  1  0.500000  0.982933  0.212461  1
  B  B25  1  0.500000  0.017685  0.788271  1
  B  B26  1  0.500000  0.477914  0.286579  1
  B  B27  1  0.500000  0.517084  0.712859  1
  B  B28  1  0.500000  0.604977  0.027337  1
  B  B29  1  0.500000  0.394163  0.969903  1
  B  B30  1  0.500000  0.106257  0.471472  1
  B  B31  1  0.500000  0.896897  0.530247  1
  Mo  Mo32  1  0.000000  0.637726  0.321031  1
  Ru  Ru33  1  0.000000  0.360851  0.680770  1
  Ru  Ru34  1  0.000000  0.137672  0.177683  1
  Ru  Ru35  1  0.000000  0.862287  0.820807  1
