# generated using pymatgen
data_Er5Tm5CoRu3
_symmetry_space_group_name_H-M   'P 1'
_cell_length_a   6.22730101
_cell_length_b   7.17953285
_cell_length_c   8.32814532
_cell_angle_alpha   96.71558172
_cell_angle_beta   111.73381157
_cell_angle_gamma   90.25891908
_symmetry_Int_Tables_number   1
_chemical_formula_structural   Er5Tm5CoRu3
_chemical_formula_sum   'Er5 Tm5 Co1 Ru3'
_cell_volume   343.04071024
_cell_formula_units_Z   1
loop_
 _symmetry_equiv_pos_site_id
 _symmetry_equiv_pos_as_xyz
  1  'x, y, z'
loop_
 _atom_site_type_symbol
 _atom_site_label
 _atom_site_symmetry_multiplicity
 _atom_site_fract_x
 _atom_site_fract_y
 _atom_site_fract_z
 _atom_site_occupancy
  Er  Er0  1  0.790031  0.088497  0.814253  1
  Er  Er1  1  0.979017  0.415869  0.189284  1
  Er  Er2  1  0.209473  0.916672  0.185233  1
  Er  Er3  1  0.014076  0.584323  0.814190  1
  Er  Er4  1  0.209180  0.186794  0.566259  1
  Tm  Tm5  1  0.644475  0.315717  0.434943  1
  Tm  Tm6  1  0.794407  0.814784  0.435660  1
  Tm  Tm7  1  0.358442  0.680641  0.566696  1
  Tm  Tm8  1  0.421379  0.253100  0.998791  1
  Tm  Tm9  1  0.579530  0.746008  0.997511  1
  Co  Co10  1  0.602619  0.422271  0.776560  1
  Ru  Ru11  1  0.821631  0.074895  0.218500  1
  Ru  Ru12  1  0.398351  0.575351  0.221674  1
  Ru  Ru13  1  0.177391  0.925079  0.780444  1
