# generated using pymatgen
data_BaLiLaB2Pd3Pt4
_symmetry_space_group_name_H-M   'P 1'
_cell_length_a   5.58170900
_cell_length_b   5.58170893
_cell_length_c   7.71882200
_cell_angle_alpha   90.00000000
_cell_angle_beta   90.00000000
_cell_angle_gamma   119.99999448
_symmetry_Int_Tables_number   1
_chemical_formula_structural   BaLiLaB2Pd3Pt4
_chemical_formula_sum   'Ba1 Li1 La1 B2 Pd3 Pt4'
_cell_volume   208.26488865
_cell_formula_units_Z   1
loop_
 _symmetry_equiv_pos_site_id
 _symmetry_equiv_pos_as_xyz
  1  'x, y, z'
loop_
 _atom_site_type_symbol
 _atom_site_label
 _atom_site_symmetry_multiplicity
 _atom_site_fract_x
 _atom_site_fract_y
 _atom_site_fract_z
 _atom_site_occupancy
  Ba  Ba0  1  0.001399  0.002797  0.500000  1
  Li  Li1  1  0.331558  0.663116  0.500000  1
  La  La2  1  0.999875  0.999749  0.000000  1
  B  B3  1  0.327644  0.655289  0.000000  1
  B  B4  1  0.673246  0.346490  0.000000  1
  Pd  Pd5  1  0.668749  0.337497  0.500000  1
  Pd  Pd6  1  0.499891  0.999783  0.193257  1
  Pd  Pd7  1  0.499891  0.999783  0.806743  1
  Pt  Pt8  1  0.999287  0.498874  0.197147  1
  Pt  Pt9  1  0.999287  0.498874  0.802853  1
  Pt  Pt10  1  0.499587  0.498874  0.197147  1
  Pt  Pt11  1  0.499587  0.498874  0.802853  1
