# generated using pymatgen
data_Pm2CuRh3
_symmetry_space_group_name_H-M   'P 1'
_cell_length_a   5.24529804
_cell_length_b   5.50882590
_cell_length_c   5.50881087
_cell_angle_alpha   59.99827574
_cell_angle_beta   58.32489797
_cell_angle_gamma   58.32294175
_symmetry_Int_Tables_number   1
_chemical_formula_structural   Pm2CuRh3
_chemical_formula_sum   'Pm2 Cu1 Rh3'
_cell_volume   109.61920800
_cell_formula_units_Z   1
loop_
 _symmetry_equiv_pos_site_id
 _symmetry_equiv_pos_as_xyz
  1  'x, y, z'
loop_
 _atom_site_type_symbol
 _atom_site_label
 _atom_site_symmetry_multiplicity
 _atom_site_fract_x
 _atom_site_fract_y
 _atom_site_fract_z
 _atom_site_occupancy
  Pm  Pm0  1  0.756982  0.747669  0.747671  1
  Pm  Pm1  1  0.993018  0.002331  0.002329  1
  Cu  Cu2  1  0.875000  0.375000  0.375000  1
  Rh  Rh3  1  0.375000  0.875000  0.375000  1
  Rh  Rh4  1  0.375000  0.375000  0.875000  1
  Rh  Rh5  1  0.375000  0.375000  0.375000  1
