# generated using pymatgen
data_EuHo2Tm2(ReO6)2
_symmetry_space_group_name_H-M   'P 1'
_cell_length_a   6.85989545
_cell_length_b   6.85989458
_cell_length_c   7.57450986
_cell_angle_alpha   73.53851388
_cell_angle_beta   73.53851785
_cell_angle_gamma   49.01883285
_symmetry_Int_Tables_number   1
_chemical_formula_structural   EuHo2Tm2(ReO6)2
_chemical_formula_sum   'Eu1 Ho2 Tm2 Re2 O12'
_cell_volume   255.70519060
_cell_formula_units_Z   1
loop_
 _symmetry_equiv_pos_site_id
 _symmetry_equiv_pos_as_xyz
  1  'x, y, z'
loop_
 _atom_site_type_symbol
 _atom_site_label
 _atom_site_symmetry_multiplicity
 _atom_site_fract_x
 _atom_site_fract_y
 _atom_site_fract_z
 _atom_site_occupancy
  Eu  Eu0  1  0.182831  0.182831  0.177916  1
  Ho  Ho1  1  0.802783  0.802783  0.364688  1
  Ho  Ho2  1  0.197974  0.197974  0.641270  1
  Tm  Tm3  1  0.816147  0.816147  0.819176  1
  Tm  Tm4  1  0.502186  0.502186  0.502063  1
  Re  Re5  1  0.284321  0.714468  0.999106  1
  Re  Re6  1  0.714468  0.284321  0.999106  1
  O  O7  1  0.419025  0.907276  0.906273  1
  O  O8  1  0.079457  0.595540  0.077852  1
  O  O9  1  0.595540  0.079457  0.077852  1
  O  O10  1  0.907276  0.419025  0.906273  1
  O  O11  1  0.601812  0.096584  0.575607  1
  O  O12  1  0.898590  0.408852  0.439972  1
  O  O13  1  0.408852  0.898590  0.439972  1
  O  O14  1  0.000942  0.000942  0.820989  1
  O  O15  1  0.994323  0.994323  0.174542  1
  O  O16  1  0.495410  0.495410  0.794788  1
  O  O17  1  0.501480  0.501480  0.206947  1
  O  O18  1  0.096584  0.601812  0.575607  1
