# generated using pymatgen
data_K6ScFeF12
_symmetry_space_group_name_H-M   'P 1'
_cell_length_a   6.45373051
_cell_length_b   6.21515152
_cell_length_c   10.80816102
_cell_angle_alpha   55.12261648
_cell_angle_beta   89.88385667
_cell_angle_gamma   90.03720062
_symmetry_Int_Tables_number   1
_chemical_formula_structural   K6ScFeF12
_chemical_formula_sum   'K6 Sc1 Fe1 F12'
_cell_volume   355.65279770
_cell_formula_units_Z   1
loop_
 _symmetry_equiv_pos_site_id
 _symmetry_equiv_pos_as_xyz
  1  'x, y, z'
loop_
 _atom_site_type_symbol
 _atom_site_label
 _atom_site_symmetry_multiplicity
 _atom_site_fract_x
 _atom_site_fract_y
 _atom_site_fract_z
 _atom_site_occupancy
  K  K0  1  0.500000  0.500000  0.000000  1
  K  K1  1  0.000000  0.500000  0.500000  1
  K  K2  1  0.051947  0.737124  0.749337  1
  K  K3  1  0.948053  0.262876  0.250663  1
  K  K4  1  0.550153  0.270008  0.743633  1
  K  K5  1  0.449847  0.729992  0.256367  1
  Sc  Sc6  1  0.000000  0.000000  0.000000  1
  Fe  Fe7  1  0.500000  0.000000  0.500000  1
  F  F8  1  0.753910  0.781935  0.560008  1
  F  F9  1  0.246090  0.218065  0.439992  1
  F  F10  1  0.262797  0.224917  0.936505  1
  F  F11  1  0.737203  0.775083  0.063495  1
  F  F12  1  0.455108  0.888561  0.709329  1
  F  F13  1  0.544892  0.111439  0.290671  1
  F  F14  1  0.952608  0.115067  0.783416  1
  F  F15  1  0.047392  0.884933  0.216584  1
  F  F16  1  0.332393  0.698297  0.542632  1
  F  F17  1  0.667607  0.301703  0.457368  1
  F  F18  1  0.830243  0.313959  0.954610  1
  F  F19  1  0.169757  0.686041  0.045390  1
