# generated using pymatgen
data_Tb3Ce(NiSn)4
_symmetry_space_group_name_H-M   'P 1'
_cell_length_a   4.52324700
_cell_length_b   7.23576309
_cell_length_c   7.61591699
_cell_angle_alpha   89.87373195
_cell_angle_beta   90.00000000
_cell_angle_gamma   90.00000000
_symmetry_Int_Tables_number   1
_chemical_formula_structural   Tb3Ce(NiSn)4
_chemical_formula_sum   'Tb3 Ce1 Ni4 Sn4'
_cell_volume   249.26183593
_cell_formula_units_Z   1
loop_
 _symmetry_equiv_pos_site_id
 _symmetry_equiv_pos_as_xyz
  1  'x, y, z'
loop_
 _atom_site_type_symbol
 _atom_site_label
 _atom_site_symmetry_multiplicity
 _atom_site_fract_x
 _atom_site_fract_y
 _atom_site_fract_z
 _atom_site_occupancy
  Tb  Tb0  1  0.250000  0.482503  0.198775  1
  Tb  Tb1  1  0.750000  0.517555  0.803453  1
  Tb  Tb2  1  0.250000  0.981678  0.298099  1
  Ce  Ce3  1  0.750000  0.017266  0.697923  1
  Ni  Ni4  1  0.750000  0.301235  0.420068  1
  Ni  Ni5  1  0.250000  0.198027  0.916508  1
  Ni  Ni6  1  0.750000  0.800704  0.082469  1
  Ni  Ni7  1  0.250000  0.699814  0.580146  1
  Sn  Sn8  1  0.250000  0.317276  0.589016  1
  Sn  Sn9  1  0.750000  0.186844  0.092359  1
  Sn  Sn10  1  0.250000  0.812920  0.911322  1
  Sn  Sn11  1  0.750000  0.684180  0.409861  1
