# generated using pymatgen
data_Gd5RuRh2
_symmetry_space_group_name_H-M   'P 1'
_cell_length_a   10.97663600
_cell_length_b   10.97663600
_cell_length_c   6.42824000
_cell_angle_alpha   90.00000000
_cell_angle_beta   90.00000000
_cell_angle_gamma   90.00000000
_symmetry_Int_Tables_number   1
_chemical_formula_structural   Gd5RuRh2
_chemical_formula_sum   'Gd20 Ru4 Rh8'
_cell_volume   774.51638224
_cell_formula_units_Z   4
loop_
 _symmetry_equiv_pos_site_id
 _symmetry_equiv_pos_as_xyz
  1  'x, y, z'
loop_
 _atom_site_type_symbol
 _atom_site_label
 _atom_site_symmetry_multiplicity
 _atom_site_fract_x
 _atom_site_fract_y
 _atom_site_fract_z
 _atom_site_occupancy
  Gd  Gd0  1  0.087128  0.293836  0.120007  1
  Gd  Gd1  1  0.793836  0.412872  0.120007  1
  Gd  Gd2  1  0.206164  0.587128  0.120007  1
  Gd  Gd3  1  0.912872  0.706164  0.120007  1
  Gd  Gd4  1  0.413051  0.794052  0.380318  1
  Gd  Gd5  1  0.586949  0.205948  0.380318  1
  Gd  Gd6  1  0.294052  0.086949  0.380318  1
  Gd  Gd7  1  0.705948  0.913051  0.380318  1
  Gd  Gd8  1  0.412889  0.206005  0.880265  1
  Gd  Gd9  1  0.706005  0.087111  0.880265  1
  Gd  Gd10  1  0.293995  0.912889  0.880265  1
  Gd  Gd11  1  0.587111  0.793995  0.880265  1
  Gd  Gd12  1  0.086907  0.706011  0.620004  1
  Gd  Gd13  1  0.913093  0.293989  0.620004  1
  Gd  Gd14  1  0.206011  0.413093  0.620004  1
  Gd  Gd15  1  0.793989  0.586907  0.620004  1
  Gd  Gd16  1  0.000000  0.000000  0.999743  1
  Gd  Gd17  1  0.500000  0.500000  0.999743  1
  Gd  Gd18  1  0.500000  0.500000  0.498911  1
  Gd  Gd19  1  0.000000  0.000000  0.498911  1
  Ru  Ru20  1  0.000000  0.500000  0.873996  1
  Ru  Ru21  1  0.000000  0.500000  0.373878  1
  Ru  Ru22  1  0.500000  0.000000  0.126929  1
  Ru  Ru23  1  0.500000  0.000000  0.626940  1
  Rh  Rh24  1  0.152491  0.847620  0.249750  1
  Rh  Rh25  1  0.347620  0.347509  0.249750  1
  Rh  Rh26  1  0.652380  0.652491  0.249750  1
  Rh  Rh27  1  0.847509  0.152380  0.249750  1
  Rh  Rh28  1  0.347701  0.652100  0.749892  1
  Rh  Rh29  1  0.152100  0.152299  0.749892  1
  Rh  Rh30  1  0.847900  0.847701  0.749892  1
  Rh  Rh31  1  0.652299  0.347900  0.749892  1
