# generated using pymatgen
data_Cs3GePPt3
_symmetry_space_group_name_H-M   'P 1'
_cell_length_a   8.00947771
_cell_length_b   8.00947643
_cell_length_c   8.00947651
_cell_angle_alpha   49.86523913
_cell_angle_beta   49.86524893
_cell_angle_gamma   49.86522940
_symmetry_Int_Tables_number   1
_chemical_formula_structural   Cs3GePPt3
_chemical_formula_sum   'Cs3 Ge1 P1 Pt3'
_cell_volume   276.30234270
_cell_formula_units_Z   1
loop_
 _symmetry_equiv_pos_site_id
 _symmetry_equiv_pos_as_xyz
  1  'x, y, z'
loop_
 _atom_site_type_symbol
 _atom_site_label
 _atom_site_symmetry_multiplicity
 _atom_site_fract_x
 _atom_site_fract_y
 _atom_site_fract_z
 _atom_site_occupancy
  Cs  Cs0  1  0.086184  0.086184  0.086184  1
  Cs  Cs1  1  0.509199  0.509199  0.509199  1
  Cs  Cs2  1  0.915920  0.915920  0.915920  1
  Ge  Ge3  1  0.260116  0.260116  0.260116  1
  P  P4  1  0.692193  0.692193  0.692193  1
  Pt  Pt5  1  0.486531  0.486531  0.063328  1
  Pt  Pt6  1  0.486531  0.063328  0.486530  1
  Pt  Pt7  1  0.063328  0.486531  0.486530  1
