# generated using pymatgen
data_Y2TcNiOs2
_symmetry_space_group_name_H-M   'P 1'
_cell_length_a   5.39851503
_cell_length_b   5.37562947
_cell_length_c   5.39851470
_cell_angle_alpha   57.88799740
_cell_angle_beta   58.67203587
_cell_angle_gamma   57.88800249
_symmetry_Int_Tables_number   1
_chemical_formula_structural   Y2TcNiOs2
_chemical_formula_sum   'Y2 Tc1 Ni1 Os2'
_cell_volume   106.06727149
_cell_formula_units_Z   1
loop_
 _symmetry_equiv_pos_site_id
 _symmetry_equiv_pos_as_xyz
  1  'x, y, z'
loop_
 _atom_site_type_symbol
 _atom_site_label
 _atom_site_symmetry_multiplicity
 _atom_site_fract_x
 _atom_site_fract_y
 _atom_site_fract_z
 _atom_site_occupancy
  Y  Y0  1  0.122489  0.123380  0.122489  1
  Y  Y1  1  0.877511  0.876620  0.877511  1
  Tc  Tc2  1  0.500000  0.000000  0.500000  1
  Ni  Ni3  1  0.500000  0.500000  0.500000  1
  Os  Os4  1  0.000000  0.500000  0.500000  1
  Os  Os5  1  0.500000  0.500000  0.000000  1
