# generated using pymatgen
data_La6SnHg9
_symmetry_space_group_name_H-M   'P 1'
_cell_length_a   6.61873859
_cell_length_b   6.61873976
_cell_length_c   10.88002831
_cell_angle_alpha   91.24639559
_cell_angle_beta   91.24639545
_cell_angle_gamma   104.76853439
_symmetry_Int_Tables_number   1
_chemical_formula_structural   La6SnHg9
_chemical_formula_sum   'La6 Sn1 Hg9'
_cell_volume   460.59019660
_cell_formula_units_Z   1
loop_
 _symmetry_equiv_pos_site_id
 _symmetry_equiv_pos_as_xyz
  1  'x, y, z'
loop_
 _atom_site_type_symbol
 _atom_site_label
 _atom_site_symmetry_multiplicity
 _atom_site_fract_x
 _atom_site_fract_y
 _atom_site_fract_z
 _atom_site_occupancy
  La  La0  1  0.605395  0.605395  0.248519  1
  La  La1  1  0.392553  0.392553  0.756123  1
  La  La2  1  0.204477  0.804533  0.495928  1
  La  La3  1  0.204517  0.796336  0.997774  1
  La  La4  1  0.804533  0.204477  0.495928  1
  La  La5  1  0.796336  0.204517  0.997774  1
  Sn  Sn6  1  0.684779  0.684779  0.544363  1
  Hg  Hg7  1  0.002951  0.002951  0.242601  1
  Hg  Hg8  1  0.998028  0.998028  0.751147  1
  Hg  Hg9  1  0.301356  0.301356  0.037531  1
  Hg  Hg10  1  0.693309  0.693309  0.967687  1
  Hg  Hg11  1  0.309832  0.309832  0.462632  1
  Hg  Hg12  1  0.487782  0.061863  0.248473  1
  Hg  Hg13  1  0.937801  0.514489  0.752524  1
  Hg  Hg14  1  0.514489  0.937801  0.752524  1
  Hg  Hg15  1  0.061863  0.487782  0.248473  1
