# generated using pymatgen
data_Sm4Hf2Pb5
_symmetry_space_group_name_H-M   'P 1'
_cell_length_a   6.35785915
_cell_length_b   9.55343128
_cell_length_c   11.71207820
_cell_angle_alpha   114.06954309
_cell_angle_beta   105.74897152
_cell_angle_gamma   90.00000253
_symmetry_Int_Tables_number   1
_chemical_formula_structural   Sm4Hf2Pb5
_chemical_formula_sum   'Sm8 Hf4 Pb10'
_cell_volume   620.16706085
_cell_formula_units_Z   2
loop_
 _symmetry_equiv_pos_site_id
 _symmetry_equiv_pos_as_xyz
  1  'x, y, z'
loop_
 _atom_site_type_symbol
 _atom_site_label
 _atom_site_symmetry_multiplicity
 _atom_site_fract_x
 _atom_site_fract_y
 _atom_site_fract_z
 _atom_site_occupancy
  Sm  Sm0  1  0.441498  0.668019  0.882996  1
  Sm  Sm1  1  0.558502  0.331981  0.117004  1
  Sm  Sm2  1  0.941498  0.214977  0.882996  1
  Sm  Sm3  1  0.058502  0.785023  0.117004  1
  Sm  Sm4  1  0.146867  0.256423  0.293733  1
  Sm  Sm5  1  0.853133  0.743577  0.706267  1
  Sm  Sm6  1  0.646867  0.037311  0.293733  1
  Sm  Sm7  1  0.353133  0.962689  0.706267  1
  Hf  Hf8  1  0.552822  0.302822  0.605643  1
  Hf  Hf9  1  0.447178  0.697178  0.394357  1
  Hf  Hf10  1  0.947178  0.697178  0.394357  1
  Hf  Hf11  1  0.052822  0.302822  0.605643  1
  Pb  Pb12  1  0.290265  0.587723  0.580529  1
  Pb  Pb13  1  0.709735  0.412277  0.419471  1
  Pb  Pb14  1  0.790265  0.992807  0.580529  1
  Pb  Pb15  1  0.209735  0.007193  0.419471  1
  Pb  Pb16  1  0.250000  0.000000  0.000000  1
  Pb  Pb17  1  0.750000  0.000000  0.000000  1
  Pb  Pb18  1  0.081917  0.480543  0.163835  1
  Pb  Pb19  1  0.918083  0.519457  0.836165  1
  Pb  Pb20  1  0.581917  0.683292  0.163835  1
  Pb  Pb21  1  0.418083  0.316708  0.836165  1
