# generated using pymatgen
data_Y(Tm3In2)3
_symmetry_space_group_name_H-M   'P 1'
_cell_length_a   9.04586749
_cell_length_b   9.04586653
_cell_length_c   9.04833300
_cell_angle_alpha   96.43500470
_cell_angle_beta   96.46231129
_cell_angle_gamma   140.83343462
_symmetry_Int_Tables_number   1
_chemical_formula_structural   Y(Tm3In2)3
_chemical_formula_sum   'Y1 Tm9 In6'
_cell_volume   440.58803272
_cell_formula_units_Z   1
loop_
 _symmetry_equiv_pos_site_id
 _symmetry_equiv_pos_as_xyz
  1  'x, y, z'
loop_
 _atom_site_type_symbol
 _atom_site_label
 _atom_site_symmetry_multiplicity
 _atom_site_fract_x
 _atom_site_fract_y
 _atom_site_fract_z
 _atom_site_occupancy
  Y  Y0  1  0.081993  0.781874  0.863867  1
  Tm  Tm1  1  0.717664  0.419070  0.136734  1
  Tm  Tm2  1  0.282853  0.580908  0.863761  1
  Tm  Tm3  1  0.581567  0.717602  0.299168  1
  Tm  Tm4  1  0.217366  0.081673  0.299038  1
  Tm  Tm5  1  0.918001  0.217669  0.135670  1
  Tm  Tm6  1  0.749997  0.249705  0.499695  1
  Tm  Tm7  1  0.249990  0.749698  0.499695  1
  Tm  Tm8  1  0.782330  0.918863  0.701194  1
  Tm  Tm9  1  0.417954  0.282676  0.700631  1
  In  In10  1  0.837749  0.661633  0.499383  1
  In  In11  1  0.339051  0.838279  0.177330  1
  In  In12  1  0.749817  0.750352  0.000294  1
  In  In13  1  0.661898  0.161595  0.823493  1
  In  In14  1  0.161826  0.337926  0.499753  1
  In  In15  1  0.249942  0.250477  0.000294  1
