# generated using pymatgen
data_Dy4Tm3Lu(B6Os)4
_symmetry_space_group_name_H-M   'P 1'
_cell_length_a   3.63208600
_cell_length_b   9.10132603
_cell_length_c   11.49047804
_cell_angle_alpha   90.00959891
_cell_angle_beta   90.00000000
_cell_angle_gamma   90.00000000
_symmetry_Int_Tables_number   1
_chemical_formula_structural   Dy4Tm3Lu(B6Os)4
_chemical_formula_sum   'Dy4 Tm3 Lu1 B24 Os4'
_cell_volume   379.83841608
_cell_formula_units_Z   1
loop_
 _symmetry_equiv_pos_site_id
 _symmetry_equiv_pos_as_xyz
  1  'x, y, z'
loop_
 _atom_site_type_symbol
 _atom_site_label
 _atom_site_symmetry_multiplicity
 _atom_site_fract_x
 _atom_site_fract_y
 _atom_site_fract_z
 _atom_site_occupancy
  Dy  Dy0  1  0.000000  0.321784  0.414226  1
  Dy  Dy1  1  0.000000  0.678248  0.585967  1
  Dy  Dy2  1  0.000000  0.821574  0.085639  1
  Dy  Dy3  1  0.000000  0.178469  0.914082  1
  Tm  Tm4  1  0.000000  0.944052  0.372893  1
  Tm  Tm5  1  0.000000  0.055974  0.627273  1
  Tm  Tm6  1  0.000000  0.444147  0.126782  1
  Lu  Lu7  1  0.000000  0.555922  0.872847  1
  B  B8  1  0.500000  0.554319  0.433000  1
  B  B9  1  0.500000  0.445774  0.567201  1
  B  B10  1  0.500000  0.054266  0.066951  1
  B  B11  1  0.500000  0.945423  0.932923  1
  B  B12  1  0.500000  0.749218  0.419455  1
  B  B13  1  0.500000  0.250914  0.580645  1
  B  B14  1  0.500000  0.249357  0.080440  1
  B  B15  1  0.500000  0.750144  0.919416  1
  B  B16  1  0.500000  0.791647  0.265974  1
  B  B17  1  0.500000  0.208597  0.734094  1
  B  B18  1  0.500000  0.291720  0.233929  1
  B  B19  1  0.500000  0.707783  0.766189  1
  B  B20  1  0.500000  0.631153  0.184508  1
  B  B21  1  0.500000  0.369323  0.815604  1
  B  B22  1  0.500000  0.131240  0.315333  1
  B  B23  1  0.500000  0.868618  0.684762  1
  B  B24  1  0.500000  0.982983  0.213343  1
  B  B25  1  0.500000  0.016864  0.786709  1
  B  B26  1  0.500000  0.482934  0.286581  1
  B  B27  1  0.500000  0.517371  0.713800  1
  B  B28  1  0.500000  0.604599  0.028283  1
  B  B29  1  0.500000  0.395834  0.970811  1
  B  B30  1  0.500000  0.105047  0.471146  1
  B  B31  1  0.500000  0.894950  0.528944  1
  Os  Os32  1  0.000000  0.637851  0.320668  1
  Os  Os33  1  0.000000  0.362591  0.679673  1
  Os  Os34  1  0.000000  0.137933  0.179126  1
  Os  Os35  1  0.000000  0.861376  0.820784  1
