# generated using pymatgen
data_K8AlFe7P8(O4F)8
_symmetry_space_group_name_H-M   'P 1'
_cell_length_a   6.44680100
_cell_length_b   10.80440100
_cell_length_c   13.05242200
_cell_angle_alpha   90.00000000
_cell_angle_beta   90.00000000
_cell_angle_gamma   90.00000000
_symmetry_Int_Tables_number   1
_chemical_formula_structural   K8AlFe7P8(O4F)8
_chemical_formula_sum   'K8 Al1 Fe7 P8 O32 F8'
_cell_volume   909.15109394
_cell_formula_units_Z   1
loop_
 _symmetry_equiv_pos_site_id
 _symmetry_equiv_pos_as_xyz
  1  'x, y, z'
loop_
 _atom_site_type_symbol
 _atom_site_label
 _atom_site_symmetry_multiplicity
 _atom_site_fract_x
 _atom_site_fract_y
 _atom_site_fract_z
 _atom_site_occupancy
  K  K0  1  0.772525  0.203613  0.375287  1
  K  K1  1  0.302641  0.942759  0.895592  1
  K  K2  1  0.802236  0.443569  0.604659  1
  K  K3  1  0.196368  0.941400  0.393517  1
  K  K4  1  0.698552  0.443446  0.104989  1
  K  K5  1  0.273895  0.702216  0.126086  1
  K  K6  1  0.727412  0.202879  0.875561  1
  K  K7  1  0.227767  0.703215  0.624321  1
  Al  Al8  1  0.750703  0.748201  0.252907  1
  Fe  Fe9  1  0.249226  0.248640  0.746721  1
  Fe  Fe10  1  0.749075  0.748804  0.753683  1
  Fe  Fe11  1  0.250980  0.248723  0.246980  1
  Fe  Fe12  1  0.493939  0.501056  0.387743  1
  Fe  Fe13  1  0.506819  0.998758  0.610710  1
  Fe  Fe14  1  0.006908  0.499164  0.888962  1
  Fe  Fe15  1  0.991984  0.997333  0.112359  1
  P  P16  1  0.996315  0.500004  0.315968  1
  P  P17  1  0.500766  0.992466  0.184280  1
  P  P18  1  0.502094  0.496404  0.817402  1
  P  P19  1  0.001736  0.996005  0.682470  1
  P  P20  1  0.170113  0.247059  0.000341  1
  P  P21  1  0.830263  0.746959  0.002888  1
  P  P22  1  0.329974  0.248392  0.499486  1
  P  P23  1  0.669510  0.748231  0.496784  1
  O  O24  1  0.306641  0.964308  0.117027  1
  O  O25  1  0.810402  0.023483  0.615023  1
  O  O26  1  0.310424  0.523878  0.884756  1
  O  O27  1  0.688435  0.023353  0.114671  1
  O  O28  1  0.037121  0.385374  0.245254  1
  O  O29  1  0.963010  0.881082  0.752943  1
  O  O30  1  0.463688  0.381680  0.746930  1
  O  O31  1  0.547645  0.876839  0.251992  1
  O  O32  1  0.518947  0.859788  0.512742  1
  O  O33  1  0.480038  0.360071  0.484959  1
  O  O34  1  0.982262  0.858463  0.014705  1
  O  O35  1  0.018982  0.358309  0.986023  1
  O  O36  1  0.808942  0.469644  0.386909  1
  O  O37  1  0.191992  0.968659  0.613038  1
  O  O38  1  0.692047  0.469152  0.887030  1
  O  O39  1  0.191030  0.527777  0.381511  1
  O  O40  1  0.527287  0.631253  0.488775  1
  O  O41  1  0.470726  0.131732  0.511116  1
  O  O42  1  0.970666  0.630086  0.989954  1
  O  O43  1  0.451852  0.103676  0.256943  1
  O  O44  1  0.797761  0.766177  0.398069  1
  O  O45  1  0.192658  0.267648  0.595304  1
  O  O46  1  0.691267  0.766005  0.907404  1
  O  O47  1  0.307168  0.266764  0.096228  1
  O  O48  1  0.700835  0.729346  0.102024  1
  O  O49  1  0.306155  0.229170  0.903472  1
  O  O50  1  0.808462  0.730956  0.592957  1
  O  O51  1  0.193976  0.230083  0.402519  1
  O  O52  1  0.943313  0.612584  0.246125  1
  O  O53  1  0.048200  0.106954  0.755337  1
  O  O54  1  0.548862  0.607644  0.744739  1
  O  O55  1  0.030613  0.129836  0.012161  1
  F  F56  1  0.963452  0.860245  0.228218  1
  F  F57  1  0.019401  0.368787  0.772568  1
  F  F58  1  0.519714  0.868185  0.727528  1
  F  F59  1  0.480211  0.370684  0.271525  1
  F  F60  1  0.026444  0.118221  0.231164  1
  F  F61  1  0.973425  0.620365  0.769729  1
  F  F62  1  0.473725  0.119737  0.730037  1
  F  F63  1  0.540418  0.629909  0.270896  1
