# generated using pymatgen
data_Th8Ta3Nb9Si16
_symmetry_space_group_name_H-M   'P 1'
_cell_length_a   7.19006881
_cell_length_b   7.19006881
_cell_length_c   13.40139700
_cell_angle_alpha   90.00087843
_cell_angle_beta   89.99912157
_cell_angle_gamma   89.94576477
_symmetry_Int_Tables_number   1
_chemical_formula_structural   Th8Ta3Nb9Si16
_chemical_formula_sum   'Th8 Ta3 Nb9 Si16'
_cell_volume   692.81290866
_cell_formula_units_Z   1
loop_
 _symmetry_equiv_pos_site_id
 _symmetry_equiv_pos_as_xyz
  1  'x, y, z'
loop_
 _atom_site_type_symbol
 _atom_site_label
 _atom_site_symmetry_multiplicity
 _atom_site_fract_x
 _atom_site_fract_y
 _atom_site_fract_z
 _atom_site_occupancy
  Th  Th0  1  0.999149  0.337310  0.218113  1
  Th  Th1  1  0.000954  0.662709  0.718112  1
  Th  Th2  1  0.162611  0.499098  0.468146  1
  Th  Th3  1  0.500934  0.837412  0.031858  1
  Th  Th4  1  0.837412  0.500934  0.968142  1
  Th  Th5  1  0.499098  0.162611  0.531854  1
  Th  Th6  1  0.337310  0.999149  0.781887  1
  Th  Th7  1  0.662709  0.000954  0.281888  1
  Ta  Ta8  1  0.832000  0.832000  0.500000  1
  Ta  Ta9  1  0.331874  0.668077  0.249996  1
  Ta  Ta10  1  0.668077  0.331874  0.750004  1
  Nb  Nb11  1  0.167886  0.167886  0.000000  1
  Nb  Nb12  1  0.160337  0.995025  0.374192  1
  Nb  Nb13  1  0.839337  0.004835  0.873930  1
  Nb  Nb14  1  0.505051  0.660178  0.624041  1
  Nb  Nb15  1  0.340187  0.495152  0.875798  1
  Nb  Nb16  1  0.495152  0.340187  0.124202  1
  Nb  Nb17  1  0.660178  0.505051  0.375959  1
  Nb  Nb18  1  0.995025  0.160337  0.625808  1
  Nb  Nb19  1  0.004835  0.839337  0.126070  1
  Si  Si20  1  0.288760  0.038941  0.186381  1
  Si  Si21  1  0.711308  0.960991  0.686191  1
  Si  Si22  1  0.460917  0.788716  0.436161  1
  Si  Si23  1  0.211332  0.539563  0.063885  1
  Si  Si24  1  0.539563  0.211332  0.936115  1
  Si  Si25  1  0.788716  0.460917  0.563839  1
  Si  Si26  1  0.038941  0.288760  0.813619  1
  Si  Si27  1  0.960991  0.711308  0.313809  1
  Si  Si28  1  0.375715  0.299077  0.313678  1
  Si  Si29  1  0.624160  0.700960  0.813731  1
  Si  Si30  1  0.200801  0.875750  0.563673  1
  Si  Si31  1  0.124177  0.798718  0.936325  1
  Si  Si32  1  0.798718  0.124177  0.063675  1
  Si  Si33  1  0.875750  0.200801  0.436327  1
  Si  Si34  1  0.299077  0.375715  0.686322  1
  Si  Si35  1  0.700960  0.624160  0.186269  1
