# generated using pymatgen
data_Ce6HoScAu10
_symmetry_space_group_name_H-M   'P 1'
_cell_length_a   8.17284090
_cell_length_b   8.17284075
_cell_length_c   8.17284100
_cell_angle_alpha   65.84447603
_cell_angle_beta   65.84447649
_cell_angle_gamma   65.84445680
_symmetry_Int_Tables_number   1
_chemical_formula_structural   Ce6HoScAu10
_chemical_formula_sum   'Ce6 Ho1 Sc1 Au10'
_cell_volume   434.90750073
_cell_formula_units_Z   1
loop_
 _symmetry_equiv_pos_site_id
 _symmetry_equiv_pos_as_xyz
  1  'x, y, z'
loop_
 _atom_site_type_symbol
 _atom_site_label
 _atom_site_symmetry_multiplicity
 _atom_site_fract_x
 _atom_site_fract_y
 _atom_site_fract_z
 _atom_site_occupancy
  Ce  Ce0  1  0.894658  0.182588  0.624906  1
  Ce  Ce1  1  0.624906  0.894658  0.182588  1
  Ce  Ce2  1  0.182588  0.624906  0.894658  1
  Ce  Ce3  1  0.107086  0.817615  0.374726  1
  Ce  Ce4  1  0.374726  0.107086  0.817615  1
  Ce  Ce5  1  0.817615  0.374726  0.107086  1
  Ho  Ho6  1  0.655534  0.655534  0.655534  1
  Sc  Sc7  1  0.342610  0.342610  0.342610  1
  Au  Au8  1  0.999776  0.999776  0.999776  1
  Au  Au9  1  0.495104  0.495104  0.495104  1
  Au  Au10  1  0.804472  0.804472  0.804472  1
  Au  Au11  1  0.197992  0.197992  0.197992  1
  Au  Au12  1  0.943981  0.545129  0.320094  1
  Au  Au13  1  0.320094  0.943981  0.545129  1
  Au  Au14  1  0.545129  0.320094  0.943981  1
  Au  Au15  1  0.067852  0.453202  0.672672  1
  Au  Au16  1  0.672672  0.067852  0.453202  1
  Au  Au17  1  0.453202  0.672672  0.067852  1
