# generated using pymatgen
data_Be4Co2W6C
_symmetry_space_group_name_H-M   'P 1'
_cell_length_a   7.55423266
_cell_length_b   7.55423284
_cell_length_c   7.55423300
_cell_angle_alpha   59.99999494
_cell_angle_beta   59.99999412
_cell_angle_gamma   59.99999690
_symmetry_Int_Tables_number   1
_chemical_formula_structural   Be4Co2W6C
_chemical_formula_sum   'Be8 Co4 W12 C2'
_cell_volume   304.82884126
_cell_formula_units_Z   2
loop_
 _symmetry_equiv_pos_site_id
 _symmetry_equiv_pos_as_xyz
  1  'x, y, z'
loop_
 _atom_site_type_symbol
 _atom_site_label
 _atom_site_symmetry_multiplicity
 _atom_site_fract_x
 _atom_site_fract_y
 _atom_site_fract_z
 _atom_site_occupancy
  Be  Be0  1  0.421953  0.421953  0.734140  1
  Be  Be1  1  0.421953  0.734140  0.421953  1
  Be  Be2  1  0.734140  0.421953  0.421953  1
  Be  Be3  1  0.421953  0.421953  0.421953  1
  Be  Be4  1  0.828047  0.828047  0.515860  1
  Be  Be5  1  0.828047  0.515860  0.828047  1
  Be  Be6  1  0.515860  0.828047  0.828047  1
  Be  Be7  1  0.828047  0.828047  0.828047  1
  Co  Co8  1  0.625000  0.625000  0.125000  1
  Co  Co9  1  0.625000  0.125000  0.625000  1
  Co  Co10  1  0.125000  0.625000  0.625000  1
  Co  Co11  1  0.625000  0.625000  0.625000  1
  W  W12  1  0.049376  0.049376  0.450624  1
  W  W13  1  0.450624  0.049376  0.450624  1
  W  W14  1  0.049376  0.450624  0.450624  1
  W  W15  1  0.450624  0.450624  0.049376  1
  W  W16  1  0.049376  0.450624  0.049376  1
  W  W17  1  0.450624  0.049376  0.049376  1
  W  W18  1  0.200624  0.200624  0.799376  1
  W  W19  1  0.799376  0.200624  0.799376  1
  W  W20  1  0.200624  0.799376  0.799376  1
  W  W21  1  0.799376  0.799376  0.200624  1
  W  W22  1  0.200624  0.799376  0.200624  1
  W  W23  1  0.799376  0.200624  0.200624  1
  C  C24  1  0.250000  0.250000  0.250000  1
  C  C25  1  0.000000  0.000000  0.000000  1
