# generated using pymatgen
data_Cs12Ga3FeS12
_symmetry_space_group_name_H-M   'P 1'
_cell_length_a   10.65304409
_cell_length_b   10.65304409
_cell_length_c   13.64736230
_cell_angle_alpha   89.93149538
_cell_angle_beta   89.93149619
_cell_angle_gamma   138.99352122
_symmetry_Int_Tables_number   1
_chemical_formula_structural   Cs12Ga3FeS12
_chemical_formula_sum   'Cs12 Ga3 Fe1 S12'
_cell_volume   1016.23241307
_cell_formula_units_Z   1
loop_
 _symmetry_equiv_pos_site_id
 _symmetry_equiv_pos_as_xyz
  1  'x, y, z'
loop_
 _atom_site_type_symbol
 _atom_site_label
 _atom_site_symmetry_multiplicity
 _atom_site_fract_x
 _atom_site_fract_y
 _atom_site_fract_z
 _atom_site_occupancy
  Cs  Cs0  1  0.869496  0.867699  0.677284  1
  Cs  Cs1  1  0.132301  0.130504  0.322716  1
  Cs  Cs2  1  0.630735  0.631409  0.179101  1
  Cs  Cs3  1  0.368591  0.369265  0.820899  1
  Cs  Cs4  1  0.164510  0.520137  0.126757  1
  Cs  Cs5  1  0.479863  0.835490  0.873243  1
  Cs  Cs6  1  0.980272  0.335588  0.627808  1
  Cs  Cs7  1  0.664412  0.019728  0.372192  1
  Cs  Cs8  1  0.835649  0.481008  0.873744  1
  Cs  Cs9  1  0.518992  0.164351  0.126256  1
  Cs  Cs10  1  0.015446  0.660292  0.374121  1
  Cs  Cs11  1  0.339708  0.984554  0.625879  1
  Ga  Ga12  1  0.918972  0.081028  0.000000  1
  Ga  Ga13  1  0.421372  0.578628  0.500000  1
  Ga  Ga14  1  0.080394  0.919606  0.000000  1
  Fe  Fe15  1  0.578730  0.421270  0.500000  1
  S  S16  1  0.297226  0.295717  0.565466  1
  S  S17  1  0.704283  0.702774  0.434534  1
  S  S18  1  0.200061  0.200654  0.065171  1
  S  S19  1  0.799346  0.799939  0.934829  1
  S  S20  1  0.715734  0.006602  0.116287  1
  S  S21  1  0.993398  0.284266  0.883713  1
  S  S22  1  0.491730  0.777631  0.617510  1
  S  S23  1  0.222369  0.508270  0.382490  1
  S  S24  1  0.282633  0.993173  0.883170  1
  S  S25  1  0.006827  0.717367  0.116830  1
  S  S26  1  0.509636  0.222686  0.385327  1
  S  S27  1  0.777314  0.490364  0.614673  1
