# generated using pymatgen
data_Ce3Gd5Y2(SiB4)4
_symmetry_space_group_name_H-M   'P 1'
_cell_length_a   7.28616938
_cell_length_b   7.28616938
_cell_length_c   8.24307323
_cell_angle_alpha   89.98077947
_cell_angle_beta   89.98077947
_cell_angle_gamma   90.10859519
_symmetry_Int_Tables_number   1
_chemical_formula_structural   Ce3Gd5Y2(SiB4)4
_chemical_formula_sum   'Ce3 Gd5 Y2 Si4 B16'
_cell_volume   437.60961383
_cell_formula_units_Z   1
loop_
 _symmetry_equiv_pos_site_id
 _symmetry_equiv_pos_as_xyz
  1  'x, y, z'
loop_
 _atom_site_type_symbol
 _atom_site_label
 _atom_site_symmetry_multiplicity
 _atom_site_fract_x
 _atom_site_fract_y
 _atom_site_fract_z
 _atom_site_occupancy
  Ce  Ce0  1  0.681887  0.181887  0.227802  1
  Ce  Ce1  1  0.317533  0.817533  0.772303  1
  Ce  Ce2  1  0.318637  0.818637  0.228727  1
  Gd  Gd3  1  0.820068  0.679790  0.222964  1
  Gd  Gd4  1  0.819955  0.679955  0.777165  1
  Gd  Gd5  1  0.681482  0.181482  0.777070  1
  Gd  Gd6  1  0.179955  0.319955  0.777165  1
  Gd  Gd7  1  0.179790  0.320068  0.222964  1
  Y  Y8  1  0.999414  0.000729  0.500365  1
  Y  Y9  1  0.500729  0.499414  0.500365  1
  Si  Si10  1  0.114762  0.614762  0.500224  1
  Si  Si11  1  0.884598  0.384598  0.499495  1
  Si  Si12  1  0.385669  0.114486  0.499884  1
  Si  Si13  1  0.614486  0.885669  0.499884  1
  B  B14  1  0.172383  0.038622  0.999384  1
  B  B15  1  0.827319  0.961636  0.999567  1
  B  B16  1  0.959634  0.172264  0.999306  1
  B  B17  1  0.328295  0.539621  0.999349  1
  B  B18  1  0.039621  0.828295  0.999349  1
  B  B19  1  0.672264  0.459634  0.999306  1
  B  B20  1  0.538622  0.672383  0.999384  1
  B  B21  1  0.461636  0.327319  0.999567  1
  B  B22  1  0.091802  0.591802  0.999730  1
  B  B23  1  0.908440  0.408440  0.000688  1
  B  B24  1  0.409754  0.090580  0.999991  1
  B  B25  1  0.590580  0.909754  0.999991  1
  B  B26  1  0.999526  0.000094  0.158191  1
  B  B27  1  0.000920  0.000147  0.840814  1
  B  B28  1  0.500147  0.500920  0.840814  1
  B  B29  1  0.500094  0.499526  0.158191  1
