# generated using pymatgen
data_Y18Tm2GaBi11
_symmetry_space_group_name_H-M   'P 1'
_cell_length_a   8.23282962
_cell_length_b   9.49485200
_cell_length_c   12.07791801
_cell_angle_alpha   90.00000000
_cell_angle_beta   90.27061873
_cell_angle_gamma   90.00000000
_symmetry_Int_Tables_number   1
_chemical_formula_structural   Y18Tm2GaBi11
_chemical_formula_sum   'Y18 Tm2 Ga1 Bi11'
_cell_volume   944.11426640
_cell_formula_units_Z   1
loop_
 _symmetry_equiv_pos_site_id
 _symmetry_equiv_pos_as_xyz
  1  'x, y, z'
loop_
 _atom_site_type_symbol
 _atom_site_label
 _atom_site_symmetry_multiplicity
 _atom_site_fract_x
 _atom_site_fract_y
 _atom_site_fract_z
 _atom_site_occupancy
  Y  Y0  1  0.976642  0.250000  0.010261  1
  Y  Y1  1  0.473024  0.250000  0.488830  1
  Y  Y2  1  0.190271  0.750000  0.722517  1
  Y  Y3  1  0.673297  0.750000  0.787919  1
  Y  Y4  1  0.811965  0.250000  0.280337  1
  Y  Y5  1  0.314002  0.250000  0.220104  1
  Y  Y6  1  0.308656  0.452091  0.940350  1
  Y  Y7  1  0.805707  0.061720  0.559657  1
  Y  Y8  1  0.686411  0.931575  0.055531  1
  Y  Y9  1  0.194792  0.562536  0.439142  1
  Y  Y10  1  0.686411  0.568425  0.055531  1
  Y  Y11  1  0.194792  0.937464  0.439142  1
  Y  Y12  1  0.308656  0.047909  0.940350  1
  Y  Y13  1  0.805707  0.438280  0.559657  1
  Y  Y14  1  0.355385  0.750000  0.205350  1
  Y  Y15  1  0.852860  0.750000  0.285736  1
  Y  Y16  1  0.648018  0.250000  0.785943  1
  Y  Y17  1  0.148591  0.250000  0.715109  1
  Tm  Tm18  1  0.037123  0.750000  0.990075  1
  Tm  Tm19  1  0.527217  0.750000  0.511318  1
  Ga  Ga20  1  0.410579  0.750000  0.961699  1
  Bi  Bi21  1  0.435338  0.003388  0.674241  1
  Bi  Bi22  1  0.935181  0.497900  0.825945  1
  Bi  Bi23  1  0.565299  0.504929  0.326306  1
  Bi  Bi24  1  0.064192  0.996315  0.174310  1
  Bi  Bi25  1  0.565299  0.995071  0.326306  1
  Bi  Bi26  1  0.064192  0.503685  0.174310  1
  Bi  Bi27  1  0.435338  0.496612  0.674241  1
  Bi  Bi28  1  0.935181  0.002100  0.825945  1
  Bi  Bi29  1  0.911061  0.750000  0.543743  1
  Bi  Bi30  1  0.589531  0.250000  0.041924  1
  Bi  Bi31  1  0.089287  0.250000  0.458175  1
