# generated using pymatgen
data_Hf5Zr3(Pt2N)2
_symmetry_space_group_name_H-M   'P 1'
_cell_length_a   8.82591423
_cell_length_b   8.82591435
_cell_length_c   8.82591500
_cell_angle_alpha   60.00000131
_cell_angle_beta   60.00000086
_cell_angle_gamma   60.00000102
_symmetry_Int_Tables_number   1
_chemical_formula_structural   Hf5Zr3(Pt2N)2
_chemical_formula_sum   'Hf10 Zr6 Pt8 N4'
_cell_volume   486.14314281
_cell_formula_units_Z   2
loop_
 _symmetry_equiv_pos_site_id
 _symmetry_equiv_pos_as_xyz
  1  'x, y, z'
loop_
 _atom_site_type_symbol
 _atom_site_label
 _atom_site_symmetry_multiplicity
 _atom_site_fract_x
 _atom_site_fract_y
 _atom_site_fract_z
 _atom_site_occupancy
  Hf  Hf0  1  0.124578  0.625141  0.625141  1
  Hf  Hf1  1  0.625141  0.124578  0.625141  1
  Hf  Hf2  1  0.625141  0.625141  0.124578  1
  Hf  Hf3  1  0.625141  0.625141  0.625141  1
  Hf  Hf4  1  0.818306  0.818306  0.181694  1
  Hf  Hf5  1  0.181694  0.181694  0.818306  1
  Hf  Hf6  1  0.818306  0.181694  0.818306  1
  Hf  Hf7  1  0.181694  0.818306  0.181694  1
  Hf  Hf8  1  0.181694  0.818306  0.818306  1
  Hf  Hf9  1  0.818306  0.181694  0.181694  1
  Zr  Zr10  1  0.433385  0.433385  0.066615  1
  Zr  Zr11  1  0.066615  0.066615  0.433385  1
  Zr  Zr12  1  0.433385  0.066615  0.433385  1
  Zr  Zr13  1  0.066615  0.433385  0.066615  1
  Zr  Zr14  1  0.066615  0.433385  0.433385  1
  Zr  Zr15  1  0.433385  0.066615  0.066615  1
  Pt  Pt16  1  0.776736  0.407755  0.407755  1
  Pt  Pt17  1  0.407755  0.776736  0.407755  1
  Pt  Pt18  1  0.407755  0.407755  0.776736  1
  Pt  Pt19  1  0.407755  0.407755  0.407755  1
  Pt  Pt20  1  0.467703  0.844099  0.844099  1
  Pt  Pt21  1  0.844099  0.467703  0.844099  1
  Pt  Pt22  1  0.844099  0.844099  0.467703  1
  Pt  Pt23  1  0.844099  0.844099  0.844099  1
  N  N24  1  0.632741  0.122420  0.122420  1
  N  N25  1  0.122420  0.632741  0.122420  1
  N  N26  1  0.122420  0.122420  0.632741  1
  N  N27  1  0.122420  0.122420  0.122420  1
