# generated using pymatgen
data_Nd5Sm5(Bi3C)2
_symmetry_space_group_name_H-M   'P 1'
_cell_length_a   9.40929517
_cell_length_b   9.40929438
_cell_length_c   6.66708700
_cell_angle_alpha   90.00000000
_cell_angle_beta   90.00000000
_cell_angle_gamma   119.97797279
_symmetry_Int_Tables_number   1
_chemical_formula_structural   Nd5Sm5(Bi3C)2
_chemical_formula_sum   'Nd5 Sm5 Bi6 C2'
_cell_volume   511.30172308
_cell_formula_units_Z   1
loop_
 _symmetry_equiv_pos_site_id
 _symmetry_equiv_pos_as_xyz
  1  'x, y, z'
loop_
 _atom_site_type_symbol
 _atom_site_label
 _atom_site_symmetry_multiplicity
 _atom_site_fract_x
 _atom_site_fract_y
 _atom_site_fract_z
 _atom_site_occupancy
  Nd  Nd0  1  0.666749  0.333347  0.999969  1
  Nd  Nd1  1  0.333347  0.666749  0.999969  1
  Nd  Nd2  1  0.333347  0.666749  0.500031  1
  Nd  Nd3  1  0.666749  0.333347  0.500031  1
  Nd  Nd4  1  0.785696  0.785696  0.750000  1
  Sm  Sm5  1  0.208939  0.000113  0.750000  1
  Sm  Sm6  1  0.000113  0.208939  0.750000  1
  Sm  Sm7  1  0.209095  0.209095  0.250000  1
  Sm  Sm8  1  0.791511  0.000601  0.250000  1
  Sm  Sm9  1  0.000601  0.791511  0.250000  1
  Bi  Bi10  1  0.398926  0.398926  0.750000  1
  Bi  Bi11  1  0.599510  0.001107  0.750000  1
  Bi  Bi12  1  0.001107  0.599510  0.750000  1
  Bi  Bi13  1  0.600193  0.600193  0.250000  1
  Bi  Bi14  1  0.400168  0.999941  0.250000  1
  Bi  Bi15  1  0.999941  0.400168  0.250000  1
  C  C16  1  0.002006  0.002006  0.001742  1
  C  C17  1  0.002006  0.002006  0.498258  1
