# generated using pymatgen
data_Ac5USe10
_symmetry_space_group_name_H-M   'P 1'
_cell_length_a   8.22791800
_cell_length_b   8.90853100
_cell_length_c   12.89721300
_cell_angle_alpha   90.00000000
_cell_angle_beta   90.00000000
_cell_angle_gamma   90.00000000
_symmetry_Int_Tables_number   1
_chemical_formula_structural   Ac5USe10
_chemical_formula_sum   'Ac10 U2 Se20'
_cell_volume   945.34846376
_cell_formula_units_Z   2
loop_
 _symmetry_equiv_pos_site_id
 _symmetry_equiv_pos_as_xyz
  1  'x, y, z'
loop_
 _atom_site_type_symbol
 _atom_site_label
 _atom_site_symmetry_multiplicity
 _atom_site_fract_x
 _atom_site_fract_y
 _atom_site_fract_z
 _atom_site_occupancy
  Ac  Ac0  1  0.531864  0.501234  0.324722  1
  Ac  Ac1  1  0.968136  0.998766  0.824722  1
  Ac  Ac2  1  0.475623  0.001374  0.675727  1
  Ac  Ac3  1  0.024377  0.498626  0.175727  1
  Ac  Ac4  1  0.475623  0.498626  0.675727  1
  Ac  Ac5  1  0.024377  0.001374  0.175727  1
  Ac  Ac6  1  0.531864  0.998766  0.324722  1
  Ac  Ac7  1  0.968136  0.501234  0.824722  1
  Ac  Ac8  1  0.073676  0.750000  0.489893  1
  Ac  Ac9  1  0.426324  0.750000  0.989893  1
  U  U10  1  0.952981  0.250000  0.503717  1
  U  U11  1  0.547019  0.250000  0.003717  1
  Se  Se12  1  0.838669  0.984168  0.592444  1
  Se  Se13  1  0.661331  0.515832  0.092444  1
  Se  Se14  1  0.168293  0.443096  0.406581  1
  Se  Se15  1  0.331707  0.056904  0.906581  1
  Se  Se16  1  0.168293  0.056904  0.406581  1
  Se  Se17  1  0.331707  0.443096  0.906581  1
  Se  Se18  1  0.838669  0.515832  0.592444  1
  Se  Se19  1  0.661331  0.984168  0.092444  1
  Se  Se20  1  0.824708  0.750000  0.303245  1
  Se  Se21  1  0.675292  0.750000  0.803245  1
  Se  Se22  1  0.162294  0.250000  0.680864  1
  Se  Se23  1  0.337706  0.250000  0.180864  1
  Se  Se24  1  0.465153  0.750000  0.499810  1
  Se  Se25  1  0.034847  0.750000  0.999810  1
  Se  Se26  1  0.553101  0.250000  0.502811  1
  Se  Se27  1  0.946899  0.250000  0.002811  1
  Se  Se28  1  0.199013  0.750000  0.723918  1
  Se  Se29  1  0.300987  0.750000  0.223918  1
  Se  Se30  1  0.816508  0.250000  0.296797  1
  Se  Se31  1  0.683492  0.250000  0.796797  1
