# generated using pymatgen
data_Tm4Mn8VFe11P12
_symmetry_space_group_name_H-M   'P 1'
_cell_length_a   3.62962900
_cell_length_b   10.28572240
_cell_length_c   12.11048941
_cell_angle_alpha   89.93176897
_cell_angle_beta   90.00000000
_cell_angle_gamma   90.00000000
_symmetry_Int_Tables_number   1
_chemical_formula_structural   Tm4Mn8VFe11P12
_chemical_formula_sum   'Tm4 Mn8 V1 Fe11 P12'
_cell_volume   452.12489556
_cell_formula_units_Z   1
loop_
 _symmetry_equiv_pos_site_id
 _symmetry_equiv_pos_as_xyz
  1  'x, y, z'
loop_
 _atom_site_type_symbol
 _atom_site_label
 _atom_site_symmetry_multiplicity
 _atom_site_fract_x
 _atom_site_fract_y
 _atom_site_fract_z
 _atom_site_occupancy
  Tm  Tm0  1  0.250000  0.580766  0.710796  1
  Tm  Tm1  1  0.250000  0.916243  0.211500  1
  Tm  Tm2  1  0.750000  0.424041  0.290470  1
  Tm  Tm3  1  0.750000  0.080517  0.788769  1
  Mn  Mn4  1  0.250000  0.704440  0.992341  1
  Mn  Mn5  1  0.250000  0.795214  0.491436  1
  Mn  Mn6  1  0.750000  0.207237  0.508502  1
  Mn  Mn7  1  0.250000  0.411610  0.492127  1
  Mn  Mn8  1  0.250000  0.087286  0.988894  1
  Mn  Mn9  1  0.750000  0.592628  0.509754  1
  Mn  Mn10  1  0.750000  0.901365  0.008359  1
  Mn  Mn11  1  0.250000  0.216608  0.177201  1
  V  V12  1  0.750000  0.296289  0.009260  1
  Fe  Fe13  1  0.250000  0.279625  0.671527  1
  Fe  Fe14  1  0.750000  0.778057  0.827208  1
  Fe  Fe15  1  0.750000  0.721914  0.328508  1
  Fe  Fe16  1  0.250000  0.877558  0.694875  1
  Fe  Fe17  1  0.250000  0.622418  0.196467  1
  Fe  Fe18  1  0.750000  0.126115  0.301361  1
  Fe  Fe19  1  0.750000  0.375619  0.803154  1
  Fe  Fe20  1  0.250000  0.465401  0.934838  1
  Fe  Fe21  1  0.250000  0.038433  0.434686  1
  Fe  Fe22  1  0.750000  0.538802  0.064116  1
  Fe  Fe23  1  0.750000  0.963221  0.564054  1
  P  P24  1  0.250000  0.425438  0.112885  1
  P  P25  1  0.250000  0.077158  0.612996  1
  P  P26  1  0.750000  0.574998  0.885252  1
  P  P27  1  0.750000  0.924125  0.386354  1
  P  P28  1  0.250000  0.268655  0.861221  1
  P  P29  1  0.250000  0.237143  0.368957  1
  P  P30  1  0.750000  0.731701  0.140206  1
  P  P31  1  0.750000  0.768014  0.638201  1
  P  P32  1  0.250000  0.603722  0.381295  1
  P  P33  1  0.250000  0.896070  0.879302  1
  P  P34  1  0.750000  0.399239  0.619322  1
  P  P35  1  0.750000  0.092333  0.113805  1
