# generated using pymatgen
data_RbLiWF6
_symmetry_space_group_name_H-M   'P 1'
_cell_length_a   6.06548773
_cell_length_b   5.49982118
_cell_length_c   5.44857184
_cell_angle_alpha   118.18276742
_cell_angle_beta   89.41567570
_cell_angle_gamma   89.86813533
_symmetry_Int_Tables_number   1
_chemical_formula_structural   RbLiWF6
_chemical_formula_sum   'Rb1 Li1 W1 F6'
_cell_volume   160.19749329
_cell_formula_units_Z   1
loop_
 _symmetry_equiv_pos_site_id
 _symmetry_equiv_pos_as_xyz
  1  'x, y, z'
loop_
 _atom_site_type_symbol
 _atom_site_label
 _atom_site_symmetry_multiplicity
 _atom_site_fract_x
 _atom_site_fract_y
 _atom_site_fract_z
 _atom_site_occupancy
  Rb  Rb0  1  0.997811  0.010769  0.995713  1
  Li  Li1  1  0.502232  0.326881  0.670673  1
  W  W2  1  0.499543  0.670273  0.331461  1
  F  F3  1  0.325019  0.373790  0.007624  1
  F  F4  1  0.692546  0.626084  0.013244  1
  F  F5  1  0.679391  0.381256  0.371212  1
  F  F6  1  0.309697  0.984716  0.369623  1
  F  F7  1  0.315568  0.632188  0.620937  1
  F  F8  1  0.678191  0.994040  0.619516  1
