# generated using pymatgen
data_Ho12Co3TcNiBi
_symmetry_space_group_name_H-M   'P 1'
_cell_length_a   8.28841117
_cell_length_b   8.28840556
_cell_length_c   8.28841275
_cell_angle_alpha   111.41788129
_cell_angle_beta   110.30165540
_cell_angle_gamma   106.73048579
_symmetry_Int_Tables_number   1
_chemical_formula_structural   Ho12Co3TcNiBi
_chemical_formula_sum   'Ho12 Co3 Tc1 Ni1 Bi1'
_cell_volume   437.52902005
_cell_formula_units_Z   1
loop_
 _symmetry_equiv_pos_site_id
 _symmetry_equiv_pos_as_xyz
  1  'x, y, z'
loop_
 _atom_site_type_symbol
 _atom_site_label
 _atom_site_symmetry_multiplicity
 _atom_site_fract_x
 _atom_site_fract_y
 _atom_site_fract_z
 _atom_site_occupancy
  Ho  Ho0  1  0.819171  0.715304  0.534475  1
  Ho  Ho1  1  0.182545  0.282994  0.465541  1
  Ho  Ho2  1  0.182547  0.717006  0.899550  1
  Ho  Ho3  1  0.819171  0.284696  0.103869  1
  Ho  Ho4  1  0.687451  0.380994  0.689486  1
  Ho  Ho5  1  0.308491  0.619006  0.306456  1
  Ho  Ho6  1  0.687450  0.997951  0.306446  1
  Ho  Ho7  1  0.308495  0.002049  0.689500  1
  Ho  Ho8  1  0.589106  0.784225  0.804889  1
  Ho  Ho9  1  0.410313  0.214641  0.195672  1
  Ho  Ho10  1  0.981031  0.785359  0.195671  1
  Ho  Ho11  1  0.020663  0.215775  0.804880  1
  Co  Co12  1  0.371567  0.000000  0.371567  1
  Co  Co13  1  0.111798  0.611437  0.500377  1
  Co  Co14  1  0.888941  0.388563  0.500362  1
  Tc  Tc15  1  0.999619  0.000000  0.999619  1
  Ni  Ni16  1  0.631167  0.000000  0.631167  1
  Bi  Bi17  1  0.500472  0.500000  0.000472  1
