# generated using pymatgen
data_Sc2Al9Ir2Pt
_symmetry_space_group_name_H-M   'P 1'
_cell_length_a   7.49638772
_cell_length_b   7.49638740
_cell_length_c   9.32166600
_cell_angle_alpha   90.00000000
_cell_angle_beta   90.00000000
_cell_angle_gamma   119.84405756
_symmetry_Int_Tables_number   1
_chemical_formula_structural   Sc2Al9Ir2Pt
_chemical_formula_sum   'Sc4 Al18 Ir4 Pt2'
_cell_volume   454.36883023
_cell_formula_units_Z   2
loop_
 _symmetry_equiv_pos_site_id
 _symmetry_equiv_pos_as_xyz
  1  'x, y, z'
loop_
 _atom_site_type_symbol
 _atom_site_label
 _atom_site_symmetry_multiplicity
 _atom_site_fract_x
 _atom_site_fract_y
 _atom_site_fract_z
 _atom_site_occupancy
  Sc  Sc0  1  0.996517  0.670639  0.250000  1
  Sc  Sc1  1  0.003483  0.329361  0.750000  1
  Sc  Sc2  1  0.670639  0.996517  0.250000  1
  Sc  Sc3  1  0.329361  0.003483  0.750000  1
  Al  Al4  1  0.128991  0.128991  0.250000  1
  Al  Al5  1  0.871009  0.871009  0.750000  1
  Al  Al6  1  0.997894  0.337759  0.078383  1
  Al  Al7  1  0.002106  0.662241  0.921617  1
  Al  Al8  1  0.002106  0.662241  0.578383  1
  Al  Al9  1  0.337759  0.997894  0.421617  1
  Al  Al10  1  0.997894  0.337759  0.421617  1
  Al  Al11  1  0.662241  0.002106  0.578383  1
  Al  Al12  1  0.662241  0.002106  0.921617  1
  Al  Al13  1  0.337759  0.997894  0.078383  1
  Al  Al14  1  0.334548  0.334548  0.561022  1
  Al  Al15  1  0.665452  0.665452  0.438978  1
  Al  Al16  1  0.665452  0.665452  0.061022  1
  Al  Al17  1  0.334548  0.334548  0.938978  1
  Al  Al18  1  0.338346  0.552121  0.250000  1
  Al  Al19  1  0.661654  0.447879  0.750000  1
  Al  Al20  1  0.552121  0.338346  0.250000  1
  Al  Al21  1  0.447879  0.661654  0.750000  1
  Ir  Ir22  1  0.672086  0.327914  0.000000  1
  Ir  Ir23  1  0.327914  0.672086  0.000000  1
  Ir  Ir24  1  0.327914  0.672086  0.500000  1
  Ir  Ir25  1  0.672086  0.327914  0.500000  1
  Pt  Pt26  1  0.000000  0.000000  0.000000  1
  Pt  Pt27  1  0.000000  0.000000  0.500000  1
