# generated using pymatgen
data_Pr5FeIrO12
_symmetry_space_group_name_H-M   'P 1'
_cell_length_a   7.10678995
_cell_length_b   7.10679018
_cell_length_c   7.66016809
_cell_angle_alpha   74.45628489
_cell_angle_beta   74.45628652
_cell_angle_gamma   51.02238997
_symmetry_Int_Tables_number   1
_chemical_formula_structural   Pr5FeIrO12
_chemical_formula_sum   'Pr5 Fe1 Ir1 O12'
_cell_volume   287.19955271
_cell_formula_units_Z   1
loop_
 _symmetry_equiv_pos_site_id
 _symmetry_equiv_pos_as_xyz
  1  'x, y, z'
loop_
 _atom_site_type_symbol
 _atom_site_label
 _atom_site_symmetry_multiplicity
 _atom_site_fract_x
 _atom_site_fract_y
 _atom_site_fract_z
 _atom_site_occupancy
  Pr  Pr0  1  0.310546  0.301755  0.357677  1
  Pr  Pr1  1  0.698245  0.689454  0.642323  1
  Pr  Pr2  1  0.691721  0.694863  0.165965  1
  Pr  Pr3  1  0.305137  0.308279  0.834035  1
  Pr  Pr4  1  0.004890  0.995110  0.500000  1
  Fe  Fe5  1  0.755167  0.244833  0.000000  1
  Ir  Ir6  1  0.241151  0.758849  0.000000  1
  O  O7  1  0.097571  0.593864  0.577158  1
  O  O8  1  0.007844  0.990536  0.175831  1
  O  O9  1  0.406136  0.902429  0.422842  1
  O  O10  1  0.486878  0.514313  0.174562  1
  O  O11  1  0.099026  0.582759  0.078772  1
  O  O12  1  0.906978  0.401663  0.421364  1
  O  O13  1  0.009464  0.992156  0.824169  1
  O  O14  1  0.598337  0.093021  0.578636  1
  O  O15  1  0.485687  0.513122  0.825438  1
  O  O16  1  0.582168  0.104185  0.076819  1
  O  O17  1  0.417241  0.900974  0.921228  1
  O  O18  1  0.895815  0.417832  0.923181  1
