# generated using pymatgen
data_Pr3Nd9Os3Rh
_symmetry_space_group_name_H-M   'P 1'
_cell_length_a   6.54215758
_cell_length_b   7.49663502
_cell_length_c   9.76658585
_cell_angle_alpha   90.05464990
_cell_angle_beta   90.12445414
_cell_angle_gamma   90.09107335
_symmetry_Int_Tables_number   1
_chemical_formula_structural   Pr3Nd9Os3Rh
_chemical_formula_sum   'Pr3 Nd9 Os3 Rh1'
_cell_volume   478.99211947
_cell_formula_units_Z   1
loop_
 _symmetry_equiv_pos_site_id
 _symmetry_equiv_pos_as_xyz
  1  'x, y, z'
loop_
 _atom_site_type_symbol
 _atom_site_label
 _atom_site_symmetry_multiplicity
 _atom_site_fract_x
 _atom_site_fract_y
 _atom_site_fract_z
 _atom_site_occupancy
  Pr  Pr0  1  0.332744  0.674938  0.064439  1
  Pr  Pr1  1  0.858487  0.537094  0.250381  1
  Pr  Pr2  1  0.640138  0.042051  0.250168  1
  Nd  Nd3  1  0.170074  0.178532  0.434917  1
  Nd  Nd4  1  0.670914  0.322576  0.567720  1
  Nd  Nd5  1  0.827083  0.823736  0.929670  1
  Nd  Nd6  1  0.671355  0.322147  0.931946  1
  Nd  Nd7  1  0.827156  0.823774  0.569985  1
  Nd  Nd8  1  0.333271  0.673869  0.435408  1
  Nd  Nd9  1  0.169967  0.178541  0.064899  1
  Nd  Nd10  1  0.141490  0.462518  0.749786  1
  Nd  Nd11  1  0.355794  0.960971  0.749715  1
  Os  Os12  1  0.442423  0.383303  0.251243  1
  Os  Os13  1  0.948995  0.115230  0.749966  1
  Os  Os14  1  0.553050  0.615812  0.748816  1
  Rh  Rh15  1  0.057061  0.884909  0.250939  1
