# generated using pymatgen
data_CaErCd2(Ru2O7)2
_symmetry_space_group_name_H-M   'P 1'
_cell_length_a   7.18596671
_cell_length_b   7.23239885
_cell_length_c   7.27022885
_cell_angle_alpha   60.76662594
_cell_angle_beta   60.38266543
_cell_angle_gamma   60.21215710
_symmetry_Int_Tables_number   1
_chemical_formula_structural   CaErCd2(Ru2O7)2
_chemical_formula_sum   'Ca1 Er1 Cd2 Ru4 O14'
_cell_volume   269.90591973
_cell_formula_units_Z   1
loop_
 _symmetry_equiv_pos_site_id
 _symmetry_equiv_pos_as_xyz
  1  'x, y, z'
loop_
 _atom_site_type_symbol
 _atom_site_label
 _atom_site_symmetry_multiplicity
 _atom_site_fract_x
 _atom_site_fract_y
 _atom_site_fract_z
 _atom_site_occupancy
  Ca  Ca0  1  0.625000  0.125000  0.625000  1
  Er  Er1  1  0.625000  0.625000  0.125000  1
  Cd  Cd2  1  0.125000  0.625000  0.625000  1
  Cd  Cd3  1  0.625000  0.625000  0.625000  1
  Ru  Ru4  1  0.625000  0.125000  0.125000  1
  Ru  Ru5  1  0.125000  0.625000  0.125000  1
  Ru  Ru6  1  0.125000  0.125000  0.625000  1
  Ru  Ru7  1  0.125000  0.125000  0.125000  1
  O  O8  1  0.192467  0.197421  0.806993  1
  O  O9  1  0.204347  0.801728  0.193542  1
  O  O10  1  0.460066  0.034552  0.045315  1
  O  O11  1  0.190391  0.809031  0.810187  1
  O  O12  1  0.059609  0.440969  0.439813  1
  O  O13  1  0.800383  0.801728  0.193542  1
  O  O14  1  0.449617  0.448272  0.056458  1
  O  O15  1  0.495312  0.514559  0.494818  1
  O  O16  1  0.057533  0.052579  0.443007  1
  O  O17  1  0.446881  0.052579  0.443007  1
  O  O18  1  0.045653  0.448272  0.056458  1
  O  O19  1  0.754688  0.735441  0.755182  1
  O  O20  1  0.803119  0.197421  0.806993  1
  O  O21  1  0.789934  0.215448  0.204685  1
