# generated using pymatgen
data_Rb2ZnSn3O8
_symmetry_space_group_name_H-M   'P 1'
_cell_length_a   7.83135730
_cell_length_b   7.83135720
_cell_length_c   7.83135623
_cell_angle_alpha   48.32150808
_cell_angle_beta   48.32150468
_cell_angle_gamma   48.32150977
_symmetry_Int_Tables_number   1
_chemical_formula_structural   Rb2ZnSn3O8
_chemical_formula_sum   'Rb2 Zn1 Sn3 O8'
_cell_volume   245.63444814
_cell_formula_units_Z   1
loop_
 _symmetry_equiv_pos_site_id
 _symmetry_equiv_pos_as_xyz
  1  'x, y, z'
loop_
 _atom_site_type_symbol
 _atom_site_label
 _atom_site_symmetry_multiplicity
 _atom_site_fract_x
 _atom_site_fract_y
 _atom_site_fract_z
 _atom_site_occupancy
  Rb  Rb0  1  0.617003  0.617003  0.617003  1
  Rb  Rb1  1  0.262363  0.262363  0.262363  1
  Zn  Zn2  1  0.097461  0.097461  0.097461  1
  Sn  Sn3  1  0.616813  0.116977  0.616813  1
  Sn  Sn4  1  0.116977  0.616813  0.616813  1
  Sn  Sn5  1  0.616813  0.616813  0.116977  1
  O  O6  1  0.836604  0.836604  0.836604  1
  O  O7  1  0.888625  0.412861  0.888625  1
  O  O8  1  0.412861  0.888625  0.888625  1
  O  O9  1  0.888625  0.888625  0.412861  1
  O  O10  1  0.395831  0.395831  0.395831  1
  O  O11  1  0.339558  0.820909  0.339558  1
  O  O12  1  0.820909  0.339558  0.339558  1
  O  O13  1  0.339558  0.339558  0.820909  1
