# generated using pymatgen
data_Cs2KYBi2
_symmetry_space_group_name_H-M   'P 1'
_cell_length_a   10.65371126
_cell_length_b   10.65371209
_cell_length_c   10.65371226
_cell_angle_alpha   132.56670355
_cell_angle_beta   66.18654583
_cell_angle_gamma   136.66152670
_symmetry_Int_Tables_number   1
_chemical_formula_structural   Cs2KYBi2
_chemical_formula_sum   'Cs4 K2 Y2 Bi4'
_cell_volume   601.82362386
_cell_formula_units_Z   2
loop_
 _symmetry_equiv_pos_site_id
 _symmetry_equiv_pos_as_xyz
  1  'x, y, z'
loop_
 _atom_site_type_symbol
 _atom_site_label
 _atom_site_symmetry_multiplicity
 _atom_site_fract_x
 _atom_site_fract_y
 _atom_site_fract_z
 _atom_site_occupancy
  Cs  Cs0  1  0.317236  0.761509  0.078743  1
  Cs  Cs1  1  0.182764  0.261508  0.444273  1
  Cs  Cs2  1  0.817236  0.738492  0.555728  1
  Cs  Cs3  1  0.682764  0.238491  0.921256  1
  K  K4  1  0.250000  0.250000  0.000000  1
  K  K5  1  0.750000  0.750000  0.000000  1
  Y  Y6  1  0.750000  0.250000  0.500000  1
  Y  Y7  1  0.250000  0.749999  0.499999  1
  Bi  Bi8  1  0.903849  0.296054  0.199901  1
  Bi  Bi9  1  0.596151  0.796054  0.392206  1
  Bi  Bi10  1  0.403849  0.203946  0.607794  1
  Bi  Bi11  1  0.096151  0.703946  0.800098  1
