# generated using pymatgen
data_Dy2Ho6Os3RuC8
_symmetry_space_group_name_H-M   'P 1'
_cell_length_a   5.10470300
_cell_length_b   6.43212111
_cell_length_c   9.76003444
_cell_angle_alpha   89.88632913
_cell_angle_beta   90.00000000
_cell_angle_gamma   90.00000000
_symmetry_Int_Tables_number   1
_chemical_formula_structural   Dy2Ho6Os3RuC8
_chemical_formula_sum   'Dy2 Ho6 Os3 Ru1 C8'
_cell_volume   320.46100305
_cell_formula_units_Z   1
loop_
 _symmetry_equiv_pos_site_id
 _symmetry_equiv_pos_as_xyz
  1  'x, y, z'
loop_
 _atom_site_type_symbol
 _atom_site_label
 _atom_site_symmetry_multiplicity
 _atom_site_fract_x
 _atom_site_fract_y
 _atom_site_fract_z
 _atom_site_occupancy
  Dy  Dy0  1  0.750000  0.474452  0.782053  1
  Dy  Dy1  1  0.750000  0.974691  0.718552  1
  Ho  Ho2  1  0.250000  0.683427  0.553031  1
  Ho  Ho3  1  0.750000  0.316842  0.447071  1
  Ho  Ho4  1  0.750000  0.817904  0.053980  1
  Ho  Ho5  1  0.250000  0.179874  0.947407  1
  Ho  Ho6  1  0.250000  0.526260  0.218556  1
  Ho  Ho7  1  0.250000  0.025758  0.280113  1
  Os  Os8  1  0.750000  0.276082  0.134348  1
  Os  Os9  1  0.750000  0.775141  0.365737  1
  Os  Os10  1  0.250000  0.224233  0.634428  1
  Ru  Ru11  1  0.250000  0.723549  0.866140  1
  C  C12  1  0.250000  0.459314  0.756098  1
  C  C13  1  0.750000  0.539434  0.242225  1
  C  C14  1  0.750000  0.040160  0.258433  1
  C  C15  1  0.250000  0.960923  0.741060  1
  C  C16  1  0.250000  0.827549  0.054500  1
  C  C17  1  0.750000  0.174255  0.946917  1
  C  C18  1  0.750000  0.674525  0.553562  1
  C  C19  1  0.250000  0.325627  0.445789  1
