# generated using pymatgen
data_Eu2Sn5Pd3
_symmetry_space_group_name_H-M   'P 1'
_cell_length_a   4.51492100
_cell_length_b   7.55962100
_cell_length_c   13.93443883
_cell_angle_alpha   90.00000000
_cell_angle_beta   80.67665627
_cell_angle_gamma   90.00000000
_symmetry_Int_Tables_number   1
_chemical_formula_structural   Eu2Sn5Pd3
_chemical_formula_sum   'Eu4 Sn10 Pd6'
_cell_volume   469.31486570
_cell_formula_units_Z   2
loop_
 _symmetry_equiv_pos_site_id
 _symmetry_equiv_pos_as_xyz
  1  'x, y, z'
loop_
 _atom_site_type_symbol
 _atom_site_label
 _atom_site_symmetry_multiplicity
 _atom_site_fract_x
 _atom_site_fract_y
 _atom_site_fract_z
 _atom_site_occupancy
  Eu  Eu0  1  0.475660  0.233799  0.048677  1
  Eu  Eu1  1  0.824152  0.752541  0.351698  1
  Eu  Eu2  1  0.175847  0.252541  0.648303  1
  Eu  Eu3  1  0.524339  0.733799  0.951323  1
  Sn  Sn4  1  0.951505  0.895416  0.096989  1
  Sn  Sn5  1  0.403474  0.619566  0.193048  1
  Sn  Sn6  1  0.881348  0.227257  0.237303  1
  Sn  Sn7  1  0.295443  0.052546  0.409110  1
  Sn  Sn8  1  0.289976  0.474087  0.420045  1
  Sn  Sn9  1  0.710023  0.974087  0.579955  1
  Sn  Sn10  1  0.704556  0.552546  0.590890  1
  Sn  Sn11  1  0.118651  0.727257  0.762697  1
  Sn  Sn12  1  0.596525  0.119566  0.806952  1
  Sn  Sn13  1  0.048494  0.395417  0.903011  1
  Pd  Pd14  1  0.948804  0.519258  0.102392  1
  Pd  Pd15  1  0.392497  0.980451  0.215004  1
  Pd  Pd16  1  0.779870  0.265790  0.440261  1
  Pd  Pd17  1  0.220129  0.765790  0.559739  1
  Pd  Pd18  1  0.607503  0.480450  0.784995  1
  Pd  Pd19  1  0.051195  0.019258  0.897609  1
