# generated using pymatgen
data_YbTh3(InRh)4
_symmetry_space_group_name_H-M   'P 1'
_cell_length_a   4.41748200
_cell_length_b   7.19813143
_cell_length_c   8.53115267
_cell_angle_alpha   90.04253964
_cell_angle_beta   90.00000000
_cell_angle_gamma   90.00000000
_symmetry_Int_Tables_number   1
_chemical_formula_structural   YbTh3(InRh)4
_chemical_formula_sum   'Yb1 Th3 In4 Rh4'
_cell_volume   271.27024215
_cell_formula_units_Z   1
loop_
 _symmetry_equiv_pos_site_id
 _symmetry_equiv_pos_as_xyz
  1  'x, y, z'
loop_
 _atom_site_type_symbol
 _atom_site_label
 _atom_site_symmetry_multiplicity
 _atom_site_fract_x
 _atom_site_fract_y
 _atom_site_fract_z
 _atom_site_occupancy
  Yb  Yb0  1  0.750000  0.458464  0.678370  1
  Th  Th1  1  0.250000  0.040557  0.176089  1
  Th  Th2  1  0.750000  0.950840  0.823479  1
  Th  Th3  1  0.250000  0.541391  0.331483  1
  In  In4  1  0.750000  0.369758  0.053600  1
  In  In5  1  0.250000  0.624269  0.933280  1
  In  In6  1  0.750000  0.869244  0.443178  1
  In  In7  1  0.250000  0.147714  0.563854  1
  Rh  Rh8  1  0.250000  0.748475  0.619627  1
  Rh  Rh9  1  0.750000  0.262968  0.364515  1
  Rh  Rh10  1  0.250000  0.222214  0.886801  1
  Rh  Rh11  1  0.750000  0.764104  0.125723  1
