# generated using pymatgen
data_Nd3Sn2HgPdPt2
_symmetry_space_group_name_H-M   'P 1'
_cell_length_a   7.77752360
_cell_length_b   7.85185086
_cell_length_c   3.99087000
_cell_angle_alpha   90.00000000
_cell_angle_beta   90.00000000
_cell_angle_gamma   120.31663236
_symmetry_Int_Tables_number   1
_chemical_formula_structural   Nd3Sn2HgPdPt2
_chemical_formula_sum   'Nd3 Sn2 Hg1 Pd1 Pt2'
_cell_volume   210.38611412
_cell_formula_units_Z   1
loop_
 _symmetry_equiv_pos_site_id
 _symmetry_equiv_pos_as_xyz
  1  'x, y, z'
loop_
 _atom_site_type_symbol
 _atom_site_label
 _atom_site_symmetry_multiplicity
 _atom_site_fract_x
 _atom_site_fract_y
 _atom_site_fract_z
 _atom_site_occupancy
  Nd  Nd0  1  0.599330  0.592035  0.000000  1
  Nd  Nd1  1  0.400670  0.992706  0.000000  1
  Nd  Nd2  1  0.000000  0.417935  0.000000  1
  Sn  Sn3  1  0.254055  0.256010  0.500000  1
  Sn  Sn4  1  0.745945  0.001955  0.500000  1
  Hg  Hg5  1  0.000000  0.739478  0.500000  1
  Pd  Pd6  1  0.000000  0.015751  0.000000  1
  Pt  Pt7  1  0.343545  0.663838  0.500000  1
  Pt  Pt8  1  0.656455  0.320293  0.500000  1
