# generated using pymatgen
data_La3PuO8
_symmetry_space_group_name_H-M   'P 1'
_cell_length_a   6.50406700
_cell_length_b   7.68359199
_cell_length_c   7.68810992
_cell_angle_alpha   70.73699478
_cell_angle_beta   90.00000000
_cell_angle_gamma   90.00000000
_symmetry_Int_Tables_number   1
_chemical_formula_structural   La3PuO8
_chemical_formula_sum   'La6 Pu2 O16'
_cell_volume   362.69986578
_cell_formula_units_Z   2
loop_
 _symmetry_equiv_pos_site_id
 _symmetry_equiv_pos_as_xyz
  1  'x, y, z'
loop_
 _atom_site_type_symbol
 _atom_site_label
 _atom_site_symmetry_multiplicity
 _atom_site_fract_x
 _atom_site_fract_y
 _atom_site_fract_z
 _atom_site_occupancy
  La  La0  1  0.750000  0.108595  0.671495  1
  La  La1  1  0.250000  0.891405  0.328505  1
  La  La2  1  0.250000  0.400654  0.398050  1
  La  La3  1  0.750000  0.599346  0.601950  1
  La  La4  1  0.250000  0.324323  0.890296  1
  La  La5  1  0.750000  0.675677  0.109704  1
  Pu  Pu6  1  0.250000  0.814406  0.817903  1
  Pu  Pu7  1  0.750000  0.185594  0.182097  1
  O  O8  1  0.999380  0.337412  0.661615  1
  O  O9  1  0.499380  0.662588  0.338385  1
  O  O10  1  0.000620  0.662588  0.338385  1
  O  O11  1  0.500620  0.337412  0.661615  1
  O  O12  1  0.942814  0.807592  0.808859  1
  O  O13  1  0.442814  0.192408  0.191141  1
  O  O14  1  0.057186  0.192408  0.191141  1
  O  O15  1  0.557186  0.807592  0.808859  1
  O  O16  1  0.750000  0.966030  0.419451  1
  O  O17  1  0.250000  0.033970  0.580549  1
  O  O18  1  0.750000  0.343350  0.340839  1
  O  O19  1  0.250000  0.656650  0.659161  1
  O  O20  1  0.750000  0.424383  0.964380  1
  O  O21  1  0.250000  0.575617  0.035620  1
  O  O22  1  0.750000  0.027742  0.021442  1
  O  O23  1  0.250000  0.972258  0.978558  1
