# generated using pymatgen
data_Tb4Co19P12Os
_symmetry_space_group_name_H-M   'P 1'
_cell_length_a   3.67325300
_cell_length_b   10.31870927
_cell_length_c   11.75163570
_cell_angle_alpha   90.11791316
_cell_angle_beta   90.00000000
_cell_angle_gamma   90.00000000
_symmetry_Int_Tables_number   1
_chemical_formula_structural   Tb4Co19P12Os
_chemical_formula_sum   'Tb4 Co19 P12 Os1'
_cell_volume   445.42400494
_cell_formula_units_Z   1
loop_
 _symmetry_equiv_pos_site_id
 _symmetry_equiv_pos_as_xyz
  1  'x, y, z'
loop_
 _atom_site_type_symbol
 _atom_site_label
 _atom_site_symmetry_multiplicity
 _atom_site_fract_x
 _atom_site_fract_y
 _atom_site_fract_z
 _atom_site_occupancy
  Tb  Tb0  1  0.250000  0.583502  0.702621  1
  Tb  Tb1  1  0.250000  0.918622  0.201803  1
  Tb  Tb2  1  0.750000  0.416832  0.297394  1
  Tb  Tb3  1  0.750000  0.085707  0.795387  1
  Co  Co4  1  0.250000  0.783104  0.492687  1
  Co  Co5  1  0.750000  0.284959  0.009579  1
  Co  Co6  1  0.750000  0.216045  0.507821  1
  Co  Co7  1  0.250000  0.406333  0.488562  1
  Co  Co8  1  0.250000  0.093669  0.988004  1
  Co  Co9  1  0.750000  0.593045  0.511304  1
  Co  Co10  1  0.750000  0.907660  0.009955  1
  Co  Co11  1  0.250000  0.220870  0.177119  1
  Co  Co12  1  0.250000  0.278159  0.675637  1
  Co  Co13  1  0.750000  0.778002  0.823553  1
  Co  Co14  1  0.750000  0.723181  0.323289  1
  Co  Co15  1  0.250000  0.883036  0.699147  1
  Co  Co16  1  0.250000  0.614092  0.201682  1
  Co  Co17  1  0.750000  0.116529  0.301610  1
  Co  Co18  1  0.750000  0.382695  0.800710  1
  Co  Co19  1  0.250000  0.464330  0.932991  1
  Co  Co20  1  0.250000  0.032206  0.432279  1
  Co  Co21  1  0.750000  0.533755  0.068137  1
  Co  Co22  1  0.750000  0.967766  0.568627  1
  P  P23  1  0.250000  0.417114  0.112829  1
  P  P24  1  0.250000  0.081039  0.611634  1
  P  P25  1  0.750000  0.578317  0.886332  1
  P  P26  1  0.750000  0.919791  0.388450  1
  P  P27  1  0.250000  0.270344  0.868611  1
  P  P28  1  0.250000  0.228396  0.369918  1
  P  P29  1  0.750000  0.729308  0.133318  1
  P  P30  1  0.750000  0.771421  0.629552  1
  P  P31  1  0.250000  0.601453  0.393482  1
  P  P32  1  0.250000  0.904543  0.889019  1
  P  P33  1  0.750000  0.397311  0.607771  1
  P  P34  1  0.750000  0.103410  0.108531  1
  Os  Os35  1  0.250000  0.713453  0.990655  1
