# generated using pymatgen
data_Dy9Er(BiPb)3
_symmetry_space_group_name_H-M   'P 1'
_cell_length_a   9.13971300
_cell_length_b   9.13971493
_cell_length_c   6.46571400
_cell_angle_alpha   90.00000000
_cell_angle_beta   90.00000000
_cell_angle_gamma   120.00000388
_symmetry_Int_Tables_number   1
_chemical_formula_structural   Dy9Er(BiPb)3
_chemical_formula_sum   'Dy9 Er1 Bi3 Pb3'
_cell_volume   467.74840325
_cell_formula_units_Z   1
loop_
 _symmetry_equiv_pos_site_id
 _symmetry_equiv_pos_as_xyz
  1  'x, y, z'
loop_
 _atom_site_type_symbol
 _atom_site_label
 _atom_site_symmetry_multiplicity
 _atom_site_fract_x
 _atom_site_fract_y
 _atom_site_fract_z
 _atom_site_occupancy
  Dy  Dy0  1  0.666667  0.333333  0.002797  1
  Dy  Dy1  1  0.333333  0.666667  0.002779  1
  Dy  Dy2  1  0.333333  0.666667  0.497253  1
  Dy  Dy3  1  0.761778  0.761782  0.749959  1
  Dy  Dy4  1  0.238218  0.999996  0.749959  1
  Dy  Dy5  1  0.000004  0.238222  0.749959  1
  Dy  Dy6  1  0.238527  0.238514  0.250037  1
  Dy  Dy7  1  0.761486  0.000014  0.250037  1
  Dy  Dy8  1  0.999986  0.761473  0.250037  1
  Er  Er9  1  0.666667  0.333333  0.497131  1
  Bi  Bi10  1  0.393075  0.392942  0.749890  1
  Bi  Bi11  1  0.607058  0.000132  0.749890  1
  Bi  Bi12  1  0.999868  0.606925  0.749890  1
  Pb  Pb13  1  0.607435  0.607286  0.250126  1
  Pb  Pb14  1  0.392714  0.000149  0.250126  1
  Pb  Pb15  1  0.999851  0.392565  0.250126  1
