# generated using pymatgen
data_HoBPdPt6
_symmetry_space_group_name_H-M   'P 1'
_cell_length_a   5.85167097
_cell_length_b   5.85167129
_cell_length_c   5.85167200
_cell_angle_alpha   60.00000732
_cell_angle_beta   60.00000551
_cell_angle_gamma   60.00000548
_symmetry_Int_Tables_number   1
_chemical_formula_structural   HoBPdPt6
_chemical_formula_sum   'Ho1 B1 Pd1 Pt6'
_cell_volume   141.68532101
_cell_formula_units_Z   1
loop_
 _symmetry_equiv_pos_site_id
 _symmetry_equiv_pos_as_xyz
  1  'x, y, z'
loop_
 _atom_site_type_symbol
 _atom_site_label
 _atom_site_symmetry_multiplicity
 _atom_site_fract_x
 _atom_site_fract_y
 _atom_site_fract_z
 _atom_site_occupancy
  Ho  Ho0  1  0.750000  0.750000  0.750000  1
  B  B1  1  0.000000  0.000000  0.000000  1
  Pd  Pd2  1  0.250000  0.250000  0.250000  1
  Pt  Pt3  1  0.742942  0.257059  0.257059  1
  Pt  Pt4  1  0.257059  0.742942  0.257059  1
  Pt  Pt5  1  0.742941  0.742941  0.257060  1
  Pt  Pt6  1  0.742941  0.257060  0.742941  1
  Pt  Pt7  1  0.257059  0.257059  0.742942  1
  Pt  Pt8  1  0.257060  0.742941  0.742941  1
