# generated using pymatgen
data_SbPbF5
_symmetry_space_group_name_H-M   'P 1'
_cell_length_a   4.68947100
_cell_length_b   9.10168300
_cell_length_c   11.25501800
_cell_angle_alpha   90.00000000
_cell_angle_beta   90.00000000
_cell_angle_gamma   90.00000000
_symmetry_Int_Tables_number   1
_chemical_formula_structural   SbPbF5
_chemical_formula_sum   'Sb4 Pb4 F20'
_cell_volume   480.38756157
_cell_formula_units_Z   4
loop_
 _symmetry_equiv_pos_site_id
 _symmetry_equiv_pos_as_xyz
  1  'x, y, z'
loop_
 _atom_site_type_symbol
 _atom_site_label
 _atom_site_symmetry_multiplicity
 _atom_site_fract_x
 _atom_site_fract_y
 _atom_site_fract_z
 _atom_site_occupancy
  Sb  Sb0  1  0.407661  0.049469  0.250000  1
  Sb  Sb1  1  0.407661  0.450531  0.750000  1
  Sb  Sb2  1  0.592339  0.549469  0.250000  1
  Sb  Sb3  1  0.592339  0.950531  0.750000  1
  Pb  Pb4  1  0.987011  0.250000  0.000000  1
  Pb  Pb5  1  0.012989  0.750000  0.500000  1
  Pb  Pb6  1  0.012989  0.750000  0.000000  1
  Pb  Pb7  1  0.987011  0.250000  0.500000  1
  F  F8  1  0.120592  0.982830  0.387457  1
  F  F9  1  0.120592  0.517170  0.612543  1
  F  F10  1  0.879408  0.482830  0.112543  1
  F  F11  1  0.879408  0.017170  0.887457  1
  F  F12  1  0.879408  0.017170  0.612543  1
  F  F13  1  0.879408  0.482830  0.387457  1
  F  F14  1  0.120592  0.517170  0.887457  1
  F  F15  1  0.120592  0.982830  0.112543  1
  F  F16  1  0.119273  0.210299  0.250000  1
  F  F17  1  0.119273  0.289701  0.750000  1
  F  F18  1  0.880727  0.710299  0.250000  1
  F  F19  1  0.880727  0.789701  0.750000  1
  F  F20  1  0.436468  0.692586  0.113905  1
  F  F21  1  0.436468  0.807414  0.886095  1
  F  F22  1  0.563532  0.192586  0.386095  1
  F  F23  1  0.563532  0.307414  0.613905  1
  F  F24  1  0.563532  0.307414  0.886095  1
  F  F25  1  0.563532  0.192586  0.113905  1
  F  F26  1  0.436468  0.807414  0.613905  1
  F  F27  1  0.436468  0.692586  0.386095  1
