# generated using pymatgen
data_Pr3Nd9(GaIr)8
_symmetry_space_group_name_H-M   'P 1'
_cell_length_a   5.77837721
_cell_length_b   8.17658429
_cell_length_c   13.65245900
_cell_angle_alpha   90.00000000
_cell_angle_beta   90.00000000
_cell_angle_gamma   89.96941448
_symmetry_Int_Tables_number   1
_chemical_formula_structural   Pr3Nd9(GaIr)8
_chemical_formula_sum   'Pr3 Nd9 Ga8 Ir8'
_cell_volume   645.04293958
_cell_formula_units_Z   1
loop_
 _symmetry_equiv_pos_site_id
 _symmetry_equiv_pos_as_xyz
  1  'x, y, z'
loop_
 _atom_site_type_symbol
 _atom_site_label
 _atom_site_symmetry_multiplicity
 _atom_site_fract_x
 _atom_site_fract_y
 _atom_site_fract_z
 _atom_site_occupancy
  Pr  Pr0  1  0.627662  0.748269  0.250000  1
  Pr  Pr1  1  0.372385  0.248282  0.250000  1
  Pr  Pr2  1  0.627612  0.751751  0.750000  1
  Nd  Nd3  1  0.144792  0.894894  0.598873  1
  Nd  Nd4  1  0.855270  0.105236  0.098827  1
  Nd  Nd5  1  0.144716  0.605176  0.401179  1
  Nd  Nd6  1  0.855262  0.394663  0.901095  1
  Nd  Nd7  1  0.855270  0.105236  0.401173  1
  Nd  Nd8  1  0.144792  0.894894  0.901127  1
  Nd  Nd9  1  0.855262  0.394663  0.598905  1
  Nd  Nd10  1  0.144716  0.605176  0.098821  1
  Nd  Nd11  1  0.372660  0.251960  0.750000  1
  Ga  Ga12  1  0.866386  0.102581  0.750000  1
  Ga  Ga13  1  0.133552  0.897709  0.250000  1
  Ga  Ga14  1  0.866441  0.397766  0.250000  1
  Ga  Ga15  1  0.133732  0.601986  0.750000  1
  Ga  Ga16  1  0.379106  0.250001  0.500103  1
  Ga  Ga17  1  0.620859  0.750003  0.999989  1
  Ga  Ga18  1  0.620859  0.750003  0.500011  1
  Ga  Ga19  1  0.379106  0.250001  0.999897  1
  Ir  Ir20  1  0.644916  0.030960  0.591738  1
  Ir  Ir21  1  0.354828  0.969198  0.091609  1
  Ir  Ir22  1  0.645141  0.469166  0.408378  1
  Ir  Ir23  1  0.354894  0.530551  0.908249  1
  Ir  Ir24  1  0.354828  0.969198  0.408391  1
  Ir  Ir25  1  0.644916  0.030960  0.908262  1
  Ir  Ir26  1  0.354894  0.530551  0.591751  1
  Ir  Ir27  1  0.645141  0.469166  0.091622  1
