# generated using pymatgen
data_Ni3Hg2Pt(BrO4)2
_symmetry_space_group_name_H-M   'P 1'
_cell_length_a   5.59070228
_cell_length_b   6.40921771
_cell_length_c   7.14275119
_cell_angle_alpha   63.32622577
_cell_angle_beta   104.94738042
_cell_angle_gamma   89.79816726
_symmetry_Int_Tables_number   1
_chemical_formula_structural   Ni3Hg2Pt(BrO4)2
_chemical_formula_sum   'Ni3 Hg2 Pt1 Br2 O8'
_cell_volume   218.84270245
_cell_formula_units_Z   1
loop_
 _symmetry_equiv_pos_site_id
 _symmetry_equiv_pos_as_xyz
  1  'x, y, z'
loop_
 _atom_site_type_symbol
 _atom_site_label
 _atom_site_symmetry_multiplicity
 _atom_site_fract_x
 _atom_site_fract_y
 _atom_site_fract_z
 _atom_site_occupancy
  Ni  Ni0  1  0.998900  0.003125  0.496145  1
  Ni  Ni1  1  0.499741  0.250686  0.501231  1
  Ni  Ni2  1  0.003733  0.495629  0.501756  1
  Hg  Hg3  1  0.996474  0.490154  0.003466  1
  Hg  Hg4  1  0.500861  0.759122  0.001141  1
  Pt  Pt5  1  0.497865  0.751149  0.500323  1
  Br  Br6  1  0.000629  0.994457  0.983327  1
  Br  Br7  1  0.499806  0.260344  0.003253  1
  O  O8  1  0.123333  0.825868  0.343100  1
  O  O9  1  0.608926  0.075825  0.341924  1
  O  O10  1  0.114285  0.330209  0.338899  1
  O  O11  1  0.609930  0.588207  0.341107  1
  O  O12  1  0.879526  0.667706  0.661399  1
  O  O13  1  0.388638  0.913717  0.661347  1
  O  O14  1  0.885359  0.165921  0.659293  1
  O  O15  1  0.391993  0.427881  0.662289  1
