# generated using pymatgen
data_NdDy3Er2(SbO7)2
_symmetry_space_group_name_H-M   'P 1'
_cell_length_a   6.48060503
_cell_length_b   6.47878438
_cell_length_c   7.55287152
_cell_angle_alpha   90.05937357
_cell_angle_beta   89.92221621
_cell_angle_gamma   109.17003392
_symmetry_Int_Tables_number   1
_chemical_formula_structural   NdDy3Er2(SbO7)2
_chemical_formula_sum   'Nd1 Dy3 Er2 Sb2 O14'
_cell_volume   299.53311010
_cell_formula_units_Z   1
loop_
 _symmetry_equiv_pos_site_id
 _symmetry_equiv_pos_as_xyz
  1  'x, y, z'
loop_
 _atom_site_type_symbol
 _atom_site_label
 _atom_site_symmetry_multiplicity
 _atom_site_fract_x
 _atom_site_fract_y
 _atom_site_fract_z
 _atom_site_occupancy
  Nd  Nd0  1  0.499722  0.499369  0.000995  1
  Dy  Dy1  1  0.517558  0.516722  0.499448  1
  Dy  Dy2  1  0.000822  0.467268  0.745489  1
  Dy  Dy3  1  0.530096  0.001844  0.749517  1
  Er  Er4  1  0.002077  0.530098  0.250564  1
  Er  Er5  1  0.467142  0.000143  0.254594  1
  Sb  Sb6  1  0.999660  0.999688  0.498845  1
  Sb  Sb7  1  0.999563  0.999578  0.001131  1
  O  O8  1  0.929526  0.068536  0.750261  1
  O  O9  1  0.639985  0.361578  0.741901  1
  O  O10  1  0.318155  0.064775  0.530014  1
  O  O11  1  0.931339  0.678111  0.969637  1
  O  O12  1  0.635492  0.365897  0.258259  1
  O  O13  1  0.922793  0.675850  0.526843  1
  O  O14  1  0.322537  0.070657  0.972993  1
  O  O15  1  0.069549  0.322317  0.030192  1
  O  O16  1  0.675966  0.923424  0.469947  1
  O  O17  1  0.367661  0.634012  0.741462  1
  O  O18  1  0.678328  0.932318  0.033555  1
  O  O19  1  0.062864  0.317785  0.466667  1
  O  O20  1  0.358823  0.642260  0.257925  1
  O  O21  1  0.070342  0.927767  0.249760  1
