# generated using pymatgen
data_YEr2Th(Al3Ir)6
_symmetry_space_group_name_H-M   'P 1'
_cell_length_a   7.57679269
_cell_length_b   7.58740452
_cell_length_c   9.46769200
_cell_angle_alpha   90.00000000
_cell_angle_beta   90.00000000
_cell_angle_gamma   119.50073631
_symmetry_Int_Tables_number   1
_chemical_formula_structural   YEr2Th(Al3Ir)6
_chemical_formula_sum   'Y1 Er2 Th1 Al18 Ir6'
_cell_volume   473.71417742
_cell_formula_units_Z   1
loop_
 _symmetry_equiv_pos_site_id
 _symmetry_equiv_pos_as_xyz
  1  'x, y, z'
loop_
 _atom_site_type_symbol
 _atom_site_label
 _atom_site_symmetry_multiplicity
 _atom_site_fract_x
 _atom_site_fract_y
 _atom_site_fract_z
 _atom_site_occupancy
  Y  Y0  1  0.672796  0.994957  0.250000  1
  Er  Er1  1  0.003949  0.328186  0.750000  1
  Er  Er2  1  0.327286  0.004579  0.750000  1
  Th  Th3  1  0.994946  0.671310  0.250000  1
  Al  Al4  1  0.132532  0.134009  0.250000  1
  Al  Al5  1  0.871665  0.873804  0.750000  1
  Al  Al6  1  0.001568  0.331334  0.071737  1
  Al  Al7  1  0.999642  0.664113  0.917938  1
  Al  Al8  1  0.999642  0.664113  0.582062  1
  Al  Al9  1  0.340199  0.005245  0.428251  1
  Al  Al10  1  0.001568  0.331334  0.428263  1
  Al  Al11  1  0.664428  0.000676  0.576780  1
  Al  Al12  1  0.664428  0.000676  0.923220  1
  Al  Al13  1  0.340199  0.005245  0.071749  1
  Al  Al14  1  0.331883  0.331956  0.555643  1
  Al  Al15  1  0.662889  0.666396  0.455157  1
  Al  Al16  1  0.662889  0.666396  0.044843  1
  Al  Al17  1  0.331883  0.331956  0.944357  1
  Al  Al18  1  0.344397  0.548572  0.250000  1
  Al  Al19  1  0.657477  0.448208  0.750000  1
  Al  Al20  1  0.544446  0.337575  0.250000  1
  Al  Al21  1  0.448867  0.659954  0.750000  1
  Ir  Ir22  1  0.673121  0.329511  0.000058  1
  Ir  Ir23  1  0.326470  0.671480  0.000088  1
  Ir  Ir24  1  0.326470  0.671480  0.499912  1
  Ir  Ir25  1  0.673121  0.329511  0.499942  1
  Ir  Ir26  1  0.000617  0.998714  0.000308  1
  Ir  Ir27  1  0.000617  0.998714  0.499692  1
