# generated using pymatgen
data_PrAl2GaPt
_symmetry_space_group_name_H-M   'P 1'
_cell_length_a   6.22152608
_cell_length_b   6.22152587
_cell_length_c   6.22152631
_cell_angle_alpha   139.68567490
_cell_angle_beta   139.68567415
_cell_angle_gamma   58.33087026
_symmetry_Int_Tables_number   1
_chemical_formula_structural   PrAl2GaPt
_chemical_formula_sum   'Pr1 Al2 Ga1 Pt1'
_cell_volume   99.88358818
_cell_formula_units_Z   1
loop_
 _symmetry_equiv_pos_site_id
 _symmetry_equiv_pos_as_xyz
  1  'x, y, z'
loop_
 _atom_site_type_symbol
 _atom_site_label
 _atom_site_symmetry_multiplicity
 _atom_site_fract_x
 _atom_site_fract_y
 _atom_site_fract_z
 _atom_site_occupancy
  Pr  Pr0  1  0.981042  0.981042  0.000000  1
  Al  Al1  1  0.745518  0.245518  0.500000  1
  Al  Al2  1  0.245518  0.745518  0.500000  1
  Ga  Ga3  1  0.398616  0.398616  0.000000  1
  Pt  Pt4  1  0.629306  0.629306  0.000000  1
