# generated using pymatgen
data_Y6Zr6Al10Os7
_symmetry_space_group_name_H-M   'P 1'
_cell_length_a   9.25034510
_cell_length_b   9.21830112
_cell_length_c   9.21830100
_cell_angle_alpha   59.77548353
_cell_angle_beta   59.88494559
_cell_angle_gamma   59.88493871
_symmetry_Int_Tables_number   1
_chemical_formula_structural   Y6Zr6Al10Os7
_chemical_formula_sum   'Y6 Zr6 Al10 Os7'
_cell_volume   553.92054894
_cell_formula_units_Z   1
loop_
 _symmetry_equiv_pos_site_id
 _symmetry_equiv_pos_as_xyz
  1  'x, y, z'
loop_
 _atom_site_type_symbol
 _atom_site_label
 _atom_site_symmetry_multiplicity
 _atom_site_fract_x
 _atom_site_fract_y
 _atom_site_fract_z
 _atom_site_occupancy
  Y  Y0  1  0.693320  0.707547  0.301593  1
  Y  Y1  1  0.297539  0.707547  0.301593  1
  Y  Y2  1  0.702936  0.297064  0.297064  1
  Y  Y3  1  0.297539  0.301593  0.707547  1
  Y  Y4  1  0.693320  0.301593  0.707547  1
  Y  Y5  1  0.302207  0.697793  0.697793  1
  Zr  Zr6  1  0.876887  0.885411  0.360814  1
  Zr  Zr7  1  0.876887  0.360814  0.885411  1
  Zr  Zr8  1  0.367666  0.879916  0.879916  1
  Zr  Zr9  1  0.872502  0.879916  0.879916  1
  Zr  Zr10  1  0.123893  0.124520  0.627695  1
  Zr  Zr11  1  0.123893  0.627695  0.124520  1
  Al  Al12  1  0.640879  0.119184  0.119184  1
  Al  Al13  1  0.120752  0.119184  0.119184  1
  Al  Al14  1  0.666783  0.666394  0.000041  1
  Al  Al15  1  0.666783  0.000041  0.666394  1
  Al  Al16  1  0.996003  0.667365  0.667365  1
  Al  Al17  1  0.669268  0.667365  0.667365  1
  Al  Al18  1  0.333778  0.323513  0.008931  1
  Al  Al19  1  0.333778  0.008931  0.323513  1
  Al  Al20  1  0.999507  0.328907  0.328907  1
  Al  Al21  1  0.342678  0.328907  0.328907  1
  Os  Os22  1  0.003700  0.996300  0.996300  1
  Os  Os23  1  0.000381  0.000356  0.500373  1
  Os  Os24  1  0.498891  0.000356  0.500373  1
  Os  Os25  1  0.000207  0.499793  0.499793  1
  Os  Os26  1  0.498891  0.500373  0.000356  1
  Os  Os27  1  0.000381  0.500373  0.000356  1
  Os  Os28  1  0.498751  0.001249  0.001249  1
