# generated using pymatgen
data_Yb10Ir3Pd
_symmetry_space_group_name_H-M   'P 1'
_cell_length_a   8.48416499
_cell_length_b   8.46220397
_cell_length_c   7.56509597
_cell_angle_alpha   82.95325402
_cell_angle_beta   83.15709694
_cell_angle_gamma   44.18343302
_symmetry_Int_Tables_number   1
_chemical_formula_structural   Yb10Ir3Pd
_chemical_formula_sum   'Yb10 Ir3 Pd1'
_cell_volume   375.30044135
_cell_formula_units_Z   1
loop_
 _symmetry_equiv_pos_site_id
 _symmetry_equiv_pos_as_xyz
  1  'x, y, z'
loop_
 _atom_site_type_symbol
 _atom_site_label
 _atom_site_symmetry_multiplicity
 _atom_site_fract_x
 _atom_site_fract_y
 _atom_site_fract_z
 _atom_site_occupancy
  Yb  Yb0  1  0.041411  0.788391  0.917174  1
  Yb  Yb1  1  0.206272  0.968447  0.580236  1
  Yb  Yb2  1  0.973235  0.208186  0.079752  1
  Yb  Yb3  1  0.797388  0.032669  0.425396  1
  Yb  Yb4  1  0.362230  0.197737  0.816098  1
  Yb  Yb5  1  0.799115  0.635989  0.678267  1
  Yb  Yb6  1  0.634626  0.794682  0.178983  1
  Yb  Yb7  1  0.191028  0.368786  0.327317  1
  Yb  Yb8  1  0.574966  0.429517  0.742673  1
  Yb  Yb9  1  0.422977  0.579207  0.254273  1
  Ir  Ir10  1  0.178299  0.600757  0.580865  1
  Ir  Ir11  1  0.396623  0.820915  0.921248  1
  Ir  Ir12  1  0.822622  0.395739  0.418467  1
  Pd  Pd13  1  0.599209  0.178981  0.079249  1
