# generated using pymatgen
data_YbAl2O4
_symmetry_space_group_name_H-M   'P 1'
_cell_length_a   2.87818000
_cell_length_b   8.91833700
_cell_length_c   10.34548600
_cell_angle_alpha   90.00000000
_cell_angle_beta   90.00000000
_cell_angle_gamma   90.00000000
_symmetry_Int_Tables_number   1
_chemical_formula_structural   YbAl2O4
_chemical_formula_sum   'Yb4 Al8 O16'
_cell_volume   265.55392662
_cell_formula_units_Z   4
loop_
 _symmetry_equiv_pos_site_id
 _symmetry_equiv_pos_as_xyz
  1  'x, y, z'
loop_
 _atom_site_type_symbol
 _atom_site_label
 _atom_site_symmetry_multiplicity
 _atom_site_fract_x
 _atom_site_fract_y
 _atom_site_fract_z
 _atom_site_occupancy
  Yb  Yb0  1  0.250000  0.242078  0.344298  1
  Yb  Yb1  1  0.750000  0.757922  0.655702  1
  Yb  Yb2  1  0.250000  0.742078  0.155702  1
  Yb  Yb3  1  0.750000  0.257922  0.844298  1
  Al  Al4  1  0.250000  0.581484  0.896843  1
  Al  Al5  1  0.750000  0.418516  0.103157  1
  Al  Al6  1  0.250000  0.081484  0.603157  1
  Al  Al7  1  0.750000  0.918516  0.396843  1
  Al  Al8  1  0.250000  0.562265  0.388843  1
  Al  Al9  1  0.750000  0.437735  0.611157  1
  Al  Al10  1  0.250000  0.062265  0.111157  1
  Al  Al11  1  0.750000  0.937735  0.888843  1
  O  O12  1  0.250000  0.579357  0.572286  1
  O  O13  1  0.750000  0.420643  0.427714  1
  O  O14  1  0.250000  0.079357  0.927714  1
  O  O15  1  0.750000  0.920643  0.072286  1
  O  O16  1  0.250000  0.473976  0.215750  1
  O  O17  1  0.750000  0.526024  0.784250  1
  O  O18  1  0.250000  0.973976  0.284250  1
  O  O19  1  0.750000  0.026024  0.715750  1
  O  O20  1  0.250000  0.884071  0.520851  1
  O  O21  1  0.750000  0.115929  0.479149  1
  O  O22  1  0.250000  0.384071  0.979149  1
  O  O23  1  0.750000  0.615929  0.020851  1
  O  O24  1  0.750000  0.703645  0.344456  1
  O  O25  1  0.250000  0.296355  0.655544  1
  O  O26  1  0.750000  0.203645  0.155544  1
  O  O27  1  0.250000  0.796355  0.844456  1
