# generated using pymatgen
data_Lu4TcB12Ru
_symmetry_space_group_name_H-M   'P 1'
_cell_length_a   3.60425000
_cell_length_b   9.03951883
_cell_length_c   11.40286362
_cell_angle_alpha   89.85912067
_cell_angle_beta   90.00000000
_cell_angle_gamma   90.00000000
_symmetry_Int_Tables_number   1
_chemical_formula_structural   Lu4TcB12Ru
_chemical_formula_sum   'Lu8 Tc2 B24 Ru2'
_cell_volume   371.51199311
_cell_formula_units_Z   2
loop_
 _symmetry_equiv_pos_site_id
 _symmetry_equiv_pos_as_xyz
  1  'x, y, z'
loop_
 _atom_site_type_symbol
 _atom_site_label
 _atom_site_symmetry_multiplicity
 _atom_site_fract_x
 _atom_site_fract_y
 _atom_site_fract_z
 _atom_site_occupancy
  Lu  Lu0  1  0.000000  0.324330  0.415766  1
  Lu  Lu1  1  0.000000  0.675670  0.584234  1
  Lu  Lu2  1  0.000000  0.820032  0.087497  1
  Lu  Lu3  1  0.000000  0.179968  0.912503  1
  Lu  Lu4  1  0.000000  0.942250  0.370971  1
  Lu  Lu5  1  0.000000  0.057750  0.629029  1
  Lu  Lu6  1  0.000000  0.443212  0.129758  1
  Lu  Lu7  1  0.000000  0.556788  0.870242  1
  Tc  Tc8  1  0.000000  0.638496  0.320132  1
  Tc  Tc9  1  0.000000  0.361504  0.679868  1
  B  B10  1  0.500000  0.552793  0.433680  1
  B  B11  1  0.500000  0.447207  0.566320  1
  B  B12  1  0.500000  0.053566  0.066140  1
  B  B13  1  0.500000  0.946434  0.933860  1
  B  B14  1  0.500000  0.749637  0.419697  1
  B  B15  1  0.500000  0.250363  0.580303  1
  B  B16  1  0.500000  0.249636  0.080425  1
  B  B17  1  0.500000  0.750364  0.919575  1
  B  B18  1  0.500000  0.792497  0.264384  1
  B  B19  1  0.500000  0.207503  0.735616  1
  B  B20  1  0.500000  0.291420  0.235062  1
  B  B21  1  0.500000  0.708580  0.764938  1
  B  B22  1  0.500000  0.630562  0.184016  1
  B  B23  1  0.500000  0.369438  0.815984  1
  B  B24  1  0.500000  0.130246  0.315173  1
  B  B25  1  0.500000  0.869754  0.684827  1
  B  B26  1  0.500000  0.981541  0.211872  1
  B  B27  1  0.500000  0.018459  0.788128  1
  B  B28  1  0.500000  0.480764  0.287598  1
  B  B29  1  0.500000  0.519236  0.712402  1
  B  B30  1  0.500000  0.602069  0.027956  1
  B  B31  1  0.500000  0.397931  0.972044  1
  B  B32  1  0.500000  0.102213  0.471486  1
  B  B33  1  0.500000  0.897787  0.528514  1
  Ru  Ru34  1  0.000000  0.137664  0.178658  1
  Ru  Ru35  1  0.000000  0.862336  0.821342  1
