# generated using pymatgen
data_Tm8InHgRh2
_symmetry_space_group_name_H-M   'P 1'
_cell_length_a   9.52381995
_cell_length_b   9.49758667
_cell_length_c   9.49758599
_cell_angle_alpha   59.74769369
_cell_angle_beta   59.90858438
_cell_angle_gamma   59.90858792
_symmetry_Int_Tables_number   1
_chemical_formula_structural   Tm8InHgRh2
_chemical_formula_sum   'Tm16 In2 Hg2 Rh4'
_cell_volume   605.46430356
_cell_formula_units_Z   2
loop_
 _symmetry_equiv_pos_site_id
 _symmetry_equiv_pos_as_xyz
  1  'x, y, z'
loop_
 _atom_site_type_symbol
 _atom_site_label
 _atom_site_symmetry_multiplicity
 _atom_site_fract_x
 _atom_site_fract_y
 _atom_site_fract_z
 _atom_site_occupancy
  Tm  Tm0  1  0.060429  0.065193  0.437609  1
  Tm  Tm1  1  0.436769  0.065193  0.437609  1
  Tm  Tm2  1  0.060429  0.437609  0.065193  1
  Tm  Tm3  1  0.050624  0.649662  0.649662  1
  Tm  Tm4  1  0.436769  0.437609  0.065193  1
  Tm  Tm5  1  0.649310  0.052781  0.648601  1
  Tm  Tm6  1  0.189067  0.811431  0.189833  1
  Tm  Tm7  1  0.189067  0.189833  0.811431  1
  Tm  Tm8  1  0.809670  0.811431  0.189833  1
  Tm  Tm9  1  0.437009  0.062991  0.062991  1
  Tm  Tm10  1  0.811171  0.188829  0.188829  1
  Tm  Tm11  1  0.062719  0.437281  0.437281  1
  Tm  Tm12  1  0.809670  0.189833  0.811431  1
  Tm  Tm13  1  0.190517  0.809483  0.809483  1
  Tm  Tm14  1  0.649310  0.648601  0.052781  1
  Tm  Tm15  1  0.650053  0.649662  0.649662  1
  In  In16  1  0.417941  0.747462  0.416654  1
  In  In17  1  0.417941  0.416654  0.747462  1
  Hg  Hg18  1  0.414416  0.414255  0.414255  1
  Hg  Hg19  1  0.757074  0.414255  0.414255  1
  Rh  Rh20  1  0.857218  0.857410  0.428153  1
  Rh  Rh21  1  0.856901  0.857195  0.857195  1
  Rh  Rh22  1  0.428709  0.857195  0.857195  1
  Rh  Rh23  1  0.857218  0.428153  0.857410  1
