# generated using pymatgen
data_Ho20TcBi8Rh3
_symmetry_space_group_name_H-M   'P 1'
_cell_length_a   7.97355243
_cell_length_b   9.00440000
_cell_length_c   12.39245162
_cell_angle_alpha   90.00000000
_cell_angle_beta   90.11061650
_cell_angle_gamma   90.00000000
_symmetry_Int_Tables_number   1
_chemical_formula_structural   Ho20TcBi8Rh3
_chemical_formula_sum   'Ho20 Tc1 Bi8 Rh3'
_cell_volume   889.73987846
_cell_formula_units_Z   1
loop_
 _symmetry_equiv_pos_site_id
 _symmetry_equiv_pos_as_xyz
  1  'x, y, z'
loop_
 _atom_site_type_symbol
 _atom_site_label
 _atom_site_symmetry_multiplicity
 _atom_site_fract_x
 _atom_site_fract_y
 _atom_site_fract_z
 _atom_site_occupancy
  Ho  Ho0  1  0.344608  0.750000  0.706294  1
  Ho  Ho1  1  0.657729  0.250000  0.292344  1
  Ho  Ho2  1  0.841631  0.250000  0.793504  1
  Ho  Ho3  1  0.160591  0.750000  0.209088  1
  Ho  Ho4  1  0.878622  0.750000  0.807141  1
  Ho  Ho5  1  0.123088  0.250000  0.193325  1
  Ho  Ho6  1  0.378200  0.250000  0.694457  1
  Ho  Ho7  1  0.619961  0.750000  0.306459  1
  Ho  Ho8  1  0.677206  0.544067  0.564267  1
  Ho  Ho9  1  0.323610  0.459708  0.435808  1
  Ho  Ho10  1  0.177482  0.455712  0.934074  1
  Ho  Ho11  1  0.323610  0.040292  0.435808  1
  Ho  Ho12  1  0.822565  0.542051  0.065537  1
  Ho  Ho13  1  0.677206  0.955933  0.564267  1
  Ho  Ho14  1  0.822565  0.957949  0.065537  1
  Ho  Ho15  1  0.177482  0.044288  0.934074  1
  Ho  Ho16  1  0.052763  0.750000  0.497360  1
  Ho  Ho17  1  0.947079  0.250000  0.502639  1
  Ho  Ho18  1  0.547526  0.250000  0.001665  1
  Ho  Ho19  1  0.449032  0.750000  0.997672  1
  Tc  Tc20  1  0.422719  0.750000  0.487674  1
  Bi  Bi21  1  0.571113  0.508943  0.827471  1
  Bi  Bi22  1  0.429412  0.491359  0.172335  1
  Bi  Bi23  1  0.071089  0.491003  0.672460  1
  Bi  Bi24  1  0.429412  0.008641  0.172335  1
  Bi  Bi25  1  0.928759  0.508528  0.327166  1
  Bi  Bi26  1  0.571113  0.991057  0.827471  1
  Bi  Bi27  1  0.928759  0.991472  0.327166  1
  Bi  Bi28  1  0.071089  0.008997  0.672460  1
  Rh  Rh29  1  0.071809  0.750000  0.990884  1
  Rh  Rh30  1  0.927582  0.250000  0.010638  1
  Rh  Rh31  1  0.574590  0.250000  0.510623  1
