# generated using pymatgen
data_Er5Tm7Tc3Ru
_symmetry_space_group_name_H-M   'P 1'
_cell_length_a   6.21238722
_cell_length_b   7.33921511
_cell_length_c   8.99541324
_cell_angle_alpha   89.99287112
_cell_angle_beta   89.97428334
_cell_angle_gamma   89.99916928
_symmetry_Int_Tables_number   1
_chemical_formula_structural   Er5Tm7Tc3Ru
_chemical_formula_sum   'Er5 Tm7 Tc3 Ru1'
_cell_volume   410.13724244
_cell_formula_units_Z   1
loop_
 _symmetry_equiv_pos_site_id
 _symmetry_equiv_pos_as_xyz
  1  'x, y, z'
loop_
 _atom_site_type_symbol
 _atom_site_label
 _atom_site_symmetry_multiplicity
 _atom_site_fract_x
 _atom_site_fract_y
 _atom_site_fract_z
 _atom_site_occupancy
  Er  Er0  1  0.629724  0.040986  0.250133  1
  Er  Er1  1  0.375219  0.960032  0.749874  1
  Er  Er2  1  0.124422  0.461312  0.749880  1
  Er  Er3  1  0.875063  0.541408  0.250089  1
  Er  Er4  1  0.161157  0.175638  0.062342  1
  Tm  Tm5  1  0.836595  0.823478  0.937079  1
  Tm  Tm6  1  0.660537  0.324480  0.937646  1
  Tm  Tm7  1  0.836746  0.823641  0.562857  1
  Tm  Tm8  1  0.338360  0.675870  0.062118  1
  Tm  Tm9  1  0.161168  0.175289  0.437675  1
  Tm  Tm10  1  0.338269  0.675907  0.437955  1
  Tm  Tm11  1  0.660434  0.324368  0.562280  1
  Tc  Tc12  1  0.460791  0.384965  0.250164  1
  Tc  Tc13  1  0.541076  0.615420  0.750024  1
  Tc  Tc14  1  0.960761  0.113484  0.749743  1
  Ru  Ru15  1  0.039677  0.883723  0.250143  1
