# generated using pymatgen
data_HoEr19(IrRh5)2
_symmetry_space_group_name_H-M   'P 1'
_cell_length_a   10.81135715
_cell_length_b   10.81106301
_cell_length_c   6.31685501
_cell_angle_alpha   89.99641274
_cell_angle_beta   90.00773293
_cell_angle_gamma   89.99831501
_symmetry_Int_Tables_number   1
_chemical_formula_structural   HoEr19(IrRh5)2
_chemical_formula_sum   'Ho1 Er19 Ir2 Rh10'
_cell_volume   738.32830216
_cell_formula_units_Z   1
loop_
 _symmetry_equiv_pos_site_id
 _symmetry_equiv_pos_as_xyz
  1  'x, y, z'
loop_
 _atom_site_type_symbol
 _atom_site_label
 _atom_site_symmetry_multiplicity
 _atom_site_fract_x
 _atom_site_fract_y
 _atom_site_fract_z
 _atom_site_occupancy
  Ho  Ho0  1  0.290878  0.089617  0.377803  1
  Er  Er1  1  0.291068  0.910295  0.877911  1
  Er  Er2  1  0.708952  0.088239  0.877685  1
  Er  Er3  1  0.708976  0.911757  0.377717  1
  Er  Er4  1  0.586862  0.790275  0.877820  1
  Er  Er5  1  0.586958  0.209758  0.377864  1
  Er  Er6  1  0.411195  0.790426  0.378650  1
  Er  Er7  1  0.411233  0.209536  0.878621  1
  Er  Er8  1  0.210253  0.412808  0.621508  1
  Er  Er9  1  0.210264  0.587219  0.121534  1
  Er  Er10  1  0.791033  0.411502  0.121947  1
  Er  Er11  1  0.791027  0.588516  0.621946  1
  Er  Er12  1  0.911876  0.709154  0.122086  1
  Er  Er13  1  0.911874  0.290846  0.622098  1
  Er  Er14  1  0.089844  0.708755  0.622325  1
  Er  Er15  1  0.089776  0.291292  0.122233  1
  Er  Er16  1  0.999775  0.999723  0.500056  1
  Er  Er17  1  0.999853  0.000260  0.999969  1
  Er  Er18  1  0.499777  0.499770  0.999954  1
  Er  Er19  1  0.499771  0.500226  0.499986  1
  Ir  Ir20  1  0.346042  0.345474  0.249879  1
  Ir  Ir21  1  0.346001  0.654695  0.749938  1
  Rh  Rh22  1  0.845588  0.154048  0.250183  1
  Rh  Rh23  1  0.845584  0.845967  0.750185  1
  Rh  Rh24  1  0.153234  0.153740  0.750006  1
  Rh  Rh25  1  0.153282  0.846219  0.249738  1
  Rh  Rh26  1  0.654946  0.345691  0.750117  1
  Rh  Rh27  1  0.654938  0.654300  0.250127  1
  Rh  Rh28  1  0.500671  0.999739  0.123176  1
  Rh  Rh29  1  0.500675  0.000148  0.623443  1
  Rh  Rh30  1  0.998908  0.499901  0.876745  1
  Rh  Rh31  1  0.998889  0.500105  0.376746  1
