# generated using pymatgen
data_Li12Ca6TlAg3N
_symmetry_space_group_name_H-M   'P 1'
_cell_length_a   8.72695493
_cell_length_b   8.68074546
_cell_length_c   8.68074438
_cell_angle_alpha   109.36313259
_cell_angle_beta   109.57909007
_cell_angle_gamma   109.57910047
_symmetry_Int_Tables_number   1
_chemical_formula_structural   Li12Ca6TlAg3N
_chemical_formula_sum   'Li12 Ca6 Tl1 Ag3 N1'
_cell_volume   505.56256263
_cell_formula_units_Z   1
loop_
 _symmetry_equiv_pos_site_id
 _symmetry_equiv_pos_as_xyz
  1  'x, y, z'
loop_
 _atom_site_type_symbol
 _atom_site_label
 _atom_site_symmetry_multiplicity
 _atom_site_fract_x
 _atom_site_fract_y
 _atom_site_fract_z
 _atom_site_occupancy
  Li  Li0  1  0.681201  0.343196  0.343196  1
  Li  Li1  1  0.338007  0.000000  0.656804  1
  Li  Li2  1  0.338539  0.677077  0.338539  1
  Li  Li3  1  0.338539  0.338539  0.677077  1
  Li  Li4  1  0.338007  0.656804  0.000000  1
  Li  Li5  1  0.000000  0.338539  0.661461  1
  Li  Li6  1  0.000000  0.661461  0.338539  1
  Li  Li7  1  0.661461  0.661461  0.322923  1
  Li  Li8  1  0.661993  0.000000  0.343196  1
  Li  Li9  1  0.661993  0.343196  0.000000  1
  Li  Li10  1  0.661461  0.322923  0.661461  1
  Li  Li11  1  0.318799  0.656804  0.656804  1
  Ca  Ca12  1  0.999692  0.243515  0.243515  1
  Ca  Ca13  1  0.243823  0.000000  0.243515  1
  Ca  Ca14  1  0.756177  0.000000  0.756485  1
  Ca  Ca15  1  0.756177  0.756485  0.000000  1
  Ca  Ca16  1  0.243823  0.243515  0.000000  1
  Ca  Ca17  1  0.000308  0.756485  0.756485  1
  Tl  Tl18  1  0.500000  0.000000  0.000000  1
  Ag  Ag19  1  0.500000  0.500000  0.500000  1
  Ag  Ag20  1  0.000000  0.500000  0.000000  1
  Ag  Ag21  1  0.000000  0.000000  0.500000  1
  N  N22  1  0.000000  0.000000  0.000000  1
