# generated using pymatgen
data_Ho6LuCo6Sn22Hg
_symmetry_space_group_name_H-M   'P 1'
_cell_length_a   9.68525407
_cell_length_b   9.68525184
_cell_length_c   10.00015134
_cell_angle_alpha   89.81016450
_cell_angle_beta   90.18983723
_cell_angle_gamma   120.11444224
_symmetry_Int_Tables_number   1
_chemical_formula_structural   Ho6LuCo6Sn22Hg
_chemical_formula_sum   'Ho6 Lu1 Co6 Sn22 Hg1'
_cell_volume   811.43545982
_cell_formula_units_Z   1
loop_
 _symmetry_equiv_pos_site_id
 _symmetry_equiv_pos_as_xyz
  1  'x, y, z'
loop_
 _atom_site_type_symbol
 _atom_site_label
 _atom_site_symmetry_multiplicity
 _atom_site_fract_x
 _atom_site_fract_y
 _atom_site_fract_z
 _atom_site_occupancy
  Ho  Ho0  1  0.000237  0.999763  0.999652  1
  Ho  Ho1  1  0.520689  0.040718  0.693561  1
  Ho  Ho2  1  0.959282  0.479311  0.693561  1
  Ho  Ho3  1  0.040887  0.520437  0.306717  1
  Ho  Ho4  1  0.479563  0.959113  0.306717  1
  Ho  Ho5  1  0.479473  0.520527  0.306724  1
  Lu  Lu6  1  0.519383  0.480617  0.694143  1
  Co  Co7  1  0.167988  0.832012  0.802767  1
  Co  Co8  1  0.169413  0.336996  0.802591  1
  Co  Co9  1  0.663004  0.830587  0.802591  1
  Co  Co10  1  0.336531  0.168270  0.197157  1
  Co  Co11  1  0.831730  0.663469  0.197157  1
  Co  Co12  1  0.831758  0.168242  0.196878  1
  Sn  Sn13  1  0.666663  0.333337  0.181508  1
  Sn  Sn14  1  0.665349  0.334651  0.877916  1
  Sn  Sn15  1  0.333283  0.666717  0.120639  1
  Sn  Sn16  1  0.346370  0.346329  0.999836  1
  Sn  Sn17  1  0.000057  0.653785  0.999844  1
  Sn  Sn18  1  0.653763  0.999807  0.000049  1
  Sn  Sn19  1  0.653671  0.653630  0.999836  1
  Sn  Sn20  1  0.333457  0.666543  0.818441  1
  Sn  Sn21  1  0.435168  0.218273  0.454222  1
  Sn  Sn22  1  0.217545  0.782455  0.546719  1
  Sn  Sn23  1  0.218736  0.434961  0.546953  1
  Sn  Sn24  1  0.565039  0.781264  0.546953  1
  Sn  Sn25  1  0.116827  0.883173  0.269527  1
  Sn  Sn26  1  0.781727  0.564832  0.454222  1
  Sn  Sn27  1  0.782624  0.217376  0.453501  1
  Sn  Sn28  1  0.346215  0.999943  0.999844  1
  Sn  Sn29  1  0.116659  0.233538  0.269369  1
  Sn  Sn30  1  0.766462  0.883341  0.269369  1
  Sn  Sn31  1  0.234645  0.117902  0.730284  1
  Sn  Sn32  1  0.882098  0.765355  0.730284  1
  Sn  Sn33  1  0.883342  0.116658  0.730516  1
  Sn  Sn34  1  0.000193  0.346237  0.000049  1
  Hg  Hg35  1  0.000167  0.999833  0.499902  1
