# generated using pymatgen
data_Ho17Lu3Si15Pt
_symmetry_space_group_name_H-M   'P 1'
_cell_length_a   7.39456653
_cell_length_b   7.63885880
_cell_length_c   14.51951100
_cell_angle_alpha   89.79407146
_cell_angle_beta   89.62838595
_cell_angle_gamma   90.20275097
_symmetry_Int_Tables_number   1
_chemical_formula_structural   Ho17Lu3Si15Pt
_chemical_formula_sum   'Ho17 Lu3 Si15 Pt1'
_cell_volume   820.12206831
_cell_formula_units_Z   1
loop_
 _symmetry_equiv_pos_site_id
 _symmetry_equiv_pos_as_xyz
  1  'x, y, z'
loop_
 _atom_site_type_symbol
 _atom_site_label
 _atom_site_symmetry_multiplicity
 _atom_site_fract_x
 _atom_site_fract_y
 _atom_site_fract_z
 _atom_site_occupancy
  Ho  Ho0  1  0.352100  0.010377  0.751581  1
  Ho  Ho1  1  0.974319  0.816791  0.098914  1
  Ho  Ho2  1  0.472601  0.682689  0.401294  1
  Ho  Ho3  1  0.528338  0.323144  0.901356  1
  Ho  Ho4  1  0.028367  0.183860  0.598798  1
  Ho  Ho5  1  0.027428  0.183625  0.901221  1
  Ho  Ho6  1  0.528898  0.318155  0.597889  1
  Ho  Ho7  1  0.475194  0.681554  0.100579  1
  Ho  Ho8  1  0.969945  0.817310  0.400112  1
  Ho  Ho9  1  0.681192  0.814787  0.880593  1
  Ho  Ho10  1  0.178614  0.680872  0.621724  1
  Ho  Ho11  1  0.818359  0.331722  0.120506  1
  Ho  Ho12  1  0.316568  0.177288  0.375802  1
  Ho  Ho13  1  0.321552  0.178510  0.124279  1
  Ho  Ho14  1  0.819405  0.320725  0.376950  1
  Ho  Ho15  1  0.177001  0.673786  0.877692  1
  Ho  Ho16  1  0.682375  0.820600  0.622549  1
  Lu  Lu17  1  0.648888  0.992481  0.249367  1
  Lu  Lu18  1  0.149935  0.510819  0.248395  1
  Lu  Lu19  1  0.846409  0.487271  0.755388  1
  Si  Si20  1  0.767987  0.632093  0.252417  1
  Si  Si21  1  0.268171  0.870011  0.250901  1
  Si  Si22  1  0.733061  0.125447  0.748989  1
  Si  Si23  1  0.231855  0.373017  0.746168  1
  Si  Si24  1  0.017522  0.104904  0.249097  1
  Si  Si25  1  0.521355  0.396853  0.251767  1
  Si  Si26  1  0.473626  0.605624  0.746604  1
  Si  Si27  1  0.978038  0.896370  0.748382  1
  Si  Si28  1  0.353537  0.972353  0.539873  1
  Si  Si29  1  0.648225  0.027267  0.043050  1
  Si  Si30  1  0.148574  0.470234  0.459633  1
  Si  Si31  1  0.157270  0.472641  0.042739  1
  Si  Si32  1  0.644820  0.028521  0.458702  1
  Si  Si33  1  0.352470  0.968682  0.962126  1
  Si  Si34  1  0.853211  0.528977  0.539674  1
  Pt  Pt35  1  0.852798  0.520640  0.954890  1
