# generated using pymatgen
data_Tb8Y7Th(CdPt)4
_symmetry_space_group_name_H-M   'P 1'
_cell_length_a   9.74893269
_cell_length_b   9.74893297
_cell_length_c   9.75002255
_cell_angle_alpha   60.05297389
_cell_angle_beta   60.05297835
_cell_angle_gamma   60.10923865
_symmetry_Int_Tables_number   1
_chemical_formula_structural   Tb8Y7Th(CdPt)4
_chemical_formula_sum   'Tb8 Y7 Th1 Cd4 Pt4'
_cell_volume   656.31133075
_cell_formula_units_Z   1
loop_
 _symmetry_equiv_pos_site_id
 _symmetry_equiv_pos_as_xyz
  1  'x, y, z'
loop_
 _atom_site_type_symbol
 _atom_site_label
 _atom_site_symmetry_multiplicity
 _atom_site_fract_x
 _atom_site_fract_y
 _atom_site_fract_z
 _atom_site_occupancy
  Tb  Tb0  1  0.353549  0.353549  0.939660  1
  Tb  Tb1  1  0.353728  0.939907  0.353388  1
  Tb  Tb2  1  0.939907  0.353728  0.353388  1
  Tb  Tb3  1  0.812336  0.189338  0.189578  1
  Tb  Tb4  1  0.190402  0.810553  0.810754  1
  Tb  Tb5  1  0.189338  0.812336  0.189578  1
  Tb  Tb6  1  0.810553  0.190402  0.810754  1
  Tb  Tb7  1  0.189484  0.189484  0.812379  1
  Y  Y8  1  0.810051  0.810051  0.191145  1
  Y  Y9  1  0.936277  0.566091  0.565961  1
  Y  Y10  1  0.564135  0.936514  0.936535  1
  Y  Y11  1  0.566091  0.936277  0.565961  1
  Y  Y12  1  0.936514  0.564135  0.936535  1
  Y  Y13  1  0.565832  0.565832  0.936578  1
  Y  Y14  1  0.936647  0.936647  0.564048  1
  Th  Th15  1  0.348934  0.348934  0.349232  1
  Cd  Cd16  1  0.581987  0.581987  0.581489  1
  Cd  Cd17  1  0.582586  0.582586  0.252329  1
  Cd  Cd18  1  0.582419  0.252442  0.582391  1
  Cd  Cd19  1  0.252442  0.582419  0.582391  1
  Pt  Pt20  1  0.144013  0.144013  0.144016  1
  Pt  Pt21  1  0.141166  0.141166  0.569789  1
  Pt  Pt22  1  0.141820  0.569788  0.141061  1
  Pt  Pt23  1  0.569788  0.141820  0.141061  1
