# generated using pymatgen
data_Ho5Th3(ZnRh)8
_symmetry_space_group_name_H-M   'P 1'
_cell_length_a   3.88409200
_cell_length_b   7.36642481
_cell_length_c   16.34436577
_cell_angle_alpha   90.21514826
_cell_angle_beta   90.00000000
_cell_angle_gamma   90.00000000
_symmetry_Int_Tables_number   1
_chemical_formula_structural   Ho5Th3(ZnRh)8
_chemical_formula_sum   'Ho5 Th3 Zn8 Rh8'
_cell_volume   467.63959880
_cell_formula_units_Z   1
loop_
 _symmetry_equiv_pos_site_id
 _symmetry_equiv_pos_as_xyz
  1  'x, y, z'
loop_
 _atom_site_type_symbol
 _atom_site_label
 _atom_site_symmetry_multiplicity
 _atom_site_fract_x
 _atom_site_fract_y
 _atom_site_fract_z
 _atom_site_occupancy
  Ho  Ho0  1  0.750000  0.941405  0.284099  1
  Ho  Ho1  1  0.750000  0.830477  0.062969  1
  Ho  Ho2  1  0.750000  0.450519  0.211157  1
  Ho  Ho3  1  0.250000  0.055914  0.714062  1
  Ho  Ho4  1  0.250000  0.554151  0.789071  1
  Th  Th5  1  0.250000  0.170079  0.939832  1
  Th  Th6  1  0.250000  0.673710  0.563532  1
  Th  Th7  1  0.750000  0.324516  0.435566  1
  Zn  Zn8  1  0.750000  0.009529  0.563406  1
  Zn  Zn9  1  0.250000  0.618781  0.340975  1
  Zn  Zn10  1  0.750000  0.381019  0.659725  1
  Zn  Zn11  1  0.250000  0.505566  0.061010  1
  Zn  Zn12  1  0.750000  0.513774  0.940333  1
  Zn  Zn13  1  0.250000  0.988828  0.435148  1
  Zn  Zn14  1  0.250000  0.111564  0.155131  1
  Zn  Zn15  1  0.750000  0.879497  0.842572  1
  Rh  Rh16  1  0.750000  0.738998  0.439321  1
  Rh  Rh17  1  0.250000  0.243737  0.314358  1
  Rh  Rh18  1  0.750000  0.252297  0.818016  1
  Rh  Rh19  1  0.750000  0.753493  0.683989  1
  Rh  Rh20  1  0.250000  0.259525  0.560565  1
  Rh  Rh21  1  0.250000  0.742797  0.186863  1
  Rh  Rh22  1  0.750000  0.242707  0.061888  1
  Rh  Rh23  1  0.250000  0.757115  0.936410  1
