# generated using pymatgen
data_Ca4Ge3Rh4
_symmetry_space_group_name_H-M   'P 1'
_cell_length_a   10.89871240
_cell_length_b   10.89871297
_cell_length_c   7.77360756
_cell_angle_alpha   72.41432746
_cell_angle_beta   72.41432605
_cell_angle_gamma   30.57226417
_symmetry_Int_Tables_number   1
_chemical_formula_structural   Ca4Ge3Rh4
_chemical_formula_sum   'Ca8 Ge6 Rh8'
_cell_volume   446.01466053
_cell_formula_units_Z   2
loop_
 _symmetry_equiv_pos_site_id
 _symmetry_equiv_pos_as_xyz
  1  'x, y, z'
loop_
 _atom_site_type_symbol
 _atom_site_label
 _atom_site_symmetry_multiplicity
 _atom_site_fract_x
 _atom_site_fract_y
 _atom_site_fract_z
 _atom_site_occupancy
  Ca  Ca0  1  0.208889  0.447417  0.407702  1
  Ca  Ca1  1  0.552583  0.791111  0.092298  1
  Ca  Ca2  1  0.447417  0.208889  0.907702  1
  Ca  Ca3  1  0.925263  0.210938  0.333264  1
  Ca  Ca4  1  0.789062  0.074737  0.166736  1
  Ca  Ca5  1  0.074737  0.789062  0.666736  1
  Ca  Ca6  1  0.210938  0.925263  0.833264  1
  Ca  Ca7  1  0.791111  0.552583  0.592298  1
  Ge  Ge8  1  0.610647  0.389353  0.750000  1
  Ge  Ge9  1  0.389353  0.610647  0.250000  1
  Ge  Ge10  1  0.304959  0.037809  0.440891  1
  Ge  Ge11  1  0.962191  0.695041  0.059109  1
  Ge  Ge12  1  0.695041  0.962191  0.559109  1
  Ge  Ge13  1  0.037809  0.304959  0.940891  1
  Rh  Rh14  1  0.296900  0.580442  0.022534  1
  Rh  Rh15  1  0.580442  0.296900  0.522534  1
  Rh  Rh16  1  0.703100  0.419558  0.977466  1
  Rh  Rh17  1  0.083508  0.361402  0.187304  1
  Rh  Rh18  1  0.638598  0.916492  0.312696  1
  Rh  Rh19  1  0.419558  0.703100  0.477466  1
  Rh  Rh20  1  0.916492  0.638598  0.812696  1
  Rh  Rh21  1  0.361402  0.083508  0.687304  1
