# generated using pymatgen
data_Lu6Al24IrRu7
_symmetry_space_group_name_H-M   'P 1'
_cell_length_a   8.74421416
_cell_length_b   8.74421281
_cell_length_c   9.54274405
_cell_angle_alpha   89.90763439
_cell_angle_beta   90.09236604
_cell_angle_gamma   119.98246772
_symmetry_Int_Tables_number   1
_chemical_formula_structural   Lu6Al24IrRu7
_chemical_formula_sum   'Lu6 Al24 Ir1 Ru7'
_cell_volume   632.00622720
_cell_formula_units_Z   1
loop_
 _symmetry_equiv_pos_site_id
 _symmetry_equiv_pos_as_xyz
  1  'x, y, z'
loop_
 _atom_site_type_symbol
 _atom_site_label
 _atom_site_symmetry_multiplicity
 _atom_site_fract_x
 _atom_site_fract_y
 _atom_site_fract_z
 _atom_site_occupancy
  Lu  Lu0  1  0.805375  0.194625  0.749633  1
  Lu  Lu1  1  0.194625  0.805375  0.250367  1
  Lu  Lu2  1  0.388253  0.193592  0.749014  1
  Lu  Lu3  1  0.611747  0.806408  0.250986  1
  Lu  Lu4  1  0.806408  0.611747  0.749014  1
  Lu  Lu5  1  0.193592  0.388253  0.250986  1
  Al  Al6  1  0.667585  0.332415  0.979371  1
  Al  Al7  1  0.332415  0.667585  0.020629  1
  Al  Al8  1  0.333329  0.666671  0.479498  1
  Al  Al9  1  0.666671  0.333329  0.520502  1
  Al  Al10  1  0.836960  0.163040  0.421945  1
  Al  Al11  1  0.163040  0.836960  0.578055  1
  Al  Al12  1  0.325539  0.163117  0.421684  1
  Al  Al13  1  0.162484  0.837516  0.921442  1
  Al  Al14  1  0.674461  0.836883  0.578316  1
  Al  Al15  1  0.837516  0.162484  0.078558  1
  Al  Al16  1  0.836883  0.674461  0.421684  1
  Al  Al17  1  0.674790  0.838538  0.921916  1
  Al  Al18  1  0.163117  0.325539  0.578316  1
  Al  Al19  1  0.325210  0.161462  0.078084  1
  Al  Al20  1  0.161462  0.325210  0.921916  1
  Al  Al21  1  0.838538  0.674790  0.078084  1
  Al  Al22  1  0.438291  0.561709  0.748732  1
  Al  Al23  1  0.561709  0.438291  0.251268  1
  Al  Al24  1  0.122620  0.560881  0.750086  1
  Al  Al25  1  0.877380  0.439119  0.249914  1
  Al  Al26  1  0.439119  0.877380  0.750086  1
  Al  Al27  1  0.560881  0.122620  0.249914  1
  Al  Al28  1  0.000100  0.999900  0.750047  1
  Al  Al29  1  0.999900  0.000100  0.249953  1
  Ir  Ir30  1  0.500000  0.500000  0.000000  1
  Ru  Ru31  1  0.000000  0.500000  0.000000  1
  Ru  Ru32  1  0.500000  0.500000  0.500000  1
  Ru  Ru33  1  0.500000  0.000000  0.000000  1
  Ru  Ru34  1  0.000000  0.500000  0.500000  1
  Ru  Ru35  1  0.500000  0.000000  0.500000  1
  Ru  Ru36  1  0.000000  0.000000  0.000000  1
  Ru  Ru37  1  0.000000  0.000000  0.500000  1
