# generated using pymatgen
data_NdTm2(Ni3As2)3
_symmetry_space_group_name_H-M   'P 1'
_cell_length_a   3.91980200
_cell_length_b   10.84021800
_cell_length_c   12.77421400
_cell_angle_alpha   90.00000000
_cell_angle_beta   90.00000000
_cell_angle_gamma   90.00000000
_symmetry_Int_Tables_number   1
_chemical_formula_structural   NdTm2(Ni3As2)3
_chemical_formula_sum   'Nd2 Tm4 Ni18 As12'
_cell_volume   542.79561889
_cell_formula_units_Z   2
loop_
 _symmetry_equiv_pos_site_id
 _symmetry_equiv_pos_as_xyz
  1  'x, y, z'
loop_
 _atom_site_type_symbol
 _atom_site_label
 _atom_site_symmetry_multiplicity
 _atom_site_fract_x
 _atom_site_fract_y
 _atom_site_fract_z
 _atom_site_occupancy
  Nd  Nd0  1  0.000000  0.500000  0.521753  1
  Nd  Nd1  1  0.500000  0.000000  0.478247  1
  Tm  Tm2  1  0.500000  0.815950  0.206008  1
  Tm  Tm3  1  0.500000  0.184050  0.206008  1
  Tm  Tm4  1  0.000000  0.684050  0.793992  1
  Tm  Tm5  1  0.000000  0.315950  0.793992  1
  Ni  Ni6  1  0.500000  0.500000  0.153122  1
  Ni  Ni7  1  0.000000  0.000000  0.846878  1
  Ni  Ni8  1  0.500000  0.500000  0.700966  1
  Ni  Ni9  1  0.000000  0.000000  0.299034  1
  Ni  Ni10  1  0.000000  0.500000  0.980709  1
  Ni  Ni11  1  0.500000  0.000000  0.019291  1
  Ni  Ni12  1  0.500000  0.332998  0.997495  1
  Ni  Ni13  1  0.500000  0.667002  0.997495  1
  Ni  Ni14  1  0.000000  0.167002  0.002505  1
  Ni  Ni15  1  0.000000  0.832998  0.002505  1
  Ni  Ni16  1  0.500000  0.302255  0.423382  1
  Ni  Ni17  1  0.500000  0.697745  0.423382  1
  Ni  Ni18  1  0.000000  0.197745  0.576618  1
  Ni  Ni19  1  0.000000  0.802255  0.576618  1
  Ni  Ni20  1  0.500000  0.878874  0.711068  1
  Ni  Ni21  1  0.500000  0.121126  0.711068  1
  Ni  Ni22  1  0.000000  0.621126  0.288932  1
  Ni  Ni23  1  0.000000  0.378874  0.288932  1
  As  As24  1  0.500000  0.500000  0.876027  1
  As  As25  1  0.000000  0.000000  0.123973  1
  As  As26  1  0.500000  0.500000  0.339661  1
  As  As27  1  0.000000  0.000000  0.660339  1
  As  As28  1  0.500000  0.312217  0.614665  1
  As  As29  1  0.500000  0.687783  0.614665  1
  As  As30  1  0.000000  0.187783  0.385335  1
  As  As31  1  0.000000  0.812217  0.385335  1
  As  As32  1  0.500000  0.846548  0.891917  1
  As  As33  1  0.500000  0.153452  0.891917  1
  As  As34  1  0.000000  0.653452  0.108083  1
  As  As35  1  0.000000  0.346548  0.108083  1
