# generated using pymatgen
data_Dy6Tm3Lu(Si3H)2
_symmetry_space_group_name_H-M   'P 1'
_cell_length_a   8.40795900
_cell_length_b   8.40796141
_cell_length_c   6.15694800
_cell_angle_alpha   90.00000000
_cell_angle_beta   90.00000000
_cell_angle_gamma   120.00000234
_symmetry_Int_Tables_number   1
_chemical_formula_structural   Dy6Tm3Lu(Si3H)2
_chemical_formula_sum   'Dy6 Tm3 Lu1 Si6 H2'
_cell_volume   376.94449221
_cell_formula_units_Z   1
loop_
 _symmetry_equiv_pos_site_id
 _symmetry_equiv_pos_as_xyz
  1  'x, y, z'
loop_
 _atom_site_type_symbol
 _atom_site_label
 _atom_site_symmetry_multiplicity
 _atom_site_fract_x
 _atom_site_fract_y
 _atom_site_fract_z
 _atom_site_occupancy
  Dy  Dy0  1  0.749692  0.749660  0.749954  1
  Dy  Dy1  1  0.250340  0.000032  0.749954  1
  Dy  Dy2  1  0.999968  0.250308  0.749954  1
  Dy  Dy3  1  0.250340  0.250308  0.250046  1
  Dy  Dy4  1  0.749692  0.000032  0.250046  1
  Dy  Dy5  1  0.999968  0.749660  0.250046  1
  Tm  Tm6  1  0.666667  0.333333  0.000000  1
  Tm  Tm7  1  0.333333  0.666667  0.000000  1
  Tm  Tm8  1  0.333333  0.666667  0.500000  1
  Lu  Lu9  1  0.666667  0.333333  0.500000  1
  Si  Si10  1  0.391463  0.391322  0.749895  1
  Si  Si11  1  0.608678  0.000141  0.749895  1
  Si  Si12  1  0.999859  0.608537  0.749895  1
  Si  Si13  1  0.608678  0.608537  0.250105  1
  Si  Si14  1  0.391463  0.000141  0.250105  1
  Si  Si15  1  0.999859  0.391322  0.250105  1
  H  H16  1  0.000000  0.000000  0.500000  1
  H  H17  1  0.000000  0.000000  0.000000  1
