# generated using pymatgen
data_YTm2(Co3P2)3
_symmetry_space_group_name_H-M   'P 1'
_cell_length_a   3.66669800
_cell_length_b   10.45798800
_cell_length_c   12.10800900
_cell_angle_alpha   90.00000000
_cell_angle_beta   90.00000000
_cell_angle_gamma   90.00000000
_symmetry_Int_Tables_number   1
_chemical_formula_structural   YTm2(Co3P2)3
_chemical_formula_sum   'Y2 Tm4 Co18 P12'
_cell_volume   464.29714796
_cell_formula_units_Z   2
loop_
 _symmetry_equiv_pos_site_id
 _symmetry_equiv_pos_as_xyz
  1  'x, y, z'
loop_
 _atom_site_type_symbol
 _atom_site_label
 _atom_site_symmetry_multiplicity
 _atom_site_fract_x
 _atom_site_fract_y
 _atom_site_fract_z
 _atom_site_occupancy
  Y  Y0  1  0.000000  0.500000  0.522187  1
  Y  Y1  1  0.500000  0.000000  0.477813  1
  Tm  Tm2  1  0.500000  0.817989  0.205685  1
  Tm  Tm3  1  0.500000  0.182011  0.205685  1
  Tm  Tm4  1  0.000000  0.682011  0.794315  1
  Tm  Tm5  1  0.000000  0.317989  0.794315  1
  Co  Co6  1  0.500000  0.500000  0.158705  1
  Co  Co7  1  0.000000  0.000000  0.841295  1
  Co  Co8  1  0.500000  0.500000  0.704774  1
  Co  Co9  1  0.000000  0.000000  0.295226  1
  Co  Co10  1  0.000000  0.500000  0.986220  1
  Co  Co11  1  0.500000  0.000000  0.013780  1
  Co  Co12  1  0.500000  0.333148  0.994582  1
  Co  Co13  1  0.500000  0.666852  0.994582  1
  Co  Co14  1  0.000000  0.166852  0.005418  1
  Co  Co15  1  0.000000  0.833148  0.005418  1
  Co  Co16  1  0.500000  0.297222  0.430176  1
  Co  Co17  1  0.500000  0.702778  0.430176  1
  Co  Co18  1  0.000000  0.202778  0.569824  1
  Co  Co19  1  0.000000  0.797222  0.569824  1
  Co  Co20  1  0.500000  0.878585  0.710405  1
  Co  Co21  1  0.500000  0.121415  0.710405  1
  Co  Co22  1  0.000000  0.621415  0.289595  1
  Co  Co23  1  0.000000  0.378585  0.289595  1
  P  P24  1  0.500000  0.500000  0.882505  1
  P  P25  1  0.000000  0.000000  0.117495  1
  P  P26  1  0.500000  0.500000  0.343730  1
  P  P27  1  0.000000  0.000000  0.656270  1
  P  P28  1  0.500000  0.310927  0.617181  1
  P  P29  1  0.500000  0.689073  0.617181  1
  P  P30  1  0.000000  0.189073  0.382819  1
  P  P31  1  0.000000  0.810927  0.382819  1
  P  P32  1  0.500000  0.846703  0.892467  1
  P  P33  1  0.500000  0.153297  0.892467  1
  P  P34  1  0.000000  0.653297  0.107533  1
  P  P35  1  0.000000  0.346703  0.107533  1
