# generated using pymatgen
data_Y6Al19Co4Si5Os4
_symmetry_space_group_name_H-M   'P 1'
_cell_length_a   8.61129594
_cell_length_b   8.66752410
_cell_length_c   9.41882400
_cell_angle_alpha   90.00000000
_cell_angle_beta   90.00000000
_cell_angle_gamma   120.29163240
_symmetry_Int_Tables_number   1
_chemical_formula_structural   Y6Al19Co4Si5Os4
_chemical_formula_sum   'Y6 Al19 Co4 Si5 Os4'
_cell_volume   607.02575355
_cell_formula_units_Z   1
loop_
 _symmetry_equiv_pos_site_id
 _symmetry_equiv_pos_as_xyz
  1  'x, y, z'
loop_
 _atom_site_type_symbol
 _atom_site_label
 _atom_site_symmetry_multiplicity
 _atom_site_fract_x
 _atom_site_fract_y
 _atom_site_fract_z
 _atom_site_occupancy
  Y  Y0  1  0.198910  0.390721  0.250000  1
  Y  Y1  1  0.802188  0.611244  0.750000  1
  Y  Y2  1  0.604795  0.803830  0.250000  1
  Y  Y3  1  0.393415  0.196583  0.750000  1
  Y  Y4  1  0.200459  0.808886  0.250000  1
  Y  Y5  1  0.801689  0.191413  0.750000  1
  Al  Al6  1  0.158227  0.322971  0.577074  1
  Al  Al7  1  0.841704  0.676570  0.422261  1
  Al  Al8  1  0.676582  0.838473  0.575646  1
  Al  Al9  1  0.841704  0.676570  0.077739  1
  Al  Al10  1  0.322824  0.162318  0.423129  1
  Al  Al11  1  0.158227  0.322971  0.922926  1
  Al  Al12  1  0.158438  0.834994  0.575711  1
  Al  Al13  1  0.322824  0.162318  0.076871  1
  Al  Al14  1  0.842764  0.166095  0.422525  1
  Al  Al15  1  0.676582  0.838473  0.924354  1
  Al  Al16  1  0.842764  0.166095  0.077475  1
  Al  Al17  1  0.158438  0.834994  0.924289  1
  Al  Al18  1  0.433845  0.870748  0.750000  1
  Al  Al19  1  0.880555  0.437164  0.250000  1
  Al  Al20  1  0.118529  0.559426  0.750000  1
  Al  Al21  1  0.563663  0.431745  0.250000  1
  Al  Al22  1  0.433558  0.564085  0.750000  1
  Al  Al23  1  0.000504  0.000115  0.250000  1
  Al  Al24  1  0.999419  0.000109  0.750000  1
  Co  Co25  1  0.998637  0.498818  0.000637  1
  Co  Co26  1  0.998637  0.498818  0.499363  1
  Co  Co27  1  0.000077  0.000127  0.999668  1
  Co  Co28  1  0.000077  0.000127  0.500332  1
  Si  Si29  1  0.326928  0.662692  0.030168  1
  Si  Si30  1  0.673850  0.338025  0.967680  1
  Si  Si31  1  0.673850  0.338025  0.532320  1
  Si  Si32  1  0.326928  0.662692  0.469832  1
  Si  Si33  1  0.565051  0.129553  0.250000  1
  Os  Os34  1  0.501137  0.001835  0.005689  1
  Os  Os35  1  0.501137  0.001835  0.494311  1
  Os  Os36  1  0.500541  0.499271  0.000510  1
  Os  Os37  1  0.500541  0.499271  0.499490  1
