# generated using pymatgen
data_Pt2IF18
_symmetry_space_group_name_H-M   'P 1'
_cell_length_a   5.35163128
_cell_length_b   8.72213651
_cell_length_c   8.79333503
_cell_angle_alpha   61.41358468
_cell_angle_beta   83.93293293
_cell_angle_gamma   84.15958307
_symmetry_Int_Tables_number   1
_chemical_formula_structural   Pt2IF18
_chemical_formula_sum   'Pt2 I1 F18'
_cell_volume   357.78163515
_cell_formula_units_Z   1
loop_
 _symmetry_equiv_pos_site_id
 _symmetry_equiv_pos_as_xyz
  1  'x, y, z'
loop_
 _atom_site_type_symbol
 _atom_site_label
 _atom_site_symmetry_multiplicity
 _atom_site_fract_x
 _atom_site_fract_y
 _atom_site_fract_z
 _atom_site_occupancy
  Pt  Pt0  1  0.561748  0.334607  0.334598  1
  Pt  Pt1  1  0.438296  0.664492  0.665721  1
  I  I2  1  0.999906  0.000951  0.999664  1
  F  F3  1  0.876945  0.780435  0.072695  1
  F  F4  1  0.689274  0.073552  0.074168  1
  F  F5  1  0.739731  0.414127  0.113178  1
  F  F6  1  0.120647  0.921644  0.219714  1
  F  F7  1  0.384270  0.557492  0.254890  1
  F  F8  1  0.307315  0.254668  0.258082  1
  F  F9  1  0.817207  0.414100  0.410607  1
  F  F10  1  0.740506  0.112320  0.414063  1
  F  F11  1  0.614627  0.744910  0.443748  1
  F  F12  1  0.385419  0.254731  0.556712  1
  F  F13  1  0.259464  0.886425  0.586917  1
  F  F14  1  0.183377  0.585247  0.589275  1
  F  F15  1  0.692497  0.744071  0.742690  1
  F  F16  1  0.615800  0.441845  0.744782  1
  F  F17  1  0.879152  0.080287  0.779627  1
  F  F18  1  0.260503  0.584459  0.886982  1
  F  F19  1  0.310446  0.928152  0.925284  1
  F  F20  1  0.122871  0.221486  0.926609  1
