# generated using pymatgen
data_Tb2CeEr5(ReB6)4
_symmetry_space_group_name_H-M   'P 1'
_cell_length_a   3.68230300
_cell_length_b   9.16067718
_cell_length_c   11.54783400
_cell_angle_alpha   90.04625606
_cell_angle_beta   90.00000000
_cell_angle_gamma   90.00000000
_symmetry_Int_Tables_number   1
_chemical_formula_structural   Tb2CeEr5(ReB6)4
_chemical_formula_sum   'Tb2 Ce1 Er5 Re4 B24'
_cell_volume   389.53590246
_cell_formula_units_Z   1
loop_
 _symmetry_equiv_pos_site_id
 _symmetry_equiv_pos_as_xyz
  1  'x, y, z'
loop_
 _atom_site_type_symbol
 _atom_site_label
 _atom_site_symmetry_multiplicity
 _atom_site_fract_x
 _atom_site_fract_y
 _atom_site_fract_z
 _atom_site_occupancy
  Tb  Tb0  1  0.000000  0.677498  0.586798  1
  Tb  Tb1  1  0.000000  0.823168  0.085553  1
  Ce  Ce2  1  0.000000  0.323012  0.414029  1
  Er  Er3  1  0.000000  0.176144  0.913906  1
  Er  Er4  1  0.000000  0.942810  0.369897  1
  Er  Er5  1  0.000000  0.056467  0.630525  1
  Er  Er6  1  0.000000  0.443242  0.128876  1
  Er  Er7  1  0.000000  0.556834  0.870418  1
  Re  Re8  1  0.000000  0.638327  0.320746  1
  Re  Re9  1  0.000000  0.361031  0.679337  1
  Re  Re10  1  0.000000  0.139442  0.179395  1
  Re  Re11  1  0.000000  0.861634  0.820789  1
  B  B12  1  0.500000  0.554006  0.432207  1
  B  B13  1  0.500000  0.445992  0.568013  1
  B  B14  1  0.500000  0.053669  0.066618  1
  B  B15  1  0.500000  0.947034  0.932822  1
  B  B16  1  0.500000  0.750185  0.418209  1
  B  B17  1  0.500000  0.250411  0.582727  1
  B  B18  1  0.500000  0.249336  0.080455  1
  B  B19  1  0.500000  0.750396  0.918254  1
  B  B20  1  0.500000  0.792315  0.265595  1
  B  B21  1  0.500000  0.207591  0.735429  1
  B  B22  1  0.500000  0.291684  0.233620  1
  B  B23  1  0.500000  0.707728  0.765746  1
  B  B24  1  0.500000  0.631159  0.184975  1
  B  B25  1  0.500000  0.369338  0.815085  1
  B  B26  1  0.500000  0.130553  0.313847  1
  B  B27  1  0.500000  0.869357  0.685877  1
  B  B28  1  0.500000  0.982482  0.211805  1
  B  B29  1  0.500000  0.017925  0.788220  1
  B  B30  1  0.500000  0.483554  0.287132  1
  B  B31  1  0.500000  0.517649  0.713143  1
  B  B32  1  0.500000  0.600168  0.027616  1
  B  B33  1  0.500000  0.399515  0.971616  1
  B  B34  1  0.500000  0.098942  0.472474  1
  B  B35  1  0.500000  0.899400  0.528244  1
