# generated using pymatgen
data_Pr2Nd2AgPt3
_symmetry_space_group_name_H-M   'P 1'
_cell_length_a   4.69908600
_cell_length_b   5.82187446
_cell_length_c   7.41683540
_cell_angle_alpha   90.12751850
_cell_angle_beta   90.00000000
_cell_angle_gamma   90.00000000
_symmetry_Int_Tables_number   1
_chemical_formula_structural   Pr2Nd2AgPt3
_chemical_formula_sum   'Pr2 Nd2 Ag1 Pt3'
_cell_volume   202.90548852
_cell_formula_units_Z   1
loop_
 _symmetry_equiv_pos_site_id
 _symmetry_equiv_pos_as_xyz
  1  'x, y, z'
loop_
 _atom_site_type_symbol
 _atom_site_label
 _atom_site_symmetry_multiplicity
 _atom_site_fract_x
 _atom_site_fract_y
 _atom_site_fract_z
 _atom_site_occupancy
  Pr  Pr0  1  0.250000  0.358145  0.690679  1
  Pr  Pr1  1  0.750000  0.630282  0.305085  1
  Nd  Nd2  1  0.250000  0.145620  0.177563  1
  Nd  Nd3  1  0.750000  0.862284  0.830608  1
  Ag  Ag4  1  0.250000  0.857829  0.537810  1
  Pt  Pt5  1  0.250000  0.661071  0.042845  1
  Pt  Pt6  1  0.750000  0.140639  0.459965  1
  Pt  Pt7  1  0.750000  0.344127  0.955446  1
