# generated using pymatgen
data_NdYTh6(ReC2)4
_symmetry_space_group_name_H-M   'P 1'
_cell_length_a   5.35499300
_cell_length_b   6.67942236
_cell_length_c   10.08221474
_cell_angle_alpha   90.30407762
_cell_angle_beta   90.00000000
_cell_angle_gamma   90.00000000
_symmetry_Int_Tables_number   1
_chemical_formula_structural   NdYTh6(ReC2)4
_chemical_formula_sum   'Nd1 Y1 Th6 Re4 C8'
_cell_volume   360.61819916
_cell_formula_units_Z   1
loop_
 _symmetry_equiv_pos_site_id
 _symmetry_equiv_pos_as_xyz
  1  'x, y, z'
loop_
 _atom_site_type_symbol
 _atom_site_label
 _atom_site_symmetry_multiplicity
 _atom_site_fract_x
 _atom_site_fract_y
 _atom_site_fract_z
 _atom_site_occupancy
  Nd  Nd0  1  0.750000  0.191958  0.949011  1
  Y  Y1  1  0.250000  0.317285  0.446676  1
  Th  Th2  1  0.250000  0.471252  0.777347  1
  Th  Th3  1  0.750000  0.028650  0.282547  1
  Th  Th4  1  0.250000  0.977645  0.720589  1
  Th  Th5  1  0.750000  0.523072  0.222599  1
  Th  Th6  1  0.250000  0.812219  0.048643  1
  Th  Th7  1  0.750000  0.686828  0.547514  1
  Re  Re8  1  0.250000  0.269826  0.140315  1
  Re  Re9  1  0.750000  0.228242  0.635625  1
  Re  Re10  1  0.250000  0.770096  0.363762  1
  Re  Re11  1  0.750000  0.730624  0.861572  1
  C  C12  1  0.250000  0.668766  0.552102  1
  C  C13  1  0.750000  0.822307  0.051724  1
  C  C14  1  0.250000  0.171330  0.951390  1
  C  C15  1  0.750000  0.329119  0.447791  1
  C  C16  1  0.250000  0.034832  0.261083  1
  C  C17  1  0.750000  0.467049  0.755441  1
  C  C18  1  0.250000  0.532256  0.243816  1
  C  C19  1  0.750000  0.966644  0.740450  1
