# generated using pymatgen
data_Ac6AlSi11
_symmetry_space_group_name_H-M   'P 1'
_cell_length_a   4.47937838
_cell_length_b   4.45946841
_cell_length_c   21.72751770
_cell_angle_alpha   84.10978617
_cell_angle_beta   95.91661087
_cell_angle_gamma   90.00000428
_symmetry_Int_Tables_number   1
_chemical_formula_structural   Ac6AlSi11
_chemical_formula_sum   'Ac6 Al1 Si11'
_cell_volume   429.40535475
_cell_formula_units_Z   1
loop_
 _symmetry_equiv_pos_site_id
 _symmetry_equiv_pos_as_xyz
  1  'x, y, z'
loop_
 _atom_site_type_symbol
 _atom_site_label
 _atom_site_symmetry_multiplicity
 _atom_site_fract_x
 _atom_site_fract_y
 _atom_site_fract_z
 _atom_site_occupancy
  Ac  Ac0  1  0.376285  0.873715  0.252570  1
  Ac  Ac1  1  0.041469  0.208531  0.582938  1
  Ac  Ac2  1  0.705886  0.544114  0.911776  1
  Ac  Ac3  1  0.293261  0.456739  0.086520  1
  Ac  Ac4  1  0.958731  0.791269  0.417461  1
  Ac  Ac5  1  0.624209  0.125791  0.748418  1
  Al  Al6  1  0.763509  0.986491  0.027018  1
  Si  Si7  1  0.903912  0.346088  0.307822  1
  Si  Si8  1  0.569519  0.680481  0.639035  1
  Si  Si9  1  0.235253  0.014747  0.970508  1
  Si  Si10  1  0.430672  0.319328  0.361346  1
  Si  Si11  1  0.096526  0.653474  0.693050  1
  Si  Si12  1  0.848442  0.401558  0.196884  1
  Si  Si13  1  0.514038  0.735962  0.528076  1
  Si  Si14  1  0.179491  0.070509  0.858981  1
  Si  Si15  1  0.820933  0.929067  0.141869  1
  Si  Si16  1  0.486110  0.263890  0.472223  1
  Si  Si17  1  0.151754  0.598246  0.803506  1
