# generated using pymatgen
data_Ti3NbSi2(B2Ru5)2
_symmetry_space_group_name_H-M   'P 1'
_cell_length_a   9.22452713
_cell_length_b   9.22452713
_cell_length_c   2.94558600
_cell_angle_alpha   90.00000000
_cell_angle_beta   90.00000000
_cell_angle_gamma   89.79246984
_symmetry_Int_Tables_number   1
_chemical_formula_structural   Ti3NbSi2(B2Ru5)2
_chemical_formula_sum   'Ti3 Nb1 Si2 B4 Ru10'
_cell_volume   250.64386733
_cell_formula_units_Z   1
loop_
 _symmetry_equiv_pos_site_id
 _symmetry_equiv_pos_as_xyz
  1  'x, y, z'
loop_
 _atom_site_type_symbol
 _atom_site_label
 _atom_site_symmetry_multiplicity
 _atom_site_fract_x
 _atom_site_fract_y
 _atom_site_fract_z
 _atom_site_occupancy
  Ti  Ti0  1  0.826472  0.675176  0.000000  1
  Ti  Ti1  1  0.175176  0.326472  0.000000  1
  Ti  Ti2  1  0.323859  0.823859  0.000000  1
  Nb  Nb3  1  0.674733  0.174733  0.000000  1
  Si  Si4  1  0.499782  0.499730  0.000000  1
  Si  Si5  1  0.999730  0.999782  0.000000  1
  B  B6  1  0.624848  0.873394  0.000000  1
  B  B7  1  0.373394  0.124848  0.000000  1
  B  B8  1  0.125472  0.625472  0.000000  1
  B  B9  1  0.876314  0.376314  0.000000  1
  Ru  Ru10  1  0.570938  0.708599  0.500000  1
  Ru  Ru11  1  0.429523  0.290365  0.500000  1
  Ru  Ru12  1  0.069475  0.790597  0.500000  1
  Ru  Ru13  1  0.933473  0.210644  0.500000  1
  Ru  Ru14  1  0.290597  0.569475  0.500000  1
  Ru  Ru15  1  0.710644  0.433473  0.500000  1
  Ru  Ru16  1  0.208599  0.070938  0.500000  1
  Ru  Ru17  1  0.790365  0.929523  0.500000  1
  Ru  Ru18  1  0.495895  0.995895  0.500000  1
  Ru  Ru19  1  0.000712  0.500712  0.500000  1
