# generated using pymatgen
data_Li3Hf(TaPt3)2
_symmetry_space_group_name_H-M   'P 1'
_cell_length_a   4.05652300
_cell_length_b   7.50825900
_cell_length_c   12.13843000
_cell_angle_alpha   90.00000000
_cell_angle_beta   89.99999056
_cell_angle_gamma   90.00000000
_symmetry_Int_Tables_number   1
_chemical_formula_structural   Li3Hf(TaPt3)2
_chemical_formula_sum   'Li6 Hf2 Ta4 Pt12'
_cell_volume   369.70532527
_cell_formula_units_Z   2
loop_
 _symmetry_equiv_pos_site_id
 _symmetry_equiv_pos_as_xyz
  1  'x, y, z'
loop_
 _atom_site_type_symbol
 _atom_site_label
 _atom_site_symmetry_multiplicity
 _atom_site_fract_x
 _atom_site_fract_y
 _atom_site_fract_z
 _atom_site_occupancy
  Li  Li0  1  0.999999  0.000000  0.003362  1
  Li  Li1  1  0.500003  0.499999  0.168122  1
  Li  Li2  1  0.000002  0.000000  0.331849  1
  Li  Li3  1  0.499998  0.499999  0.496624  1
  Li  Li4  1  0.999998  0.000000  0.664437  1
  Li  Li5  1  0.500003  0.499999  0.835616  1
  Hf  Hf6  1  0.999997  0.499999  0.663729  1
  Hf  Hf7  1  0.500000  0.000000  0.836252  1
  Ta  Ta8  1  0.000001  0.499999  0.003052  1
  Ta  Ta9  1  0.500001  0.000000  0.166781  1
  Ta  Ta10  1  0.000001  0.499999  0.333220  1
  Ta  Ta11  1  0.500000  0.000000  0.496955  1
  Pt  Pt12  1  0.500000  0.255261  0.004116  1
  Pt  Pt13  1  0.500000  0.744739  0.004116  1
  Pt  Pt14  1  0.000002  0.248525  0.167945  1
  Pt  Pt15  1  0.000002  0.751475  0.167945  1
  Pt  Pt16  1  0.500001  0.251473  0.332065  1
  Pt  Pt17  1  0.500001  0.748527  0.332065  1
  Pt  Pt18  1  0.999999  0.244705  0.495883  1
  Pt  Pt19  1  0.999999  0.755295  0.495883  1
  Pt  Pt20  1  0.499998  0.244154  0.664121  1
  Pt  Pt21  1  0.499998  0.755846  0.664121  1
  Pt  Pt22  1  0.999999  0.255864  0.835870  1
  Pt  Pt23  1  0.999999  0.744136  0.835870  1
