# generated using pymatgen
data_Ca3Al12(OsPd)2
_symmetry_space_group_name_H-M   'P 1'
_cell_length_a   8.86622400
_cell_length_b   8.93290565
_cell_length_c   9.62998300
_cell_angle_alpha   90.00000000
_cell_angle_beta   90.00000000
_cell_angle_gamma   119.75337470
_symmetry_Int_Tables_number   1
_chemical_formula_structural   Ca3Al12(OsPd)2
_chemical_formula_sum   'Ca6 Al24 Os4 Pd4'
_cell_volume   662.15785319
_cell_formula_units_Z   2
loop_
 _symmetry_equiv_pos_site_id
 _symmetry_equiv_pos_as_xyz
  1  'x, y, z'
loop_
 _atom_site_type_symbol
 _atom_site_label
 _atom_site_symmetry_multiplicity
 _atom_site_fract_x
 _atom_site_fract_y
 _atom_site_fract_z
 _atom_site_occupancy
  Ca  Ca0  1  0.189358  0.378716  0.250000  1
  Ca  Ca1  1  0.810642  0.621284  0.750000  1
  Ca  Ca2  1  0.613243  0.810050  0.250000  1
  Ca  Ca3  1  0.386757  0.189950  0.750000  1
  Ca  Ca4  1  0.196806  0.810050  0.250000  1
  Ca  Ca5  1  0.803194  0.189950  0.750000  1
  Al  Al6  1  0.336312  0.672625  0.007824  1
  Al  Al7  1  0.663688  0.327375  0.992176  1
  Al  Al8  1  0.663688  0.327375  0.507824  1
  Al  Al9  1  0.336312  0.672625  0.492176  1
  Al  Al10  1  0.160208  0.320415  0.581178  1
  Al  Al11  1  0.839792  0.679585  0.418822  1
  Al  Al12  1  0.676410  0.843852  0.578163  1
  Al  Al13  1  0.839792  0.679585  0.081178  1
  Al  Al14  1  0.323590  0.156148  0.421837  1
  Al  Al15  1  0.160208  0.320415  0.918822  1
  Al  Al16  1  0.167443  0.843852  0.578163  1
  Al  Al17  1  0.323590  0.156148  0.078163  1
  Al  Al18  1  0.832557  0.156148  0.421837  1
  Al  Al19  1  0.676410  0.843852  0.921837  1
  Al  Al20  1  0.832557  0.156148  0.078163  1
  Al  Al21  1  0.167443  0.843852  0.921837  1
  Al  Al22  1  0.559949  0.119899  0.250000  1
  Al  Al23  1  0.440051  0.880101  0.750000  1
  Al  Al24  1  0.872984  0.434227  0.250000  1
  Al  Al25  1  0.127016  0.565773  0.750000  1
  Al  Al26  1  0.561243  0.434227  0.250000  1
  Al  Al27  1  0.438757  0.565773  0.750000  1
  Al  Al28  1  0.000367  0.000735  0.250000  1
  Al  Al29  1  0.999633  0.999265  0.750000  1
  Os  Os30  1  0.500000  0.000000  0.000000  1
  Os  Os31  1  0.500000  0.000000  0.500000  1
  Os  Os32  1  0.000000  0.000000  0.000000  1
  Os  Os33  1  0.000000  0.000000  0.500000  1
  Pd  Pd34  1  0.000000  0.500000  0.000000  1
  Pd  Pd35  1  0.500000  0.500000  0.000000  1
  Pd  Pd36  1  0.000000  0.500000  0.500000  1
  Pd  Pd37  1  0.500000  0.500000  0.500000  1
