# generated using pymatgen
data_Ce2NiIrRu2
_symmetry_space_group_name_H-M   'P 1'
_cell_length_a   5.13076013
_cell_length_b   5.20857804
_cell_length_c   5.20857777
_cell_angle_alpha   61.72335776
_cell_angle_beta   63.50348884
_cell_angle_gamma   63.50349737
_symmetry_Int_Tables_number   1
_chemical_formula_structural   Ce2NiIrRu2
_chemical_formula_sum   'Ce2 Ni1 Ir1 Ru2'
_cell_volume   104.72695246
_cell_formula_units_Z   1
loop_
 _symmetry_equiv_pos_site_id
 _symmetry_equiv_pos_as_xyz
  1  'x, y, z'
loop_
 _atom_site_type_symbol
 _atom_site_label
 _atom_site_symmetry_multiplicity
 _atom_site_fract_x
 _atom_site_fract_y
 _atom_site_fract_z
 _atom_site_occupancy
  Ce  Ce0  1  0.628032  0.625851  0.625851  1
  Ce  Ce1  1  0.371968  0.374149  0.374149  1
  Ni  Ni2  1  0.000000  0.000000  0.000000  1
  Ir  Ir3  1  0.500000  0.000000  0.000000  1
  Ru  Ru4  1  0.000000  0.500000  0.000000  1
  Ru  Ru5  1  0.000000  0.000000  0.500000  1
