# generated using pymatgen
data_Ca3CuBi2H
_symmetry_space_group_name_H-M   'P 1'
_cell_length_a   4.56558000
_cell_length_b   12.27336600
_cell_length_c   12.54423100
_cell_angle_alpha   90.00000000
_cell_angle_beta   90.00000000
_cell_angle_gamma   90.00000000
_symmetry_Int_Tables_number   1
_chemical_formula_structural   Ca3CuBi2H
_chemical_formula_sum   'Ca12 Cu4 Bi8 H4'
_cell_volume   702.91641488
_cell_formula_units_Z   4
loop_
 _symmetry_equiv_pos_site_id
 _symmetry_equiv_pos_as_xyz
  1  'x, y, z'
loop_
 _atom_site_type_symbol
 _atom_site_label
 _atom_site_symmetry_multiplicity
 _atom_site_fract_x
 _atom_site_fract_y
 _atom_site_fract_z
 _atom_site_occupancy
  Ca  Ca0  1  0.250000  0.062294  0.624640  1
  Ca  Ca1  1  0.250000  0.562294  0.875360  1
  Ca  Ca2  1  0.750000  0.937706  0.375360  1
  Ca  Ca3  1  0.750000  0.437706  0.124640  1
  Ca  Ca4  1  0.250000  0.371347  0.550528  1
  Ca  Ca5  1  0.250000  0.871347  0.949472  1
  Ca  Ca6  1  0.750000  0.628653  0.449472  1
  Ca  Ca7  1  0.750000  0.128653  0.050528  1
  Ca  Ca8  1  0.250000  0.221616  0.288297  1
  Ca  Ca9  1  0.250000  0.721616  0.211703  1
  Ca  Ca10  1  0.750000  0.778384  0.711703  1
  Ca  Ca11  1  0.750000  0.278384  0.788297  1
  Cu  Cu12  1  0.250000  0.142084  0.848911  1
  Cu  Cu13  1  0.250000  0.642084  0.651089  1
  Cu  Cu14  1  0.750000  0.857916  0.151089  1
  Cu  Cu15  1  0.750000  0.357916  0.348911  1
  Bi  Bi16  1  0.250000  0.486074  0.317807  1
  Bi  Bi17  1  0.250000  0.986074  0.182193  1
  Bi  Bi18  1  0.750000  0.513926  0.682193  1
  Bi  Bi19  1  0.750000  0.013926  0.817807  1
  Bi  Bi20  1  0.250000  0.312945  0.991283  1
  Bi  Bi21  1  0.250000  0.812945  0.508717  1
  Bi  Bi22  1  0.750000  0.687055  0.008717  1
  Bi  Bi23  1  0.750000  0.187055  0.491283  1
  H  H24  1  0.250000  0.223485  0.733392  1
  H  H25  1  0.250000  0.723485  0.766608  1
  H  H26  1  0.750000  0.776515  0.266608  1
  H  H27  1  0.750000  0.276515  0.233392  1
