# generated using pymatgen
data_Er2HfRhF14
_symmetry_space_group_name_H-M   'P 1'
_cell_length_a   5.61292600
_cell_length_b   8.91517389
_cell_length_c   11.93986600
_cell_angle_alpha   62.92903603
_cell_angle_beta   90.00000000
_cell_angle_gamma   90.00000000
_symmetry_Int_Tables_number   1
_chemical_formula_structural   Er2HfRhF14
_chemical_formula_sum   'Er4 Hf2 Rh2 F28'
_cell_volume   532.01635090
_cell_formula_units_Z   2
loop_
 _symmetry_equiv_pos_site_id
 _symmetry_equiv_pos_as_xyz
  1  'x, y, z'
loop_
 _atom_site_type_symbol
 _atom_site_label
 _atom_site_symmetry_multiplicity
 _atom_site_fract_x
 _atom_site_fract_y
 _atom_site_fract_z
 _atom_site_occupancy
  Er  Er0  1  0.758932  0.811859  0.773313  1
  Er  Er1  1  0.258932  0.188141  0.726687  1
  Er  Er2  1  0.240547  0.185113  0.237631  1
  Er  Er3  1  0.740547  0.814887  0.262369  1
  Hf  Hf4  1  0.755085  0.272297  0.956176  1
  Hf  Hf5  1  0.255085  0.727703  0.543824  1
  Rh  Rh6  1  0.243415  0.725034  0.047885  1
  Rh  Rh7  1  0.743415  0.274966  0.452115  1
  F  F8  1  0.441788  0.704662  0.921585  1
  F  F9  1  0.941788  0.295338  0.578415  1
  F  F10  1  0.529060  0.288879  0.079092  1
  F  F11  1  0.029060  0.711121  0.420908  1
  F  F12  1  0.449046  0.280734  0.542338  1
  F  F13  1  0.949046  0.719266  0.957662  1
  F  F14  1  0.544686  0.717453  0.447992  1
  F  F15  1  0.044686  0.282547  0.052008  1
  F  F16  1  0.765379  0.524105  0.859664  1
  F  F17  1  0.265379  0.475895  0.640336  1
  F  F18  1  0.232795  0.482685  0.144499  1
  F  F19  1  0.732795  0.517315  0.355501  1
  F  F20  1  0.761815  0.021654  0.056561  1
  F  F21  1  0.261815  0.978346  0.443439  1
  F  F22  1  0.249342  0.966683  0.953100  1
  F  F23  1  0.749342  0.033317  0.546900  1
  F  F24  1  0.983997  0.736141  0.650598  1
  F  F25  1  0.483997  0.263859  0.849402  1
  F  F26  1  0.028697  0.274313  0.356722  1
  F  F27  1  0.528697  0.725687  0.143278  1
  F  F28  1  0.050816  0.743669  0.177365  1
  F  F29  1  0.550816  0.256331  0.322635  1
  F  F30  1  0.972626  0.249579  0.829616  1
  F  F31  1  0.472626  0.750421  0.670384  1
  F  F32  1  0.424269  0.973420  0.233719  1
  F  F33  1  0.924269  0.026580  0.266281  1
  F  F34  1  0.567704  0.024480  0.765493  1
  F  F35  1  0.067704  0.975520  0.734507  1
