# generated using pymatgen
data_Tm3Ga3Ge2Os
_symmetry_space_group_name_H-M   'P 1'
_cell_length_a   6.91436500
_cell_length_b   6.91436547
_cell_length_c   4.23365500
_cell_angle_alpha   90.00000000
_cell_angle_beta   90.00000000
_cell_angle_gamma   120.00000252
_symmetry_Int_Tables_number   1
_chemical_formula_structural   Tm3Ga3Ge2Os
_chemical_formula_sum   'Tm3 Ga3 Ge2 Os1'
_cell_volume   175.28740766
_cell_formula_units_Z   1
loop_
 _symmetry_equiv_pos_site_id
 _symmetry_equiv_pos_as_xyz
  1  'x, y, z'
loop_
 _atom_site_type_symbol
 _atom_site_label
 _atom_site_symmetry_multiplicity
 _atom_site_fract_x
 _atom_site_fract_y
 _atom_site_fract_z
 _atom_site_occupancy
  Tm  Tm0  1  0.414431  0.000000  0.000000  1
  Tm  Tm1  1  0.000000  0.414432  0.000000  1
  Tm  Tm2  1  0.585569  0.585569  0.000000  1
  Ga  Ga3  1  0.770127  0.000000  0.500001  1
  Ga  Ga4  1  0.229873  0.229873  0.500001  1
  Ga  Ga5  1  0.000000  0.770127  0.500001  1
  Ge  Ge6  1  0.666667  0.333334  0.500001  1
  Ge  Ge7  1  0.333333  0.666666  0.500001  1
  Os  Os8  1  0.000000  0.000000  0.000000  1
