# generated using pymatgen
data_Ba2Sr2Ta2O9
_symmetry_space_group_name_H-M   'P 1'
_cell_length_a   6.07041100
_cell_length_b   6.07041150
_cell_length_c   15.73293100
_cell_angle_alpha   90.00000000
_cell_angle_beta   90.00000000
_cell_angle_gamma   119.99999184
_symmetry_Int_Tables_number   1
_chemical_formula_structural   Ba2Sr2Ta2O9
_chemical_formula_sum   'Ba4 Sr4 Ta4 O18'
_cell_volume   502.08417508
_cell_formula_units_Z   2
loop_
 _symmetry_equiv_pos_site_id
 _symmetry_equiv_pos_as_xyz
  1  'x, y, z'
loop_
 _atom_site_type_symbol
 _atom_site_label
 _atom_site_symmetry_multiplicity
 _atom_site_fract_x
 _atom_site_fract_y
 _atom_site_fract_z
 _atom_site_occupancy
  Ba  Ba0  1  0.000000  0.000000  0.755502  1
  Ba  Ba1  1  0.000000  0.000000  0.255502  1
  Ba  Ba2  1  0.333333  0.666667  0.389064  1
  Ba  Ba3  1  0.666667  0.333333  0.889064  1
  Sr  Sr4  1  0.666667  0.333333  0.641698  1
  Sr  Sr5  1  0.333333  0.666667  0.141698  1
  Sr  Sr6  1  0.000000  0.000000  0.503609  1
  Sr  Sr7  1  0.000000  0.000000  0.003609  1
  Ta  Ta8  1  0.666667  0.333333  0.342325  1
  Ta  Ta9  1  0.333333  0.666667  0.842325  1
  Ta  Ta10  1  0.333333  0.666667  0.650735  1
  Ta  Ta11  1  0.666667  0.333333  0.150735  1
  O  O12  1  0.528510  0.956862  0.746984  1
  O  O13  1  0.043138  0.571648  0.746984  1
  O  O14  1  0.428352  0.471490  0.746984  1
  O  O15  1  0.471490  0.043138  0.246984  1
  O  O16  1  0.956862  0.428352  0.246984  1
  O  O17  1  0.571648  0.528510  0.246984  1
  O  O18  1  0.081477  0.365004  0.594765  1
  O  O19  1  0.634996  0.716473  0.594765  1
  O  O20  1  0.283527  0.918523  0.594765  1
  O  O21  1  0.918523  0.634996  0.094765  1
  O  O22  1  0.365004  0.283527  0.094765  1
  O  O23  1  0.716473  0.081477  0.094765  1
  O  O24  1  0.882763  0.650969  0.397273  1
  O  O25  1  0.349031  0.231793  0.397273  1
  O  O26  1  0.768207  0.117237  0.397273  1
  O  O27  1  0.117237  0.349031  0.897273  1
  O  O28  1  0.650969  0.768207  0.897273  1
  O  O29  1  0.231793  0.882763  0.897273  1
