# generated using pymatgen
data_Dy10Sn5Sb3
_symmetry_space_group_name_H-M   'P 1'
_cell_length_a   8.11140000
_cell_length_b   8.14904409
_cell_length_c   15.38723682
_cell_angle_alpha   90.29078381
_cell_angle_beta   90.00000000
_cell_angle_gamma   90.00000000
_symmetry_Int_Tables_number   1
_chemical_formula_structural   Dy10Sn5Sb3
_chemical_formula_sum   'Dy20 Sn10 Sb6'
_cell_volume   1017.08565904
_cell_formula_units_Z   2
loop_
 _symmetry_equiv_pos_site_id
 _symmetry_equiv_pos_as_xyz
  1  'x, y, z'
loop_
 _atom_site_type_symbol
 _atom_site_label
 _atom_site_symmetry_multiplicity
 _atom_site_fract_x
 _atom_site_fract_y
 _atom_site_fract_z
 _atom_site_occupancy
  Dy  Dy0  1  0.377250  0.839795  0.879125  1
  Dy  Dy1  1  0.877250  0.660205  0.620875  1
  Dy  Dy2  1  0.623147  0.159961  0.378351  1
  Dy  Dy3  1  0.123147  0.340039  0.121649  1
  Dy  Dy4  1  0.622806  0.161301  0.120734  1
  Dy  Dy5  1  0.122806  0.338699  0.379266  1
  Dy  Dy6  1  0.375814  0.839908  0.621908  1
  Dy  Dy7  1  0.875814  0.660092  0.878092  1
  Dy  Dy8  1  0.542537  0.330016  0.895320  1
  Dy  Dy9  1  0.042537  0.169984  0.604680  1
  Dy  Dy10  1  0.459488  0.676216  0.395667  1
  Dy  Dy11  1  0.959488  0.823784  0.104333  1
  Dy  Dy12  1  0.464455  0.669963  0.103712  1
  Dy  Dy13  1  0.964455  0.830037  0.396288  1
  Dy  Dy14  1  0.534739  0.320396  0.602679  1
  Dy  Dy15  1  0.034739  0.179604  0.897321  1
  Dy  Dy16  1  0.205661  0.500144  0.749747  1
  Dy  Dy17  1  0.705661  0.999856  0.750253  1
  Dy  Dy18  1  0.794470  0.499583  0.248781  1
  Dy  Dy19  1  0.294470  0.000417  0.251219  1
  Sn  Sn20  1  0.281579  0.031073  0.457055  1
  Sn  Sn21  1  0.781579  0.468927  0.042945  1
  Sn  Sn22  1  0.571437  0.623331  0.748989  1
  Sn  Sn23  1  0.071437  0.876669  0.751011  1
  Sn  Sn24  1  0.427798  0.376264  0.250318  1
  Sn  Sn25  1  0.927798  0.123736  0.249682  1
  Sn  Sn26  1  0.342375  0.146560  0.751647  1
  Sn  Sn27  1  0.842375  0.353440  0.748353  1
  Sn  Sn28  1  0.657853  0.853806  0.249770  1
  Sn  Sn29  1  0.157853  0.646194  0.250230  1
  Sb  Sb30  1  0.274710  0.025896  0.045075  1
  Sb  Sb31  1  0.774710  0.474104  0.454925  1
  Sb  Sb32  1  0.721901  0.971723  0.544744  1
  Sb  Sb33  1  0.221901  0.528277  0.955256  1
  Sb  Sb34  1  0.721981  0.972566  0.954817  1
  Sb  Sb35  1  0.221981  0.527434  0.545183  1
