# generated using pymatgen
data_Ho8Tm2IrRu3
_symmetry_space_group_name_H-M   'P 1'
_cell_length_a   6.31163184
_cell_length_b   7.28288537
_cell_length_c   8.40780496
_cell_angle_alpha   96.79749139
_cell_angle_beta   111.92644337
_cell_angle_gamma   90.11659065
_symmetry_Int_Tables_number   1
_chemical_formula_structural   Ho8Tm2IrRu3
_chemical_formula_sum   'Ho8 Tm2 Ir1 Ru3'
_cell_volume   355.55533430
_cell_formula_units_Z   1
loop_
 _symmetry_equiv_pos_site_id
 _symmetry_equiv_pos_as_xyz
  1  'x, y, z'
loop_
 _atom_site_type_symbol
 _atom_site_label
 _atom_site_symmetry_multiplicity
 _atom_site_fract_x
 _atom_site_fract_y
 _atom_site_fract_z
 _atom_site_occupancy
  Ho  Ho0  1  0.792407  0.082046  0.815390  1
  Ho  Ho1  1  0.977821  0.415059  0.186472  1
  Ho  Ho2  1  0.208374  0.915600  0.185424  1
  Ho  Ho3  1  0.025073  0.585378  0.815454  1
  Ho  Ho4  1  0.205336  0.183872  0.565039  1
  Ho  Ho5  1  0.642103  0.316110  0.433936  1
  Ho  Ho6  1  0.793109  0.815054  0.434137  1
  Ho  Ho7  1  0.356761  0.685628  0.564169  1
  Tm  Tm8  1  0.420600  0.249773  0.000257  1
  Tm  Tm9  1  0.579671  0.751216  0.000731  1
  Ir  Ir10  1  0.601174  0.423466  0.779992  1
  Ru  Ru11  1  0.822816  0.076625  0.218834  1
  Ru  Ru12  1  0.395789  0.575854  0.219538  1
  Ru  Ru13  1  0.178967  0.924322  0.780628  1
