# generated using pymatgen
data_Li3SmY2Si2Bi
_symmetry_space_group_name_H-M   'P 1'
_cell_length_a   7.22225256
_cell_length_b   7.15261176
_cell_length_c   4.34711800
_cell_angle_alpha   90.00000000
_cell_angle_beta   90.00000000
_cell_angle_gamma   119.68152661
_symmetry_Int_Tables_number   1
_chemical_formula_structural   Li3SmY2Si2Bi
_chemical_formula_sum   'Li3 Sm1 Y2 Si2 Bi1'
_cell_volume   195.09860968
_cell_formula_units_Z   1
loop_
 _symmetry_equiv_pos_site_id
 _symmetry_equiv_pos_as_xyz
  1  'x, y, z'
loop_
 _atom_site_type_symbol
 _atom_site_label
 _atom_site_symmetry_multiplicity
 _atom_site_fract_x
 _atom_site_fract_y
 _atom_site_fract_z
 _atom_site_occupancy
  Li  Li0  1  0.246930  0.000766  0.500000  1
  Li  Li1  1  0.753070  0.753836  0.500000  1
  Li  Li2  1  0.000000  0.245407  0.500000  1
  Sm  Sm3  1  0.000000  0.547979  0.000000  1
  Y  Y4  1  0.549745  0.999579  0.000000  1
  Y  Y5  1  0.450255  0.449834  0.000000  1
  Si  Si6  1  0.338793  0.668947  0.500000  1
  Si  Si7  1  0.661207  0.330153  0.500000  1
  Bi  Bi8  1  0.000000  0.003499  0.000000  1
