# generated using pymatgen
data_Pr16Hg4Ru3Rh
_symmetry_space_group_name_H-M   'P 1'
_cell_length_a   9.98085789
_cell_length_b   9.98085831
_cell_length_c   9.98085898
_cell_angle_alpha   60.04149905
_cell_angle_beta   60.04149487
_cell_angle_gamma   60.04149956
_symmetry_Int_Tables_number   1
_chemical_formula_structural   Pr16Hg4Ru3Rh
_chemical_formula_sum   'Pr16 Hg4 Ru3 Rh1'
_cell_volume   703.71530216
_cell_formula_units_Z   1
loop_
 _symmetry_equiv_pos_site_id
 _symmetry_equiv_pos_as_xyz
  1  'x, y, z'
loop_
 _atom_site_type_symbol
 _atom_site_label
 _atom_site_symmetry_multiplicity
 _atom_site_fract_x
 _atom_site_fract_y
 _atom_site_fract_z
 _atom_site_occupancy
  Pr  Pr0  1  0.346724  0.346724  0.346724  1
  Pr  Pr1  1  0.347941  0.347941  0.955303  1
  Pr  Pr2  1  0.347941  0.955303  0.347941  1
  Pr  Pr3  1  0.955303  0.347941  0.347941  1
  Pr  Pr4  1  0.805803  0.191788  0.191788  1
  Pr  Pr5  1  0.191138  0.809559  0.809559  1
  Pr  Pr6  1  0.191788  0.805803  0.191788  1
  Pr  Pr7  1  0.809559  0.191138  0.809559  1
  Pr  Pr8  1  0.191788  0.191788  0.805803  1
  Pr  Pr9  1  0.809559  0.809559  0.191138  1
  Pr  Pr10  1  0.939802  0.561598  0.561598  1
  Pr  Pr11  1  0.562882  0.939471  0.939471  1
  Pr  Pr12  1  0.561598  0.939802  0.561598  1
  Pr  Pr13  1  0.939471  0.562882  0.939471  1
  Pr  Pr14  1  0.561598  0.561598  0.939802  1
  Pr  Pr15  1  0.939471  0.939471  0.562882  1
  Hg  Hg16  1  0.582821  0.582821  0.582821  1
  Hg  Hg17  1  0.583291  0.583291  0.250557  1
  Hg  Hg18  1  0.583291  0.250557  0.583291  1
  Hg  Hg19  1  0.250557  0.583291  0.583291  1
  Ru  Ru20  1  0.137380  0.137380  0.583463  1
  Ru  Ru21  1  0.137380  0.583463  0.137380  1
  Ru  Ru22  1  0.583463  0.137380  0.137380  1
  Rh  Rh23  1  0.139449  0.139449  0.139449  1
