# generated using pymatgen
data_Sm3Zr(P3Rh4)2
_symmetry_space_group_name_H-M   'P 1'
_cell_length_a   3.97370900
_cell_length_b   11.30229200
_cell_length_c   13.03300000
_cell_angle_alpha   90.00000000
_cell_angle_beta   90.00000000
_cell_angle_gamma   90.00000000
_symmetry_Int_Tables_number   1
_chemical_formula_structural   Sm3Zr(P3Rh4)2
_chemical_formula_sum   'Sm6 Zr2 P12 Rh16'
_cell_volume   585.33834937
_cell_formula_units_Z   2
loop_
 _symmetry_equiv_pos_site_id
 _symmetry_equiv_pos_as_xyz
  1  'x, y, z'
loop_
 _atom_site_type_symbol
 _atom_site_label
 _atom_site_symmetry_multiplicity
 _atom_site_fract_x
 _atom_site_fract_y
 _atom_site_fract_z
 _atom_site_occupancy
  Sm  Sm0  1  0.000000  0.500000  0.523596  1
  Sm  Sm1  1  0.500000  0.000000  0.476404  1
  Sm  Sm2  1  0.500000  0.820166  0.202199  1
  Sm  Sm3  1  0.500000  0.179834  0.202199  1
  Sm  Sm4  1  0.000000  0.679834  0.797801  1
  Sm  Sm5  1  0.000000  0.320166  0.797801  1
  Zr  Zr6  1  0.500000  0.500000  0.158467  1
  Zr  Zr7  1  0.000000  0.000000  0.841533  1
  P  P8  1  0.500000  0.500000  0.880440  1
  P  P9  1  0.000000  0.000000  0.119560  1
  P  P10  1  0.500000  0.500000  0.358108  1
  P  P11  1  0.000000  0.000000  0.641892  1
  P  P12  1  0.500000  0.311588  0.615675  1
  P  P13  1  0.500000  0.688412  0.615675  1
  P  P14  1  0.000000  0.188412  0.384325  1
  P  P15  1  0.000000  0.811588  0.384325  1
  P  P16  1  0.500000  0.842531  0.888879  1
  P  P17  1  0.500000  0.157469  0.888879  1
  P  P18  1  0.000000  0.657469  0.111121  1
  P  P19  1  0.000000  0.342531  0.111121  1
  Rh  Rh20  1  0.500000  0.500000  0.701090  1
  Rh  Rh21  1  0.000000  0.000000  0.298910  1
  Rh  Rh22  1  0.000000  0.500000  0.985984  1
  Rh  Rh23  1  0.500000  0.000000  0.014016  1
  Rh  Rh24  1  0.500000  0.331514  0.989918  1
  Rh  Rh25  1  0.500000  0.668486  0.989918  1
  Rh  Rh26  1  0.000000  0.168486  0.010082  1
  Rh  Rh27  1  0.000000  0.831514  0.010082  1
  Rh  Rh28  1  0.500000  0.291634  0.432349  1
  Rh  Rh29  1  0.500000  0.708366  0.432349  1
  Rh  Rh30  1  0.000000  0.208366  0.567651  1
  Rh  Rh31  1  0.000000  0.791634  0.567651  1
  Rh  Rh32  1  0.500000  0.873909  0.705143  1
  Rh  Rh33  1  0.500000  0.126091  0.705143  1
  Rh  Rh34  1  0.000000  0.626091  0.294857  1
  Rh  Rh35  1  0.000000  0.373909  0.294857  1
