# generated using pymatgen
data_Tm2Ga2CoPd
_symmetry_space_group_name_H-M   'P 1'
_cell_length_a   4.31537200
_cell_length_b   6.74738300
_cell_length_c   7.52481900
_cell_angle_alpha   90.00000000
_cell_angle_beta   90.00000000
_cell_angle_gamma   90.00000000
_symmetry_Int_Tables_number   1
_chemical_formula_structural   Tm2Ga2CoPd
_chemical_formula_sum   'Tm4 Ga4 Co2 Pd2'
_cell_volume   219.10367397
_cell_formula_units_Z   2
loop_
 _symmetry_equiv_pos_site_id
 _symmetry_equiv_pos_as_xyz
  1  'x, y, z'
loop_
 _atom_site_type_symbol
 _atom_site_label
 _atom_site_symmetry_multiplicity
 _atom_site_fract_x
 _atom_site_fract_y
 _atom_site_fract_z
 _atom_site_occupancy
  Tm  Tm0  1  0.250000  0.974803  0.313413  1
  Tm  Tm1  1  0.250000  0.474803  0.186587  1
  Tm  Tm2  1  0.750000  0.014635  0.697540  1
  Tm  Tm3  1  0.750000  0.514635  0.802460  1
  Ga  Ga4  1  0.250000  0.335852  0.585446  1
  Ga  Ga5  1  0.250000  0.835852  0.914554  1
  Ga  Ga6  1  0.750000  0.675529  0.438367  1
  Ga  Ga7  1  0.750000  0.175529  0.061633  1
  Co  Co8  1  0.250000  0.220930  0.897769  1
  Co  Co9  1  0.250000  0.720930  0.602231  1
  Pd  Pd10  1  0.750000  0.778252  0.102638  1
  Pd  Pd11  1  0.750000  0.278252  0.397362  1
