# generated using pymatgen
data_Nd2Cr3Co9P7
_symmetry_space_group_name_H-M   'P 1'
_cell_length_a   9.03582800
_cell_length_b   9.03582922
_cell_length_c   3.67732100
_cell_angle_alpha   90.00000000
_cell_angle_beta   90.00000000
_cell_angle_gamma   119.99999554
_symmetry_Int_Tables_number   1
_chemical_formula_structural   Nd2Cr3Co9P7
_chemical_formula_sum   'Nd2 Cr3 Co9 P7'
_cell_volume   260.01485618
_cell_formula_units_Z   1
loop_
 _symmetry_equiv_pos_site_id
 _symmetry_equiv_pos_as_xyz
  1  'x, y, z'
loop_
 _atom_site_type_symbol
 _atom_site_label
 _atom_site_symmetry_multiplicity
 _atom_site_fract_x
 _atom_site_fract_y
 _atom_site_fract_z
 _atom_site_occupancy
  Nd  Nd0  1  0.666667  0.333333  0.000000  1
  Nd  Nd1  1  0.333333  0.666667  0.500000  1
  Cr  Cr2  1  0.095539  0.881055  0.500000  1
  Cr  Cr3  1  0.785516  0.904461  0.500000  1
  Cr  Cr4  1  0.118945  0.214484  0.500000  1
  Co  Co5  1  0.058977  0.629480  0.000000  1
  Co  Co6  1  0.570502  0.941023  0.000000  1
  Co  Co7  1  0.370520  0.429498  0.000000  1
  Co  Co8  1  0.273783  0.120034  0.000000  1
  Co  Co9  1  0.846250  0.726217  0.000000  1
  Co  Co10  1  0.879966  0.153750  0.000000  1
  Co  Co11  1  0.430525  0.048090  0.500000  1
  Co  Co12  1  0.617565  0.569475  0.500000  1
  Co  Co13  1  0.951910  0.382435  0.500000  1
  P  P14  1  0.296119  0.891887  0.000000  1
  P  P15  1  0.595768  0.703881  0.000000  1
  P  P16  1  0.108113  0.404232  0.000000  1
  P  P17  1  0.397883  0.290957  0.500000  1
  P  P18  1  0.893074  0.602117  0.500000  1
  P  P19  1  0.709043  0.106926  0.500000  1
  P  P20  1  0.000000  0.000000  0.000000  1
