# generated using pymatgen
data_Ce4Pr15PuRh16
_symmetry_space_group_name_H-M   'P 1'
_cell_length_a   7.62353437
_cell_length_b   7.67851958
_cell_length_c   14.96899500
_cell_angle_alpha   90.31956929
_cell_angle_beta   90.23176058
_cell_angle_gamma   89.59022445
_symmetry_Int_Tables_number   1
_chemical_formula_structural   Ce4Pr15PuRh16
_chemical_formula_sum   'Ce4 Pr15 Pu1 Rh16'
_cell_volume   876.20384774
_cell_formula_units_Z   1
loop_
 _symmetry_equiv_pos_site_id
 _symmetry_equiv_pos_as_xyz
  1  'x, y, z'
loop_
 _atom_site_type_symbol
 _atom_site_label
 _atom_site_symmetry_multiplicity
 _atom_site_fract_x
 _atom_site_fract_y
 _atom_site_fract_z
 _atom_site_occupancy
  Ce  Ce0  1  0.665259  0.338550  0.119641  1
  Ce  Ce1  1  0.165773  0.160429  0.119588  1
  Ce  Ce2  1  0.663793  0.339191  0.376433  1
  Ce  Ce3  1  0.316105  0.514763  0.247845  1
  Pr  Pr4  1  0.010615  0.679486  0.090685  1
  Pr  Pr5  1  0.833622  0.834678  0.621198  1
  Pr  Pr6  1  0.984104  0.315859  0.595272  1
  Pr  Pr7  1  0.176673  0.010315  0.751958  1
  Pr  Pr8  1  0.512663  0.817170  0.406430  1
  Pr  Pr9  1  0.483222  0.180299  0.593406  1
  Pr  Pr10  1  0.165154  0.164570  0.376390  1
  Pr  Pr11  1  0.336547  0.662146  0.882216  1
  Pr  Pr12  1  0.673578  0.487841  0.751626  1
  Pr  Pr13  1  0.333474  0.664404  0.621507  1
  Pr  Pr14  1  0.013512  0.680890  0.406830  1
  Pr  Pr15  1  0.492464  0.175224  0.907193  1
  Pr  Pr16  1  0.823615  0.983888  0.248398  1
  Pr  Pr17  1  0.511099  0.818143  0.091873  1
  Pr  Pr18  1  0.987041  0.319815  0.906854  1
  Pu  Pu19  1  0.838922  0.838238  0.880426  1
  Rh  Rh20  1  0.033927  0.616893  0.757831  1
  Rh  Rh21  1  0.807197  0.055695  0.455156  1
  Rh  Rh22  1  0.463389  0.134153  0.242373  1
  Rh  Rh23  1  0.172034  0.975651  0.967714  1
  Rh  Rh24  1  0.682719  0.619342  0.248797  1
  Rh  Rh25  1  0.295093  0.362863  0.750825  1
  Rh  Rh26  1  0.966906  0.381956  0.241350  1
  Rh  Rh27  1  0.684901  0.525654  0.529716  1
  Rh  Rh28  1  0.330684  0.451607  0.050451  1
  Rh  Rh29  1  0.334703  0.469696  0.449285  1
  Rh  Rh30  1  0.545603  0.882216  0.757456  1
  Rh  Rh31  1  0.687172  0.537127  0.968102  1
  Rh  Rh32  1  0.817854  0.045545  0.042092  1
  Rh  Rh33  1  0.801311  0.135484  0.756372  1
  Rh  Rh34  1  0.168505  0.968395  0.540949  1
  Rh  Rh35  1  0.220768  0.851818  0.245766  1
