# generated using pymatgen
data_TaTi4NbCo16Si7
_symmetry_space_group_name_H-M   'P 1'
_cell_length_a   7.87696458
_cell_length_b   7.87728504
_cell_length_c   7.87580310
_cell_angle_alpha   60.00844541
_cell_angle_beta   60.01059032
_cell_angle_gamma   59.99245983
_symmetry_Int_Tables_number   1
_chemical_formula_structural   TaTi4NbCo16Si7
_chemical_formula_sum   'Ta1 Ti4 Nb1 Co16 Si7'
_cell_volume   345.58350702
_cell_formula_units_Z   1
loop_
 _symmetry_equiv_pos_site_id
 _symmetry_equiv_pos_as_xyz
  1  'x, y, z'
loop_
 _atom_site_type_symbol
 _atom_site_label
 _atom_site_symmetry_multiplicity
 _atom_site_fract_x
 _atom_site_fract_y
 _atom_site_fract_z
 _atom_site_occupancy
  Ta  Ta0  1  0.798641  0.799515  0.201380  1
  Ti  Ti1  1  0.798396  0.202472  0.201636  1
  Ti  Ti2  1  0.201726  0.203080  0.798280  1
  Ti  Ti3  1  0.797705  0.203079  0.798174  1
  Ti  Ti4  1  0.201820  0.798956  0.202305  1
  Nb  Nb5  1  0.200037  0.800534  0.799967  1
  Co  Co6  1  0.619401  0.619236  0.142738  1
  Co  Co7  1  0.166064  0.499802  0.167730  1
  Co  Co8  1  0.857139  0.381390  0.380668  1
  Co  Co9  1  0.500416  0.832888  0.833931  1
  Co  Co10  1  0.500805  0.165732  0.166137  1
  Co  Co11  1  0.833811  0.832681  0.499238  1
  Co  Co12  1  0.166036  0.167248  0.499571  1
  Co  Co13  1  0.142912  0.618855  0.618783  1
  Co  Co14  1  0.167036  0.165920  0.166973  1
  Co  Co15  1  0.381258  0.380548  0.857037  1
  Co  Co16  1  0.619455  0.618665  0.618021  1
  Co  Co17  1  0.381965  0.856186  0.380532  1
  Co  Co18  1  0.380903  0.380530  0.380541  1
  Co  Co19  1  0.832242  0.833638  0.833908  1
  Co  Co20  1  0.619464  0.142009  0.619107  1
  Co  Co21  1  0.832994  0.499988  0.832920  1
  Si  Si22  1  0.499965  0.002992  0.500158  1
  Si  Si23  1  0.501320  0.498100  0.001698  1
  Si  Si24  1  0.499859  0.498960  0.500221  1
  Si  Si25  1  0.998282  0.001104  0.498659  1
  Si  Si26  1  0.000139  0.496457  0.999931  1
  Si  Si27  1  0.001719  0.498118  0.501496  1
  Si  Si28  1  0.498487  0.001315  0.998261  1
