# generated using pymatgen
data_LaHo(Si2Rh3)2
_symmetry_space_group_name_H-M   'P 1'
_cell_length_a   5.60639206
_cell_length_b   6.68008413
_cell_length_c   6.68008385
_cell_angle_alpha   65.43416306
_cell_angle_beta   65.18847137
_cell_angle_gamma   65.18846744
_symmetry_Int_Tables_number   1
_chemical_formula_structural   LaHo(Si2Rh3)2
_chemical_formula_sum   'La1 Ho1 Si4 Rh6'
_cell_volume   197.21060368
_cell_formula_units_Z   1
loop_
 _symmetry_equiv_pos_site_id
 _symmetry_equiv_pos_as_xyz
  1  'x, y, z'
loop_
 _atom_site_type_symbol
 _atom_site_label
 _atom_site_symmetry_multiplicity
 _atom_site_fract_x
 _atom_site_fract_y
 _atom_site_fract_z
 _atom_site_occupancy
  La  La0  1  0.463863  0.250000  0.250000  1
  Ho  Ho1  1  0.549035  0.750000  0.750000  1
  Si  Si2  1  0.225167  0.579868  0.579868  1
  Si  Si3  1  0.774026  0.422698  0.422698  1
  Si  Si4  1  0.119422  0.077302  0.077302  1
  Si  Si5  1  0.884904  0.920132  0.920132  1
  Rh  Rh6  1  0.498977  0.211608  0.781517  1
  Rh  Rh7  1  0.992102  0.718483  0.288392  1
  Rh  Rh8  1  0.498977  0.781517  0.211608  1
  Rh  Rh9  1  0.992102  0.288392  0.718483  1
  Rh  Rh10  1  0.000713  0.502870  0.997130  1
  Rh  Rh11  1  0.000713  0.997130  0.502870  1
