# generated using pymatgen
data_Pa4VMo3C8
_symmetry_space_group_name_H-M   'P 1'
_cell_length_a   3.33057700
_cell_length_b   5.72212603
_cell_length_c   10.97870868
_cell_angle_alpha   90.15206387
_cell_angle_beta   90.00000000
_cell_angle_gamma   90.00000000
_symmetry_Int_Tables_number   1
_chemical_formula_structural   Pa4VMo3C8
_chemical_formula_sum   'Pa4 V1 Mo3 C8'
_cell_volume   209.23128838
_cell_formula_units_Z   1
loop_
 _symmetry_equiv_pos_site_id
 _symmetry_equiv_pos_as_xyz
  1  'x, y, z'
loop_
 _atom_site_type_symbol
 _atom_site_label
 _atom_site_symmetry_multiplicity
 _atom_site_fract_x
 _atom_site_fract_y
 _atom_site_fract_z
 _atom_site_occupancy
  Pa  Pa0  1  0.250000  0.582394  0.859647  1
  Pa  Pa1  1  0.750000  0.419957  0.141868  1
  Pa  Pa2  1  0.750000  0.918095  0.355575  1
  Pa  Pa3  1  0.250000  0.081131  0.641627  1
  V  V4  1  0.250000  0.918034  0.100842  1
  Mo  Mo5  1  0.750000  0.081093  0.901042  1
  Mo  Mo6  1  0.750000  0.580420  0.600244  1
  Mo  Mo7  1  0.250000  0.417812  0.398255  1
  C  C8  1  0.250000  0.666549  0.243407  1
  C  C9  1  0.750000  0.338297  0.754516  1
  C  C10  1  0.750000  0.836044  0.747895  1
  C  C11  1  0.250000  0.160045  0.249343  1
  C  C12  1  0.250000  0.742642  0.508204  1
  C  C13  1  0.750000  0.256001  0.490080  1
  C  C14  1  0.750000  0.767404  0.015325  1
  C  C15  1  0.250000  0.234081  0.992128  1
