# generated using pymatgen
data_Ac2Al4Ga3Cu
_symmetry_space_group_name_H-M   'P 1'
_cell_length_a   4.37980000
_cell_length_b   4.37980000
_cell_length_c   11.10388200
_cell_angle_alpha   90.00000000
_cell_angle_beta   90.00000000
_cell_angle_gamma   90.00000000
_symmetry_Int_Tables_number   1
_chemical_formula_structural   Ac2Al4Ga3Cu
_chemical_formula_sum   'Ac2 Al4 Ga3 Cu1'
_cell_volume   213.00186028
_cell_formula_units_Z   1
loop_
 _symmetry_equiv_pos_site_id
 _symmetry_equiv_pos_as_xyz
  1  'x, y, z'
loop_
 _atom_site_type_symbol
 _atom_site_label
 _atom_site_symmetry_multiplicity
 _atom_site_fract_x
 _atom_site_fract_y
 _atom_site_fract_z
 _atom_site_occupancy
  Ac  Ac0  1  0.000000  0.000000  0.000967  1
  Ac  Ac1  1  0.500000  0.500000  0.494382  1
  Al  Al2  1  0.000000  0.500000  0.240502  1
  Al  Al3  1  0.500000  0.000000  0.752654  1
  Al  Al4  1  0.500000  0.000000  0.240502  1
  Al  Al5  1  0.000000  0.500000  0.752654  1
  Ga  Ga6  1  0.000000  0.000000  0.617690  1
  Ga  Ga7  1  0.000000  0.000000  0.380263  1
  Ga  Ga8  1  0.500000  0.500000  0.895394  1
  Cu  Cu9  1  0.500000  0.500000  0.124991  1
