# generated using pymatgen
data_Dy3TmLu4(WO6)4
_symmetry_space_group_name_H-M   'P 1'
_cell_length_a   5.35331000
_cell_length_b   7.63503717
_cell_length_c   11.33517351
_cell_angle_alpha   75.44537684
_cell_angle_beta   90.00000000
_cell_angle_gamma   90.00000000
_symmetry_Int_Tables_number   1
_chemical_formula_structural   Dy3TmLu4(WO6)4
_chemical_formula_sum   'Dy3 Tm1 Lu4 W4 O24'
_cell_volume   448.43140987
_cell_formula_units_Z   1
loop_
 _symmetry_equiv_pos_site_id
 _symmetry_equiv_pos_as_xyz
  1  'x, y, z'
loop_
 _atom_site_type_symbol
 _atom_site_label
 _atom_site_symmetry_multiplicity
 _atom_site_fract_x
 _atom_site_fract_y
 _atom_site_fract_z
 _atom_site_occupancy
  Dy  Dy0  1  0.257233  0.000000  0.750000  1
  Dy  Dy1  1  0.315683  0.500000  0.750000  1
  Dy  Dy2  1  0.685140  0.500000  0.250000  1
  Tm  Tm3  1  0.741904  0.000000  0.250000  1
  Lu  Lu4  1  0.182590  0.794298  0.079393  1
  Lu  Lu5  1  0.182590  0.205702  0.420607  1
  Lu  Lu6  1  0.816822  0.205965  0.921507  1
  Lu  Lu7  1  0.816822  0.794035  0.578493  1
  W  W8  1  0.743784  0.723604  0.886147  1
  W  W9  1  0.256462  0.724737  0.385512  1
  W  W10  1  0.743784  0.276396  0.613853  1
  W  W11  1  0.256462  0.275263  0.114488  1
  O  O12  1  0.540829  0.154832  0.068348  1
  O  O13  1  0.044450  0.057518  0.104047  1
  O  O14  1  0.018961  0.712550  0.770170  1
  O  O15  1  0.459810  0.156753  0.566938  1
  O  O16  1  0.357452  0.488055  0.386024  1
  O  O17  1  0.952536  0.058062  0.602251  1
  O  O18  1  0.544793  0.792071  0.725130  1
  O  O19  1  0.457669  0.794313  0.224947  1
  O  O20  1  0.146554  0.635963  0.549568  1
  O  O21  1  0.044450  0.942482  0.395953  1
  O  O22  1  0.459810  0.843247  0.933062  1
  O  O23  1  0.457669  0.205687  0.275053  1
  O  O24  1  0.854437  0.365426  0.449954  1
  O  O25  1  0.642023  0.487097  0.886798  1
  O  O26  1  0.357452  0.511945  0.113976  1
  O  O27  1  0.952536  0.941938  0.897749  1
  O  O28  1  0.540829  0.845168  0.431652  1
  O  O29  1  0.980848  0.286287  0.230298  1
  O  O30  1  0.544793  0.207929  0.774870  1
  O  O31  1  0.854437  0.634574  0.050046  1
  O  O32  1  0.018961  0.287450  0.729830  1
  O  O33  1  0.146554  0.364037  0.950432  1
  O  O34  1  0.980848  0.713713  0.269702  1
  O  O35  1  0.642023  0.512903  0.613202  1
