# generated using pymatgen
data_Ca2Au7
_symmetry_space_group_name_H-M   'P 1'
_cell_length_a   5.47914409
_cell_length_b   5.47914381
_cell_length_c   14.21660100
_cell_angle_alpha   90.00000000
_cell_angle_beta   90.00000000
_cell_angle_gamma   118.16439466
_symmetry_Int_Tables_number   1
_chemical_formula_structural   Ca2Au7
_chemical_formula_sum   'Ca4 Au14'
_cell_volume   376.26278842
_cell_formula_units_Z   2
loop_
 _symmetry_equiv_pos_site_id
 _symmetry_equiv_pos_as_xyz
  1  'x, y, z'
loop_
 _atom_site_type_symbol
 _atom_site_label
 _atom_site_symmetry_multiplicity
 _atom_site_fract_x
 _atom_site_fract_y
 _atom_site_fract_z
 _atom_site_occupancy
  Ca  Ca0  1  0.320706  0.320706  0.112607  1
  Ca  Ca1  1  0.679294  0.679294  0.612607  1
  Ca  Ca2  1  0.320706  0.320706  0.387393  1
  Ca  Ca3  1  0.679294  0.679294  0.887393  1
  Au  Au4  1  0.833898  0.833898  0.250000  1
  Au  Au5  1  0.166102  0.166102  0.750000  1
  Au  Au6  1  0.828594  0.330845  0.250000  1
  Au  Au7  1  0.171406  0.669155  0.750000  1
  Au  Au8  1  0.330845  0.828594  0.250000  1
  Au  Au9  1  0.669155  0.171406  0.750000  1
  Au  Au10  1  0.985694  0.664677  0.073724  1
  Au  Au11  1  0.014306  0.335323  0.573724  1
  Au  Au12  1  0.664677  0.985694  0.426276  1
  Au  Au13  1  0.335323  0.014306  0.926276  1
  Au  Au14  1  0.014306  0.335323  0.926276  1
  Au  Au15  1  0.985694  0.664677  0.426276  1
  Au  Au16  1  0.335323  0.014306  0.573724  1
  Au  Au17  1  0.664677  0.985694  0.073724  1
