# generated using pymatgen
data_K4Ir2O9
_symmetry_space_group_name_H-M   'P 1'
_cell_length_a   6.27157339
_cell_length_b   6.27157279
_cell_length_c   15.43292196
_cell_angle_alpha   88.56110278
_cell_angle_beta   88.56110447
_cell_angle_gamma   119.33095892
_symmetry_Int_Tables_number   1
_chemical_formula_structural   K4Ir2O9
_chemical_formula_sum   'K8 Ir4 O18'
_cell_volume   528.54611561
_cell_formula_units_Z   2
loop_
 _symmetry_equiv_pos_site_id
 _symmetry_equiv_pos_as_xyz
  1  'x, y, z'
loop_
 _atom_site_type_symbol
 _atom_site_label
 _atom_site_symmetry_multiplicity
 _atom_site_fract_x
 _atom_site_fract_y
 _atom_site_fract_z
 _atom_site_occupancy
  K  K0  1  0.980727  0.019273  0.250000  1
  K  K1  1  0.019273  0.980727  0.750000  1
  K  K2  1  0.321342  0.654012  0.108578  1
  K  K3  1  0.678658  0.345988  0.891422  1
  K  K4  1  0.654012  0.321342  0.608578  1
  K  K5  1  0.345988  0.678658  0.391422  1
  K  K6  1  0.000000  0.000000  0.000000  1
  K  K7  1  0.000000  0.000000  0.500000  1
  Ir  Ir8  1  0.698511  0.367586  0.341202  1
  Ir  Ir9  1  0.301489  0.632414  0.658798  1
  Ir  Ir10  1  0.367586  0.698511  0.841202  1
  Ir  Ir11  1  0.632414  0.301489  0.158798  1
  O  O12  1  0.680775  0.867763  0.879902  1
  O  O13  1  0.531641  0.468359  0.250000  1
  O  O14  1  0.124603  0.754016  0.603399  1
  O  O15  1  0.537519  0.073671  0.267130  1
  O  O16  1  0.245984  0.875397  0.896601  1
  O  O17  1  0.926329  0.462481  0.232870  1
  O  O18  1  0.319225  0.132237  0.120098  1
  O  O19  1  0.875397  0.245984  0.396601  1
  O  O20  1  0.462481  0.926329  0.732870  1
  O  O21  1  0.468359  0.531641  0.750000  1
  O  O22  1  0.867763  0.680775  0.379902  1
  O  O23  1  0.750273  0.563297  0.080480  1
  O  O24  1  0.563297  0.750273  0.580480  1
  O  O25  1  0.249727  0.436703  0.919520  1
  O  O26  1  0.073671  0.537519  0.767130  1
  O  O27  1  0.436703  0.249727  0.419520  1
  O  O28  1  0.132237  0.319225  0.620098  1
  O  O29  1  0.754016  0.124603  0.103399  1
