# generated using pymatgen
data_Sc6Zn22AuSe
_symmetry_space_group_name_H-M   'P 1'
_cell_length_a   8.81591641
_cell_length_b   8.81576191
_cell_length_c   8.81555900
_cell_angle_alpha   60.00198291
_cell_angle_beta   60.00018107
_cell_angle_gamma   59.99837546
_symmetry_Int_Tables_number   1
_chemical_formula_structural   Sc6Zn22AuSe
_chemical_formula_sum   'Sc6 Zn22 Au1 Se1'
_cell_volume   484.46671535
_cell_formula_units_Z   1
loop_
 _symmetry_equiv_pos_site_id
 _symmetry_equiv_pos_as_xyz
  1  'x, y, z'
loop_
 _atom_site_type_symbol
 _atom_site_label
 _atom_site_symmetry_multiplicity
 _atom_site_fract_x
 _atom_site_fract_y
 _atom_site_fract_z
 _atom_site_occupancy
  Sc  Sc0  1  0.712448  0.287554  0.287547  1
  Sc  Sc1  1  0.287552  0.712446  0.712453  1
  Sc  Sc2  1  0.287553  0.712452  0.287550  1
  Sc  Sc3  1  0.712447  0.287548  0.712450  1
  Sc  Sc4  1  0.287552  0.287548  0.712452  1
  Sc  Sc5  1  0.712448  0.712452  0.287548  1
  Zn  Zn6  1  0.124760  0.124751  0.124758  1
  Zn  Zn7  1  0.875240  0.875249  0.875242  1
  Zn  Zn8  1  0.124750  0.124761  0.625731  1
  Zn  Zn9  1  0.124758  0.625731  0.124761  1
  Zn  Zn10  1  0.875250  0.875239  0.374269  1
  Zn  Zn11  1  0.875242  0.374269  0.875239  1
  Zn  Zn12  1  0.625731  0.124756  0.124753  1
  Zn  Zn13  1  0.374269  0.875244  0.875247  1
  Zn  Zn14  1  0.500000  0.000000  0.000000  1
  Zn  Zn15  1  0.000000  0.500000  0.500000  1
  Zn  Zn16  1  0.000000  0.500000  0.000000  1
  Zn  Zn17  1  0.500000  0.000000  0.500000  1
  Zn  Zn18  1  0.000000  0.000000  0.500000  1
  Zn  Zn19  1  0.500000  0.500000  0.000000  1
  Zn  Zn20  1  0.334236  0.334238  0.334254  1
  Zn  Zn21  1  0.665764  0.665762  0.665746  1
  Zn  Zn22  1  0.334238  0.334238  0.997269  1
  Zn  Zn23  1  0.334255  0.997269  0.334238  1
  Zn  Zn24  1  0.665762  0.665762  0.002731  1
  Zn  Zn25  1  0.665745  0.002731  0.665762  1
  Zn  Zn26  1  0.997270  0.334255  0.334239  1
  Zn  Zn27  1  0.002730  0.665745  0.665761  1
  Au  Au28  1  0.000000  0.000000  0.000000  1
  Se  Se29  1  0.500000  0.500000  0.500000  1
