# generated using pymatgen
data_Sr4CaTb(MoO6)2
_symmetry_space_group_name_H-M   'P 1'
_cell_length_a   5.86273430
_cell_length_b   8.24747572
_cell_length_c   5.96941305
_cell_angle_alpha   89.90041524
_cell_angle_beta   90.00031660
_cell_angle_gamma   90.12962004
_symmetry_Int_Tables_number   1
_chemical_formula_structural   Sr4CaTb(MoO6)2
_chemical_formula_sum   'Sr4 Ca1 Tb1 Mo2 O12'
_cell_volume   288.63641465
_cell_formula_units_Z   1
loop_
 _symmetry_equiv_pos_site_id
 _symmetry_equiv_pos_as_xyz
  1  'x, y, z'
loop_
 _atom_site_type_symbol
 _atom_site_label
 _atom_site_symmetry_multiplicity
 _atom_site_fract_x
 _atom_site_fract_y
 _atom_site_fract_z
 _atom_site_occupancy
  Sr  Sr0  1  0.489767  0.246797  0.538259  1
  Sr  Sr1  1  0.011542  0.247529  0.042316  1
  Sr  Sr2  1  0.988459  0.752472  0.957683  1
  Sr  Sr3  1  0.510232  0.753203  0.461741  1
  Ca  Ca4  1  0.000000  0.500000  0.499999  1
  Tb  Tb5  1  0.500000  0.000001  0.000000  1
  Mo  Mo6  1  0.000000  0.000001  0.500000  1
  Mo  Mo7  1  0.500000  0.500000  0.000000  1
  O  O8  1  0.764959  0.541087  0.188819  1
  O  O9  1  0.235043  0.458914  0.811180  1
  O  O10  1  0.278494  0.043754  0.300807  1
  O  O11  1  0.721505  0.956245  0.699193  1
  O  O12  1  0.584199  0.269520  0.975687  1
  O  O13  1  0.916713  0.226765  0.475221  1
  O  O14  1  0.083288  0.773234  0.524780  1
  O  O15  1  0.415802  0.730481  0.024314  1
  O  O16  1  0.315131  0.453632  0.265541  1
  O  O17  1  0.803767  0.951298  0.221522  1
  O  O18  1  0.196231  0.048700  0.778479  1
  O  O19  1  0.684871  0.546370  0.734459  1
