# generated using pymatgen
data_Cs2Gd2MnS5
_symmetry_space_group_name_H-M   'P 1'
_cell_length_a   4.19042800
_cell_length_b   16.04103300
_cell_length_c   18.47209300
_cell_angle_alpha   90.00000000
_cell_angle_beta   90.00000000
_cell_angle_gamma   90.00000000
_symmetry_Int_Tables_number   1
_chemical_formula_structural   Cs2Gd2MnS5
_chemical_formula_sum   'Cs8 Gd8 Mn4 S20'
_cell_volume   1241.67181101
_cell_formula_units_Z   4
loop_
 _symmetry_equiv_pos_site_id
 _symmetry_equiv_pos_as_xyz
  1  'x, y, z'
loop_
 _atom_site_type_symbol
 _atom_site_label
 _atom_site_symmetry_multiplicity
 _atom_site_fract_x
 _atom_site_fract_y
 _atom_site_fract_z
 _atom_site_occupancy
  Cs  Cs0  1  0.250000  0.508604  0.123295  1
  Cs  Cs1  1  0.750000  0.532720  0.382244  1
  Cs  Cs2  1  0.250000  0.967280  0.882244  1
  Cs  Cs3  1  0.750000  0.991396  0.623295  1
  Cs  Cs4  1  0.750000  0.491396  0.876705  1
  Cs  Cs5  1  0.750000  0.032720  0.117756  1
  Cs  Cs6  1  0.250000  0.467280  0.617756  1
  Cs  Cs7  1  0.250000  0.008604  0.376705  1
  Gd  Gd8  1  0.250000  0.252346  0.986281  1
  Gd  Gd9  1  0.750000  0.247654  0.486281  1
  Gd  Gd10  1  0.750000  0.714559  0.700085  1
  Gd  Gd11  1  0.750000  0.747654  0.013719  1
  Gd  Gd12  1  0.250000  0.785441  0.200085  1
  Gd  Gd13  1  0.750000  0.214559  0.799915  1
  Gd  Gd14  1  0.250000  0.752346  0.513719  1
  Gd  Gd15  1  0.250000  0.285441  0.299915  1
  Mn  Mn16  1  0.750000  0.792621  0.355373  1
  Mn  Mn17  1  0.750000  0.292621  0.144627  1
  Mn  Mn18  1  0.250000  0.207379  0.644627  1
  Mn  Mn19  1  0.250000  0.707379  0.855373  1
  S  S20  1  0.250000  0.115264  0.744964  1
  S  S21  1  0.250000  0.354615  0.441030  1
  S  S22  1  0.250000  0.854615  0.058970  1
  S  S23  1  0.750000  0.884736  0.255036  1
  S  S24  1  0.750000  0.384736  0.244964  1
  S  S25  1  0.750000  0.787264  0.849839  1
  S  S26  1  0.250000  0.313304  0.848305  1
  S  S27  1  0.250000  0.712736  0.349839  1
  S  S28  1  0.750000  0.686696  0.151695  1
  S  S29  1  0.250000  0.813304  0.651695  1
  S  S30  1  0.250000  0.143293  0.529261  1
  S  S31  1  0.250000  0.212736  0.150161  1
  S  S32  1  0.750000  0.287264  0.650161  1
  S  S33  1  0.750000  0.856707  0.470739  1
  S  S34  1  0.750000  0.645385  0.558970  1
  S  S35  1  0.250000  0.643293  0.970739  1
  S  S36  1  0.250000  0.615264  0.755036  1
  S  S37  1  0.750000  0.145385  0.941030  1
  S  S38  1  0.750000  0.186696  0.348305  1
  S  S39  1  0.750000  0.356707  0.029261  1
