# generated using pymatgen
data_DyTm5Mn16(CoP6)2
_symmetry_space_group_name_H-M   'P 1'
_cell_length_a   3.61091100
_cell_length_b   10.82230000
_cell_length_c   12.58133600
_cell_angle_alpha   90.00000000
_cell_angle_beta   90.00000000
_cell_angle_gamma   90.00000000
_symmetry_Int_Tables_number   1
_chemical_formula_structural   DyTm5Mn16(CoP6)2
_chemical_formula_sum   'Dy1 Tm5 Mn16 Co2 P12'
_cell_volume   491.65800410
_cell_formula_units_Z   1
loop_
 _symmetry_equiv_pos_site_id
 _symmetry_equiv_pos_as_xyz
  1  'x, y, z'
loop_
 _atom_site_type_symbol
 _atom_site_label
 _atom_site_symmetry_multiplicity
 _atom_site_fract_x
 _atom_site_fract_y
 _atom_site_fract_z
 _atom_site_occupancy
  Dy  Dy0  1  0.000000  0.500000  0.532045  1
  Tm  Tm1  1  0.500000  0.000000  0.467961  1
  Tm  Tm2  1  0.500000  0.823414  0.206606  1
  Tm  Tm3  1  0.500000  0.176586  0.206606  1
  Tm  Tm4  1  0.000000  0.676913  0.793610  1
  Tm  Tm5  1  0.000000  0.323087  0.793610  1
  Mn  Mn6  1  0.500000  0.500000  0.165561  1
  Mn  Mn7  1  0.000000  0.000000  0.833964  1
  Mn  Mn8  1  0.000000  0.500000  0.992690  1
  Mn  Mn9  1  0.500000  0.000000  0.007526  1
  Mn  Mn10  1  0.500000  0.332356  0.996750  1
  Mn  Mn11  1  0.500000  0.667644  0.996750  1
  Mn  Mn12  1  0.000000  0.167397  0.003231  1
  Mn  Mn13  1  0.000000  0.832603  0.003231  1
  Mn  Mn14  1  0.500000  0.297538  0.432332  1
  Mn  Mn15  1  0.500000  0.702462  0.432332  1
  Mn  Mn16  1  0.000000  0.201424  0.567373  1
  Mn  Mn17  1  0.000000  0.798576  0.567373  1
  Mn  Mn18  1  0.500000  0.881012  0.702490  1
  Mn  Mn19  1  0.500000  0.118988  0.702490  1
  Mn  Mn20  1  0.000000  0.619706  0.297370  1
  Mn  Mn21  1  0.000000  0.380294  0.297370  1
  Co  Co22  1  0.500000  0.500000  0.706368  1
  Co  Co23  1  0.000000  0.000000  0.294490  1
  P  P24  1  0.500000  0.500000  0.880366  1
  P  P25  1  0.000000  0.000000  0.119934  1
  P  P26  1  0.500000  0.500000  0.358827  1
  P  P27  1  0.000000  0.000000  0.639746  1
  P  P28  1  0.500000  0.317970  0.619866  1
  P  P29  1  0.500000  0.682030  0.619866  1
  P  P30  1  0.000000  0.180690  0.380631  1
  P  P31  1  0.000000  0.819310  0.380631  1
  P  P32  1  0.500000  0.844690  0.884253  1
  P  P33  1  0.500000  0.155310  0.884253  1
  P  P34  1  0.000000  0.655637  0.115749  1
  P  P35  1  0.000000  0.344363  0.115749  1
