# generated using pymatgen
data_SrP8Pb11S32
_symmetry_space_group_name_H-M   'P 1'
_cell_length_a   11.19321300
_cell_length_b   11.19321300
_cell_length_c   11.19321300
_cell_angle_alpha   90.00000000
_cell_angle_beta   90.00000000
_cell_angle_gamma   90.00000000
_symmetry_Int_Tables_number   1
_chemical_formula_structural   SrP8Pb11S32
_chemical_formula_sum   'Sr1 P8 Pb11 S32'
_cell_volume   1402.37546358
_cell_formula_units_Z   1
loop_
 _symmetry_equiv_pos_site_id
 _symmetry_equiv_pos_as_xyz
  1  'x, y, z'
loop_
 _atom_site_type_symbol
 _atom_site_label
 _atom_site_symmetry_multiplicity
 _atom_site_fract_x
 _atom_site_fract_y
 _atom_site_fract_z
 _atom_site_occupancy
  Sr  Sr0  1  0.021393  0.744416  0.138958  1
  P  P1  1  0.152916  0.346705  0.653176  1
  P  P2  1  0.347486  0.652504  0.153292  1
  P  P3  1  0.653088  0.152819  0.347092  1
  P  P4  1  0.846963  0.846767  0.847291  1
  P  P5  1  0.426213  0.074048  0.926113  1
  P  P6  1  0.073520  0.925598  0.426317  1
  P  P7  1  0.926213  0.425898  0.073460  1
  P  P8  1  0.574242  0.574199  0.574214  1
  Pb  Pb9  1  0.529329  0.763874  0.859644  1
  Pb  Pb10  1  0.968501  0.236178  0.358680  1
  Pb  Pb11  1  0.763973  0.858355  0.531344  1
  Pb  Pb12  1  0.358872  0.967195  0.234698  1
  Pb  Pb13  1  0.859333  0.530274  0.764360  1
  Pb  Pb14  1  0.734864  0.142066  0.031121  1
  Pb  Pb15  1  0.142208  0.031673  0.735256  1
  Pb  Pb16  1  0.235761  0.359501  0.969493  1
  Pb  Pb17  1  0.264468  0.640524  0.467085  1
  Pb  Pb18  1  0.640717  0.468773  0.264027  1
  Pb  Pb19  1  0.468714  0.264600  0.641412  1
  S  S20  1  0.444977  0.729291  0.291479  1
  S  S21  1  0.055432  0.270127  0.790444  1
  S  S22  1  0.274184  0.790812  0.055427  1
  S  S23  1  0.791003  0.055435  0.270815  1
  S  S24  1  0.772520  0.709650  0.946746  1
  S  S25  1  0.944322  0.771047  0.709492  1
  S  S26  1  0.229181  0.209007  0.555477  1
  S  S27  1  0.729478  0.290617  0.444253  1
  S  S28  1  0.555835  0.229009  0.209103  1
  S  S29  1  0.290660  0.444213  0.729152  1
  S  S30  1  0.212841  0.553394  0.230481  1
  S  S31  1  0.709780  0.944474  0.771363  1
  S  S32  1  0.466360  0.466089  0.466361  1
  S  S33  1  0.033719  0.533088  0.965285  1
  S  S34  1  0.966025  0.034300  0.533849  1
  S  S35  1  0.535047  0.966692  0.033833  1
  S  S36  1  0.952342  0.949794  0.953872  1
  S  S37  1  0.548504  0.048170  0.451976  1
  S  S38  1  0.452547  0.548252  0.047532  1
  S  S39  1  0.047974  0.451466  0.548371  1
  S  S40  1  0.091554  0.002129  0.260262  1
  S  S41  1  0.261404  0.092405  0.004223  1
  S  S42  1  0.004411  0.261091  0.092942  1
  S  S43  1  0.496003  0.738931  0.592934  1
  S  S44  1  0.761108  0.407629  0.995312  1
  S  S45  1  0.994424  0.761347  0.407202  1
  S  S46  1  0.238163  0.907827  0.504216  1
  S  S47  1  0.738883  0.592552  0.495378  1
  S  S48  1  0.504629  0.238663  0.907476  1
  S  S49  1  0.592705  0.495713  0.738887  1
  S  S50  1  0.907345  0.505755  0.237362  1
  S  S51  1  0.407869  0.995063  0.761462  1
