# generated using pymatgen
data_Sm2Be25Ni
_symmetry_space_group_name_H-M   'P 1'
_cell_length_a   7.25587086
_cell_length_b   7.27809866
_cell_length_c   7.25856028
_cell_angle_alpha   60.25427797
_cell_angle_beta   60.19046607
_cell_angle_gamma   59.92307922
_symmetry_Int_Tables_number   1
_chemical_formula_structural   Sm2Be25Ni
_chemical_formula_sum   'Sm2 Be25 Ni1'
_cell_volume   271.79377247
_cell_formula_units_Z   1
loop_
 _symmetry_equiv_pos_site_id
 _symmetry_equiv_pos_as_xyz
  1  'x, y, z'
loop_
 _atom_site_type_symbol
 _atom_site_label
 _atom_site_symmetry_multiplicity
 _atom_site_fract_x
 _atom_site_fract_y
 _atom_site_fract_z
 _atom_site_occupancy
  Sm  Sm0  1  0.249426  0.251750  0.248477  1
  Sm  Sm1  1  0.749653  0.751523  0.748250  1
  Be  Be2  1  0.001189  0.000425  0.999575  1
  Be  Be3  1  0.499626  0.501727  0.498273  1
  Be  Be4  1  0.705749  0.939261  0.060739  1
  Be  Be5  1  0.065510  0.288907  0.711093  1
  Be  Be6  1  0.934896  0.708510  0.291490  1
  Be  Be7  1  0.935828  0.289665  0.064596  1
  Be  Be8  1  0.212032  0.436574  0.788271  1
  Be  Be9  1  0.061658  0.710118  0.937444  1
  Be  Be10  1  0.788826  0.564224  0.211716  1
  Be  Be11  1  0.709221  0.062556  0.289882  1
  Be  Be12  1  0.436877  0.211729  0.563426  1
  Be  Be13  1  0.290089  0.935404  0.710335  1
  Be  Be14  1  0.564765  0.788284  0.435776  1
  Be  Be15  1  0.061825  0.936138  0.292747  1
  Be  Be16  1  0.566323  0.214412  0.785588  1
  Be  Be17  1  0.937953  0.063881  0.706667  1
  Be  Be18  1  0.434843  0.788336  0.211664  1
  Be  Be19  1  0.708501  0.293333  0.936119  1
  Be  Be20  1  0.209388  0.564258  0.435742  1
  Be  Be21  1  0.290709  0.707253  0.063862  1
  Be  Be22  1  0.789559  0.435447  0.564553  1
  Be  Be23  1  0.787382  0.212435  0.435829  1
  Be  Be24  1  0.211914  0.785603  0.566893  1
  Be  Be25  1  0.564410  0.433107  0.214397  1
  Be  Be26  1  0.435646  0.564171  0.787565  1
  Ni  Ni27  1  0.296203  0.060970  0.939030  1
