# generated using pymatgen
data_Dy3Ho13(CoAg)4
_symmetry_space_group_name_H-M   'P 1'
_cell_length_a   9.35737470
_cell_length_b   9.35841869
_cell_length_c   9.35841900
_cell_angle_alpha   60.00000245
_cell_angle_beta   59.99631172
_cell_angle_gamma   59.99631121
_symmetry_Int_Tables_number   1
_chemical_formula_structural   Dy3Ho13(CoAg)4
_chemical_formula_sum   'Dy3 Ho13 Co4 Ag4'
_cell_volume   579.45507789
_cell_formula_units_Z   1
loop_
 _symmetry_equiv_pos_site_id
 _symmetry_equiv_pos_as_xyz
  1  'x, y, z'
loop_
 _atom_site_type_symbol
 _atom_site_label
 _atom_site_symmetry_multiplicity
 _atom_site_fract_x
 _atom_site_fract_y
 _atom_site_fract_z
 _atom_site_occupancy
  Dy  Dy0  1  0.348034  0.348110  0.348110  1
  Dy  Dy1  1  0.348034  0.348110  0.955746  1
  Dy  Dy2  1  0.348034  0.955746  0.348110  1
  Ho  Ho3  1  0.955994  0.348002  0.348002  1
  Ho  Ho4  1  0.811452  0.188672  0.188672  1
  Ho  Ho5  1  0.188566  0.811432  0.811432  1
  Ho  Ho6  1  0.188566  0.811432  0.188571  1
  Ho  Ho7  1  0.811452  0.188672  0.811203  1
  Ho  Ho8  1  0.188566  0.188571  0.811432  1
  Ho  Ho9  1  0.811452  0.811203  0.188672  1
  Ho  Ho10  1  0.937242  0.562683  0.562683  1
  Ho  Ho11  1  0.562813  0.937218  0.937218  1
  Ho  Ho12  1  0.562813  0.937218  0.562752  1
  Ho  Ho13  1  0.937242  0.562683  0.937392  1
  Ho  Ho14  1  0.562813  0.562752  0.937218  1
  Ho  Ho15  1  0.937242  0.937392  0.562683  1
  Co  Co16  1  0.140720  0.141191  0.141191  1
  Co  Co17  1  0.140720  0.141191  0.576898  1
  Co  Co18  1  0.140720  0.576898  0.141191  1
  Co  Co19  1  0.577102  0.140966  0.140966  1
  Ag  Ag20  1  0.581289  0.581060  0.581060  1
  Ag  Ag21  1  0.581289  0.581060  0.256590  1
  Ag  Ag22  1  0.581289  0.256590  0.581060  1
  Ag  Ag23  1  0.256553  0.581149  0.581149  1
