# generated using pymatgen
data_Tm6Lu6Tc3Ni
_symmetry_space_group_name_H-M   'P 1'
_cell_length_a   6.15807067
_cell_length_b   7.22941328
_cell_length_c   8.98688678
_cell_angle_alpha   90.01287138
_cell_angle_beta   89.86877767
_cell_angle_gamma   89.79521429
_symmetry_Int_Tables_number   1
_chemical_formula_structural   Tm6Lu6Tc3Ni
_chemical_formula_sum   'Tm6 Lu6 Tc3 Ni1'
_cell_volume   400.08573473
_cell_formula_units_Z   1
loop_
 _symmetry_equiv_pos_site_id
 _symmetry_equiv_pos_as_xyz
  1  'x, y, z'
loop_
 _atom_site_type_symbol
 _atom_site_label
 _atom_site_symmetry_multiplicity
 _atom_site_fract_x
 _atom_site_fract_y
 _atom_site_fract_z
 _atom_site_occupancy
  Tm  Tm0  1  0.637370  0.042010  0.249593  1
  Tm  Tm1  1  0.376186  0.960796  0.750522  1
  Tm  Tm2  1  0.122390  0.459876  0.750889  1
  Tm  Tm3  1  0.876028  0.542561  0.249080  1
  Tm  Tm4  1  0.332966  0.678468  0.439315  1
  Tm  Tm5  1  0.664398  0.323074  0.561419  1
  Lu  Lu6  1  0.165790  0.176078  0.061820  1
  Lu  Lu7  1  0.828446  0.821641  0.934285  1
  Lu  Lu8  1  0.664027  0.323476  0.939773  1
  Lu  Lu9  1  0.828250  0.821493  0.565980  1
  Lu  Lu10  1  0.333974  0.677580  0.059802  1
  Lu  Lu11  1  0.165987  0.176030  0.437995  1
  Tc  Tc12  1  0.458476  0.388245  0.249082  1
  Tc  Tc13  1  0.539479  0.612655  0.750920  1
  Tc  Tc14  1  0.961296  0.110040  0.750360  1
  Ni  Ni15  1  0.044936  0.885976  0.249166  1
