# generated using pymatgen
data_V11Fe4Re(Si2C)4
_symmetry_space_group_name_H-M   'P 1'
_cell_length_a   7.66157880
_cell_length_b   7.66157869
_cell_length_c   7.63537000
_cell_angle_alpha   60.11309460
_cell_angle_beta   60.11309509
_cell_angle_gamma   59.91702952
_symmetry_Int_Tables_number   1
_chemical_formula_structural   V11Fe4Re(Si2C)4
_chemical_formula_sum   'V11 Fe4 Re1 Si8 C4'
_cell_volume   317.26190146
_cell_formula_units_Z   1
loop_
 _symmetry_equiv_pos_site_id
 _symmetry_equiv_pos_as_xyz
  1  'x, y, z'
loop_
 _atom_site_type_symbol
 _atom_site_label
 _atom_site_symmetry_multiplicity
 _atom_site_fract_x
 _atom_site_fract_y
 _atom_site_fract_z
 _atom_site_occupancy
  V  V0  1  0.190096  0.190096  0.809904  1
  V  V1  1  0.812069  0.190573  0.808450  1
  V  V2  1  0.190573  0.812069  0.188908  1
  V  V3  1  0.190573  0.812069  0.808450  1
  V  V4  1  0.812069  0.190573  0.188908  1
  V  V5  1  0.439349  0.439349  0.060651  1
  V  V6  1  0.059619  0.059619  0.440381  1
  V  V7  1  0.438036  0.061288  0.440801  1
  V  V8  1  0.061288  0.438036  0.059874  1
  V  V9  1  0.061288  0.438036  0.440801  1
  V  V10  1  0.438036  0.061288  0.059874  1
  Fe  Fe11  1  0.123349  0.625450  0.625600  1
  Fe  Fe12  1  0.625450  0.123349  0.625600  1
  Fe  Fe13  1  0.622964  0.622964  0.126246  1
  Fe  Fe14  1  0.622964  0.622964  0.627826  1
  Re  Re15  1  0.810835  0.810835  0.189165  1
  Si  Si16  1  0.759137  0.412369  0.414248  1
  Si  Si17  1  0.412369  0.759137  0.414248  1
  Si  Si18  1  0.413505  0.413505  0.758448  1
  Si  Si19  1  0.413505  0.413505  0.414544  1
  Si  Si20  1  0.490908  0.836820  0.836135  1
  Si  Si21  1  0.836820  0.490908  0.836135  1
  Si  Si22  1  0.835905  0.835905  0.491593  1
  Si  Si23  1  0.835905  0.835905  0.836595  1
  C  C24  1  0.621793  0.130549  0.123829  1
  C  C25  1  0.130549  0.621793  0.123829  1
  C  C26  1  0.125523  0.125523  0.624404  1
  C  C27  1  0.125523  0.125523  0.124551  1
