# generated using pymatgen
data_Ho10Lu2InCo4Pd
_symmetry_space_group_name_H-M   'P 1'
_cell_length_a   8.25281551
_cell_length_b   8.24773507
_cell_length_c   8.25281506
_cell_angle_alpha   110.98719373
_cell_angle_beta   110.54463057
_cell_angle_gamma   106.93601039
_symmetry_Int_Tables_number   1
_chemical_formula_structural   Ho10Lu2InCo4Pd
_chemical_formula_sum   'Ho10 Lu2 In1 Co4 Pd1'
_cell_volume   431.65933091
_cell_formula_units_Z   1
loop_
 _symmetry_equiv_pos_site_id
 _symmetry_equiv_pos_as_xyz
  1  'x, y, z'
loop_
 _atom_site_type_symbol
 _atom_site_label
 _atom_site_symmetry_multiplicity
 _atom_site_fract_x
 _atom_site_fract_y
 _atom_site_fract_z
 _atom_site_occupancy
  Ho  Ho0  1  0.314837  0.010746  0.695910  1
  Ho  Ho1  1  0.685163  0.989254  0.304090  1
  Ho  Ho2  1  0.189158  0.294563  0.480931  1
  Ho  Ho3  1  0.810842  0.705437  0.519069  1
  Ho  Ho4  1  0.186368  0.705437  0.894596  1
  Ho  Ho5  1  0.813632  0.294563  0.105404  1
  Ho  Ho6  1  0.415837  0.217343  0.200935  1
  Ho  Ho7  1  0.584163  0.782657  0.799065  1
  Ho  Ho8  1  0.016408  0.217343  0.801506  1
  Ho  Ho9  1  0.983592  0.782657  0.198494  1
  Lu  Lu10  1  0.315840  0.621821  0.305980  1
  Lu  Lu11  1  0.684160  0.378179  0.694020  1
  In  In12  1  0.500000  0.500000  0.000000  1
  Co  Co13  1  0.112997  0.612103  0.499105  1
  Co  Co14  1  0.887003  0.387897  0.500895  1
  Co  Co15  1  0.379047  0.000000  0.379047  1
  Co  Co16  1  0.620953  0.000000  0.620953  1
  Pd  Pd17  1  0.000000  0.000000  0.000000  1
