# generated using pymatgen
data_La17Nd3Si15Pd
_symmetry_space_group_name_H-M   'P 1'
_cell_length_a   8.03263820
_cell_length_b   8.04929369
_cell_length_c   15.38058213
_cell_angle_alpha   90.05291151
_cell_angle_beta   89.35093890
_cell_angle_gamma   89.85887765
_symmetry_Int_Tables_number   1
_chemical_formula_structural   La17Nd3Si15Pd
_chemical_formula_sum   'La17 Nd3 Si15 Pd1'
_cell_volume   994.39600719
_cell_formula_units_Z   1
loop_
 _symmetry_equiv_pos_site_id
 _symmetry_equiv_pos_as_xyz
  1  'x, y, z'
loop_
 _atom_site_type_symbol
 _atom_site_label
 _atom_site_symmetry_multiplicity
 _atom_site_fract_x
 _atom_site_fract_y
 _atom_site_fract_z
 _atom_site_occupancy
  La  La0  1  0.027696  0.873363  0.619918  1
  La  La1  1  0.627793  0.519007  0.874040  1
  La  La2  1  0.483823  0.379336  0.625354  1
  La  La3  1  0.512770  0.622825  0.128741  1
  La  La4  1  0.124918  0.979353  0.877624  1
  La  La5  1  0.989806  0.619122  0.056592  1
  La  La6  1  0.016373  0.370124  0.546797  1
  La  La7  1  0.622209  0.985770  0.949501  1
  La  La8  1  0.120932  0.508068  0.802753  1
  La  La9  1  0.866466  0.478629  0.297387  1
  La  La10  1  0.505615  0.118800  0.197672  1
  La  La11  1  0.495891  0.880252  0.695882  1
  La  La12  1  0.386384  0.023254  0.450657  1
  La  La13  1  0.702534  0.696289  0.495316  1
  La  La14  1  0.812022  0.192561  0.749898  1
  La  La15  1  0.184850  0.800504  0.263660  1
  La  La16  1  0.303116  0.307883  0.999378  1
  Nd  Nd17  1  0.376315  0.477289  0.374237  1
  Nd  Nd18  1  0.861975  0.026341  0.370135  1
  Nd  Nd19  1  0.979353  0.128015  0.127271  1
  Si  Si20  1  0.918711  0.286634  0.942284  1
  Si  Si21  1  0.715514  0.084049  0.558561  1
  Si  Si22  1  0.208995  0.416309  0.192743  1
  Si  Si23  1  0.795837  0.580274  0.688354  1
  Si  Si24  1  0.422680  0.208398  0.809210  1
  Si  Si25  1  0.574773  0.790073  0.309024  1
  Si  Si26  1  0.283539  0.920729  0.063064  1
  Si  Si27  1  0.832642  0.804428  0.795580  1
  Si  Si28  1  0.162966  0.198782  0.302478  1
  Si  Si29  1  0.798785  0.833425  0.200289  1
  Si  Si30  1  0.314788  0.673430  0.541280  1
  Si  Si31  1  0.696186  0.329008  0.048968  1
  Si  Si32  1  0.670092  0.307508  0.452196  1
  Si  Si33  1  0.329488  0.695568  0.956017  1
  Si  Si34  1  0.200851  0.168889  0.700635  1
  Pd  Pd35  1  0.073317  0.715716  0.436501  1
