# generated using pymatgen
data_LaNdTm2(Ni7P4)2
_symmetry_space_group_name_H-M   'P 1'
_cell_length_a   3.72010800
_cell_length_b   9.18687546
_cell_length_c   10.34999341
_cell_angle_alpha   89.85922489
_cell_angle_beta   90.00000000
_cell_angle_gamma   90.00000000
_symmetry_Int_Tables_number   1
_chemical_formula_structural   LaNdTm2(Ni7P4)2
_chemical_formula_sum   'La1 Nd1 Tm2 Ni14 P8'
_cell_volume   353.72205528
_cell_formula_units_Z   1
loop_
 _symmetry_equiv_pos_site_id
 _symmetry_equiv_pos_as_xyz
  1  'x, y, z'
loop_
 _atom_site_type_symbol
 _atom_site_label
 _atom_site_symmetry_multiplicity
 _atom_site_fract_x
 _atom_site_fract_y
 _atom_site_fract_z
 _atom_site_occupancy
  La  La0  1  0.500000  0.439291  0.499517  1
  Nd  Nd1  1  0.000000  0.563973  0.999219  1
  Tm  Tm2  1  0.500000  0.058652  0.281921  1
  Tm  Tm3  1  0.000000  0.941405  0.783238  1
  Ni  Ni4  1  0.500000  0.300010  0.077958  1
  Ni  Ni5  1  0.500000  0.754513  0.404393  1
  Ni  Ni6  1  0.500000  0.413656  0.805276  1
  Ni  Ni7  1  0.500000  0.056074  0.975502  1
  Ni  Ni8  1  0.500000  0.687560  0.767832  1
  Ni  Ni9  1  0.000000  0.267018  0.670258  1
  Ni  Ni10  1  0.000000  0.248000  0.904456  1
  Ni  Ni11  1  0.000000  0.701853  0.583177  1
  Ni  Ni12  1  0.500000  0.092019  0.584863  1
  Ni  Ni13  1  0.000000  0.311819  0.263976  1
  Ni  Ni14  1  0.000000  0.586405  0.298928  1
  Ni  Ni15  1  0.000000  0.906140  0.084651  1
  Ni  Ni16  1  0.000000  0.942825  0.475875  1
  Ni  Ni17  1  0.500000  0.731241  0.170244  1
  P  P18  1  0.000000  0.822993  0.287055  1
  P  P19  1  0.000000  0.185200  0.462542  1
  P  P20  1  0.500000  0.177310  0.786803  1
  P  P21  1  0.000000  0.153654  0.095084  1
  P  P22  1  0.500000  0.479545  0.213464  1
  P  P23  1  0.500000  0.813441  0.963575  1
  P  P24  1  0.500000  0.845114  0.596417  1
  P  P25  1  0.000000  0.520290  0.719177  1
