# generated using pymatgen
data_Lu9AlZn3
_symmetry_space_group_name_H-M   'P 1'
_cell_length_a   8.39869528
_cell_length_b   8.39869432
_cell_length_c   8.40381259
_cell_angle_alpha   94.48426049
_cell_angle_beta   95.52692930
_cell_angle_gamma   145.62854904
_symmetry_Int_Tables_number   1
_chemical_formula_structural   Lu9AlZn3
_chemical_formula_sum   'Lu9 Al1 Zn3'
_cell_volume   319.72317112
_cell_formula_units_Z   1
loop_
 _symmetry_equiv_pos_site_id
 _symmetry_equiv_pos_as_xyz
  1  'x, y, z'
loop_
 _atom_site_type_symbol
 _atom_site_label
 _atom_site_symmetry_multiplicity
 _atom_site_fract_x
 _atom_site_fract_y
 _atom_site_fract_z
 _atom_site_occupancy
  Lu  Lu0  1  0.500561  0.494896  0.995459  1
  Lu  Lu1  1  0.179648  0.891477  0.071127  1
  Lu  Lu2  1  0.108854  0.183399  0.292252  1
  Lu  Lu3  1  0.887470  0.402133  0.289606  1
  Lu  Lu4  1  0.602960  0.891886  0.494848  1
  Lu  Lu5  1  0.401421  0.114062  0.515481  1
  Lu  Lu6  1  0.115643  0.601423  0.717065  1
  Lu  Lu7  1  0.887471  0.815515  0.702987  1
  Lu  Lu8  1  0.817589  0.107770  0.925359  1
  Al  Al9  1  0.393248  0.735484  0.128734  1
  Zn  Zn10  1  0.736145  0.604395  0.340543  1
  Zn  Zn11  1  0.261579  0.394274  0.655851  1
  Zn  Zn12  1  0.607404  0.263280  0.870685  1
