# generated using pymatgen
data_BaIn2GaAu3
_symmetry_space_group_name_H-M   'P 1'
_cell_length_a   4.66645600
_cell_length_b   7.88480584
_cell_length_c   9.14250817
_cell_angle_alpha   91.47103376
_cell_angle_beta   90.00000000
_cell_angle_gamma   90.00000000
_symmetry_Int_Tables_number   1
_chemical_formula_structural   BaIn2GaAu3
_chemical_formula_sum   'Ba2 In4 Ga2 Au6'
_cell_volume   336.27949201
_cell_formula_units_Z   2
loop_
 _symmetry_equiv_pos_site_id
 _symmetry_equiv_pos_as_xyz
  1  'x, y, z'
loop_
 _atom_site_type_symbol
 _atom_site_label
 _atom_site_symmetry_multiplicity
 _atom_site_fract_x
 _atom_site_fract_y
 _atom_site_fract_z
 _atom_site_occupancy
  Ba  Ba0  1  0.500000  0.011682  0.738139  1
  Ba  Ba1  1  0.000000  0.488318  0.261861  1
  In  In2  1  0.000000  0.687631  0.890839  1
  In  In3  1  0.000000  0.999690  0.368776  1
  In  In4  1  0.500000  0.812369  0.109161  1
  In  In5  1  0.500000  0.500310  0.631224  1
  Ga  Ga6  1  0.000000  0.308521  0.887454  1
  Ga  Ga7  1  0.500000  0.191479  0.112546  1
  Au  Au8  1  0.000000  0.723818  0.589268  1
  Au  Au9  1  0.500000  0.776182  0.410732  1
  Au  Au10  1  0.500000  0.475429  0.954330  1
  Au  Au11  1  0.000000  0.024571  0.045670  1
  Au  Au12  1  0.500000  0.221641  0.400930  1
  Au  Au13  1  0.000000  0.278359  0.599070  1
