# generated using pymatgen
data_Tb10GaGePb6
_symmetry_space_group_name_H-M   'P 1'
_cell_length_a   9.35382800
_cell_length_b   9.35385751
_cell_length_c   6.65705400
_cell_angle_alpha   90.00000000
_cell_angle_beta   90.00000000
_cell_angle_gamma   120.00010076
_symmetry_Int_Tables_number   1
_chemical_formula_structural   Tb10GaGePb6
_chemical_formula_sum   'Tb10 Ga1 Ge1 Pb6'
_cell_volume   504.42011882
_cell_formula_units_Z   1
loop_
 _symmetry_equiv_pos_site_id
 _symmetry_equiv_pos_as_xyz
  1  'x, y, z'
loop_
 _atom_site_type_symbol
 _atom_site_label
 _atom_site_symmetry_multiplicity
 _atom_site_fract_x
 _atom_site_fract_y
 _atom_site_fract_z
 _atom_site_occupancy
  Tb  Tb0  1  0.254405  0.000000  0.258710  1
  Tb  Tb1  1  0.745595  0.000000  0.741290  1
  Tb  Tb2  1  0.000000  0.254404  0.258710  1
  Tb  Tb3  1  0.000000  0.745596  0.741290  1
  Tb  Tb4  1  0.745596  0.745596  0.258710  1
  Tb  Tb5  1  0.254404  0.254404  0.741290  1
  Tb  Tb6  1  0.333333  0.666667  0.000000  1
  Tb  Tb7  1  0.666667  0.333333  0.000000  1
  Tb  Tb8  1  0.666667  0.333333  0.500000  1
  Tb  Tb9  1  0.333333  0.666667  0.500000  1
  Ga  Ga10  1  0.000000  0.000000  0.000000  1
  Ge  Ge11  1  0.000000  0.000000  0.500000  1
  Pb  Pb12  1  0.607125  0.000000  0.251432  1
  Pb  Pb13  1  0.392875  0.000000  0.748568  1
  Pb  Pb14  1  0.000000  0.607126  0.251432  1
  Pb  Pb15  1  0.000000  0.392874  0.748568  1
  Pb  Pb16  1  0.392875  0.392875  0.251432  1
  Pb  Pb17  1  0.607125  0.607125  0.748568  1
