# generated using pymatgen
data_YbScCoB6
_symmetry_space_group_name_H-M   'P 1'
_cell_length_a   3.40394100
_cell_length_b   8.93424000
_cell_length_c   11.29840000
_cell_angle_alpha   90.00000000
_cell_angle_beta   90.00000000
_cell_angle_gamma   90.00000000
_symmetry_Int_Tables_number   1
_chemical_formula_structural   YbScCoB6
_chemical_formula_sum   'Yb4 Sc4 Co4 B24'
_cell_volume   343.60271339
_cell_formula_units_Z   4
loop_
 _symmetry_equiv_pos_site_id
 _symmetry_equiv_pos_as_xyz
  1  'x, y, z'
loop_
 _atom_site_type_symbol
 _atom_site_label
 _atom_site_symmetry_multiplicity
 _atom_site_fract_x
 _atom_site_fract_y
 _atom_site_fract_z
 _atom_site_occupancy
  Yb  Yb0  1  0.500000  0.323824  0.414520  1
  Yb  Yb1  1  0.500000  0.676176  0.585480  1
  Yb  Yb2  1  0.500000  0.176176  0.914520  1
  Yb  Yb3  1  0.500000  0.823824  0.085480  1
  Sc  Sc4  1  0.500000  0.444094  0.128656  1
  Sc  Sc5  1  0.500000  0.555906  0.871344  1
  Sc  Sc6  1  0.500000  0.055906  0.628656  1
  Sc  Sc7  1  0.500000  0.944094  0.371344  1
  Co  Co8  1  0.500000  0.141589  0.182384  1
  Co  Co9  1  0.500000  0.858411  0.817616  1
  Co  Co10  1  0.500000  0.358411  0.682384  1
  Co  Co11  1  0.500000  0.641589  0.317616  1
  B  B12  1  0.000000  0.099046  0.473551  1
  B  B13  1  0.000000  0.900954  0.526449  1
  B  B14  1  0.000000  0.400954  0.973551  1
  B  B15  1  0.000000  0.599046  0.026449  1
  B  B16  1  0.000000  0.130646  0.316500  1
  B  B17  1  0.000000  0.869354  0.683500  1
  B  B18  1  0.000000  0.369354  0.816500  1
  B  B19  1  0.000000  0.630646  0.183500  1
  B  B20  1  0.000000  0.056218  0.069149  1
  B  B21  1  0.000000  0.943782  0.930851  1
  B  B22  1  0.000000  0.443782  0.569149  1
  B  B23  1  0.000000  0.556218  0.430851  1
  B  B24  1  0.000000  0.485966  0.286646  1
  B  B25  1  0.000000  0.514034  0.713354  1
  B  B26  1  0.000000  0.014034  0.786646  1
  B  B27  1  0.000000  0.985966  0.213354  1
  B  B28  1  0.000000  0.250754  0.082663  1
  B  B29  1  0.000000  0.749246  0.917337  1
  B  B30  1  0.000000  0.249246  0.582663  1
  B  B31  1  0.000000  0.750754  0.417337  1
  B  B32  1  0.000000  0.291823  0.234733  1
  B  B33  1  0.000000  0.708177  0.765267  1
  B  B34  1  0.000000  0.208177  0.734733  1
  B  B35  1  0.000000  0.791823  0.265267  1
