# generated using pymatgen
data_AcLa2(GaNi2)2
_symmetry_space_group_name_H-M   'P 1'
_cell_length_a   5.64938422
_cell_length_b   5.64938417
_cell_length_c   8.29565397
_cell_angle_alpha   81.84278693
_cell_angle_beta   81.84278646
_cell_angle_gamma   44.19806855
_symmetry_Int_Tables_number   1
_chemical_formula_structural   AcLa2(GaNi2)2
_chemical_formula_sum   'Ac1 La2 Ga2 Ni4'
_cell_volume   182.39807403
_cell_formula_units_Z   1
loop_
 _symmetry_equiv_pos_site_id
 _symmetry_equiv_pos_as_xyz
  1  'x, y, z'
loop_
 _atom_site_type_symbol
 _atom_site_label
 _atom_site_symmetry_multiplicity
 _atom_site_fract_x
 _atom_site_fract_y
 _atom_site_fract_z
 _atom_site_occupancy
  Ac  Ac0  1  0.000000  0.000000  0.000000  1
  La  La1  1  0.377784  0.377784  0.383010  1
  La  La2  1  0.622216  0.622216  0.616990  1
  Ga  Ga3  1  0.321312  0.321312  0.784512  1
  Ga  Ga4  1  0.678688  0.678688  0.215488  1
  Ni  Ni5  1  0.737899  0.737899  0.910796  1
  Ni  Ni6  1  0.087403  0.087403  0.364921  1
  Ni  Ni7  1  0.912597  0.912597  0.635079  1
  Ni  Ni8  1  0.262101  0.262101  0.089204  1
