# generated using pymatgen
data_Nb8FeCo2Si14Ni5
_symmetry_space_group_name_H-M   'P 1'
_cell_length_a   9.25137304
_cell_length_b   9.25344213
_cell_length_c   9.27570294
_cell_angle_alpha   94.22631870
_cell_angle_beta   94.12804545
_cell_angle_gamma   148.60792871
_symmetry_Int_Tables_number   1
_chemical_formula_structural   Nb8FeCo2Si14Ni5
_chemical_formula_sum   'Nb8 Fe1 Co2 Si14 Ni5'
_cell_volume   398.34699675
_cell_formula_units_Z   1
loop_
 _symmetry_equiv_pos_site_id
 _symmetry_equiv_pos_as_xyz
  1  'x, y, z'
loop_
 _atom_site_type_symbol
 _atom_site_label
 _atom_site_symmetry_multiplicity
 _atom_site_fract_x
 _atom_site_fract_y
 _atom_site_fract_z
 _atom_site_occupancy
  Nb  Nb0  1  0.134348  0.134839  0.268158  1
  Nb  Nb1  1  0.865560  0.865890  0.732854  1
  Nb  Nb2  1  0.865811  0.133897  0.000777  1
  Nb  Nb3  1  0.134065  0.866794  0.000642  1
  Nb  Nb4  1  0.497090  0.688093  0.189497  1
  Nb  Nb5  1  0.498595  0.306990  0.808822  1
  Nb  Nb6  1  0.311355  0.502322  0.809717  1
  Nb  Nb7  1  0.692802  0.501072  0.190404  1
  Fe  Fe8  1  0.599419  0.100366  0.199029  1
  Co  Co9  1  0.900843  0.100914  0.501001  1
  Co  Co10  1  0.899380  0.400473  0.800024  1
  Si  Si11  1  0.289126  0.290625  0.585947  1
  Si  Si12  1  0.709551  0.711015  0.414158  1
  Si  Si13  1  0.706929  0.291474  0.999303  1
  Si  Si14  1  0.292332  0.707972  0.999389  1
  Si  Si15  1  0.989022  0.284232  0.295325  1
  Si  Si16  1  0.996068  0.701116  0.707461  1
  Si  Si17  1  0.714518  0.009018  0.705729  1
  Si  Si18  1  0.300733  0.005581  0.293015  1
  Si  Si19  1  0.521039  0.928630  0.405092  1
  Si  Si20  1  0.512219  0.103495  0.595545  1
  Si  Si21  1  0.076749  0.483724  0.594633  1
  Si  Si22  1  0.892139  0.482794  0.404352  1
  Si  Si23  1  0.750691  0.750754  0.000325  1
  Si  Si24  1  0.249550  0.249348  0.999905  1
  Ni  Ni25  1  0.396930  0.895693  0.793890  1
  Ni  Ni26  1  0.103519  0.601839  0.205334  1
  Ni  Ni27  1  0.103182  0.894602  0.499398  1
  Ni  Ni28  1  0.396711  0.604260  0.499211  1
  Ni  Ni29  1  0.599723  0.402175  0.501059  1
