# generated using pymatgen
data_La9Y3(OsPd)2
_symmetry_space_group_name_H-M   'P 1'
_cell_length_a   6.62130759
_cell_length_b   7.49707370
_cell_length_c   9.96305600
_cell_angle_alpha   90.38581668
_cell_angle_beta   91.36602353
_cell_angle_gamma   90.41677307
_symmetry_Int_Tables_number   1
_chemical_formula_structural   La9Y3(OsPd)2
_chemical_formula_sum   'La9 Y3 Os2 Pd2'
_cell_volume   494.40495576
_cell_formula_units_Z   1
loop_
 _symmetry_equiv_pos_site_id
 _symmetry_equiv_pos_as_xyz
  1  'x, y, z'
loop_
 _atom_site_type_symbol
 _atom_site_label
 _atom_site_symmetry_multiplicity
 _atom_site_fract_x
 _atom_site_fract_y
 _atom_site_fract_z
 _atom_site_occupancy
  La  La0  1  0.627621  0.046803  0.254581  1
  La  La1  1  0.366785  0.954658  0.748129  1
  La  La2  1  0.152210  0.468894  0.748995  1
  La  La3  1  0.853048  0.528101  0.250222  1
  La  La4  1  0.171190  0.187816  0.073860  1
  La  La5  1  0.829742  0.814923  0.928550  1
  La  La6  1  0.657121  0.333756  0.924851  1
  La  La7  1  0.828404  0.816265  0.558763  1
  La  La8  1  0.344915  0.666328  0.075473  1
  Y  Y9  1  0.168539  0.183953  0.439050  1
  Y  Y10  1  0.338949  0.670251  0.443066  1
  Y  Y11  1  0.656855  0.325611  0.555351  1
  Os  Os12  1  0.440494  0.376960  0.272042  1
  Os  Os13  1  0.559694  0.621900  0.727686  1
  Pd  Pd14  1  0.934512  0.120053  0.741610  1
  Pd  Pd15  1  0.069921  0.883728  0.257770  1
