# generated using pymatgen
data_Tb5IrRu
_symmetry_space_group_name_H-M   'P 1'
_cell_length_a   6.46156327
_cell_length_b   7.25845846
_cell_length_c   8.56646032
_cell_angle_alpha   96.44254624
_cell_angle_beta   112.15682747
_cell_angle_gamma   90.00000018
_symmetry_Int_Tables_number   1
_chemical_formula_structural   Tb5IrRu
_chemical_formula_sum   'Tb10 Ir2 Ru2'
_cell_volume   369.36534753
_cell_formula_units_Z   2
loop_
 _symmetry_equiv_pos_site_id
 _symmetry_equiv_pos_as_xyz
  1  'x, y, z'
loop_
 _atom_site_type_symbol
 _atom_site_label
 _atom_site_symmetry_multiplicity
 _atom_site_fract_x
 _atom_site_fract_y
 _atom_site_fract_z
 _atom_site_occupancy
  Tb  Tb0  1  0.972390  0.916023  0.182849  1
  Tb  Tb1  1  0.789541  0.583977  0.817151  1
  Tb  Tb2  1  0.025577  0.081761  0.816288  1
  Tb  Tb3  1  0.209289  0.418239  0.183712  1
  Tb  Tb4  1  0.653466  0.817046  0.439996  1
  Tb  Tb5  1  0.213470  0.682954  0.560004  1
  Tb  Tb6  1  0.347641  0.182225  0.561623  1
  Tb  Tb7  1  0.786018  0.317775  0.438377  1
  Tb  Tb8  1  0.427842  0.750000  0.000000  1
  Tb  Tb9  1  0.573814  0.250000  0.000000  1
  Ir  Ir10  1  0.173915  0.426213  0.779179  1
  Ir  Ir11  1  0.394736  0.073787  0.220821  1
  Ru  Ru12  1  0.826540  0.571733  0.220779  1
  Ru  Ru13  1  0.605761  0.928267  0.779221  1
