# generated using pymatgen
data_Dy3PtRh2Pb3
_symmetry_space_group_name_H-M   'P 1'
_cell_length_a   7.76018900
_cell_length_b   7.76019028
_cell_length_c   3.87098800
_cell_angle_alpha   90.00000000
_cell_angle_beta   90.00000000
_cell_angle_gamma   119.99999881
_symmetry_Int_Tables_number   1
_chemical_formula_structural   Dy3PtRh2Pb3
_chemical_formula_sum   'Dy3 Pt1 Rh2 Pb3'
_cell_volume   201.88178257
_cell_formula_units_Z   1
loop_
 _symmetry_equiv_pos_site_id
 _symmetry_equiv_pos_as_xyz
  1  'x, y, z'
loop_
 _atom_site_type_symbol
 _atom_site_label
 _atom_site_symmetry_multiplicity
 _atom_site_fract_x
 _atom_site_fract_y
 _atom_site_fract_z
 _atom_site_occupancy
  Dy  Dy0  1  0.003978  0.594876  0.000000  1
  Dy  Dy1  1  0.405124  0.409103  0.000000  1
  Dy  Dy2  1  0.590897  0.996022  0.000000  1
  Pt  Pt3  1  0.666667  0.333333  0.500000  1
  Rh  Rh4  1  0.000000  0.000000  0.000000  1
  Rh  Rh5  1  0.333333  0.666667  0.500000  1
  Pb  Pb6  1  0.735460  0.740457  0.500000  1
  Pb  Pb7  1  0.004997  0.264540  0.500000  1
  Pb  Pb8  1  0.259543  0.995003  0.500000  1
