# generated using pymatgen
data_Hf6Zr4AlSn6Ge
_symmetry_space_group_name_H-M   'P 1'
_cell_length_a   8.68869505
_cell_length_b   8.68935031
_cell_length_c   5.86871911
_cell_angle_alpha   89.97733008
_cell_angle_beta   90.01133717
_cell_angle_gamma   120.00249261
_symmetry_Int_Tables_number   1
_chemical_formula_structural   Hf6Zr4AlSn6Ge
_chemical_formula_sum   'Hf6 Zr4 Al1 Sn6 Ge1'
_cell_volume   383.71155165
_cell_formula_units_Z   1
loop_
 _symmetry_equiv_pos_site_id
 _symmetry_equiv_pos_as_xyz
  1  'x, y, z'
loop_
 _atom_site_type_symbol
 _atom_site_label
 _atom_site_symmetry_multiplicity
 _atom_site_fract_x
 _atom_site_fract_y
 _atom_site_fract_z
 _atom_site_occupancy
  Hf  Hf0  1  0.333163  0.666582  0.000000  1
  Hf  Hf1  1  0.666217  0.333108  0.500000  1
  Hf  Hf2  1  0.666000  0.332999  0.000000  1
  Hf  Hf3  1  0.333241  0.666621  0.500000  1
  Hf  Hf4  1  0.268092  0.000351  0.246572  1
  Hf  Hf5  1  0.268092  0.267741  0.753428  1
  Zr  Zr6  1  0.000136  0.732542  0.752887  1
  Zr  Zr7  1  0.000136  0.267594  0.247113  1
  Zr  Zr8  1  0.732153  0.732423  0.247061  1
  Zr  Zr9  1  0.732153  0.999730  0.752939  1
  Al  Al10  1  0.000373  0.000186  0.500000  1
  Sn  Sn11  1  0.609912  0.999990  0.252382  1
  Sn  Sn12  1  0.609912  0.609922  0.747618  1
  Sn  Sn13  1  0.000352  0.389188  0.747725  1
  Sn  Sn14  1  0.000352  0.611164  0.252275  1
  Sn  Sn15  1  0.389285  0.388941  0.252184  1
  Sn  Sn16  1  0.389285  0.000344  0.747816  1
  Ge  Ge17  1  0.001147  0.000573  0.000000  1
