# generated using pymatgen
data_LiZr(TaPd6)2
_symmetry_space_group_name_H-M   'P 1'
_cell_length_a   5.63204600
_cell_length_b   5.63204608
_cell_length_c   9.14064300
_cell_angle_alpha   90.00000000
_cell_angle_beta   90.00000000
_cell_angle_gamma   119.99999955
_symmetry_Int_Tables_number   1
_chemical_formula_structural   LiZr(TaPd6)2
_chemical_formula_sum   'Li1 Zr1 Ta2 Pd12'
_cell_volume   251.09598790
_cell_formula_units_Z   1
loop_
 _symmetry_equiv_pos_site_id
 _symmetry_equiv_pos_as_xyz
  1  'x, y, z'
loop_
 _atom_site_type_symbol
 _atom_site_label
 _atom_site_symmetry_multiplicity
 _atom_site_fract_x
 _atom_site_fract_y
 _atom_site_fract_z
 _atom_site_occupancy
  Li  Li0  1  0.333333  0.666667  0.250054  1
  Zr  Zr1  1  0.000000  0.000000  0.006703  1
  Ta  Ta2  1  0.000000  0.000000  0.488355  1
  Ta  Ta3  1  0.666667  0.333333  0.753118  1
  Pd  Pd4  1  0.501720  0.498280  0.503639  1
  Pd  Pd5  1  0.501720  0.003438  0.503639  1
  Pd  Pd6  1  0.996562  0.498280  0.503639  1
  Pd  Pd7  1  0.501375  0.498625  0.996833  1
  Pd  Pd8  1  0.501375  0.002748  0.996833  1
  Pd  Pd9  1  0.997252  0.498625  0.996833  1
  Pd  Pd10  1  0.830867  0.169133  0.253964  1
  Pd  Pd11  1  0.830867  0.661733  0.253964  1
  Pd  Pd12  1  0.338267  0.169133  0.253964  1
  Pd  Pd13  1  0.167091  0.832909  0.746154  1
  Pd  Pd14  1  0.167091  0.334184  0.746154  1
  Pd  Pd15  1  0.665816  0.832909  0.746154  1
