# generated using pymatgen
data_Pr3ThAl17GaIr6
_symmetry_space_group_name_H-M   'P 1'
_cell_length_a   7.63722670
_cell_length_b   7.63758086
_cell_length_c   9.62414100
_cell_angle_alpha   90.00000000
_cell_angle_beta   90.00000000
_cell_angle_gamma   119.34838438
_symmetry_Int_Tables_number   1
_chemical_formula_structural   Pr3ThAl17GaIr6
_chemical_formula_sum   'Pr3 Th1 Al17 Ga1 Ir6'
_cell_volume   489.32617992
_cell_formula_units_Z   1
loop_
 _symmetry_equiv_pos_site_id
 _symmetry_equiv_pos_as_xyz
  1  'x, y, z'
loop_
 _atom_site_type_symbol
 _atom_site_label
 _atom_site_symmetry_multiplicity
 _atom_site_fract_x
 _atom_site_fract_y
 _atom_site_fract_z
 _atom_site_occupancy
  Pr  Pr0  1  0.005447  0.326582  0.750000  1
  Pr  Pr1  1  0.671639  0.994785  0.250000  1
  Pr  Pr2  1  0.326333  0.005455  0.750000  1
  Th  Th3  1  0.995454  0.672269  0.250000  1
  Al  Al4  1  0.134429  0.134327  0.250000  1
  Al  Al5  1  0.003097  0.333794  0.073165  1
  Al  Al6  1  0.996717  0.663710  0.924422  1
  Al  Al7  1  0.996717  0.663710  0.575578  1
  Al  Al8  1  0.338678  0.005315  0.426895  1
  Al  Al9  1  0.003097  0.333794  0.426835  1
  Al  Al10  1  0.664109  0.997435  0.572808  1
  Al  Al11  1  0.664109  0.997435  0.927192  1
  Al  Al12  1  0.338678  0.005315  0.073105  1
  Al  Al13  1  0.334622  0.334595  0.546692  1
  Al  Al14  1  0.663643  0.665431  0.452020  1
  Al  Al15  1  0.663643  0.665431  0.047980  1
  Al  Al16  1  0.334622  0.334595  0.953308  1
  Al  Al17  1  0.340715  0.546280  0.250000  1
  Al  Al18  1  0.660181  0.451895  0.750000  1
  Al  Al19  1  0.545316  0.340399  0.250000  1
  Al  Al20  1  0.452108  0.661664  0.750000  1
  Ga  Ga21  1  0.864334  0.865492  0.750000  1
  Ir  Ir22  1  0.672930  0.331502  0.001253  1
  Ir  Ir23  1  0.328281  0.671237  0.001156  1
  Ir  Ir24  1  0.328281  0.671237  0.498844  1
  Ir  Ir25  1  0.672930  0.331502  0.498747  1
  Ir  Ir26  1  0.999947  0.997407  0.005267  1
  Ir  Ir27  1  0.999947  0.997407  0.494733  1
