# generated using pymatgen
data_Sc12Tc(PtBr8)2
_symmetry_space_group_name_H-M   'P 1'
_cell_length_a   9.03384492
_cell_length_b   11.61411191
_cell_length_c   12.35560100
_cell_angle_alpha   117.00662508
_cell_angle_beta   101.25994765
_cell_angle_gamma   100.93364952
_symmetry_Int_Tables_number   1
_chemical_formula_structural   Sc12Tc(PtBr8)2
_chemical_formula_sum   'Sc12 Tc1 Pt2 Br16'
_cell_volume   1073.75228898
_cell_formula_units_Z   1
loop_
 _symmetry_equiv_pos_site_id
 _symmetry_equiv_pos_as_xyz
  1  'x, y, z'
loop_
 _atom_site_type_symbol
 _atom_site_label
 _atom_site_symmetry_multiplicity
 _atom_site_fract_x
 _atom_site_fract_y
 _atom_site_fract_z
 _atom_site_occupancy
  Sc  Sc0  1  0.091183  0.268447  0.357041  1
  Sc  Sc1  1  0.914725  0.734851  0.644004  1
  Sc  Sc2  1  0.779446  0.536816  0.326339  1
  Sc  Sc3  1  0.224403  0.464740  0.672085  1
  Sc  Sc4  1  0.281222  0.731753  0.643385  1
  Sc  Sc5  1  0.722523  0.265042  0.355532  1
  Sc  Sc6  1  0.147012  0.534832  0.328603  1
  Sc  Sc7  1  0.857304  0.463730  0.672976  1
  Sc  Sc8  1  0.400782  0.357751  0.272446  1
  Sc  Sc9  1  0.591293  0.641992  0.727615  1
  Sc  Sc10  1  0.455299  0.309472  0.520580  1
  Sc  Sc11  1  0.537361  0.690397  0.479564  1
  Tc  Tc12  1  0.338551  0.499947  0.499730  1
  Pt  Pt13  1  0.997335  0.500007  0.499956  1
  Pt  Pt14  1  0.661294  0.499991  0.500402  1
  Br  Br15  1  0.391111  0.731833  0.870190  1
  Br  Br16  1  0.609327  0.269934  0.132801  1
  Br  Br17  1  0.181983  0.947038  0.773396  1
  Br  Br18  1  0.817696  0.053091  0.226005  1
  Br  Br19  1  0.343594  0.110335  0.262027  1
  Br  Br20  1  0.655486  0.889557  0.738055  1
  Br  Br21  1  0.554778  0.438025  0.786388  1
  Br  Br22  1  0.446312  0.561669  0.213950  1
  Br  Br23  1  0.306206  0.815385  0.465065  1
  Br  Br24  1  0.695531  0.186990  0.534476  1
  Br  Br25  1  0.169255  0.183173  0.532191  1
  Br  Br26  1  0.830892  0.814574  0.468119  1
  Br  Br27  1  0.928762  0.570616  0.171968  1
  Br  Br28  1  0.071124  0.429611  0.828207  1
  Br  Br29  1  0.916682  0.729289  0.866996  1
  Br  Br30  1  0.081525  0.269109  0.129905  1
