# generated using pymatgen
data_YbDyTc3Ge4
_symmetry_space_group_name_H-M   'P 1'
_cell_length_a   8.28203000
_cell_length_b   5.68548725
_cell_length_c   7.02193409
_cell_angle_alpha   76.44788414
_cell_angle_beta   90.00000000
_cell_angle_gamma   90.00000000
_symmetry_Int_Tables_number   1
_chemical_formula_structural   YbDyTc3Ge4
_chemical_formula_sum   'Yb2 Dy2 Tc6 Ge8'
_cell_volume   321.43837614
_cell_formula_units_Z   2
loop_
 _symmetry_equiv_pos_site_id
 _symmetry_equiv_pos_as_xyz
  1  'x, y, z'
loop_
 _atom_site_type_symbol
 _atom_site_label
 _atom_site_symmetry_multiplicity
 _atom_site_fract_x
 _atom_site_fract_y
 _atom_site_fract_z
 _atom_site_occupancy
  Yb  Yb0  1  0.446409  0.929383  0.754283  1
  Yb  Yb1  1  0.946409  0.570617  0.245717  1
  Dy  Dy2  1  0.557694  0.082052  0.244590  1
  Dy  Dy3  1  0.057694  0.417948  0.755410  1
  Tc  Tc4  1  0.209548  0.090667  0.115462  1
  Tc  Tc5  1  0.709548  0.409333  0.884538  1
  Tc  Tc6  1  0.791491  0.863782  0.887352  1
  Tc  Tc7  1  0.291491  0.636218  0.112648  1
  Tc  Tc8  1  0.997442  0.999607  0.495036  1
  Tc  Tc9  1  0.497442  0.500393  0.504964  1
  Ge  Ge10  1  0.903063  0.118155  0.119560  1
  Ge  Ge11  1  0.403063  0.381845  0.880440  1
  Ge  Ge12  1  0.093554  0.877134  0.864193  1
  Ge  Ge13  1  0.593554  0.622866  0.135807  1
  Ge  Ge14  1  0.747000  0.217446  0.590803  1
  Ge  Ge15  1  0.247000  0.282554  0.409197  1
  Ge  Ge16  1  0.253797  0.775253  0.436279  1
  Ge  Ge17  1  0.753797  0.724747  0.563721  1
