# generated using pymatgen
data_Ho12Th8Sn15Bi
_symmetry_space_group_name_H-M   'P 1'
_cell_length_a   8.13085662
_cell_length_b   8.22409025
_cell_length_c   15.49419054
_cell_angle_alpha   90.02154104
_cell_angle_beta   90.15563805
_cell_angle_gamma   90.01863768
_symmetry_Int_Tables_number   1
_chemical_formula_structural   Ho12Th8Sn15Bi
_chemical_formula_sum   'Ho12 Th8 Sn15 Bi1'
_cell_volume   1036.07550669
_cell_formula_units_Z   1
loop_
 _symmetry_equiv_pos_site_id
 _symmetry_equiv_pos_as_xyz
  1  'x, y, z'
loop_
 _atom_site_type_symbol
 _atom_site_label
 _atom_site_symmetry_multiplicity
 _atom_site_fract_x
 _atom_site_fract_y
 _atom_site_fract_z
 _atom_site_occupancy
  Ho  Ho0  1  0.358696  0.835862  0.874500  1
  Ho  Ho1  1  0.856725  0.663618  0.624123  1
  Ho  Ho2  1  0.644035  0.162462  0.375457  1
  Ho  Ho3  1  0.140269  0.342634  0.125685  1
  Ho  Ho4  1  0.647169  0.161745  0.124311  1
  Ho  Ho5  1  0.143946  0.336743  0.375266  1
  Ho  Ho6  1  0.356233  0.837429  0.624585  1
  Ho  Ho7  1  0.858023  0.662431  0.875261  1
  Ho  Ho8  1  0.185867  0.497965  0.749568  1
  Ho  Ho9  1  0.685526  0.002557  0.750150  1
  Ho  Ho10  1  0.813754  0.502427  0.250735  1
  Ho  Ho11  1  0.314332  0.997084  0.252965  1
  Th  Th12  1  0.518222  0.324000  0.903773  1
  Th  Th13  1  0.015116  0.178470  0.594999  1
  Th  Th14  1  0.485377  0.677987  0.405187  1
  Th  Th15  1  0.977826  0.817939  0.096736  1
  Th  Th16  1  0.485504  0.674969  0.095301  1
  Th  Th17  1  0.985042  0.821312  0.405193  1
  Th  Th18  1  0.514367  0.321341  0.594916  1
  Th  Th19  1  0.012260  0.181656  0.903104  1
  Sn  Sn20  1  0.802457  0.458983  0.457951  1
  Sn  Sn21  1  0.697696  0.959690  0.542192  1
  Sn  Sn22  1  0.199569  0.540432  0.957791  1
  Sn  Sn23  1  0.701653  0.959418  0.956848  1
  Sn  Sn24  1  0.197605  0.540911  0.542000  1
  Sn  Sn25  1  0.302412  0.040486  0.458364  1
  Sn  Sn26  1  0.801487  0.458428  0.042055  1
  Sn  Sn27  1  0.552348  0.621401  0.749475  1
  Sn  Sn28  1  0.051722  0.879057  0.750101  1
  Sn  Sn29  1  0.448607  0.377094  0.249168  1
  Sn  Sn30  1  0.949355  0.120682  0.249483  1
  Sn  Sn31  1  0.321233  0.144626  0.750245  1
  Sn  Sn32  1  0.820715  0.356683  0.748757  1
  Sn  Sn33  1  0.677104  0.855023  0.250359  1
  Sn  Sn34  1  0.178811  0.645280  0.250514  1
  Bi  Bi35  1  0.298941  0.041177  0.042878  1
