# generated using pymatgen
data_Y3Cd3Hg2Pt
_symmetry_space_group_name_H-M   'P 1'
_cell_length_a   8.13142500
_cell_length_b   8.13142508
_cell_length_c   3.74909000
_cell_angle_alpha   90.00000000
_cell_angle_beta   90.00000000
_cell_angle_gamma   119.99999561
_symmetry_Int_Tables_number   1
_chemical_formula_structural   Y3Cd3Hg2Pt
_chemical_formula_sum   'Y3 Cd3 Hg2 Pt1'
_cell_volume   214.67913792
_cell_formula_units_Z   1
loop_
 _symmetry_equiv_pos_site_id
 _symmetry_equiv_pos_as_xyz
  1  'x, y, z'
loop_
 _atom_site_type_symbol
 _atom_site_label
 _atom_site_symmetry_multiplicity
 _atom_site_fract_x
 _atom_site_fract_y
 _atom_site_fract_z
 _atom_site_occupancy
  Y  Y0  1  0.584001  0.969340  0.000000  1
  Y  Y1  1  0.030660  0.614661  0.000000  1
  Y  Y2  1  0.385339  0.415999  0.000000  1
  Cd  Cd3  1  0.281101  0.004277  0.500000  1
  Cd  Cd4  1  0.995723  0.276825  0.500000  1
  Cd  Cd5  1  0.723175  0.718899  0.500000  1
  Hg  Hg6  1  0.666667  0.333333  0.500000  1
  Hg  Hg7  1  0.000000  0.000000  0.000000  1
  Pt  Pt8  1  0.333333  0.666667  0.500000  1
