# generated using pymatgen
data_Sr8ZrMo3O16
_symmetry_space_group_name_H-M   'P 1'
_cell_length_a   5.82328083
_cell_length_b   5.82328056
_cell_length_c   12.64401253
_cell_angle_alpha   90.00429229
_cell_angle_beta   89.99570798
_cell_angle_gamma   88.97194563
_symmetry_Int_Tables_number   1
_chemical_formula_structural   Sr8ZrMo3O16
_chemical_formula_sum   'Sr8 Zr1 Mo3 O16'
_cell_volume   428.69700558
_cell_formula_units_Z   1
loop_
 _symmetry_equiv_pos_site_id
 _symmetry_equiv_pos_as_xyz
  1  'x, y, z'
loop_
 _atom_site_type_symbol
 _atom_site_label
 _atom_site_symmetry_multiplicity
 _atom_site_fract_x
 _atom_site_fract_y
 _atom_site_fract_z
 _atom_site_occupancy
  Sr  Sr0  1  0.264062  0.764078  0.102356  1
  Sr  Sr1  1  0.264082  0.235918  0.602639  1
  Sr  Sr2  1  0.736199  0.763801  0.603980  1
  Sr  Sr3  1  0.735922  0.235938  0.102356  1
  Sr  Sr4  1  0.764078  0.264062  0.397644  1
  Sr  Sr5  1  0.763801  0.736199  0.896020  1
  Sr  Sr6  1  0.235918  0.264082  0.897361  1
  Sr  Sr7  1  0.235938  0.735922  0.397644  1
  Zr  Zr8  1  0.750000  0.750000  0.250000  1
  Mo  Mo9  1  0.250000  0.750000  0.750000  1
  Mo  Mo10  1  0.250000  0.250000  0.250000  1
  Mo  Mo11  1  0.750000  0.250000  0.750000  1
  O  O12  1  0.288842  0.211158  0.088253  1
  O  O13  1  0.288095  0.787761  0.587169  1
  O  O14  1  0.499415  0.000585  0.778859  1
  O  O15  1  0.495553  0.004447  0.275303  1
  O  O16  1  0.499257  0.499257  0.750000  1
  O  O17  1  0.500946  0.500946  0.250000  1
  O  O18  1  0.712239  0.211905  0.587169  1
  O  O19  1  0.706212  0.793788  0.083844  1
  O  O20  1  0.787761  0.288095  0.912831  1
  O  O21  1  0.793788  0.706212  0.416156  1
  O  O22  1  0.999054  0.999054  0.250000  1
  O  O23  1  0.004447  0.495553  0.224697  1
  O  O24  1  0.000743  0.000743  0.750000  1
  O  O25  1  0.000585  0.499415  0.721141  1
  O  O26  1  0.211905  0.712239  0.912831  1
  O  O27  1  0.211158  0.288842  0.411747  1
