# generated using pymatgen
data_TbHoSi3Ni
_symmetry_space_group_name_H-M   'P 1'
_cell_length_a   4.02465400
_cell_length_b   7.94888777
_cell_length_c   7.94888800
_cell_angle_alpha   120.00246847
_cell_angle_beta   90.00000000
_cell_angle_gamma   90.00000000
_symmetry_Int_Tables_number   1
_chemical_formula_structural   TbHoSi3Ni
_chemical_formula_sum   'Tb2 Ho2 Si6 Ni2'
_cell_volume   220.22221253
_cell_formula_units_Z   2
loop_
 _symmetry_equiv_pos_site_id
 _symmetry_equiv_pos_as_xyz
  1  'x, y, z'
loop_
 _atom_site_type_symbol
 _atom_site_label
 _atom_site_symmetry_multiplicity
 _atom_site_fract_x
 _atom_site_fract_y
 _atom_site_fract_z
 _atom_site_occupancy
  Tb  Tb0  1  0.500000  0.000015  0.000015  1
  Tb  Tb1  1  0.500000  0.499296  0.499296  1
  Ho  Ho2  1  0.500000  0.000022  0.500723  1
  Ho  Ho3  1  0.500000  0.500723  0.000022  1
  Si  Si4  1  0.000000  0.829206  0.171017  1
  Si  Si5  1  0.000000  0.829315  0.658301  1
  Si  Si6  1  0.000000  0.341704  0.170482  1
  Si  Si7  1  0.000000  0.171017  0.829206  1
  Si  Si8  1  0.000000  0.658301  0.829315  1
  Si  Si9  1  0.000000  0.170482  0.341704  1
  Ni  Ni10  1  0.000000  0.666930  0.333089  1
  Ni  Ni11  1  0.000000  0.333089  0.666930  1
