# generated using pymatgen
data_Ho6Er2Tc3B24Os
_symmetry_space_group_name_H-M   'P 1'
_cell_length_a   3.66180100
_cell_length_b   9.13081402
_cell_length_c   11.51145505
_cell_angle_alpha   89.95845602
_cell_angle_beta   90.00000000
_cell_angle_gamma   90.00000000
_symmetry_Int_Tables_number   1
_chemical_formula_structural   Ho6Er2Tc3B24Os
_chemical_formula_sum   'Ho6 Er2 Tc3 B24 Os1'
_cell_volume   384.88797599
_cell_formula_units_Z   1
loop_
 _symmetry_equiv_pos_site_id
 _symmetry_equiv_pos_as_xyz
  1  'x, y, z'
loop_
 _atom_site_type_symbol
 _atom_site_label
 _atom_site_symmetry_multiplicity
 _atom_site_fract_x
 _atom_site_fract_y
 _atom_site_fract_z
 _atom_site_occupancy
  Ho  Ho0  1  0.000000  0.323811  0.413751  1
  Ho  Ho1  1  0.000000  0.675382  0.584396  1
  Ho  Ho2  1  0.000000  0.822788  0.087269  1
  Ho  Ho3  1  0.000000  0.178132  0.914486  1
  Ho  Ho4  1  0.000000  0.942525  0.370066  1
  Ho  Ho5  1  0.000000  0.058172  0.630049  1
  Er  Er6  1  0.000000  0.443028  0.130040  1
  Er  Er7  1  0.000000  0.556892  0.869675  1
  Tc  Tc8  1  0.000000  0.638409  0.320222  1
  Tc  Tc9  1  0.000000  0.361770  0.680280  1
  Tc  Tc10  1  0.000000  0.138442  0.178205  1
  B  B11  1  0.500000  0.553098  0.432912  1
  B  B12  1  0.500000  0.446889  0.566831  1
  B  B13  1  0.500000  0.053116  0.066862  1
  B  B14  1  0.500000  0.946196  0.932974  1
  B  B15  1  0.500000  0.748521  0.418775  1
  B  B16  1  0.500000  0.251117  0.581235  1
  B  B17  1  0.500000  0.249579  0.081234  1
  B  B18  1  0.500000  0.750833  0.918497  1
  B  B19  1  0.500000  0.791637  0.265512  1
  B  B20  1  0.500000  0.208564  0.735027  1
  B  B21  1  0.500000  0.292065  0.234629  1
  B  B22  1  0.500000  0.708663  0.765370  1
  B  B23  1  0.500000  0.630730  0.185422  1
  B  B24  1  0.500000  0.369162  0.815111  1
  B  B25  1  0.500000  0.130679  0.314090  1
  B  B26  1  0.500000  0.868840  0.685731  1
  B  B27  1  0.500000  0.981859  0.211721  1
  B  B28  1  0.500000  0.016918  0.788286  1
  B  B29  1  0.500000  0.481959  0.287882  1
  B  B30  1  0.500000  0.517861  0.711934  1
  B  B31  1  0.500000  0.601376  0.028004  1
  B  B32  1  0.500000  0.399666  0.971862  1
  B  B33  1  0.500000  0.101751  0.471785  1
  B  B34  1  0.500000  0.898310  0.528657  1
  Os  Os35  1  0.000000  0.861258  0.821219  1
