# generated using pymatgen
data_Er9PaPt18
_symmetry_space_group_name_H-M   'P 1'
_cell_length_a   9.76363143
_cell_length_b   9.76363143
_cell_length_c   5.75734500
_cell_angle_alpha   90.00000000
_cell_angle_beta   90.00000000
_cell_angle_gamma   90.30869568
_symmetry_Int_Tables_number   1
_chemical_formula_structural   Er9PaPt18
_chemical_formula_sum   'Er9 Pa1 Pt18'
_cell_volume   548.83108923
_cell_formula_units_Z   1
loop_
 _symmetry_equiv_pos_site_id
 _symmetry_equiv_pos_as_xyz
  1  'x, y, z'
loop_
 _atom_site_type_symbol
 _atom_site_label
 _atom_site_symmetry_multiplicity
 _atom_site_fract_x
 _atom_site_fract_y
 _atom_site_fract_z
 _atom_site_occupancy
  Er  Er0  1  0.452553  0.809580  0.000000  1
  Er  Er1  1  0.547447  0.190420  0.000000  1
  Er  Er2  1  0.190420  0.547447  0.000000  1
  Er  Er3  1  0.809580  0.452553  0.000000  1
  Er  Er4  1  0.306505  0.046575  0.500000  1
  Er  Er5  1  0.693495  0.953425  0.500000  1
  Er  Er6  1  0.953425  0.693495  0.500000  1
  Er  Er7  1  0.046575  0.306505  0.500000  1
  Er  Er8  1  0.000000  0.000000  0.000000  1
  Pa  Pa9  1  0.500000  0.500000  0.500000  1
  Pt  Pt10  1  0.192157  0.807843  0.249118  1
  Pt  Pt11  1  0.807843  0.192157  0.750882  1
  Pt  Pt12  1  0.807843  0.192157  0.249118  1
  Pt  Pt13  1  0.192157  0.807843  0.750882  1
  Pt  Pt14  1  0.440993  0.778123  0.500000  1
  Pt  Pt15  1  0.559007  0.221877  0.500000  1
  Pt  Pt16  1  0.221877  0.559007  0.500000  1
  Pt  Pt17  1  0.778123  0.440993  0.500000  1
  Pt  Pt18  1  0.307548  0.307548  0.250066  1
  Pt  Pt19  1  0.692452  0.692452  0.749934  1
  Pt  Pt20  1  0.692452  0.692452  0.250066  1
  Pt  Pt21  1  0.307548  0.307548  0.749934  1
  Pt  Pt22  1  0.281662  0.057599  0.000000  1
  Pt  Pt23  1  0.718338  0.942401  0.000000  1
  Pt  Pt24  1  0.942401  0.718338  0.000000  1
  Pt  Pt25  1  0.057599  0.281662  0.000000  1
  Pt  Pt26  1  0.000000  0.000000  0.500000  1
  Pt  Pt27  1  0.500000  0.500000  0.000000  1
