# generated using pymatgen
data_Er4TmIrPt2
_symmetry_space_group_name_H-M   'P 1'
_cell_length_a   10.98271300
_cell_length_b   10.98271300
_cell_length_c   6.24916100
_cell_angle_alpha   90.00000000
_cell_angle_beta   90.00000000
_cell_angle_gamma   90.00000000
_symmetry_Int_Tables_number   1
_chemical_formula_structural   Er4TmIrPt2
_chemical_formula_sum   'Er16 Tm4 Ir4 Pt8'
_cell_volume   753.77370509
_cell_formula_units_Z   4
loop_
 _symmetry_equiv_pos_site_id
 _symmetry_equiv_pos_as_xyz
  1  'x, y, z'
loop_
 _atom_site_type_symbol
 _atom_site_label
 _atom_site_symmetry_multiplicity
 _atom_site_fract_x
 _atom_site_fract_y
 _atom_site_fract_z
 _atom_site_occupancy
  Er  Er0  1  0.294227  0.087132  0.373789  1
  Er  Er1  1  0.294227  0.912868  0.873789  1
  Er  Er2  1  0.705773  0.087132  0.873789  1
  Er  Er3  1  0.705773  0.912868  0.373789  1
  Er  Er4  1  0.587132  0.794227  0.873789  1
  Er  Er5  1  0.587132  0.205773  0.373789  1
  Er  Er6  1  0.412868  0.794227  0.373789  1
  Er  Er7  1  0.412868  0.205773  0.873789  1
  Er  Er8  1  0.205773  0.412868  0.626211  1
  Er  Er9  1  0.205773  0.587132  0.126211  1
  Er  Er10  1  0.794227  0.412868  0.126211  1
  Er  Er11  1  0.794227  0.587132  0.626211  1
  Er  Er12  1  0.912868  0.705773  0.126211  1
  Er  Er13  1  0.912868  0.294227  0.626211  1
  Er  Er14  1  0.087132  0.705773  0.626211  1
  Er  Er15  1  0.087132  0.294227  0.126211  1
  Tm  Tm16  1  0.000000  0.000000  0.500000  1
  Tm  Tm17  1  0.000000  0.000000  0.000000  1
  Tm  Tm18  1  0.500000  0.500000  0.000000  1
  Tm  Tm19  1  0.500000  0.500000  0.500000  1
  Ir  Ir20  1  0.500000  0.000000  0.120895  1
  Ir  Ir21  1  0.500000  0.000000  0.620895  1
  Ir  Ir22  1  0.000000  0.500000  0.879105  1
  Ir  Ir23  1  0.000000  0.500000  0.379105  1
  Pt  Pt24  1  0.846764  0.153236  0.250000  1
  Pt  Pt25  1  0.846764  0.846764  0.750000  1
  Pt  Pt26  1  0.153236  0.153236  0.750000  1
  Pt  Pt27  1  0.153236  0.846764  0.250000  1
  Pt  Pt28  1  0.653236  0.346764  0.750000  1
  Pt  Pt29  1  0.653236  0.653236  0.250000  1
  Pt  Pt30  1  0.346764  0.346764  0.250000  1
  Pt  Pt31  1  0.346764  0.653236  0.750000  1
