# generated using pymatgen
data_YTmAl20IrRu3
_symmetry_space_group_name_H-M   'P 1'
_cell_length_a   6.83790516
_cell_length_b   6.84132729
_cell_length_c   9.13700886
_cell_angle_alpha   90.07352477
_cell_angle_beta   90.09781206
_cell_angle_gamma   96.61452975
_symmetry_Int_Tables_number   1
_chemical_formula_structural   YTmAl20IrRu3
_chemical_formula_sum   'Y1 Tm1 Al20 Ir1 Ru3'
_cell_volume   424.58618955
_cell_formula_units_Z   1
loop_
 _symmetry_equiv_pos_site_id
 _symmetry_equiv_pos_as_xyz
  1  'x, y, z'
loop_
 _atom_site_type_symbol
 _atom_site_label
 _atom_site_symmetry_multiplicity
 _atom_site_fract_x
 _atom_site_fract_y
 _atom_site_fract_z
 _atom_site_occupancy
  Y  Y0  1  0.129190  0.872586  0.249676  1
  Tm  Tm1  1  0.870264  0.127770  0.750441  1
  Al  Al2  1  0.620888  0.375845  0.551149  1
  Al  Al3  1  0.379462  0.623829  0.449087  1
  Al  Al4  1  0.377243  0.623372  0.050009  1
  Al  Al5  1  0.623117  0.376270  0.949741  1
  Al  Al6  1  0.226326  0.223694  0.498972  1
  Al  Al7  1  0.773441  0.776552  0.501511  1
  Al  Al8  1  0.774384  0.775312  0.000342  1
  Al  Al9  1  0.225373  0.224925  0.999161  1
  Al  Al10  1  0.843940  0.156662  0.099687  1
  Al  Al11  1  0.155650  0.843725  0.900002  1
  Al  Al12  1  0.157250  0.845668  0.601668  1
  Al  Al13  1  0.842355  0.154772  0.398630  1
  Al  Al14  1  0.857236  0.587031  0.751596  1
  Al  Al15  1  0.142493  0.412313  0.248401  1
  Al  Al16  1  0.413900  0.141971  0.750420  1
  Al  Al17  1  0.586796  0.858263  0.249578  1
  Al  Al18  1  0.221501  0.480387  0.752394  1
  Al  Al19  1  0.778056  0.518902  0.247604  1
  Al  Al20  1  0.519310  0.779531  0.749837  1
  Al  Al21  1  0.481418  0.220907  0.250174  1
  Ir  Ir22  1  0.999943  0.499850  0.500367  1
  Ru  Ru23  1  0.999927  0.499741  0.999577  1
  Ru  Ru24  1  0.500285  0.000073  0.999528  1
  Ru  Ru25  1  0.500252  0.000050  0.500450  1
