# generated using pymatgen
data_CaTbAlIr2
_symmetry_space_group_name_H-M   'P 1'
_cell_length_a   5.75030092
_cell_length_b   5.75029953
_cell_length_c   7.64109134
_cell_angle_alpha   78.58011998
_cell_angle_beta   78.58012285
_cell_angle_gamma   58.54900047
_symmetry_Int_Tables_number   1
_chemical_formula_structural   CaTbAlIr2
_chemical_formula_sum   'Ca2 Tb2 Al2 Ir4'
_cell_volume   209.91478485
_cell_formula_units_Z   2
loop_
 _symmetry_equiv_pos_site_id
 _symmetry_equiv_pos_as_xyz
  1  'x, y, z'
loop_
 _atom_site_type_symbol
 _atom_site_label
 _atom_site_symmetry_multiplicity
 _atom_site_fract_x
 _atom_site_fract_y
 _atom_site_fract_z
 _atom_site_occupancy
  Ca  Ca0  1  0.008637  0.284572  0.851910  1
  Ca  Ca1  1  0.715428  0.991363  0.648090  1
  Tb  Tb2  1  0.995990  0.711914  0.142508  1
  Tb  Tb3  1  0.288086  0.004010  0.357492  1
  Al  Al4  1  0.405490  0.594510  0.750000  1
  Al  Al5  1  0.604433  0.395567  0.250000  1
  Ir  Ir6  1  0.480444  0.779392  0.997977  1
  Ir  Ir7  1  0.220608  0.519556  0.502023  1
  Ir  Ir8  1  0.498831  0.217946  0.018335  1
  Ir  Ir9  1  0.782054  0.501169  0.481665  1
