# generated using pymatgen
data_TbSmSi2(Tc2C)2
_symmetry_space_group_name_H-M   'P 1'
_cell_length_a   5.83645702
_cell_length_b   5.83645674
_cell_length_c   7.28258400
_cell_angle_alpha   90.00000000
_cell_angle_beta   90.00000000
_cell_angle_gamma   140.49647639
_symmetry_Int_Tables_number   1
_chemical_formula_structural   TbSmSi2(Tc2C)2
_chemical_formula_sum   'Tb1 Sm1 Si2 Tc4 C2'
_cell_volume   157.80726321
_cell_formula_units_Z   1
loop_
 _symmetry_equiv_pos_site_id
 _symmetry_equiv_pos_as_xyz
  1  'x, y, z'
loop_
 _atom_site_type_symbol
 _atom_site_label
 _atom_site_symmetry_multiplicity
 _atom_site_fract_x
 _atom_site_fract_y
 _atom_site_fract_z
 _atom_site_occupancy
  Tb  Tb0  1  0.455631  0.544369  0.750000  1
  Sm  Sm1  1  0.544628  0.455372  0.250000  1
  Si  Si2  1  0.268106  0.731894  0.250000  1
  Si  Si3  1  0.732228  0.267772  0.750000  1
  Tc  Tc4  1  0.828348  0.171652  0.059602  1
  Tc  Tc5  1  0.171708  0.828292  0.938197  1
  Tc  Tc6  1  0.171708  0.828292  0.561803  1
  Tc  Tc7  1  0.828348  0.171652  0.440398  1
  C  C8  1  0.999648  0.000352  0.996831  1
  C  C9  1  0.999648  0.000352  0.503169  1
