# generated using pymatgen
data_K3Ba(Al2Au5)4
_symmetry_space_group_name_H-M   'P 1'
_cell_length_a   7.22921200
_cell_length_b   8.99657694
_cell_length_c   10.28398314
_cell_angle_alpha   89.90886897
_cell_angle_beta   90.00000000
_cell_angle_gamma   90.00000000
_symmetry_Int_Tables_number   1
_chemical_formula_structural   K3Ba(Al2Au5)4
_chemical_formula_sum   'K3 Ba1 Al8 Au20'
_cell_volume   668.85051550
_cell_formula_units_Z   1
loop_
 _symmetry_equiv_pos_site_id
 _symmetry_equiv_pos_as_xyz
  1  'x, y, z'
loop_
 _atom_site_type_symbol
 _atom_site_label
 _atom_site_symmetry_multiplicity
 _atom_site_fract_x
 _atom_site_fract_y
 _atom_site_fract_z
 _atom_site_occupancy
  K  K0  1  0.250000  0.253763  0.126286  1
  K  K1  1  0.250000  0.753501  0.373008  1
  K  K2  1  0.750000  0.746343  0.872870  1
  Ba  Ba3  1  0.750000  0.247508  0.627311  1
  Al  Al4  1  0.250000  0.051423  0.616884  1
  Al  Al5  1  0.250000  0.551487  0.882329  1
  Al  Al6  1  0.750000  0.946226  0.383675  1
  Al  Al7  1  0.750000  0.447460  0.117525  1
  Al  Al8  1  0.250000  0.354146  0.486833  1
  Al  Al9  1  0.250000  0.851873  0.012250  1
  Al  Al10  1  0.750000  0.647631  0.511654  1
  Al  Al11  1  0.750000  0.146168  0.989052  1
  Au  Au12  1  0.053296  0.110152  0.398711  1
  Au  Au13  1  0.447801  0.612792  0.098907  1
  Au  Au14  1  0.551572  0.887660  0.599229  1
  Au  Au15  1  0.948529  0.388779  0.902996  1
  Au  Au16  1  0.948428  0.887660  0.599229  1
  Au  Au17  1  0.551471  0.388779  0.902996  1
  Au  Au18  1  0.446704  0.110152  0.398711  1
  Au  Au19  1  0.052199  0.612792  0.098907  1
  Au  Au20  1  0.040404  0.057296  0.868337  1
  Au  Au21  1  0.459439  0.559919  0.633792  1
  Au  Au22  1  0.540670  0.941258  0.132410  1
  Au  Au23  1  0.960484  0.443764  0.365910  1
  Au  Au24  1  0.959330  0.941258  0.132410  1
  Au  Au25  1  0.539516  0.443764  0.365910  1
  Au  Au26  1  0.459596  0.057296  0.868337  1
  Au  Au27  1  0.040561  0.559919  0.633792  1
  Au  Au28  1  0.250000  0.299902  0.733164  1
  Au  Au29  1  0.250000  0.800810  0.766550  1
  Au  Au30  1  0.750000  0.699518  0.265157  1
  Au  Au31  1  0.750000  0.198999  0.234868  1
