# generated using pymatgen
data_Y6Ho4SnSb5
_symmetry_space_group_name_H-M   'P 1'
_cell_length_a   6.34354600
_cell_length_b   8.99499404
_cell_length_c   8.98723870
_cell_angle_alpha   120.02855350
_cell_angle_beta   90.00011161
_cell_angle_gamma   89.99978640
_symmetry_Int_Tables_number   1
_chemical_formula_structural   Y6Ho4SnSb5
_chemical_formula_sum   'Y6 Ho4 Sn1 Sb5'
_cell_volume   443.98147847
_cell_formula_units_Z   1
loop_
 _symmetry_equiv_pos_site_id
 _symmetry_equiv_pos_as_xyz
  1  'x, y, z'
loop_
 _atom_site_type_symbol
 _atom_site_label
 _atom_site_symmetry_multiplicity
 _atom_site_fract_x
 _atom_site_fract_y
 _atom_site_fract_z
 _atom_site_occupancy
  Y  Y0  1  0.749996  0.246697  0.000000  1
  Y  Y1  1  0.749993  0.753038  0.754371  1
  Y  Y2  1  0.749993  0.998667  0.245629  1
  Y  Y3  1  0.250000  0.753984  0.000000  1
  Y  Y4  1  0.250007  0.247253  0.246290  1
  Y  Y5  1  0.250007  0.000963  0.753710  1
  Ho  Ho6  1  0.500155  0.333859  0.667526  1
  Ho  Ho7  1  0.500155  0.666333  0.332474  1
  Ho  Ho8  1  0.999840  0.666336  0.332471  1
  Ho  Ho9  1  0.999840  0.333865  0.667529  1
  Sn  Sn10  1  0.750010  0.609269  0.000000  1
  Sb  Sb11  1  0.750002  0.388515  0.389091  1
  Sb  Sb12  1  0.750002  0.999423  0.610909  1
  Sb  Sb13  1  0.250000  0.389786  0.000000  1
  Sb  Sb14  1  0.250002  0.611446  0.610881  1
  Sb  Sb15  1  0.250002  0.000566  0.389119  1
