# generated using pymatgen
data_LuZr3(CoB4)4
_symmetry_space_group_name_H-M   'P 1'
_cell_length_a   3.26482600
_cell_length_b   5.79653515
_cell_length_c   11.25855330
_cell_angle_alpha   90.02633073
_cell_angle_beta   90.00000000
_cell_angle_gamma   90.00000000
_symmetry_Int_Tables_number   1
_chemical_formula_structural   LuZr3(CoB4)4
_chemical_formula_sum   'Lu1 Zr3 Co4 B16'
_cell_volume   213.06448102
_cell_formula_units_Z   1
loop_
 _symmetry_equiv_pos_site_id
 _symmetry_equiv_pos_as_xyz
  1  'x, y, z'
loop_
 _atom_site_type_symbol
 _atom_site_label
 _atom_site_symmetry_multiplicity
 _atom_site_fract_x
 _atom_site_fract_y
 _atom_site_fract_z
 _atom_site_occupancy
  Lu  Lu0  1  0.500000  0.871318  0.349861  1
  Zr  Zr1  1  0.500000  0.374473  0.149390  1
  Zr  Zr2  1  0.500000  0.627118  0.849089  1
  Zr  Zr3  1  0.500000  0.128355  0.651656  1
  Co  Co4  1  0.500000  0.363261  0.410931  1
  Co  Co5  1  0.500000  0.634705  0.590992  1
  Co  Co6  1  0.500000  0.136629  0.909879  1
  Co  Co7  1  0.500000  0.864305  0.088528  1
  B  B8  1  0.000000  0.114297  0.047046  1
  B  B9  1  0.000000  0.885810  0.952759  1
  B  B10  1  0.000000  0.386103  0.547437  1
  B  B11  1  0.000000  0.612669  0.453401  1
  B  B12  1  0.000000  0.135251  0.468118  1
  B  B13  1  0.000000  0.865622  0.532888  1
  B  B14  1  0.000000  0.366327  0.966262  1
  B  B15  1  0.000000  0.633456  0.033324  1
  B  B16  1  0.000000  0.023933  0.191799  1
  B  B17  1  0.000000  0.974922  0.807155  1
  B  B18  1  0.000000  0.476211  0.693173  1
  B  B19  1  0.000000  0.522656  0.307517  1
  B  B20  1  0.000000  0.214568  0.313138  1
  B  B21  1  0.000000  0.787624  0.686776  1
  B  B22  1  0.000000  0.288195  0.813280  1
  B  B23  1  0.000000  0.712192  0.185603  1
