# generated using pymatgen
data_Mn2Ga3FeRh6
_symmetry_space_group_name_H-M   'P 1'
_cell_length_a   4.29156300
_cell_length_b   6.05529902
_cell_length_c   12.88648404
_cell_angle_alpha   90.00860300
_cell_angle_beta   90.00039309
_cell_angle_gamma   89.99932934
_symmetry_Int_Tables_number   1
_chemical_formula_structural   Mn2Ga3FeRh6
_chemical_formula_sum   'Mn4 Ga6 Fe2 Rh12'
_cell_volume   334.87715535
_cell_formula_units_Z   2
loop_
 _symmetry_equiv_pos_site_id
 _symmetry_equiv_pos_as_xyz
  1  'x, y, z'
loop_
 _atom_site_type_symbol
 _atom_site_label
 _atom_site_symmetry_multiplicity
 _atom_site_fract_x
 _atom_site_fract_y
 _atom_site_fract_z
 _atom_site_occupancy
  Mn  Mn0  1  0.999738  0.999619  0.333103  1
  Mn  Mn1  1  0.500523  0.500404  0.500096  1
  Mn  Mn2  1  0.000578  0.999846  0.666468  1
  Mn  Mn3  1  0.499483  0.500324  0.833543  1
  Ga  Ga4  1  0.999797  0.499766  0.998443  1
  Ga  Ga5  1  0.499820  0.999952  0.168259  1
  Ga  Ga6  1  0.999802  0.500159  0.334355  1
  Ga  Ga7  1  0.499844  0.000096  0.499104  1
  Ga  Ga8  1  0.999647  0.499975  0.667538  1
  Ga  Ga9  1  0.499856  0.999812  0.832318  1
  Fe  Fe10  1  0.000405  0.999860  0.000017  1
  Fe  Fe11  1  0.500247  0.500097  0.166716  1
  Rh  Rh12  1  0.500079  0.247902  0.002093  1
  Rh  Rh13  1  0.500078  0.752086  0.002149  1
  Rh  Rh14  1  0.000024  0.252069  0.164629  1
  Rh  Rh15  1  0.000023  0.747791  0.164530  1
  Rh  Rh16  1  0.499816  0.253012  0.330891  1
  Rh  Rh17  1  0.499807  0.746913  0.330834  1
  Rh  Rh18  1  0.000258  0.249311  0.499622  1
  Rh  Rh19  1  0.000265  0.750804  0.499684  1
  Rh  Rh20  1  0.500219  0.250835  0.666996  1
  Rh  Rh21  1  0.500223  0.749306  0.666989  1
  Rh  Rh22  1  0.999738  0.246926  0.835786  1
  Rh  Rh23  1  0.999732  0.753133  0.835834  1
