# generated using pymatgen
data_Hf6Al4CoNiC2
_symmetry_space_group_name_H-M   'P 1'
_cell_length_a   8.48082787
_cell_length_b   8.48090841
_cell_length_c   8.48131201
_cell_angle_alpha   59.99788375
_cell_angle_beta   59.99768316
_cell_angle_gamma   59.96593635
_symmetry_Int_Tables_number   1
_chemical_formula_structural   Hf6Al4CoNiC2
_chemical_formula_sum   'Hf12 Al8 Co2 Ni2 C4'
_cell_volume   431.22327433
_cell_formula_units_Z   2
loop_
 _symmetry_equiv_pos_site_id
 _symmetry_equiv_pos_as_xyz
  1  'x, y, z'
loop_
 _atom_site_type_symbol
 _atom_site_label
 _atom_site_symmetry_multiplicity
 _atom_site_fract_x
 _atom_site_fract_y
 _atom_site_fract_z
 _atom_site_occupancy
  Hf  Hf0  1  0.552629  0.945770  0.555374  1
  Hf  Hf1  1  0.304218  0.697370  0.694646  1
  Hf  Hf2  1  0.697383  0.304220  0.303776  1
  Hf  Hf3  1  0.304208  0.697382  0.303768  1
  Hf  Hf4  1  0.695416  0.695398  0.304599  1
  Hf  Hf5  1  0.303269  0.303272  0.696739  1
  Hf  Hf6  1  0.554584  0.554602  0.945401  1
  Hf  Hf7  1  0.945782  0.552630  0.555354  1
  Hf  Hf8  1  0.552617  0.945780  0.946224  1
  Hf  Hf9  1  0.946731  0.946728  0.553261  1
  Hf  Hf10  1  0.697371  0.304230  0.694626  1
  Hf  Hf11  1  0.945792  0.552618  0.946232  1
  Al  Al12  1  0.921442  0.921471  0.918218  1
  Al  Al13  1  0.011707  0.327407  0.330478  1
  Al  Al14  1  0.327436  0.011672  0.330481  1
  Al  Al15  1  0.328576  0.328542  0.011161  1
  Al  Al16  1  0.922564  0.238328  0.919519  1
  Al  Al17  1  0.921424  0.921458  0.238839  1
  Al  Al18  1  0.238293  0.922593  0.919522  1
  Al  Al19  1  0.328558  0.328529  0.331782  1
  Co  Co20  1  0.125000  0.125000  0.125000  1
  Co  Co21  1  0.125000  0.125000  0.625000  1
  Ni  Ni22  1  0.625000  0.125000  0.125000  1
  Ni  Ni23  1  0.125000  0.625000  0.125000  1
  C  C24  1  0.625000  0.625000  0.625000  1
  C  C25  1  0.125000  0.625000  0.625000  1
  C  C26  1  0.625000  0.125000  0.625000  1
  C  C27  1  0.625000  0.625000  0.125000  1
