# generated using pymatgen
data_Sc4MnFe(B2Rh5)2
_symmetry_space_group_name_H-M   'P 1'
_cell_length_a   9.36243700
_cell_length_b   9.36243700
_cell_length_c   3.07138900
_cell_angle_alpha   90.00000000
_cell_angle_beta   90.00000000
_cell_angle_gamma   90.00000000
_symmetry_Int_Tables_number   1
_chemical_formula_structural   Sc4MnFe(B2Rh5)2
_chemical_formula_sum   'Sc4 Mn1 Fe1 B4 Rh10'
_cell_volume   269.22329871
_cell_formula_units_Z   1
loop_
 _symmetry_equiv_pos_site_id
 _symmetry_equiv_pos_as_xyz
  1  'x, y, z'
loop_
 _atom_site_type_symbol
 _atom_site_label
 _atom_site_symmetry_multiplicity
 _atom_site_fract_x
 _atom_site_fract_y
 _atom_site_fract_z
 _atom_site_occupancy
  Sc  Sc0  1  0.825160  0.324324  0.000000  1
  Sc  Sc1  1  0.324324  0.174840  0.000000  1
  Sc  Sc2  1  0.675676  0.825160  0.000000  1
  Sc  Sc3  1  0.174840  0.675676  0.000000  1
  Mn  Mn4  1  0.000000  0.000000  0.000000  1
  Fe  Fe5  1  0.500000  0.500000  0.000000  1
  B  B6  1  0.624938  0.124204  0.000000  1
  B  B7  1  0.124204  0.375062  0.000000  1
  B  B8  1  0.875796  0.624938  0.000000  1
  B  B9  1  0.375062  0.875796  0.000000  1
  Rh  Rh10  1  0.071874  0.218088  0.500000  1
  Rh  Rh11  1  0.218088  0.928126  0.500000  1
  Rh  Rh12  1  0.781912  0.071874  0.500000  1
  Rh  Rh13  1  0.928126  0.781912  0.500000  1
  Rh  Rh14  1  0.430544  0.715145  0.500000  1
  Rh  Rh15  1  0.569456  0.284855  0.500000  1
  Rh  Rh16  1  0.715145  0.569456  0.500000  1
  Rh  Rh17  1  0.284855  0.430544  0.500000  1
  Rh  Rh18  1  0.500000  0.000000  0.500000  1
  Rh  Rh19  1  0.000000  0.500000  0.500000  1
