# generated using pymatgen
data_KSr2(SnP)6
_symmetry_space_group_name_H-M   'P 1'
_cell_length_a   7.07446552
_cell_length_b   7.07446597
_cell_length_c   9.49167481
_cell_angle_alpha   82.85700198
_cell_angle_beta   82.85700351
_cell_angle_gamma   120.04385377
_symmetry_Int_Tables_number   1
_chemical_formula_structural   KSr2(SnP)6
_chemical_formula_sum   'K1 Sr2 Sn6 P6'
_cell_volume   398.27801643
_cell_formula_units_Z   1
loop_
 _symmetry_equiv_pos_site_id
 _symmetry_equiv_pos_as_xyz
  1  'x, y, z'
loop_
 _atom_site_type_symbol
 _atom_site_label
 _atom_site_symmetry_multiplicity
 _atom_site_fract_x
 _atom_site_fract_y
 _atom_site_fract_z
 _atom_site_occupancy
  K  K0  1  0.000000  0.000000  0.000000  1
  Sr  Sr1  1  0.666603  0.333397  0.000000  1
  Sr  Sr2  1  0.333397  0.666603  0.000000  1
  Sn  Sn3  1  0.542852  0.877240  0.367580  1
  Sn  Sn4  1  0.211708  0.211708  0.368819  1
  Sn  Sn5  1  0.877240  0.542852  0.367580  1
  Sn  Sn6  1  0.457148  0.122760  0.632420  1
  Sn  Sn7  1  0.122760  0.457148  0.632420  1
  Sn  Sn8  1  0.788292  0.788292  0.631181  1
  P  P9  1  0.412760  0.412760  0.774354  1
  P  P10  1  0.075347  0.737311  0.774329  1
  P  P11  1  0.737311  0.075347  0.774329  1
  P  P12  1  0.587240  0.587240  0.225646  1
  P  P13  1  0.262689  0.924653  0.225671  1
  P  P14  1  0.924653  0.262689  0.225671  1
