# generated using pymatgen
data_Ho3Er5In3Os
_symmetry_space_group_name_H-M   'P 1'
_cell_length_a   10.32756000
_cell_length_b   10.32756009
_cell_length_c   7.05775500
_cell_angle_alpha   90.00000000
_cell_angle_beta   90.00000000
_cell_angle_gamma   119.99999331
_symmetry_Int_Tables_number   1
_chemical_formula_structural   Ho3Er5In3Os
_chemical_formula_sum   'Ho6 Er10 In6 Os2'
_cell_volume   651.91758605
_cell_formula_units_Z   2
loop_
 _symmetry_equiv_pos_site_id
 _symmetry_equiv_pos_as_xyz
  1  'x, y, z'
loop_
 _atom_site_type_symbol
 _atom_site_label
 _atom_site_symmetry_multiplicity
 _atom_site_fract_x
 _atom_site_fract_y
 _atom_site_fract_z
 _atom_site_occupancy
  Ho  Ho0  1  0.533055  0.066111  0.793637  1
  Ho  Ho1  1  0.933889  0.466945  0.793637  1
  Ho  Ho2  1  0.533055  0.466945  0.793637  1
  Ho  Ho3  1  0.466945  0.933889  0.293637  1
  Ho  Ho4  1  0.066111  0.533055  0.293637  1
  Ho  Ho5  1  0.466945  0.533055  0.293637  1
  Er  Er6  1  0.822832  0.645664  0.498787  1
  Er  Er7  1  0.354336  0.177168  0.498787  1
  Er  Er8  1  0.822832  0.177168  0.498787  1
  Er  Er9  1  0.177168  0.354336  0.998787  1
  Er  Er10  1  0.645664  0.822832  0.998787  1
  Er  Er11  1  0.177168  0.822832  0.998787  1
  Er  Er12  1  0.666667  0.333333  0.173059  1
  Er  Er13  1  0.333333  0.666667  0.673059  1
  Er  Er14  1  0.000000  0.000000  0.778170  1
  Er  Er15  1  0.000000  0.000000  0.278170  1
  In  In16  1  0.837002  0.674003  0.039805  1
  In  In17  1  0.325997  0.162998  0.039805  1
  In  In18  1  0.837002  0.162998  0.039805  1
  In  In19  1  0.162998  0.325997  0.539805  1
  In  In20  1  0.674003  0.837002  0.539805  1
  In  In21  1  0.162998  0.837002  0.539805  1
  Os  Os22  1  0.666667  0.333333  0.570033  1
  Os  Os23  1  0.333333  0.666667  0.070033  1
