# generated using pymatgen
data_U6Sb8(PtRh)3
_symmetry_space_group_name_H-M   'P 1'
_cell_length_a   8.37359324
_cell_length_b   8.37359321
_cell_length_c   8.37598269
_cell_angle_alpha   109.52600969
_cell_angle_beta   109.49910573
_cell_angle_gamma   109.37699647
_symmetry_Int_Tables_number   1
_chemical_formula_structural   U6Sb8(PtRh)3
_chemical_formula_sum   'U6 Sb8 Pt3 Rh3'
_cell_volume   452.16700087
_cell_formula_units_Z   1
loop_
 _symmetry_equiv_pos_site_id
 _symmetry_equiv_pos_as_xyz
  1  'x, y, z'
loop_
 _atom_site_type_symbol
 _atom_site_label
 _atom_site_symmetry_multiplicity
 _atom_site_fract_x
 _atom_site_fract_y
 _atom_site_fract_z
 _atom_site_occupancy
  U  U0  1  0.377745  0.254299  0.628931  1
  U  U1  1  0.125369  0.748815  0.871069  1
  U  U2  1  0.622851  0.372851  0.250000  1
  U  U3  1  0.877247  0.127247  0.750000  1
  U  U4  1  0.251401  0.624289  0.379130  1
  U  U5  1  0.745159  0.872271  0.120870  1
  Sb  Sb6  1  0.495817  0.997956  0.821838  1
  Sb  Sb7  1  0.821164  0.498328  0.995986  1
  Sb  Sb8  1  0.002341  0.825177  0.504014  1
  Sb  Sb9  1  0.676117  0.673978  0.678162  1
  Sb  Sb10  1  0.321799  0.497642  0.995880  1
  Sb  Sb11  1  0.502147  0.004448  0.325210  1
  Sb  Sb12  1  0.001762  0.325919  0.504120  1
  Sb  Sb13  1  0.179238  0.176937  0.174790  1
  Pt  Pt14  1  0.874854  0.249440  0.124878  1
  Pt  Pt15  1  0.624562  0.749976  0.375122  1
  Pt  Pt16  1  0.124689  0.874689  0.250000  1
  Rh  Rh17  1  0.375486  0.625486  0.750000  1
  Rh  Rh18  1  0.249767  0.125393  0.874907  1
  Rh  Rh19  1  0.750486  0.374860  0.625093  1
