# generated using pymatgen
data_Na3Lu2P12Rh19
_symmetry_space_group_name_H-M   'P 1'
_cell_length_a   12.61239000
_cell_length_b   12.61239074
_cell_length_c   3.92112700
_cell_angle_alpha   90.00000000
_cell_angle_beta   90.00000000
_cell_angle_gamma   119.99999805
_symmetry_Int_Tables_number   1
_chemical_formula_structural   Na3Lu2P12Rh19
_chemical_formula_sum   'Na3 Lu2 P12 Rh19'
_cell_volume   540.17733459
_cell_formula_units_Z   1
loop_
 _symmetry_equiv_pos_site_id
 _symmetry_equiv_pos_as_xyz
  1  'x, y, z'
loop_
 _atom_site_type_symbol
 _atom_site_label
 _atom_site_symmetry_multiplicity
 _atom_site_fract_x
 _atom_site_fract_y
 _atom_site_fract_z
 _atom_site_occupancy
  Na  Na0  1  0.000000  0.182536  0.500000  1
  Na  Na1  1  0.817464  0.817464  0.500000  1
  Na  Na2  1  0.182536  0.000000  0.500000  1
  Lu  Lu3  1  0.666667  0.333333  0.000000  1
  Lu  Lu4  1  0.333333  0.666667  0.000000  1
  P  P5  1  0.479929  0.312643  0.500000  1
  P  P6  1  0.820696  0.000000  0.000000  1
  P  P7  1  0.179304  0.179304  0.000000  1
  P  P8  1  0.000000  0.820696  0.000000  1
  P  P9  1  0.364390  0.000000  0.000000  1
  P  P10  1  0.687357  0.167286  0.500000  1
  P  P11  1  0.832714  0.520071  0.500000  1
  P  P12  1  0.520071  0.832714  0.500000  1
  P  P13  1  0.167286  0.687357  0.500000  1
  P  P14  1  0.312643  0.479929  0.500000  1
  P  P15  1  0.000000  0.364390  0.000000  1
  P  P16  1  0.635610  0.635610  0.000000  1
  Rh  Rh17  1  0.805462  0.182211  0.000000  1
  Rh  Rh18  1  0.376751  0.194538  0.000000  1
  Rh  Rh19  1  0.640144  0.507576  0.500000  1
  Rh  Rh20  1  0.867432  0.359856  0.500000  1
  Rh  Rh21  1  0.359856  0.867432  0.500000  1
  Rh  Rh22  1  0.507576  0.640144  0.500000  1
  Rh  Rh23  1  0.132568  0.492424  0.500000  1
  Rh  Rh24  1  0.817789  0.623249  0.000000  1
  Rh  Rh25  1  0.623249  0.817789  0.000000  1
  Rh  Rh26  1  0.182211  0.805462  0.000000  1
  Rh  Rh27  1  0.194538  0.376751  0.000000  1
  Rh  Rh28  1  0.000000  0.718730  0.500000  1
  Rh  Rh29  1  0.281270  0.281270  0.500000  1
  Rh  Rh30  1  0.718730  0.000000  0.500000  1
  Rh  Rh31  1  0.000000  0.545317  0.000000  1
  Rh  Rh32  1  0.454683  0.454683  0.000000  1
  Rh  Rh33  1  0.545317  0.000000  0.000000  1
  Rh  Rh34  1  0.000000  0.000000  0.000000  1
  Rh  Rh35  1  0.492424  0.132568  0.500000  1
