# generated using pymatgen
data_Ti8Al14SiRu7
_symmetry_space_group_name_H-M   'P 1'
_cell_length_a   8.62950248
_cell_length_b   8.62950247
_cell_length_c   8.62950254
_cell_angle_alpha   120.10133272
_cell_angle_beta   120.04382259
_cell_angle_gamma   89.87434878
_symmetry_Int_Tables_number   1
_chemical_formula_structural   Ti8Al14SiRu7
_chemical_formula_sum   'Ti8 Al14 Si1 Ru7'
_cell_volume   453.90431179
_cell_formula_units_Z   1
loop_
 _symmetry_equiv_pos_site_id
 _symmetry_equiv_pos_as_xyz
  1  'x, y, z'
loop_
 _atom_site_type_symbol
 _atom_site_label
 _atom_site_symmetry_multiplicity
 _atom_site_fract_x
 _atom_site_fract_y
 _atom_site_fract_z
 _atom_site_occupancy
  Ti  Ti0  1  0.795946  0.291451  0.080562  1
  Ti  Ti1  1  0.210889  0.291451  0.495505  1
  Ti  Ti2  1  0.206611  0.706611  0.500000  1
  Ti  Ti3  1  0.210889  0.715384  0.919438  1
  Ti  Ti4  1  0.795946  0.715384  0.504495  1
  Ti  Ti5  1  0.785096  0.285096  0.500000  1
  Ti  Ti6  1  0.378355  0.118794  0.740439  1
  Ti  Ti7  1  0.378355  0.637916  0.259561  1
  Al  Al8  1  0.157996  0.341796  0.183800  1
  Al  Al9  1  0.157996  0.974196  0.816200  1
  Al  Al10  1  0.155488  0.344373  0.811115  1
  Al  Al11  1  0.533258  0.344373  0.188885  1
  Al  Al12  1  0.844366  0.656168  0.811804  1
  Al  Al13  1  0.844366  0.032562  0.188196  1
  Al  Al14  1  0.841853  0.657053  0.184799  1
  Al  Al15  1  0.472253  0.657053  0.815201  1
  Al  Al16  1  0.379412  0.120528  0.258884  1
  Al  Al17  1  0.861645  0.120528  0.741116  1
  Al  Al18  1  0.619138  0.876657  0.257519  1
  Al  Al19  1  0.619138  0.361618  0.742481  1
  Al  Al20  1  0.620719  0.878871  0.741849  1
  Al  Al21  1  0.137021  0.878871  0.258151  1
  Si  Si22  1  0.996564  0.496564  0.500000  1
  Ru  Ru23  1  0.999918  0.999860  0.500360  1
  Ru  Ru24  1  0.499500  0.999860  0.999942  1
  Ru  Ru25  1  0.498641  0.498641  0.000000  1
  Ru  Ru26  1  0.499500  0.499558  0.499640  1
  Ru  Ru27  1  0.999918  0.499558  0.000058  1
  Ru  Ru28  1  0.000447  0.000447  0.000000  1
  Ru  Ru29  1  0.498775  0.998775  0.500000  1
