# generated using pymatgen
data_Dy9TmLu6(Ga3Co)2
_symmetry_space_group_name_H-M   'P 1'
_cell_length_a   9.87616400
_cell_length_b   9.87616444
_cell_length_c   6.98593100
_cell_angle_alpha   90.00000000
_cell_angle_beta   90.00000000
_cell_angle_gamma   119.99999183
_symmetry_Int_Tables_number   1
_chemical_formula_structural   Dy9TmLu6(Ga3Co)2
_chemical_formula_sum   'Dy9 Tm1 Lu6 Ga6 Co2'
_cell_volume   590.10808467
_cell_formula_units_Z   1
loop_
 _symmetry_equiv_pos_site_id
 _symmetry_equiv_pos_as_xyz
  1  'x, y, z'
loop_
 _atom_site_type_symbol
 _atom_site_label
 _atom_site_symmetry_multiplicity
 _atom_site_fract_x
 _atom_site_fract_y
 _atom_site_fract_z
 _atom_site_occupancy
  Dy  Dy0  1  0.666667  0.333333  0.327463  1
  Dy  Dy1  1  0.463381  0.536619  0.207845  1
  Dy  Dy2  1  0.073237  0.536619  0.207845  1
  Dy  Dy3  1  0.463381  0.926763  0.207845  1
  Dy  Dy4  1  0.536124  0.463876  0.708562  1
  Dy  Dy5  1  0.927752  0.463876  0.708562  1
  Dy  Dy6  1  0.536124  0.072248  0.708562  1
  Dy  Dy7  1  0.000000  0.000000  0.232457  1
  Dy  Dy8  1  0.000000  0.000000  0.731124  1
  Tm  Tm9  1  0.333333  0.666667  0.824951  1
  Lu  Lu10  1  0.173993  0.826007  0.512842  1
  Lu  Lu11  1  0.652014  0.826007  0.512842  1
  Lu  Lu12  1  0.173993  0.347986  0.512842  1
  Lu  Lu13  1  0.826784  0.173216  0.011631  1
  Lu  Lu14  1  0.346431  0.173216  0.011631  1
  Lu  Lu15  1  0.826784  0.653569  0.011631  1
  Ga  Ga16  1  0.163486  0.836514  0.956304  1
  Ga  Ga17  1  0.673030  0.836514  0.956304  1
  Ga  Ga18  1  0.163486  0.326970  0.956304  1
  Ga  Ga19  1  0.837472  0.162528  0.457695  1
  Ga  Ga20  1  0.325056  0.162528  0.457695  1
  Ga  Ga21  1  0.837472  0.674944  0.457695  1
  Co  Co22  1  0.333333  0.666667  0.446318  1
  Co  Co23  1  0.666667  0.333333  0.947884  1
