# generated using pymatgen
data_Al11Tc3Os
_symmetry_space_group_name_H-M   'P 1'
_cell_length_a   5.18003524
_cell_length_b   5.15977576
_cell_length_c   9.00061329
_cell_angle_alpha   105.05162717
_cell_angle_beta   90.50603785
_cell_angle_gamma   100.23577155
_symmetry_Int_Tables_number   1
_chemical_formula_structural   Al11Tc3Os
_chemical_formula_sum   'Al11 Tc3 Os1'
_cell_volume   228.23326201
_cell_formula_units_Z   1
loop_
 _symmetry_equiv_pos_site_id
 _symmetry_equiv_pos_as_xyz
  1  'x, y, z'
loop_
 _atom_site_type_symbol
 _atom_site_label
 _atom_site_symmetry_multiplicity
 _atom_site_fract_x
 _atom_site_fract_y
 _atom_site_fract_z
 _atom_site_occupancy
  Al  Al0  1  0.998708  0.999582  0.001339  1
  Al  Al1  1  0.942153  0.805221  0.669488  1
  Al  Al2  1  0.053414  0.197693  0.330255  1
  Al  Al3  1  0.799800  0.260089  0.634627  1
  Al  Al4  1  0.850396  0.531829  0.129244  1
  Al  Al5  1  0.149427  0.467203  0.871857  1
  Al  Al6  1  0.498751  0.898431  0.126639  1
  Al  Al7  1  0.501272  0.100194  0.874234  1
  Al  Al8  1  0.566427  0.319463  0.376122  1
  Al  Al9  1  0.434503  0.679597  0.622591  1
  Al  Al10  1  0.202847  0.742882  0.362941  1
  Tc  Tc11  1  0.723287  0.846412  0.401133  1
  Tc  Tc12  1  0.662397  0.609100  0.864608  1
  Tc  Tc13  1  0.337815  0.386964  0.132991  1
  Os  Os14  1  0.278803  0.155341  0.601931  1
