# generated using pymatgen
data_YEr2HfMg2Rh3
_symmetry_space_group_name_H-M   'P 1'
_cell_length_a   7.23299378
_cell_length_b   7.31098848
_cell_length_c   4.14290400
_cell_angle_alpha   90.00000000
_cell_angle_beta   90.00000000
_cell_angle_gamma   119.42368324
_symmetry_Int_Tables_number   1
_chemical_formula_structural   YEr2HfMg2Rh3
_chemical_formula_sum   'Y1 Er2 Hf1 Mg2 Rh3'
_cell_volume   190.81943769
_cell_formula_units_Z   1
loop_
 _symmetry_equiv_pos_site_id
 _symmetry_equiv_pos_as_xyz
  1  'x, y, z'
loop_
 _atom_site_type_symbol
 _atom_site_label
 _atom_site_symmetry_multiplicity
 _atom_site_fract_x
 _atom_site_fract_y
 _atom_site_fract_z
 _atom_site_occupancy
  Y  Y0  1  0.991161  0.577165  0.500000  1
  Er  Er1  1  0.412850  0.420781  0.500000  1
  Er  Er2  1  0.601033  0.999520  0.500000  1
  Hf  Hf3  1  0.249267  0.000351  0.000000  1
  Mg  Mg4  1  0.751926  0.752052  0.000000  1
  Mg  Mg5  1  0.000475  0.247768  0.000000  1
  Rh  Rh6  1  0.641053  0.316444  0.000000  1
  Rh  Rh7  1  0.329549  0.682856  0.000000  1
  Rh  Rh8  1  0.022687  0.003062  0.500000  1
