# generated using pymatgen
data_Er3MgCd2SnPdPb
_symmetry_space_group_name_H-M   'P 1'
_cell_length_a   7.47911147
_cell_length_b   7.39578641
_cell_length_c   4.52029100
_cell_angle_alpha   90.00000000
_cell_angle_beta   90.00000000
_cell_angle_gamma   119.76487524
_symmetry_Int_Tables_number   1
_chemical_formula_structural   Er3MgCd2SnPdPb
_chemical_formula_sum   'Er3 Mg1 Cd2 Sn1 Pd1 Pb1'
_cell_volume   217.04784894
_cell_formula_units_Z   1
loop_
 _symmetry_equiv_pos_site_id
 _symmetry_equiv_pos_as_xyz
  1  'x, y, z'
loop_
 _atom_site_type_symbol
 _atom_site_label
 _atom_site_symmetry_multiplicity
 _atom_site_fract_x
 _atom_site_fract_y
 _atom_site_fract_z
 _atom_site_occupancy
  Er  Er0  1  0.404135  0.399566  0.500000  1
  Er  Er1  1  0.598695  0.001120  0.500000  1
  Er  Er2  1  0.996844  0.601956  0.500000  1
  Mg  Mg3  1  0.997144  0.223863  0.000000  1
  Cd  Cd4  1  0.766755  0.765402  0.000000  1
  Cd  Cd5  1  0.237629  0.006392  0.000000  1
  Sn  Sn6  1  0.672460  0.332342  0.000000  1
  Pd  Pd7  1  0.999749  0.011040  0.500000  1
  Pb  Pb8  1  0.326589  0.658318  0.000000  1
