# generated using pymatgen
data_Ac3Pr(Er3Sn4)2
_symmetry_space_group_name_H-M   'P 1'
_cell_length_a   8.29633700
_cell_length_b   8.37357123
_cell_length_c   15.82064800
_cell_angle_alpha   90.16142740
_cell_angle_beta   90.00000000
_cell_angle_gamma   90.00000000
_symmetry_Int_Tables_number   1
_chemical_formula_structural   Ac3Pr(Er3Sn4)2
_chemical_formula_sum   'Ac6 Pr2 Er12 Sn16'
_cell_volume   1099.05556168
_cell_formula_units_Z   2
loop_
 _symmetry_equiv_pos_site_id
 _symmetry_equiv_pos_as_xyz
  1  'x, y, z'
loop_
 _atom_site_type_symbol
 _atom_site_label
 _atom_site_symmetry_multiplicity
 _atom_site_fract_x
 _atom_site_fract_y
 _atom_site_fract_z
 _atom_site_occupancy
  Ac  Ac0  1  0.514833  0.323255  0.904230  1
  Ac  Ac1  1  0.014833  0.176745  0.595770  1
  Ac  Ac2  1  0.484889  0.675287  0.405812  1
  Ac  Ac3  1  0.984889  0.824713  0.094188  1
  Ac  Ac4  1  0.486779  0.676582  0.093638  1
  Ac  Ac5  1  0.986779  0.823418  0.406362  1
  Pr  Pr6  1  0.517566  0.322288  0.599563  1
  Pr  Pr7  1  0.017566  0.177712  0.900437  1
  Er  Er8  1  0.358287  0.838486  0.874658  1
  Er  Er9  1  0.858287  0.661514  0.625342  1
  Er  Er10  1  0.640483  0.163986  0.376432  1
  Er  Er11  1  0.140483  0.336014  0.123568  1
  Er  Er12  1  0.641205  0.160388  0.123000  1
  Er  Er13  1  0.141205  0.339612  0.377000  1
  Er  Er14  1  0.357466  0.837565  0.625419  1
  Er  Er15  1  0.857466  0.662435  0.874581  1
  Er  Er16  1  0.192356  0.503909  0.750285  1
  Er  Er17  1  0.692356  0.996091  0.749715  1
  Er  Er18  1  0.806147  0.494066  0.250490  1
  Er  Er19  1  0.306147  0.005934  0.249510  1
  Sn  Sn20  1  0.305560  0.047621  0.040890  1
  Sn  Sn21  1  0.805560  0.452379  0.459110  1
  Sn  Sn22  1  0.684790  0.958797  0.545415  1
  Sn  Sn23  1  0.184790  0.541203  0.954585  1
  Sn  Sn24  1  0.695242  0.959514  0.952845  1
  Sn  Sn25  1  0.195242  0.540486  0.547155  1
  Sn  Sn26  1  0.314811  0.049228  0.457560  1
  Sn  Sn27  1  0.814811  0.450772  0.042440  1
  Sn  Sn28  1  0.556357  0.628954  0.748133  1
  Sn  Sn29  1  0.056357  0.871046  0.751867  1
  Sn  Sn30  1  0.442634  0.366888  0.249039  1
  Sn  Sn31  1  0.942634  0.133112  0.250961  1
  Sn  Sn32  1  0.324385  0.139908  0.748785  1
  Sn  Sn33  1  0.824385  0.360092  0.751215  1
  Sn  Sn34  1  0.676209  0.864147  0.250054  1
  Sn  Sn35  1  0.176209  0.635853  0.249946  1
