# generated using pymatgen
data_Al4Co3Ru
_symmetry_space_group_name_H-M   'P 1'
_cell_length_a   5.01741046
_cell_length_b   5.01741002
_cell_length_c   5.01741000
_cell_angle_alpha   109.47122053
_cell_angle_beta   109.47121878
_cell_angle_gamma   109.47122424
_symmetry_Int_Tables_number   1
_chemical_formula_structural   Al4Co3Ru
_chemical_formula_sum   'Al4 Co3 Ru1'
_cell_volume   97.23372313
_cell_formula_units_Z   1
loop_
 _symmetry_equiv_pos_site_id
 _symmetry_equiv_pos_as_xyz
  1  'x, y, z'
loop_
 _atom_site_type_symbol
 _atom_site_label
 _atom_site_symmetry_multiplicity
 _atom_site_fract_x
 _atom_site_fract_y
 _atom_site_fract_z
 _atom_site_occupancy
  Al  Al0  1  0.000000  0.000000  0.500000  1
  Al  Al1  1  0.000000  0.500000  0.000000  1
  Al  Al2  1  0.500000  0.000000  0.000000  1
  Al  Al3  1  0.500000  0.500000  0.500000  1
  Co  Co4  1  0.000000  0.500000  0.500000  1
  Co  Co5  1  0.500000  0.500000  0.000000  1
  Co  Co6  1  0.500000  0.000000  0.500000  1
  Ru  Ru7  1  0.000000  0.000000  0.000000  1
