# generated using pymatgen
data_Dy4Sc3AlIr4
_symmetry_space_group_name_H-M   'P 1'
_cell_length_a   4.35381500
_cell_length_b   7.05170185
_cell_length_c   8.34441663
_cell_angle_alpha   88.29954194
_cell_angle_beta   90.00000000
_cell_angle_gamma   90.00000000
_symmetry_Int_Tables_number   1
_chemical_formula_structural   Dy4Sc3AlIr4
_chemical_formula_sum   'Dy4 Sc3 Al1 Ir4'
_cell_volume   256.07583497
_cell_formula_units_Z   1
loop_
 _symmetry_equiv_pos_site_id
 _symmetry_equiv_pos_as_xyz
  1  'x, y, z'
loop_
 _atom_site_type_symbol
 _atom_site_label
 _atom_site_symmetry_multiplicity
 _atom_site_fract_x
 _atom_site_fract_y
 _atom_site_fract_z
 _atom_site_occupancy
  Dy  Dy0  1  0.250000  0.466083  0.181385  1
  Dy  Dy1  1  0.750000  0.519223  0.816024  1
  Dy  Dy2  1  0.750000  0.041773  0.669760  1
  Dy  Dy3  1  0.250000  0.986646  0.335768  1
  Sc  Sc4  1  0.250000  0.861485  0.932779  1
  Sc  Sc5  1  0.750000  0.135615  0.070720  1
  Sc  Sc6  1  0.750000  0.636513  0.437511  1
  Al  Al7  1  0.250000  0.360874  0.562565  1
  Ir  Ir8  1  0.250000  0.734268  0.614989  1
  Ir  Ir9  1  0.750000  0.266705  0.387032  1
  Ir  Ir10  1  0.750000  0.751176  0.105781  1
  Ir  Ir11  1  0.250000  0.239639  0.885685  1
