# generated using pymatgen
data_Pr5SmOsI10
_symmetry_space_group_name_H-M   'P 1'
_cell_length_a   8.03642465
_cell_length_b   10.08406529
_cell_length_c   10.09436930
_cell_angle_alpha   107.20782822
_cell_angle_beta   96.49901777
_cell_angle_gamma   104.63105188
_symmetry_Int_Tables_number   1
_chemical_formula_structural   Pr5SmOsI10
_chemical_formula_sum   'Pr5 Sm1 Os1 I10'
_cell_volume   740.29712329
_cell_formula_units_Z   1
loop_
 _symmetry_equiv_pos_site_id
 _symmetry_equiv_pos_as_xyz
  1  'x, y, z'
loop_
 _atom_site_type_symbol
 _atom_site_label
 _atom_site_symmetry_multiplicity
 _atom_site_fract_x
 _atom_site_fract_y
 _atom_site_fract_z
 _atom_site_occupancy
  Pr  Pr0  1  0.115697  0.041746  0.759013  1
  Pr  Pr1  1  0.879888  0.955797  0.239414  1
  Pr  Pr2  1  0.964518  0.281654  0.082636  1
  Pr  Pr3  1  0.032060  0.717116  0.915118  1
  Pr  Pr4  1  0.356257  0.128346  0.171421  1
  Sm  Sm5  1  0.650571  0.875577  0.833157  1
  Os  Os6  1  0.999898  0.999834  0.000401  1
  I  I7  1  0.346196  0.449983  0.269657  1
  I  I8  1  0.648242  0.556696  0.729244  1
  I  I9  1  0.253540  0.083873  0.456800  1
  I  I10  1  0.738565  0.912507  0.546654  1
  I  I11  1  0.086555  0.368522  0.818333  1
  I  I12  1  0.913024  0.630688  0.180416  1
  I  I13  1  0.455513  0.815095  0.085148  1
  I  I14  1  0.545896  0.178087  0.905755  1
  I  I15  1  0.784734  0.258090  0.349588  1
  I  I16  1  0.228845  0.746390  0.657246  1
