# generated using pymatgen
data_Zr6In6PdPt5
_symmetry_space_group_name_H-M   'P 1'
_cell_length_a   7.52981200
_cell_length_b   7.52981195
_cell_length_c   7.28057700
_cell_angle_alpha   90.00000000
_cell_angle_beta   90.00000000
_cell_angle_gamma   119.99999142
_symmetry_Int_Tables_number   1
_chemical_formula_structural   Zr6In6PdPt5
_chemical_formula_sum   'Zr6 In6 Pd1 Pt5'
_cell_volume   357.49068669
_cell_formula_units_Z   1
loop_
 _symmetry_equiv_pos_site_id
 _symmetry_equiv_pos_as_xyz
  1  'x, y, z'
loop_
 _atom_site_type_symbol
 _atom_site_label
 _atom_site_symmetry_multiplicity
 _atom_site_fract_x
 _atom_site_fract_y
 _atom_site_fract_z
 _atom_site_occupancy
  Zr  Zr0  1  0.394097  0.416430  0.750000  1
  Zr  Zr1  1  0.022332  0.605903  0.750000  1
  Zr  Zr2  1  0.583570  0.977668  0.750000  1
  Zr  Zr3  1  0.612536  0.020834  0.250000  1
  Zr  Zr4  1  0.979166  0.591702  0.250000  1
  Zr  Zr5  1  0.408298  0.387464  0.250000  1
  In  In6  1  0.268055  0.999825  0.997606  1
  In  In7  1  0.731769  0.731945  0.997606  1
  In  In8  1  0.000175  0.268231  0.997606  1
  In  In9  1  0.731769  0.731945  0.502394  1
  In  In10  1  0.268055  0.999825  0.502394  1
  In  In11  1  0.000175  0.268231  0.502394  1
  Pd  Pd12  1  0.000000  0.000000  0.750000  1
  Pt  Pt13  1  0.666667  0.333333  0.963606  1
  Pt  Pt14  1  0.666667  0.333333  0.536394  1
  Pt  Pt15  1  0.333333  0.666667  0.460129  1
  Pt  Pt16  1  0.333333  0.666667  0.039871  1
  Pt  Pt17  1  0.000000  0.000000  0.250000  1
