# generated using pymatgen
data_Tb3Pr(HgO4)2
_symmetry_space_group_name_H-M   'P 1'
_cell_length_a   7.19571138
_cell_length_b   7.19571301
_cell_length_c   10.17580737
_cell_angle_alpha   59.23298763
_cell_angle_beta   59.23297975
_cell_angle_gamma   30.00625953
_symmetry_Int_Tables_number   1
_chemical_formula_structural   Tb3Pr(HgO4)2
_chemical_formula_sum   'Tb3 Pr1 Hg2 O8'
_cell_volume   223.50679310
_cell_formula_units_Z   1
loop_
 _symmetry_equiv_pos_site_id
 _symmetry_equiv_pos_as_xyz
  1  'x, y, z'
loop_
 _atom_site_type_symbol
 _atom_site_label
 _atom_site_symmetry_multiplicity
 _atom_site_fract_x
 _atom_site_fract_y
 _atom_site_fract_z
 _atom_site_occupancy
  Tb  Tb0  1  0.615852  0.615852  0.540646  1
  Tb  Tb1  1  0.159914  0.159914  0.201105  1
  Tb  Tb2  1  0.841299  0.841299  0.802090  1
  Pr  Pr3  1  0.379139  0.379139  0.460096  1
  Hg  Hg4  1  0.887852  0.887852  0.156304  1
  Hg  Hg5  1  0.115669  0.115669  0.838114  1
  O  O6  1  0.225930  0.225930  0.389049  1
  O  O7  1  0.795095  0.795095  0.056322  1
  O  O8  1  0.035318  0.035318  0.719117  1
  O  O9  1  0.583828  0.583828  0.345539  1
  O  O10  1  0.419279  0.419279  0.658259  1
  O  O11  1  0.970577  0.970577  0.270311  1
  O  O12  1  0.205996  0.205996  0.943402  1
  O  O13  1  0.764252  0.764252  0.619647  1
