# generated using pymatgen
data_Nb4Co2PtS12
_symmetry_space_group_name_H-M   'P 1'
_cell_length_a   6.94310431
_cell_length_b   6.94310468
_cell_length_c   18.69378832
_cell_angle_alpha   70.73134460
_cell_angle_beta   70.73134322
_cell_angle_gamma   27.55469271
_symmetry_Int_Tables_number   1
_chemical_formula_structural   Nb4Co2PtS12
_chemical_formula_sum   'Nb4 Co2 Pt1 S12'
_cell_volume   392.07385134
_cell_formula_units_Z   1
loop_
 _symmetry_equiv_pos_site_id
 _symmetry_equiv_pos_as_xyz
  1  'x, y, z'
loop_
 _atom_site_type_symbol
 _atom_site_label
 _atom_site_symmetry_multiplicity
 _atom_site_fract_x
 _atom_site_fract_y
 _atom_site_fract_z
 _atom_site_occupancy
  Nb  Nb0  1  0.740941  0.740941  0.590091  1
  Nb  Nb1  1  0.259059  0.259059  0.409909  1
  Nb  Nb2  1  0.620130  0.620130  0.851126  1
  Nb  Nb3  1  0.379870  0.379870  0.148874  1
  Co  Co4  1  0.771524  0.771524  0.281360  1
  Co  Co5  1  0.228476  0.228476  0.718640  1
  Pt  Pt6  1  0.000000  0.000000  0.000000  1
  S  S7  1  0.866647  0.866647  0.452658  1
  S  S8  1  0.027023  0.027023  0.117570  1
  S  S9  1  0.800943  0.800943  0.766200  1
  S  S10  1  0.389562  0.389562  0.280525  1
  S  S11  1  0.181071  0.181071  0.927458  1
  S  S12  1  0.610438  0.610438  0.719475  1
  S  S13  1  0.133353  0.133353  0.547342  1
  S  S14  1  0.818929  0.818929  0.072542  1
  S  S15  1  0.363570  0.363570  0.609813  1
  S  S16  1  0.972977  0.972977  0.882430  1
  S  S17  1  0.199057  0.199057  0.233800  1
  S  S18  1  0.636430  0.636430  0.390187  1
