# generated using pymatgen
data_Tm4Si4IrRu3
_symmetry_space_group_name_H-M   'P 1'
_cell_length_a   4.27564300
_cell_length_b   6.89810365
_cell_length_c   7.15735167
_cell_angle_alpha   89.77403241
_cell_angle_beta   90.00000000
_cell_angle_gamma   90.00000000
_symmetry_Int_Tables_number   1
_chemical_formula_structural   Tm4Si4IrRu3
_chemical_formula_sum   'Tm4 Si4 Ir1 Ru3'
_cell_volume   211.09606157
_cell_formula_units_Z   1
loop_
 _symmetry_equiv_pos_site_id
 _symmetry_equiv_pos_as_xyz
  1  'x, y, z'
loop_
 _atom_site_type_symbol
 _atom_site_label
 _atom_site_symmetry_multiplicity
 _atom_site_fract_x
 _atom_site_fract_y
 _atom_site_fract_z
 _atom_site_occupancy
  Tm  Tm0  1  0.250000  0.988331  0.813958  1
  Tm  Tm1  1  0.750000  0.013054  0.186843  1
  Tm  Tm2  1  0.250000  0.489618  0.687366  1
  Tm  Tm3  1  0.750000  0.508776  0.311315  1
  Si  Si4  1  0.250000  0.301205  0.107123  1
  Si  Si5  1  0.750000  0.699140  0.894601  1
  Si  Si6  1  0.250000  0.801322  0.388840  1
  Si  Si7  1  0.750000  0.200063  0.608342  1
  Ir  Ir8  1  0.750000  0.843143  0.566204  1
  Ru  Ru9  1  0.250000  0.154001  0.436028  1
  Ru  Ru10  1  0.750000  0.345309  0.934264  1
  Ru  Ru11  1  0.250000  0.656038  0.065116  1
