# generated using pymatgen
data_Tb3Dy3Al24Ru7Pt
_symmetry_space_group_name_H-M   'P 1'
_cell_length_a   8.82769627
_cell_length_b   8.82769744
_cell_length_c   9.56519025
_cell_angle_alpha   90.14795542
_cell_angle_beta   89.85204729
_cell_angle_gamma   119.84044250
_symmetry_Int_Tables_number   1
_chemical_formula_structural   Tb3Dy3Al24Ru7Pt
_chemical_formula_sum   'Tb3 Dy3 Al24 Ru7 Pt1'
_cell_volume   646.56642889
_cell_formula_units_Z   1
loop_
 _symmetry_equiv_pos_site_id
 _symmetry_equiv_pos_as_xyz
  1  'x, y, z'
loop_
 _atom_site_type_symbol
 _atom_site_label
 _atom_site_symmetry_multiplicity
 _atom_site_fract_x
 _atom_site_fract_y
 _atom_site_fract_z
 _atom_site_occupancy
  Tb  Tb0  1  0.194137  0.805863  0.249776  1
  Tb  Tb1  1  0.191780  0.386004  0.249832  1
  Tb  Tb2  1  0.613996  0.808220  0.249832  1
  Dy  Dy3  1  0.805607  0.194393  0.750242  1
  Dy  Dy4  1  0.807932  0.613445  0.750240  1
  Dy  Dy5  1  0.386555  0.192068  0.750240  1
  Al  Al6  1  0.562232  0.437768  0.247776  1
  Al  Al7  1  0.561037  0.122639  0.251231  1
  Al  Al8  1  0.877361  0.438963  0.251231  1
  Al  Al9  1  0.438023  0.561977  0.752187  1
  Al  Al10  1  0.439213  0.877901  0.748782  1
  Al  Al11  1  0.122099  0.560787  0.748782  1
  Al  Al12  1  0.323744  0.157789  0.422479  1
  Al  Al13  1  0.837357  0.162643  0.422548  1
  Al  Al14  1  0.842211  0.676256  0.422479  1
  Al  Al15  1  0.676418  0.842317  0.577876  1
  Al  Al16  1  0.162558  0.837442  0.577850  1
  Al  Al17  1  0.157683  0.323582  0.577876  1
  Al  Al18  1  0.675900  0.837408  0.921547  1
  Al  Al19  1  0.162612  0.837388  0.921724  1
  Al  Al20  1  0.162592  0.324100  0.921547  1
  Al  Al21  1  0.324267  0.162627  0.078079  1
  Al  Al22  1  0.837300  0.162700  0.077886  1
  Al  Al23  1  0.837373  0.675733  0.078079  1
  Al  Al24  1  0.669233  0.330767  0.519667  1
  Al  Al25  1  0.330764  0.669236  0.480799  1
  Al  Al26  1  0.333188  0.666812  0.016237  1
  Al  Al27  1  0.666825  0.333175  0.983326  1
  Al  Al28  1  0.999648  0.000352  0.250015  1
  Al  Al29  1  0.000354  0.999646  0.749975  1
  Ru  Ru30  1  0.999997  0.000003  0.500131  1
  Ru  Ru31  1  0.999993  0.000007  0.999847  1
  Ru  Ru32  1  0.500121  0.000261  0.500307  1
  Ru  Ru33  1  0.999739  0.499879  0.500307  1
  Ru  Ru34  1  0.500159  0.499841  0.999676  1
  Ru  Ru35  1  0.500165  0.000286  0.999684  1
  Ru  Ru36  1  0.999714  0.499835  0.999684  1
  Pt  Pt37  1  0.500110  0.499890  0.500222  1
