# generated using pymatgen
data_YbTh2(GaIr2)3
_symmetry_space_group_name_H-M   'P 1'
_cell_length_a   5.57042700
_cell_length_b   5.57042700
_cell_length_c   15.87512900
_cell_angle_alpha   90.00000000
_cell_angle_beta   90.00000000
_cell_angle_gamma   120.00000596
_symmetry_Int_Tables_number   1
_chemical_formula_structural   YbTh2(GaIr2)3
_chemical_formula_sum   'Yb2 Th4 Ga6 Ir12'
_cell_volume   426.60392103
_cell_formula_units_Z   2
loop_
 _symmetry_equiv_pos_site_id
 _symmetry_equiv_pos_as_xyz
  1  'x, y, z'
loop_
 _atom_site_type_symbol
 _atom_site_label
 _atom_site_symmetry_multiplicity
 _atom_site_fract_x
 _atom_site_fract_y
 _atom_site_fract_z
 _atom_site_occupancy
  Yb  Yb0  1  0.333333  0.666667  0.750000  1
  Yb  Yb1  1  0.666667  0.333333  0.250000  1
  Th  Th2  1  0.333333  0.666667  0.547263  1
  Th  Th3  1  0.666667  0.333333  0.452737  1
  Th  Th4  1  0.666667  0.333333  0.047263  1
  Th  Th5  1  0.333333  0.666667  0.952737  1
  Ga  Ga6  1  0.000000  0.000000  0.250000  1
  Ga  Ga7  1  0.000000  0.000000  0.750000  1
  Ga  Ga8  1  0.333333  0.666667  0.250000  1
  Ga  Ga9  1  0.666667  0.333333  0.750000  1
  Ga  Ga10  1  0.000000  0.000000  0.000000  1
  Ga  Ga11  1  0.000000  0.000000  0.500000  1
  Ir  Ir12  1  0.168702  0.337404  0.125472  1
  Ir  Ir13  1  0.831298  0.662596  0.874528  1
  Ir  Ir14  1  0.662596  0.831298  0.125472  1
  Ir  Ir15  1  0.831298  0.662596  0.625472  1
  Ir  Ir16  1  0.337404  0.168702  0.874528  1
  Ir  Ir17  1  0.168702  0.337404  0.374528  1
  Ir  Ir18  1  0.168702  0.831298  0.125472  1
  Ir  Ir19  1  0.337404  0.168702  0.625472  1
  Ir  Ir20  1  0.831298  0.168702  0.874528  1
  Ir  Ir21  1  0.662596  0.831298  0.374528  1
  Ir  Ir22  1  0.831298  0.168702  0.625472  1
  Ir  Ir23  1  0.168702  0.831298  0.374528  1
