# generated using pymatgen
data_Pr9Sc(US10)2
_symmetry_space_group_name_H-M   'P 1'
_cell_length_a   7.50670369
_cell_length_b   8.10702600
_cell_length_c   12.05163400
_cell_angle_alpha   90.00000000
_cell_angle_beta   90.37722183
_cell_angle_gamma   90.00000000
_symmetry_Int_Tables_number   1
_chemical_formula_structural   Pr9Sc(US10)2
_chemical_formula_sum   'Pr9 Sc1 U2 S20'
_cell_volume   733.41090109
_cell_formula_units_Z   1
loop_
 _symmetry_equiv_pos_site_id
 _symmetry_equiv_pos_as_xyz
  1  'x, y, z'
loop_
 _atom_site_type_symbol
 _atom_site_label
 _atom_site_symmetry_multiplicity
 _atom_site_fract_x
 _atom_site_fract_y
 _atom_site_fract_z
 _atom_site_occupancy
  Pr  Pr0  1  0.926151  0.750000  0.493365  1
  Pr  Pr1  1  0.473880  0.000904  0.318355  1
  Pr  Pr2  1  0.974825  0.001370  0.174808  1
  Pr  Pr3  1  0.526065  0.498580  0.678023  1
  Pr  Pr4  1  0.027819  0.498530  0.829087  1
  Pr  Pr5  1  0.526065  0.001420  0.678023  1
  Pr  Pr6  1  0.027819  0.001470  0.829087  1
  Pr  Pr7  1  0.473880  0.499096  0.318355  1
  Pr  Pr8  1  0.974825  0.498630  0.174808  1
  Sc  Sc9  1  0.435316  0.250000  0.003736  1
  U  U10  1  0.059276  0.250000  0.506770  1
  U  U11  1  0.561872  0.750000  0.990606  1
  S  S12  1  0.173665  0.750000  0.304928  1
  S  S13  1  0.663124  0.250000  0.179517  1
  S  S14  1  0.831706  0.250000  0.685506  1
  S  S15  1  0.331978  0.750000  0.815640  1
  S  S16  1  0.537496  0.750000  0.497590  1
  S  S17  1  0.057450  0.250000  0.005122  1
  S  S18  1  0.446845  0.250000  0.499501  1
  S  S19  1  0.950652  0.750000  0.001506  1
  S  S20  1  0.803974  0.750000  0.721215  1
  S  S21  1  0.317308  0.250000  0.796792  1
  S  S22  1  0.190707  0.250000  0.290089  1
  S  S23  1  0.691148  0.750000  0.208884  1
  S  S24  1  0.162260  0.524849  0.602268  1
  S  S25  1  0.663264  0.462309  0.908919  1
  S  S26  1  0.838457  0.052613  0.402316  1
  S  S27  1  0.344095  0.965694  0.085840  1
  S  S28  1  0.838457  0.447387  0.402316  1
  S  S29  1  0.344095  0.534306  0.085840  1
  S  S30  1  0.162260  0.975151  0.602268  1
  S  S31  1  0.663264  0.037691  0.908919  1
