# generated using pymatgen
data_Dy3HoLuSn4
_symmetry_space_group_name_H-M   'P 1'
_cell_length_a   7.99735600
_cell_length_b   8.14007200
_cell_length_c   15.42462300
_cell_angle_alpha   90.00000000
_cell_angle_beta   90.00000000
_cell_angle_gamma   90.00000000
_symmetry_Int_Tables_number   1
_chemical_formula_structural   Dy3HoLuSn4
_chemical_formula_sum   'Dy12 Ho4 Lu4 Sn16'
_cell_volume   1004.12836020
_cell_formula_units_Z   4
loop_
 _symmetry_equiv_pos_site_id
 _symmetry_equiv_pos_as_xyz
  1  'x, y, z'
loop_
 _atom_site_type_symbol
 _atom_site_label
 _atom_site_symmetry_multiplicity
 _atom_site_fract_x
 _atom_site_fract_y
 _atom_site_fract_z
 _atom_site_occupancy
  Dy  Dy0  1  0.633583  0.162547  0.122618  1
  Dy  Dy1  1  0.133583  0.337453  0.377382  1
  Dy  Dy2  1  0.366417  0.837453  0.622618  1
  Dy  Dy3  1  0.866417  0.662547  0.877382  1
  Dy  Dy4  1  0.520378  0.320921  0.903612  1
  Dy  Dy5  1  0.020378  0.179079  0.596388  1
  Dy  Dy6  1  0.479622  0.679079  0.403612  1
  Dy  Dy7  1  0.979622  0.820921  0.096388  1
  Dy  Dy8  1  0.481183  0.678913  0.096099  1
  Dy  Dy9  1  0.981183  0.821087  0.403901  1
  Dy  Dy10  1  0.518817  0.321087  0.596099  1
  Dy  Dy11  1  0.018817  0.178913  0.903901  1
  Ho  Ho12  1  0.364504  0.838309  0.876637  1
  Ho  Ho13  1  0.864504  0.661691  0.623363  1
  Ho  Ho14  1  0.635496  0.161691  0.376637  1
  Ho  Ho15  1  0.135496  0.338309  0.123363  1
  Lu  Lu16  1  0.196626  0.503986  0.750722  1
  Lu  Lu17  1  0.696626  0.996014  0.749278  1
  Lu  Lu18  1  0.803374  0.496014  0.250722  1
  Lu  Lu19  1  0.303374  0.003986  0.249278  1
  Sn  Sn20  1  0.293202  0.038100  0.041397  1
  Sn  Sn21  1  0.793202  0.461900  0.458603  1
  Sn  Sn22  1  0.706798  0.961900  0.541397  1
  Sn  Sn23  1  0.206798  0.538100  0.958603  1
  Sn  Sn24  1  0.702589  0.962426  0.957328  1
  Sn  Sn25  1  0.202589  0.537574  0.542672  1
  Sn  Sn26  1  0.297411  0.037574  0.457328  1
  Sn  Sn27  1  0.797411  0.462426  0.042672  1
  Sn  Sn28  1  0.562079  0.617725  0.750077  1
  Sn  Sn29  1  0.062079  0.882275  0.749923  1
  Sn  Sn30  1  0.437921  0.382275  0.250077  1
  Sn  Sn31  1  0.937921  0.117725  0.249923  1
  Sn  Sn32  1  0.329509  0.150897  0.750023  1
  Sn  Sn33  1  0.829509  0.349103  0.749977  1
  Sn  Sn34  1  0.670491  0.849103  0.250023  1
  Sn  Sn35  1  0.170491  0.650897  0.249977  1
