# generated using pymatgen
data_Ti4CoPb2
_symmetry_space_group_name_H-M   'P 1'
_cell_length_a   7.90701344
_cell_length_b   7.90701446
_cell_length_c   7.90701450
_cell_angle_alpha   95.41687638
_cell_angle_beta   95.41687630
_cell_angle_gamma   144.21303173
_symmetry_Int_Tables_number   1
_chemical_formula_structural   Ti4CoPb2
_chemical_formula_sum   'Ti8 Co2 Pb4'
_cell_volume   275.10142354
_cell_formula_units_Z   2
loop_
 _symmetry_equiv_pos_site_id
 _symmetry_equiv_pos_as_xyz
  1  'x, y, z'
loop_
 _atom_site_type_symbol
 _atom_site_label
 _atom_site_symmetry_multiplicity
 _atom_site_fract_x
 _atom_site_fract_y
 _atom_site_fract_z
 _atom_site_occupancy
  Ti  Ti0  1  0.690789  0.578709  0.269498  1
  Ti  Ti1  1  0.578709  0.309211  0.887921  1
  Ti  Ti2  1  0.078709  0.190789  0.269498  1
  Ti  Ti3  1  0.921291  0.809211  0.730502  1
  Ti  Ti4  1  0.190789  0.921291  0.112079  1
  Ti  Ti5  1  0.809211  0.078709  0.887921  1
  Ti  Ti6  1  0.309211  0.421291  0.730502  1
  Ti  Ti7  1  0.421291  0.690789  0.112079  1
  Co  Co8  1  0.250000  0.250000  0.000000  1
  Co  Co9  1  0.750000  0.750000  0.000000  1
  Pb  Pb10  1  0.140251  0.640251  0.780504  1
  Pb  Pb11  1  0.359749  0.140251  0.500000  1
  Pb  Pb12  1  0.640251  0.859749  0.500000  1
  Pb  Pb13  1  0.859749  0.359749  0.219496  1
