# generated using pymatgen
data_Ba4CoNi5N4
_symmetry_space_group_name_H-M   'P 1'
_cell_length_a   6.33203089
_cell_length_b   6.33896945
_cell_length_c   7.42329975
_cell_angle_alpha   90.06124316
_cell_angle_beta   89.84601695
_cell_angle_gamma   112.05567570
_symmetry_Int_Tables_number   1
_chemical_formula_structural   Ba4CoNi5N4
_chemical_formula_sum   'Ba4 Co1 Ni5 N4'
_cell_volume   276.15456645
_cell_formula_units_Z   1
loop_
 _symmetry_equiv_pos_site_id
 _symmetry_equiv_pos_as_xyz
  1  'x, y, z'
loop_
 _atom_site_type_symbol
 _atom_site_label
 _atom_site_symmetry_multiplicity
 _atom_site_fract_x
 _atom_site_fract_y
 _atom_site_fract_z
 _atom_site_occupancy
  Ba  Ba0  1  0.668157  0.331741  0.407047  1
  Ba  Ba1  1  0.329398  0.665103  0.591946  1
  Ba  Ba2  1  0.838752  0.174665  0.908590  1
  Ba  Ba3  1  0.173155  0.836269  0.092486  1
  Co  Co4  1  0.182481  0.324477  0.249632  1
  Ni  Ni5  1  0.326173  0.178573  0.750069  1
  Ni  Ni6  1  0.828499  0.676459  0.750443  1
  Ni  Ni7  1  0.674901  0.832185  0.250457  1
  Ni  Ni8  1  0.039399  0.039604  0.498444  1
  Ni  Ni9  1  0.468684  0.468716  0.001320  1
  N  N10  1  0.931423  0.078867  0.272754  1
  N  N11  1  0.075136  0.929071  0.723283  1
  N  N12  1  0.576892  0.429025  0.775971  1
  N  N13  1  0.427952  0.576246  0.227558  1
