# generated using pymatgen
data_Er12Co3Si8Ni
_symmetry_space_group_name_H-M   'P 1'
_cell_length_a   4.07348600
_cell_length_b   11.03831613
_cell_length_c   11.22918017
_cell_angle_alpha   89.91386311
_cell_angle_beta   90.00000000
_cell_angle_gamma   90.00000000
_symmetry_Int_Tables_number   1
_chemical_formula_structural   Er12Co3Si8Ni
_chemical_formula_sum   'Er12 Co3 Si8 Ni1'
_cell_volume   504.91307225
_cell_formula_units_Z   1
loop_
 _symmetry_equiv_pos_site_id
 _symmetry_equiv_pos_as_xyz
  1  'x, y, z'
loop_
 _atom_site_type_symbol
 _atom_site_label
 _atom_site_symmetry_multiplicity
 _atom_site_fract_x
 _atom_site_fract_y
 _atom_site_fract_z
 _atom_site_occupancy
  Er  Er0  1  0.250000  0.374097  0.057693  1
  Er  Er1  1  0.750000  0.624671  0.942595  1
  Er  Er2  1  0.750000  0.873139  0.442397  1
  Er  Er3  1  0.250000  0.123511  0.555294  1
  Er  Er4  1  0.250000  0.701072  0.218764  1
  Er  Er5  1  0.750000  0.302292  0.784339  1
  Er  Er6  1  0.750000  0.201339  0.281065  1
  Er  Er7  1  0.250000  0.799184  0.717701  1
  Er  Er8  1  0.250000  0.442262  0.381727  1
  Er  Er9  1  0.750000  0.559550  0.618964  1
  Er  Er10  1  0.750000  0.941681  0.117698  1
  Er  Er11  1  0.250000  0.058427  0.880884  1
  Co  Co12  1  0.250000  0.134771  0.129935  1
  Co  Co13  1  0.750000  0.863815  0.869067  1
  Co  Co14  1  0.750000  0.636144  0.370098  1
  Si  Si15  1  0.250000  0.683829  0.476758  1
  Si  Si16  1  0.750000  0.314792  0.524021  1
  Si  Si17  1  0.750000  0.184875  0.023280  1
  Si  Si18  1  0.250000  0.815524  0.975626  1
  Si  Si19  1  0.250000  0.006117  0.302394  1
  Si  Si20  1  0.750000  0.994473  0.697493  1
  Si  Si21  1  0.750000  0.505566  0.198206  1
  Si  Si22  1  0.250000  0.495675  0.803884  1
  Ni  Ni23  1  0.250000  0.363191  0.630118  1
