# generated using pymatgen
data_La4AlIn3Rh4
_symmetry_space_group_name_H-M   'P 1'
_cell_length_a   4.27303400
_cell_length_b   7.70739018
_cell_length_c   16.83490608
_cell_angle_alpha   90.24085057
_cell_angle_beta   90.00000000
_cell_angle_gamma   90.00000000
_symmetry_Int_Tables_number   1
_chemical_formula_structural   La4AlIn3Rh4
_chemical_formula_sum   'La8 Al2 In6 Rh8'
_cell_volume   554.43489289
_cell_formula_units_Z   2
loop_
 _symmetry_equiv_pos_site_id
 _symmetry_equiv_pos_as_xyz
  1  'x, y, z'
loop_
 _atom_site_type_symbol
 _atom_site_label
 _atom_site_symmetry_multiplicity
 _atom_site_fract_x
 _atom_site_fract_y
 _atom_site_fract_z
 _atom_site_occupancy
  La  La0  1  0.250000  0.537475  0.780968  1
  La  La1  1  0.750000  0.462525  0.219032  1
  La  La2  1  0.750000  0.964198  0.287903  1
  La  La3  1  0.250000  0.035802  0.712097  1
  La  La4  1  0.250000  0.670632  0.559312  1
  La  La5  1  0.750000  0.329368  0.440688  1
  La  La6  1  0.750000  0.841350  0.063149  1
  La  La7  1  0.250000  0.158650  0.936851  1
  Al  Al8  1  0.750000  0.997298  0.559229  1
  Al  Al9  1  0.250000  0.002702  0.440771  1
  In  In10  1  0.250000  0.636949  0.351613  1
  In  In11  1  0.750000  0.363051  0.648387  1
  In  In12  1  0.750000  0.870019  0.843718  1
  In  In13  1  0.250000  0.129981  0.156282  1
  In  In14  1  0.250000  0.504197  0.064501  1
  In  In15  1  0.750000  0.495803  0.935499  1
  Rh  Rh16  1  0.250000  0.757171  0.184482  1
  Rh  Rh17  1  0.750000  0.242829  0.815518  1
  Rh  Rh18  1  0.750000  0.747322  0.672631  1
  Rh  Rh19  1  0.250000  0.252678  0.327369  1
  Rh  Rh20  1  0.250000  0.739597  0.930695  1
  Rh  Rh21  1  0.750000  0.260403  0.069305  1
  Rh  Rh22  1  0.750000  0.796382  0.435613  1
  Rh  Rh23  1  0.250000  0.203618  0.564387  1
