# generated using pymatgen
data_Ca2LaCd2HgPd3
_symmetry_space_group_name_H-M   'P 1'
_cell_length_a   7.67984591
_cell_length_b   7.73747225
_cell_length_c   4.10660500
_cell_angle_alpha   90.00000000
_cell_angle_beta   90.00000000
_cell_angle_gamma   120.01811925
_symmetry_Int_Tables_number   1
_chemical_formula_structural   Ca2LaCd2HgPd3
_chemical_formula_sum   'Ca2 La1 Cd2 Hg1 Pd3'
_cell_volume   211.29336078
_cell_formula_units_Z   1
loop_
 _symmetry_equiv_pos_site_id
 _symmetry_equiv_pos_as_xyz
  1  'x, y, z'
loop_
 _atom_site_type_symbol
 _atom_site_label
 _atom_site_symmetry_multiplicity
 _atom_site_fract_x
 _atom_site_fract_y
 _atom_site_fract_z
 _atom_site_occupancy
  Ca  Ca0  1  0.407075  0.408221  0.500000  1
  Ca  Ca1  1  0.598092  0.997731  0.500000  1
  La  La2  1  0.996408  0.596532  0.500000  1
  Cd  Cd3  1  0.267708  0.013982  0.000000  1
  Cd  Cd4  1  0.002180  0.243952  0.000000  1
  Hg  Hg5  1  0.729113  0.741812  0.000000  1
  Pd  Pd6  1  0.679948  0.337327  0.000000  1
  Pd  Pd7  1  0.314246  0.663250  0.000000  1
  Pd  Pd8  1  0.005230  0.997193  0.500000  1
