# generated using pymatgen
data_La17Tm2LuSn16
_symmetry_space_group_name_H-M   'P 1'
_cell_length_a   8.43149300
_cell_length_b   8.58698899
_cell_length_c   16.27453600
_cell_angle_alpha   90.00000000
_cell_angle_beta   90.00000000
_cell_angle_gamma   89.96095314
_symmetry_Int_Tables_number   1
_chemical_formula_structural   La17Tm2LuSn16
_chemical_formula_sum   'La17 Tm2 Lu1 Sn16'
_cell_volume   1178.29464660
_cell_formula_units_Z   1
loop_
 _symmetry_equiv_pos_site_id
 _symmetry_equiv_pos_as_xyz
  1  'x, y, z'
loop_
 _atom_site_type_symbol
 _atom_site_label
 _atom_site_symmetry_multiplicity
 _atom_site_fract_x
 _atom_site_fract_y
 _atom_site_fract_z
 _atom_site_occupancy
  La  La0  1  0.369370  0.841112  0.879307  1
  La  La1  1  0.869577  0.657817  0.619089  1
  La  La2  1  0.630813  0.159712  0.382543  1
  La  La3  1  0.129073  0.341911  0.117527  1
  La  La4  1  0.630813  0.159712  0.117457  1
  La  La5  1  0.129073  0.341911  0.382473  1
  La  La6  1  0.369370  0.841112  0.620693  1
  La  La7  1  0.869577  0.657817  0.880911  1
  La  La8  1  0.521351  0.317436  0.900551  1
  La  La9  1  0.022180  0.181044  0.600680  1
  La  La10  1  0.479465  0.680759  0.401703  1
  La  La11  1  0.978334  0.817564  0.097661  1
  La  La12  1  0.479465  0.680759  0.098297  1
  La  La13  1  0.978334  0.817564  0.402339  1
  La  La14  1  0.521351  0.317436  0.599449  1
  La  La15  1  0.022180  0.181044  0.899320  1
  La  La16  1  0.299497  0.001883  0.250000  1
  Tm  Tm17  1  0.206134  0.501833  0.750000  1
  Tm  Tm18  1  0.704558  0.998175  0.750000  1
  Lu  Lu19  1  0.794550  0.495258  0.250000  1
  Sn  Sn20  1  0.287194  0.034944  0.042838  1
  Sn  Sn21  1  0.786988  0.469536  0.451987  1
  Sn  Sn22  1  0.712089  0.967393  0.547759  1
  Sn  Sn23  1  0.212906  0.532320  0.952104  1
  Sn  Sn24  1  0.712089  0.967393  0.952241  1
  Sn  Sn25  1  0.212906  0.532320  0.547896  1
  Sn  Sn26  1  0.287194  0.034944  0.457162  1
  Sn  Sn27  1  0.786988  0.469536  0.048013  1
  Sn  Sn28  1  0.566692  0.616848  0.750000  1
  Sn  Sn29  1  0.064428  0.881848  0.750000  1
  Sn  Sn30  1  0.434720  0.389729  0.250000  1
  Sn  Sn31  1  0.927244  0.118753  0.250000  1
  Sn  Sn32  1  0.325524  0.150139  0.750000  1
  Sn  Sn33  1  0.824334  0.351691  0.750000  1
  Sn  Sn34  1  0.681949  0.850488  0.250000  1
  Sn  Sn35  1  0.171693  0.640255  0.250000  1
