# generated using pymatgen
data_Nd5Y2Ho(Si3Rh)4
_symmetry_space_group_name_H-M   'P 1'
_cell_length_a   8.23604552
_cell_length_b   8.24113006
_cell_length_c   8.18552500
_cell_angle_alpha   90.00000000
_cell_angle_beta   90.00000000
_cell_angle_gamma   120.02042468
_symmetry_Int_Tables_number   1
_chemical_formula_structural   Nd5Y2Ho(Si3Rh)4
_chemical_formula_sum   'Nd5 Y2 Ho1 Si12 Rh4'
_cell_volume   481.05336535
_cell_formula_units_Z   1
loop_
 _symmetry_equiv_pos_site_id
 _symmetry_equiv_pos_as_xyz
  1  'x, y, z'
loop_
 _atom_site_type_symbol
 _atom_site_label
 _atom_site_symmetry_multiplicity
 _atom_site_fract_x
 _atom_site_fract_y
 _atom_site_fract_z
 _atom_site_occupancy
  Nd  Nd0  1  0.000004  0.000002  0.250000  1
  Nd  Nd1  1  0.000016  0.000008  0.750000  1
  Nd  Nd2  1  0.505423  0.494565  0.250000  1
  Nd  Nd3  1  0.505423  0.010859  0.250000  1
  Nd  Nd4  1  0.989144  0.494572  0.250000  1
  Y  Y5  1  0.492022  0.507889  0.750000  1
  Y  Y6  1  0.492022  0.984132  0.750000  1
  Ho  Ho7  1  0.015579  0.507789  0.750000  1
  Si  Si8  1  0.166761  0.832976  0.506789  1
  Si  Si9  1  0.166761  0.333785  0.506789  1
  Si  Si10  1  0.666293  0.833147  0.506575  1
  Si  Si11  1  0.831793  0.168416  0.504196  1
  Si  Si12  1  0.831793  0.663378  0.504196  1
  Si  Si13  1  0.336576  0.168288  0.504054  1
  Si  Si14  1  0.831793  0.168416  0.995804  1
  Si  Si15  1  0.831793  0.663378  0.995804  1
  Si  Si16  1  0.336576  0.168288  0.995946  1
  Si  Si17  1  0.166761  0.832976  0.993211  1
  Si  Si18  1  0.166761  0.333785  0.993211  1
  Si  Si19  1  0.666293  0.833147  0.993425  1
  Rh  Rh20  1  0.332983  0.666492  0.488003  1
  Rh  Rh21  1  0.667224  0.333611  0.544474  1
  Rh  Rh22  1  0.667224  0.333611  0.955526  1
  Rh  Rh23  1  0.332983  0.666492  0.011997  1
