# generated using pymatgen
data_Sc2Re3Si3W
_symmetry_space_group_name_H-M   'P 1'
_cell_length_a   6.91696201
_cell_length_b   6.91696312
_cell_length_c   3.30279000
_cell_angle_alpha   90.00000000
_cell_angle_beta   90.00000000
_cell_angle_gamma   119.32898298
_symmetry_Int_Tables_number   1
_chemical_formula_structural   Sc2Re3Si3W
_chemical_formula_sum   'Sc2 Re3 Si3 W1'
_cell_volume   137.76517256
_cell_formula_units_Z   1
loop_
 _symmetry_equiv_pos_site_id
 _symmetry_equiv_pos_as_xyz
  1  'x, y, z'
loop_
 _atom_site_type_symbol
 _atom_site_label
 _atom_site_symmetry_multiplicity
 _atom_site_fract_x
 _atom_site_fract_y
 _atom_site_fract_z
 _atom_site_occupancy
  Sc  Sc0  1  0.598013  0.996626  0.500000  1
  Sc  Sc1  1  0.996626  0.598013  0.500000  1
  Re  Re2  1  0.734506  0.734506  0.000000  1
  Re  Re3  1  0.262211  0.011329  0.000000  1
  Re  Re4  1  0.011329  0.262211  0.000000  1
  Si  Si5  1  0.662328  0.332384  0.000000  1
  Si  Si6  1  0.332384  0.662328  0.000000  1
  Si  Si7  1  0.000532  0.000532  0.500000  1
  W  W8  1  0.402072  0.402072  0.500000  1
