# generated using pymatgen
data_Dy5Mg2V(P3Ir4)4
_symmetry_space_group_name_H-M   'P 1'
_cell_length_a   12.80627600
_cell_length_b   12.75905452
_cell_length_c   3.96666600
_cell_angle_alpha   90.00000000
_cell_angle_beta   90.00000000
_cell_angle_gamma   120.12250437
_symmetry_Int_Tables_number   1
_chemical_formula_structural   Dy5Mg2V(P3Ir4)4
_chemical_formula_sum   'Dy5 Mg2 V1 P12 Ir16'
_cell_volume   560.60915146
_cell_formula_units_Z   1
loop_
 _symmetry_equiv_pos_site_id
 _symmetry_equiv_pos_as_xyz
  1  'x, y, z'
loop_
 _atom_site_type_symbol
 _atom_site_label
 _atom_site_symmetry_multiplicity
 _atom_site_fract_x
 _atom_site_fract_y
 _atom_site_fract_z
 _atom_site_occupancy
  Dy  Dy0  1  0.334668  0.669719  0.500000  1
  Dy  Dy1  1  0.664950  0.330281  0.500000  1
  Dy  Dy2  1  0.003490  0.811938  0.000000  1
  Dy  Dy3  1  0.191552  0.188062  0.000000  1
  Dy  Dy4  1  0.808999  0.000000  0.000000  1
  Mg  Mg5  1  0.000470  0.445752  0.500000  1
  Mg  Mg6  1  0.554718  0.554248  0.500000  1
  V  V7  1  0.447132  0.000000  0.500000  1
  P  P8  1  0.000736  0.642765  0.500000  1
  P  P9  1  0.357971  0.357235  0.500000  1
  P  P10  1  0.631519  0.000000  0.500000  1
  P  P11  1  0.515158  0.687996  0.000000  1
  P  P12  1  0.315905  0.834419  0.000000  1
  P  P13  1  0.174647  0.484317  0.000000  1
  P  P14  1  0.481485  0.165581  0.000000  1
  P  P15  1  0.690329  0.515683  0.000000  1
  P  P16  1  0.827161  0.312004  0.000000  1
  P  P17  1  0.998121  0.177214  0.500000  1
  P  P18  1  0.820907  0.822786  0.500000  1
  P  P19  1  0.175352  0.000000  0.500000  1
  Ir  Ir20  1  0.508877  0.870084  0.000000  1
  Ir  Ir21  1  0.137856  0.642538  0.000000  1
  Ir  Ir22  1  0.360717  0.488333  0.000000  1
  Ir  Ir23  1  0.495320  0.357462  0.000000  1
  Ir  Ir24  1  0.872385  0.511667  0.000000  1
  Ir  Ir25  1  0.638794  0.129916  0.000000  1
  Ir  Ir26  1  0.998853  0.278307  0.000000  1
  Ir  Ir27  1  0.720546  0.721693  0.000000  1
  Ir  Ir28  1  0.283824  0.000000  0.000000  1
  Ir  Ir29  1  0.625059  0.806348  0.500000  1
  Ir  Ir30  1  0.194360  0.822998  0.500000  1
  Ir  Ir31  1  0.177528  0.373315  0.500000  1
  Ir  Ir32  1  0.371362  0.177002  0.500000  1
  Ir  Ir33  1  0.804213  0.626685  0.500000  1
  Ir  Ir34  1  0.818711  0.193652  0.500000  1
  Ir  Ir35  1  0.996325  0.000000  0.500000  1
