# generated using pymatgen
data_Er20GaBi9Sb2
_symmetry_space_group_name_H-M   'P 1'
_cell_length_a   8.08079752
_cell_length_b   9.36118900
_cell_length_c   11.83848300
_cell_angle_alpha   90.00000000
_cell_angle_beta   89.69898439
_cell_angle_gamma   90.00000000
_symmetry_Int_Tables_number   1
_chemical_formula_structural   Er20GaBi9Sb2
_chemical_formula_sum   'Er20 Ga1 Bi9 Sb2'
_cell_volume   895.52002092
_cell_formula_units_Z   1
loop_
 _symmetry_equiv_pos_site_id
 _symmetry_equiv_pos_as_xyz
  1  'x, y, z'
loop_
 _atom_site_type_symbol
 _atom_site_label
 _atom_site_symmetry_multiplicity
 _atom_site_fract_x
 _atom_site_fract_y
 _atom_site_fract_z
 _atom_site_occupancy
  Er  Er0  1  0.036460  0.250000  0.509737  1
  Er  Er1  1  0.975256  0.750000  0.489648  1
  Er  Er2  1  0.471467  0.750000  0.011511  1
  Er  Er3  1  0.525192  0.250000  0.988782  1
  Er  Er4  1  0.355155  0.250000  0.293720  1
  Er  Er5  1  0.647432  0.750000  0.713455  1
  Er  Er6  1  0.147568  0.750000  0.785665  1
  Er  Er7  1  0.852368  0.250000  0.215979  1
  Er  Er8  1  0.192659  0.250000  0.776869  1
  Er  Er9  1  0.813694  0.750000  0.217538  1
  Er  Er10  1  0.316125  0.750000  0.281993  1
  Er  Er11  1  0.673492  0.250000  0.710879  1
  Er  Er12  1  0.192508  0.061815  0.060421  1
  Er  Er13  1  0.809265  0.932780  0.941851  1
  Er  Er14  1  0.311105  0.947235  0.558049  1
  Er  Er15  1  0.809265  0.567220  0.941851  1
  Er  Er16  1  0.683715  0.068465  0.445151  1
  Er  Er17  1  0.192508  0.438185  0.060421  1
  Er  Er18  1  0.683715  0.431535  0.445151  1
  Er  Er19  1  0.311105  0.552765  0.558049  1
  Ga  Ga20  1  0.407231  0.250000  0.539755  1
  Bi  Bi21  1  0.907844  0.250000  0.954401  1
  Bi  Bi22  1  0.063608  0.002487  0.324444  1
  Bi  Bi23  1  0.935213  0.997836  0.675193  1
  Bi  Bi24  1  0.435676  0.995734  0.825111  1
  Bi  Bi25  1  0.935213  0.502164  0.675193  1
  Bi  Bi26  1  0.564935  0.004285  0.174944  1
  Bi  Bi27  1  0.063608  0.497513  0.324444  1
  Bi  Bi28  1  0.564935  0.495715  0.174944  1
  Bi  Bi29  1  0.435676  0.504266  0.825111  1
  Sb  Sb30  1  0.593187  0.750000  0.458049  1
  Sb  Sb31  1  0.092820  0.750000  0.041683  1
