# generated using pymatgen
data_YbEr7Si8(PdPt3)2
_symmetry_space_group_name_H-M   'P 1'
_cell_length_a   4.28402800
_cell_length_b   7.43137801
_cell_length_c   13.94098460
_cell_angle_alpha   89.96144134
_cell_angle_beta   90.00000000
_cell_angle_gamma   90.00000000
_symmetry_Int_Tables_number   1
_chemical_formula_structural   YbEr7Si8(PdPt3)2
_chemical_formula_sum   'Yb1 Er7 Si8 Pd2 Pt6'
_cell_volume   443.82831253
_cell_formula_units_Z   1
loop_
 _symmetry_equiv_pos_site_id
 _symmetry_equiv_pos_as_xyz
  1  'x, y, z'
loop_
 _atom_site_type_symbol
 _atom_site_label
 _atom_site_symmetry_multiplicity
 _atom_site_fract_x
 _atom_site_fract_y
 _atom_site_fract_z
 _atom_site_occupancy
  Yb  Yb0  1  0.000000  0.205443  0.249236  1
  Er  Er1  1  0.000000  0.300227  0.000846  1
  Er  Er2  1  0.500000  0.699764  0.500266  1
  Er  Er3  1  0.000000  0.294087  0.498675  1
  Er  Er4  1  0.500000  0.707722  0.000262  1
  Er  Er5  1  0.500000  0.797107  0.251186  1
  Er  Er6  1  0.000000  0.206429  0.749210  1
  Er  Er7  1  0.500000  0.794172  0.749800  1
  Si  Si8  1  0.000000  0.904357  0.593513  1
  Si  Si9  1  0.500000  0.092493  0.906653  1
  Si  Si10  1  0.000000  0.907104  0.407944  1
  Si  Si11  1  0.500000  0.089654  0.089932  1
  Si  Si12  1  0.000000  0.595674  0.148066  1
  Si  Si13  1  0.500000  0.408090  0.357950  1
  Si  Si14  1  0.000000  0.594456  0.853657  1
  Si  Si15  1  0.500000  0.407662  0.642948  1
  Pd  Pd16  1  0.500000  0.420018  0.154562  1
  Pd  Pd17  1  0.500000  0.419105  0.844958  1
  Pt  Pt18  1  0.500000  0.075515  0.609630  1
  Pt  Pt19  1  0.000000  0.925013  0.890526  1
  Pt  Pt20  1  0.500000  0.077572  0.393084  1
  Pt  Pt21  1  0.000000  0.921958  0.106340  1
  Pt  Pt22  1  0.000000  0.579569  0.342350  1
  Pt  Pt23  1  0.000000  0.576809  0.658405  1
