# generated using pymatgen
data_LaNd3(B10Ir)2
_symmetry_space_group_name_H-M   'P 1'
_cell_length_a   4.23074400
_cell_length_b   5.76213304
_cell_length_c   11.48211508
_cell_angle_alpha   89.98649190
_cell_angle_beta   90.00000000
_cell_angle_gamma   90.00000000
_symmetry_Int_Tables_number   1
_chemical_formula_structural   LaNd3(B10Ir)2
_chemical_formula_sum   'La1 Nd3 B20 Ir2'
_cell_volume   279.91225421
_cell_formula_units_Z   1
loop_
 _symmetry_equiv_pos_site_id
 _symmetry_equiv_pos_as_xyz
  1  'x, y, z'
loop_
 _atom_site_type_symbol
 _atom_site_label
 _atom_site_symmetry_multiplicity
 _atom_site_fract_x
 _atom_site_fract_y
 _atom_site_fract_z
 _atom_site_occupancy
  La  La0  1  0.500000  0.292999  0.865965  1
  Nd  Nd1  1  0.500000  0.706205  0.134301  1
  Nd  Nd2  1  0.500000  0.793585  0.633499  1
  Nd  Nd3  1  0.500000  0.205851  0.366077  1
  B  B4  1  0.000000  0.119256  0.542820  1
  B  B5  1  0.000000  0.880745  0.456760  1
  B  B6  1  0.000000  0.619383  0.956884  1
  B  B7  1  0.000000  0.380659  0.043560  1
  B  B8  1  0.000000  0.138985  0.696754  1
  B  B9  1  0.000000  0.861416  0.303035  1
  B  B10  1  0.300126  0.218501  0.118590  1
  B  B11  1  0.299979  0.783041  0.881429  1
  B  B12  1  0.699585  0.718026  0.381425  1
  B  B13  1  0.699789  0.282072  0.617897  1
  B  B14  1  0.700021  0.783041  0.881429  1
  B  B15  1  0.699874  0.218501  0.118590  1
  B  B16  1  0.300211  0.282072  0.617897  1
  B  B17  1  0.300415  0.718026  0.381425  1
  B  B18  1  0.000000  0.055081  0.193103  1
  B  B19  1  0.000000  0.944720  0.807139  1
  B  B20  1  0.000000  0.555034  0.307194  1
  B  B21  1  0.000000  0.444786  0.692667  1
  B  B22  1  0.000000  0.360970  0.197553  1
  B  B23  1  0.000000  0.638466  0.803171  1
  Ir  Ir24  1  0.000000  0.500099  0.499825  1
  Ir  Ir25  1  0.000000  0.998480  0.001012  1
