# generated using pymatgen
data_LiGa2AgS4
_symmetry_space_group_name_H-M   'P 1'
_cell_length_a   6.61982210
_cell_length_b   6.61982160
_cell_length_c   6.61982168
_cell_angle_alpha   128.86946021
_cell_angle_beta   128.86945794
_cell_angle_gamma   75.22071084
_symmetry_Int_Tables_number   1
_chemical_formula_structural   LiGa2AgS4
_chemical_formula_sum   'Li1 Ga2 Ag1 S4'
_cell_volume   171.18376182
_cell_formula_units_Z   1
loop_
 _symmetry_equiv_pos_site_id
 _symmetry_equiv_pos_as_xyz
  1  'x, y, z'
loop_
 _atom_site_type_symbol
 _atom_site_label
 _atom_site_symmetry_multiplicity
 _atom_site_fract_x
 _atom_site_fract_y
 _atom_site_fract_z
 _atom_site_occupancy
  Li  Li0  1  0.000000  0.000000  0.000000  1
  Ga  Ga1  1  0.250000  0.750000  0.500000  1
  Ga  Ga2  1  0.500000  0.500000  0.000000  1
  Ag  Ag3  1  0.750000  0.250000  0.500000  1
  S  S4  1  0.599910  0.637643  0.478369  1
  S  S5  1  0.362357  0.840725  0.962267  1
  S  S6  1  0.159275  0.121541  0.521631  1
  S  S7  1  0.878459  0.400090  0.037733  1
