# generated using pymatgen
data_Sc8Ta3Si16Mo8W
_symmetry_space_group_name_H-M   'P 1'
_cell_length_a   6.60871587
_cell_length_b   6.83195113
_cell_length_c   12.73929900
_cell_angle_alpha   90.00000000
_cell_angle_beta   90.00000000
_cell_angle_gamma   89.90889641
_symmetry_Int_Tables_number   1
_chemical_formula_structural   Sc8Ta3Si16Mo8W
_chemical_formula_sum   'Sc8 Ta3 Si16 Mo8 W1'
_cell_volume   575.18402249
_cell_formula_units_Z   1
loop_
 _symmetry_equiv_pos_site_id
 _symmetry_equiv_pos_as_xyz
  1  'x, y, z'
loop_
 _atom_site_type_symbol
 _atom_site_label
 _atom_site_symmetry_multiplicity
 _atom_site_fract_x
 _atom_site_fract_y
 _atom_site_fract_z
 _atom_site_occupancy
  Sc  Sc0  1  0.494775  0.327950  0.093730  1
  Sc  Sc1  1  0.998084  0.170883  0.406262  1
  Sc  Sc2  1  0.502390  0.671930  0.593985  1
  Sc  Sc3  1  0.002263  0.827241  0.905754  1
  Sc  Sc4  1  0.502390  0.671930  0.906015  1
  Sc  Sc5  1  0.002263  0.827241  0.594246  1
  Sc  Sc6  1  0.494775  0.327950  0.406270  1
  Sc  Sc7  1  0.998084  0.170883  0.093738  1
  Ta  Ta8  1  0.659796  0.004367  0.750000  1
  Ta  Ta9  1  0.159675  0.495464  0.750000  1
  Ta  Ta10  1  0.339982  0.998363  0.250000  1
  Si  Si11  1  0.667840  0.038525  0.541510  1
  Si  Si12  1  0.167069  0.461432  0.958968  1
  Si  Si13  1  0.333270  0.962095  0.042262  1
  Si  Si14  1  0.832402  0.537536  0.454728  1
  Si  Si15  1  0.333270  0.962095  0.457738  1
  Si  Si16  1  0.832402  0.537536  0.045272  1
  Si  Si17  1  0.667840  0.038525  0.958490  1
  Si  Si18  1  0.167069  0.461432  0.541032  1
  Si  Si19  1  0.535784  0.382751  0.750000  1
  Si  Si20  1  0.034729  0.118065  0.750000  1
  Si  Si21  1  0.468873  0.617906  0.250000  1
  Si  Si22  1  0.964310  0.877711  0.250000  1
  Si  Si23  1  0.794032  0.639152  0.750000  1
  Si  Si24  1  0.294142  0.860357  0.750000  1
  Si  Si25  1  0.199995  0.362507  0.250000  1
  Si  Si26  1  0.706032  0.143647  0.250000  1
  Mo  Mo27  1  0.831965  0.334910  0.623172  1
  Mo  Mo28  1  0.332447  0.165801  0.875731  1
  Mo  Mo29  1  0.170311  0.664844  0.124762  1
  Mo  Mo30  1  0.669876  0.837258  0.374967  1
  Mo  Mo31  1  0.170311  0.664844  0.375238  1
  Mo  Mo32  1  0.669876  0.837258  0.125033  1
  Mo  Mo33  1  0.831965  0.334910  0.876828  1
  Mo  Mo34  1  0.332447  0.165801  0.624269  1
  W  W35  1  0.837262  0.498906  0.250000  1
