# generated using pymatgen
data_PPd2Cl13
_symmetry_space_group_name_H-M   'P 1'
_cell_length_a   10.93385900
_cell_length_b   9.23827157
_cell_length_c   9.98246095
_cell_angle_alpha   78.39255502
_cell_angle_beta   90.00000000
_cell_angle_gamma   90.00000000
_symmetry_Int_Tables_number   1
_chemical_formula_structural   PPd2Cl13
_chemical_formula_sum   'P2 Pd4 Cl26'
_cell_volume   987.70676862
_cell_formula_units_Z   2
loop_
 _symmetry_equiv_pos_site_id
 _symmetry_equiv_pos_as_xyz
  1  'x, y, z'
loop_
 _atom_site_type_symbol
 _atom_site_label
 _atom_site_symmetry_multiplicity
 _atom_site_fract_x
 _atom_site_fract_y
 _atom_site_fract_z
 _atom_site_occupancy
  P  P0  1  0.250000  0.262780  0.509753  1
  P  P1  1  0.750000  0.737220  0.490247  1
  Pd  Pd2  1  0.250000  0.835389  0.101664  1
  Pd  Pd3  1  0.750000  0.164611  0.898336  1
  Pd  Pd4  1  0.250000  0.674604  0.855151  1
  Pd  Pd5  1  0.750000  0.325396  0.144849  1
  Cl  Cl6  1  0.603885  0.804680  0.574263  1
  Cl  Cl7  1  0.103885  0.195320  0.425737  1
  Cl  Cl8  1  0.750000  0.425752  0.902404  1
  Cl  Cl9  1  0.250000  0.574248  0.097596  1
  Cl  Cl10  1  0.896832  0.156139  0.079083  1
  Cl  Cl11  1  0.396832  0.843861  0.920917  1
  Cl  Cl12  1  0.103168  0.843861  0.920917  1
  Cl  Cl13  1  0.603168  0.156139  0.079083  1
  Cl  Cl14  1  0.750000  0.206734  0.371219  1
  Cl  Cl15  1  0.250000  0.793266  0.628781  1
  Cl  Cl16  1  0.900478  0.483893  0.186857  1
  Cl  Cl17  1  0.400478  0.516107  0.813143  1
  Cl  Cl18  1  0.099522  0.516107  0.813143  1
  Cl  Cl19  1  0.599522  0.483893  0.186857  1
  Cl  Cl20  1  0.750000  0.911474  0.924362  1
  Cl  Cl21  1  0.250000  0.088526  0.075638  1
  Cl  Cl22  1  0.899293  0.188898  0.732680  1
  Cl  Cl23  1  0.399293  0.811102  0.267320  1
  Cl  Cl24  1  0.100707  0.811102  0.267320  1
  Cl  Cl25  1  0.600707  0.188898  0.732680  1
  Cl  Cl26  1  0.750000  0.816424  0.293802  1
  Cl  Cl27  1  0.250000  0.183576  0.706198  1
  Cl  Cl28  1  0.750000  0.521265  0.524685  1
  Cl  Cl29  1  0.250000  0.478735  0.475315  1
  Cl  Cl30  1  0.896115  0.804680  0.574263  1
  Cl  Cl31  1  0.396115  0.195320  0.425737  1
