# generated using pymatgen
data_CeEr5Tm2(WC2)4
_symmetry_space_group_name_H-M   'P 1'
_cell_length_a   5.71403655
_cell_length_b   5.71403658
_cell_length_c   9.83639702
_cell_angle_alpha   89.56095408
_cell_angle_beta   89.56095478
_cell_angle_gamma   89.99879683
_symmetry_Int_Tables_number   1
_chemical_formula_structural   CeEr5Tm2(WC2)4
_chemical_formula_sum   'Ce1 Er5 Tm2 W4 C8'
_cell_volume   321.14160823
_cell_formula_units_Z   1
loop_
 _symmetry_equiv_pos_site_id
 _symmetry_equiv_pos_as_xyz
  1  'x, y, z'
loop_
 _atom_site_type_symbol
 _atom_site_label
 _atom_site_symmetry_multiplicity
 _atom_site_fract_x
 _atom_site_fract_y
 _atom_site_fract_z
 _atom_site_occupancy
  Ce  Ce0  1  0.801393  0.801393  0.659201  1
  Er  Er1  1  0.302322  0.701208  0.842728  1
  Er  Er2  1  0.701208  0.302322  0.842728  1
  Er  Er3  1  0.702554  0.300740  0.158512  1
  Er  Er4  1  0.300740  0.702554  0.158512  1
  Er  Er5  1  0.797681  0.797681  0.342892  1
  Tm  Tm6  1  0.199642  0.199642  0.341510  1
  Tm  Tm7  1  0.198965  0.198965  0.656865  1
  W  W8  1  0.317386  0.675065  0.497592  1
  W  W9  1  0.823850  0.823850  0.002817  1
  W  W10  1  0.181414  0.181414  0.001944  1
  W  W11  1  0.675065  0.317386  0.497592  1
  C  C12  1  0.001267  0.001267  0.157977  1
  C  C13  1  0.495649  0.495649  0.653449  1
  C  C14  1  0.491122  0.999346  0.495824  1
  C  C15  1  0.497672  0.497672  0.342179  1
  C  C16  1  0.006331  0.006331  0.848068  1
  C  C17  1  0.502914  0.003480  0.001894  1
  C  C18  1  0.003480  0.502914  0.001894  1
  C  C19  1  0.999346  0.491122  0.495824  1
