# generated using pymatgen
data_TbNd2Y3IrI10
_symmetry_space_group_name_H-M   'P 1'
_cell_length_a   7.82878219
_cell_length_b   9.86737937
_cell_length_c   9.88963769
_cell_angle_alpha   106.91560369
_cell_angle_beta   96.40716140
_cell_angle_gamma   104.96656256
_symmetry_Int_Tables_number   1
_chemical_formula_structural   TbNd2Y3IrI10
_chemical_formula_sum   'Tb1 Nd2 Y3 Ir1 I10'
_cell_volume   691.56016820
_cell_formula_units_Z   1
loop_
 _symmetry_equiv_pos_site_id
 _symmetry_equiv_pos_as_xyz
  1  'x, y, z'
loop_
 _atom_site_type_symbol
 _atom_site_label
 _atom_site_symmetry_multiplicity
 _atom_site_fract_x
 _atom_site_fract_y
 _atom_site_fract_z
 _atom_site_occupancy
  Tb  Tb0  1  0.969695  0.286486  0.086144  1
  Nd  Nd1  1  0.116538  0.043214  0.761512  1
  Nd  Nd2  1  0.883630  0.956419  0.238355  1
  Y  Y3  1  0.029787  0.713241  0.913845  1
  Y  Y4  1  0.348822  0.125428  0.165754  1
  Y  Y5  1  0.651348  0.874320  0.834237  1
  Ir  Ir6  1  0.000122  0.000256  0.000078  1
  I  I7  1  0.349050  0.448130  0.270756  1
  I  I8  1  0.651501  0.551965  0.729427  1
  I  I9  1  0.264784  0.089046  0.457814  1
  I  I10  1  0.735240  0.910906  0.542207  1
  I  I11  1  0.084323  0.377536  0.823896  1
  I  I12  1  0.915839  0.623344  0.175714  1
  I  I13  1  0.449673  0.817351  0.088790  1
  I  I14  1  0.550042  0.182470  0.911058  1
  I  I15  1  0.775076  0.260106  0.343096  1
  I  I16  1  0.224529  0.739783  0.657319  1
