# generated using pymatgen
data_Li2Cd3Ag7
_symmetry_space_group_name_H-M   'P 1'
_cell_length_a   8.02183058
_cell_length_b   8.02183086
_cell_length_c   8.02085016
_cell_angle_alpha   43.03717633
_cell_angle_beta   43.03717821
_cell_angle_gamma   43.77747165
_symmetry_Int_Tables_number   1
_chemical_formula_structural   Li2Cd3Ag7
_chemical_formula_sum   'Li2 Cd3 Ag7'
_cell_volume   219.99395792
_cell_formula_units_Z   1
loop_
 _symmetry_equiv_pos_site_id
 _symmetry_equiv_pos_as_xyz
  1  'x, y, z'
loop_
 _atom_site_type_symbol
 _atom_site_label
 _atom_site_symmetry_multiplicity
 _atom_site_fract_x
 _atom_site_fract_y
 _atom_site_fract_z
 _atom_site_occupancy
  Li  Li0  1  0.500232  0.500232  0.999711  1
  Li  Li1  1  0.709788  0.709788  0.247361  1
  Cd  Cd2  1  0.000824  0.000824  0.997907  1
  Cd  Cd3  1  0.215108  0.215108  0.233993  1
  Cd  Cd4  1  0.785918  0.785918  0.764759  1
  Ag  Ag5  1  0.778211  0.288819  0.264984  1
  Ag  Ag6  1  0.288819  0.778211  0.264984  1
  Ag  Ag7  1  0.503260  0.998034  0.494772  1
  Ag  Ag8  1  0.998034  0.503260  0.494772  1
  Ag  Ag9  1  0.713010  0.221942  0.736854  1
  Ag  Ag10  1  0.221942  0.713010  0.736854  1
  Ag  Ag11  1  0.284853  0.284853  0.763046  1
