# generated using pymatgen
data_Nd16MgHg3Ru3Rh
_symmetry_space_group_name_H-M   'P 1'
_cell_length_a   9.87263689
_cell_length_b   9.92631999
_cell_length_c   9.92632000
_cell_angle_alpha   59.99999997
_cell_angle_beta   59.81996318
_cell_angle_gamma   59.81997013
_symmetry_Int_Tables_number   1
_chemical_formula_structural   Nd16MgHg3Ru3Rh
_chemical_formula_sum   'Nd16 Mg1 Hg3 Ru3 Rh1'
_cell_volume   685.97380273
_cell_formula_units_Z   1
loop_
 _symmetry_equiv_pos_site_id
 _symmetry_equiv_pos_as_xyz
  1  'x, y, z'
loop_
 _atom_site_type_symbol
 _atom_site_label
 _atom_site_symmetry_multiplicity
 _atom_site_fract_x
 _atom_site_fract_y
 _atom_site_fract_z
 _atom_site_occupancy
  Nd  Nd0  1  0.595766  0.598095  0.598095  1
  Nd  Nd1  1  0.595766  0.598095  0.208044  1
  Nd  Nd2  1  0.595766  0.208044  0.598095  1
  Nd  Nd3  1  0.199125  0.600292  0.600292  1
  Nd  Nd4  1  0.059784  0.441927  0.441927  1
  Nd  Nd5  1  0.437750  0.062083  0.062083  1
  Nd  Nd6  1  0.437750  0.062083  0.438085  1
  Nd  Nd7  1  0.059784  0.441927  0.056362  1
  Nd  Nd8  1  0.437750  0.438085  0.062083  1
  Nd  Nd9  1  0.059784  0.056362  0.441927  1
  Nd  Nd10  1  0.188526  0.811934  0.811934  1
  Nd  Nd11  1  0.809314  0.188609  0.188609  1
  Nd  Nd12  1  0.809314  0.188609  0.813470  1
  Nd  Nd13  1  0.188526  0.811934  0.187606  1
  Nd  Nd14  1  0.809314  0.813470  0.188609  1
  Nd  Nd15  1  0.188526  0.187606  0.811934  1
  Mg  Mg16  1  0.538854  0.820382  0.820382  1
  Hg  Hg17  1  0.830456  0.836264  0.836264  1
  Hg  Hg18  1  0.830456  0.836264  0.497018  1
  Hg  Hg19  1  0.830456  0.497018  0.836264  1
  Ru  Ru20  1  0.389167  0.388650  0.388650  1
  Ru  Ru21  1  0.389167  0.388650  0.833531  1
  Ru  Ru22  1  0.389167  0.833531  0.388650  1
  Rh  Rh23  1  0.829736  0.390088  0.390088  1
