# generated using pymatgen
data_Zr4Co3Cu
_symmetry_space_group_name_H-M   'P 1'
_cell_length_a   5.28901804
_cell_length_b   5.29534480
_cell_length_c   5.16054411
_cell_angle_alpha   78.11405233
_cell_angle_beta   77.94902248
_cell_angle_gamma   101.80895161
_symmetry_Int_Tables_number   1
_chemical_formula_structural   Zr4Co3Cu
_chemical_formula_sum   'Zr4 Co3 Cu1'
_cell_volume   133.60498146
_cell_formula_units_Z   1
loop_
 _symmetry_equiv_pos_site_id
 _symmetry_equiv_pos_as_xyz
  1  'x, y, z'
loop_
 _atom_site_type_symbol
 _atom_site_label
 _atom_site_symmetry_multiplicity
 _atom_site_fract_x
 _atom_site_fract_y
 _atom_site_fract_z
 _atom_site_occupancy
  Zr  Zr0  1  0.903895  0.904535  0.988704  1
  Zr  Zr1  1  0.410611  0.410318  0.990868  1
  Zr  Zr2  1  0.799099  0.283188  0.436925  1
  Zr  Zr3  1  0.294566  0.810683  0.413662  1
  Co  Co4  1  0.758782  0.752276  0.538043  1
  Co  Co5  1  0.280363  0.286047  0.537293  1
  Co  Co6  1  0.431964  0.936441  0.873983  1
  Cu  Cu7  1  0.944199  0.439991  0.864988  1
