# generated using pymatgen
data_Ce7Hf(Ta3Ge4)4
_symmetry_space_group_name_H-M   'P 1'
_cell_length_a   7.08039879
_cell_length_b   7.18724919
_cell_length_c   13.59454124
_cell_angle_alpha   89.78330525
_cell_angle_beta   90.04338254
_cell_angle_gamma   89.93096059
_symmetry_Int_Tables_number   1
_chemical_formula_structural   Ce7Hf(Ta3Ge4)4
_chemical_formula_sum   'Ce7 Hf1 Ta12 Ge16'
_cell_volume   691.80139097
_cell_formula_units_Z   1
loop_
 _symmetry_equiv_pos_site_id
 _symmetry_equiv_pos_as_xyz
  1  'x, y, z'
loop_
 _atom_site_type_symbol
 _atom_site_label
 _atom_site_symmetry_multiplicity
 _atom_site_fract_x
 _atom_site_fract_y
 _atom_site_fract_z
 _atom_site_occupancy
  Ce  Ce0  1  0.993900  0.829329  0.904228  1
  Ce  Ce1  1  0.505207  0.329404  0.092850  1
  Ce  Ce2  1  0.004091  0.171307  0.409891  1
  Ce  Ce3  1  0.505140  0.327427  0.407714  1
  Ce  Ce4  1  0.005199  0.169253  0.092692  1
  Ce  Ce5  1  0.495427  0.670479  0.906899  1
  Ce  Ce6  1  0.994993  0.829892  0.592175  1
  Hf  Hf7  1  0.488691  0.674158  0.596100  1
  Ta  Ta8  1  0.660063  0.168301  0.625003  1
  Ta  Ta9  1  0.162237  0.336879  0.872440  1
  Ta  Ta10  1  0.340302  0.833455  0.126879  1
  Ta  Ta11  1  0.840980  0.665983  0.374177  1
  Ta  Ta12  1  0.341992  0.830779  0.375913  1
  Ta  Ta13  1  0.841230  0.666235  0.126819  1
  Ta  Ta14  1  0.659805  0.165438  0.871323  1
  Ta  Ta15  1  0.161366  0.335840  0.625040  1
  Ta  Ta16  1  0.834915  0.492648  0.748176  1
  Ta  Ta17  1  0.335179  0.009608  0.748283  1
  Ta  Ta18  1  0.165866  0.508384  0.251745  1
  Ta  Ta19  1  0.665218  0.988681  0.251217  1
  Ge  Ge20  1  0.670224  0.949866  0.459977  1
  Ge  Ge21  1  0.171646  0.544962  0.044357  1
  Ge  Ge22  1  0.326935  0.044825  0.954732  1
  Ge  Ge23  1  0.814086  0.464833  0.545436  1
  Ge  Ge24  1  0.331665  0.038946  0.545060  1
  Ge  Ge25  1  0.828875  0.454263  0.954674  1
  Ge  Ge26  1  0.672158  0.955695  0.043848  1
  Ge  Ge27  1  0.178569  0.544267  0.459116  1
  Ge  Ge28  1  0.462380  0.379203  0.747981  1
  Ge  Ge29  1  0.961851  0.126723  0.749024  1
  Ge  Ge30  1  0.539236  0.623502  0.250437  1
  Ge  Ge31  1  0.039785  0.874607  0.251224  1
  Ge  Ge32  1  0.687553  0.857368  0.745487  1
  Ge  Ge33  1  0.196532  0.639935  0.747529  1
  Ge  Ge34  1  0.308120  0.136416  0.251084  1
  Ge  Ge35  1  0.808582  0.361108  0.250470  1
