# generated using pymatgen
data_HoZn2Ag3
_symmetry_space_group_name_H-M   'P 1'
_cell_length_a   5.37885599
_cell_length_b   5.37885551
_cell_length_c   5.29732800
_cell_angle_alpha   60.50013684
_cell_angle_beta   60.50013970
_cell_angle_gamma   62.16886482
_symmetry_Int_Tables_number   1
_chemical_formula_structural   HoZn2Ag3
_chemical_formula_sum   'Ho1 Zn2 Ag3'
_cell_volume   110.88940689
_cell_formula_units_Z   1
loop_
 _symmetry_equiv_pos_site_id
 _symmetry_equiv_pos_as_xyz
  1  'x, y, z'
loop_
 _atom_site_type_symbol
 _atom_site_label
 _atom_site_symmetry_multiplicity
 _atom_site_fract_x
 _atom_site_fract_y
 _atom_site_fract_z
 _atom_site_occupancy
  Ho  Ho0  1  0.249491  0.249491  0.250509  1
  Zn  Zn1  1  0.628238  0.628238  0.621950  1
  Zn  Zn2  1  0.628238  0.628238  0.121574  1
  Ag  Ag3  1  0.625212  0.123917  0.625437  1
  Ag  Ag4  1  0.123917  0.625212  0.625437  1
  Ag  Ag5  1  0.994906  0.994906  0.005094  1
