# generated using pymatgen
data_Gd2TeS2
_symmetry_space_group_name_H-M   'P 1'
_cell_length_a   7.67193072
_cell_length_b   7.67193065
_cell_length_c   7.67193135
_cell_angle_alpha   147.67672248
_cell_angle_beta   138.62552761
_cell_angle_gamma   53.45526442
_symmetry_Int_Tables_number   1
_chemical_formula_structural   Gd2TeS2
_chemical_formula_sum   'Gd2 Te1 S2'
_cell_volume   158.63219068
_cell_formula_units_Z   1
loop_
 _symmetry_equiv_pos_site_id
 _symmetry_equiv_pos_as_xyz
  1  'x, y, z'
loop_
 _atom_site_type_symbol
 _atom_site_label
 _atom_site_symmetry_multiplicity
 _atom_site_fract_x
 _atom_site_fract_y
 _atom_site_fract_z
 _atom_site_occupancy
  Gd  Gd0  1  0.834019  0.334019  0.500000  1
  Gd  Gd1  1  0.165981  0.665981  0.500000  1
  Te  Te2  1  0.000000  0.000000  0.000000  1
  S  S3  1  0.705461  0.705461  0.000000  1
  S  S4  1  0.294539  0.294539  0.000000  1
