# generated using pymatgen
data_YZr4Pb3
_symmetry_space_group_name_H-M   'P 1'
_cell_length_a   8.81757900
_cell_length_b   8.74355670
_cell_length_c   5.97282000
_cell_angle_alpha   90.00000000
_cell_angle_beta   90.00000000
_cell_angle_gamma   120.28045935
_symmetry_Int_Tables_number   1
_chemical_formula_structural   YZr4Pb3
_chemical_formula_sum   'Y2 Zr8 Pb6'
_cell_volume   397.66122024
_cell_formula_units_Z   2
loop_
 _symmetry_equiv_pos_site_id
 _symmetry_equiv_pos_as_xyz
  1  'x, y, z'
loop_
 _atom_site_type_symbol
 _atom_site_label
 _atom_site_symmetry_multiplicity
 _atom_site_fract_x
 _atom_site_fract_y
 _atom_site_fract_z
 _atom_site_occupancy
  Y  Y0  1  0.761679  0.760535  0.250000  1
  Y  Y1  1  0.001144  0.239465  0.250000  1
  Zr  Zr2  1  0.749641  0.000000  0.750000  1
  Zr  Zr3  1  0.332281  0.666496  0.501025  1
  Zr  Zr4  1  0.250295  0.000000  0.250000  1
  Zr  Zr5  1  0.665786  0.333504  0.501025  1
  Zr  Zr6  1  0.001243  0.758653  0.750000  1
  Zr  Zr7  1  0.332281  0.666496  0.998975  1
  Zr  Zr8  1  0.242590  0.241347  0.750000  1
  Zr  Zr9  1  0.665786  0.333504  0.998975  1
  Pb  Pb10  1  0.608627  0.608931  0.750000  1
  Pb  Pb11  1  0.389627  0.000000  0.750000  1
  Pb  Pb12  1  0.601608  0.000000  0.250000  1
  Pb  Pb13  1  0.999695  0.391069  0.750000  1
  Pb  Pb14  1  0.394700  0.391683  0.250000  1
  Pb  Pb15  1  0.003017  0.608317  0.250000  1
