# generated using pymatgen
data_Ce4AlSi6Rh
_symmetry_space_group_name_H-M   'P 1'
_cell_length_a   8.24799300
_cell_length_b   8.24799234
_cell_length_c   4.11334600
_cell_angle_alpha   90.00000000
_cell_angle_beta   90.00000000
_cell_angle_gamma   119.99999862
_symmetry_Int_Tables_number   1
_chemical_formula_structural   Ce4AlSi6Rh
_chemical_formula_sum   'Ce4 Al1 Si6 Rh1'
_cell_volume   242.33849863
_cell_formula_units_Z   1
loop_
 _symmetry_equiv_pos_site_id
 _symmetry_equiv_pos_as_xyz
  1  'x, y, z'
loop_
 _atom_site_type_symbol
 _atom_site_label
 _atom_site_symmetry_multiplicity
 _atom_site_fract_x
 _atom_site_fract_y
 _atom_site_fract_z
 _atom_site_occupancy
  Ce  Ce0  1  0.000000  0.000000  0.500000  1
  Ce  Ce1  1  0.007313  0.503656  0.500000  1
  Ce  Ce2  1  0.496344  0.503656  0.500000  1
  Ce  Ce3  1  0.496344  0.992687  0.500000  1
  Al  Al4  1  0.666667  0.333333  0.000000  1
  Si  Si5  1  0.328142  0.164071  0.000000  1
  Si  Si6  1  0.835929  0.164071  0.000000  1
  Si  Si7  1  0.835929  0.671858  0.000000  1
  Si  Si8  1  0.166226  0.332453  0.000000  1
  Si  Si9  1  0.166226  0.833774  0.000000  1
  Si  Si10  1  0.667547  0.833774  0.000000  1
  Rh  Rh11  1  0.333333  0.666667  0.000000  1
