# generated using pymatgen
data_Y2FeTcCl2
_symmetry_space_group_name_H-M   'P 1'
_cell_length_a   3.88336600
_cell_length_b   3.88336684
_cell_length_c   11.46058800
_cell_angle_alpha   90.00000000
_cell_angle_beta   90.00000000
_cell_angle_gamma   120.00000989
_symmetry_Int_Tables_number   1
_chemical_formula_structural   Y2FeTcCl2
_chemical_formula_sum   'Y2 Fe1 Tc1 Cl2'
_cell_volume   149.67671064
_cell_formula_units_Z   1
loop_
 _symmetry_equiv_pos_site_id
 _symmetry_equiv_pos_as_xyz
  1  'x, y, z'
loop_
 _atom_site_type_symbol
 _atom_site_label
 _atom_site_symmetry_multiplicity
 _atom_site_fract_x
 _atom_site_fract_y
 _atom_site_fract_z
 _atom_site_occupancy
  Y  Y0  1  0.000000  0.000000  0.189723  1
  Y  Y1  1  0.000000  0.000000  0.813120  1
  Fe  Fe2  1  0.333334  0.666668  0.980744  1
  Tc  Tc3  1  0.666666  0.333332  0.014443  1
  Cl  Cl4  1  0.333334  0.666668  0.338505  1
  Cl  Cl5  1  0.666666  0.333332  0.663464  1
