# generated using pymatgen
data_Zr10TlIn2Cu2Te3
_symmetry_space_group_name_H-M   'P 1'
_cell_length_a   8.68750314
_cell_length_b   8.68750430
_cell_length_c   5.85605800
_cell_angle_alpha   90.00000000
_cell_angle_beta   90.00000000
_cell_angle_gamma   119.97919605
_symmetry_Int_Tables_number   1
_chemical_formula_structural   Zr10TlIn2Cu2Te3
_chemical_formula_sum   'Zr10 Tl1 In2 Cu2 Te3'
_cell_volume   382.83974060
_cell_formula_units_Z   1
loop_
 _symmetry_equiv_pos_site_id
 _symmetry_equiv_pos_as_xyz
  1  'x, y, z'
loop_
 _atom_site_type_symbol
 _atom_site_label
 _atom_site_symmetry_multiplicity
 _atom_site_fract_x
 _atom_site_fract_y
 _atom_site_fract_z
 _atom_site_occupancy
  Zr  Zr0  1  0.743170  0.743170  0.250000  1
  Zr  Zr1  1  0.257063  0.999907  0.250000  1
  Zr  Zr2  1  0.999907  0.257063  0.250000  1
  Zr  Zr3  1  0.271238  0.271238  0.750000  1
  Zr  Zr4  1  0.728602  0.000482  0.750000  1
  Zr  Zr5  1  0.000482  0.728602  0.750000  1
  Zr  Zr6  1  0.666715  0.333066  0.503382  1
  Zr  Zr7  1  0.333066  0.666715  0.503382  1
  Zr  Zr8  1  0.333066  0.666715  0.996618  1
  Zr  Zr9  1  0.666715  0.333066  0.996618  1
  Tl  Tl10  1  0.620152  0.620152  0.750000  1
  In  In11  1  0.379824  0.000045  0.750000  1
  In  In12  1  0.000045  0.379824  0.750000  1
  Cu  Cu13  1  0.000179  0.000179  0.522884  1
  Cu  Cu14  1  0.000179  0.000179  0.977116  1
  Te  Te15  1  0.388724  0.388724  0.250000  1
  Te  Te16  1  0.610906  0.999970  0.250000  1
  Te  Te17  1  0.999970  0.610906  0.250000  1
