# generated using pymatgen
data_TbY5Co14(P3Rh)4
_symmetry_space_group_name_H-M   'P 1'
_cell_length_a   3.73648700
_cell_length_b   10.68160500
_cell_length_c   12.39810400
_cell_angle_alpha   90.00000000
_cell_angle_beta   90.00000000
_cell_angle_gamma   90.00000000
_symmetry_Int_Tables_number   1
_chemical_formula_structural   TbY5Co14(P3Rh)4
_chemical_formula_sum   'Tb1 Y5 Co14 P12 Rh4'
_cell_volume   494.82913741
_cell_formula_units_Z   1
loop_
 _symmetry_equiv_pos_site_id
 _symmetry_equiv_pos_as_xyz
  1  'x, y, z'
loop_
 _atom_site_type_symbol
 _atom_site_label
 _atom_site_symmetry_multiplicity
 _atom_site_fract_x
 _atom_site_fract_y
 _atom_site_fract_z
 _atom_site_occupancy
  Tb  Tb0  1  0.000000  0.500000  0.520620  1
  Y  Y1  1  0.500000  0.000000  0.479737  1
  Y  Y2  1  0.500000  0.813685  0.205855  1
  Y  Y3  1  0.500000  0.186315  0.205855  1
  Y  Y4  1  0.000000  0.686258  0.794187  1
  Y  Y5  1  0.000000  0.313742  0.794187  1
  Co  Co6  1  0.000000  0.500000  0.988182  1
  Co  Co7  1  0.500000  0.000000  0.011753  1
  Co  Co8  1  0.500000  0.332206  0.993801  1
  Co  Co9  1  0.500000  0.667794  0.993801  1
  Co  Co10  1  0.000000  0.167857  0.006192  1
  Co  Co11  1  0.000000  0.832143  0.006192  1
  Co  Co12  1  0.500000  0.300046  0.429588  1
  Co  Co13  1  0.500000  0.699954  0.429588  1
  Co  Co14  1  0.000000  0.199849  0.570319  1
  Co  Co15  1  0.000000  0.800151  0.570319  1
  Co  Co16  1  0.500000  0.880623  0.709722  1
  Co  Co17  1  0.500000  0.119377  0.709722  1
  Co  Co18  1  0.000000  0.619353  0.290222  1
  Co  Co19  1  0.000000  0.380647  0.290222  1
  P  P20  1  0.500000  0.500000  0.890140  1
  P  P21  1  0.000000  0.000000  0.109892  1
  P  P22  1  0.500000  0.500000  0.349407  1
  P  P23  1  0.000000  0.000000  0.650489  1
  P  P24  1  0.500000  0.301780  0.613203  1
  P  P25  1  0.500000  0.698220  0.613203  1
  P  P26  1  0.000000  0.198099  0.386747  1
  P  P27  1  0.000000  0.801901  0.386747  1
  P  P28  1  0.500000  0.844890  0.894902  1
  P  P29  1  0.500000  0.155110  0.894902  1
  P  P30  1  0.000000  0.655044  0.105057  1
  P  P31  1  0.000000  0.344956  0.105057  1
  Rh  Rh32  1  0.500000  0.500000  0.159817  1
  Rh  Rh33  1  0.000000  0.000000  0.840191  1
  Rh  Rh34  1  0.500000  0.500000  0.703630  1
  Rh  Rh35  1  0.000000  0.000000  0.296549  1
