# generated using pymatgen
data_Rb2PrY5F20
_symmetry_space_group_name_H-M   'P 1'
_cell_length_a   8.39772938
_cell_length_b   8.39772847
_cell_length_c   8.34862400
_cell_angle_alpha   60.19324106
_cell_angle_beta   60.19324463
_cell_angle_gamma   59.61351258
_symmetry_Int_Tables_number   1
_chemical_formula_structural   Rb2PrY5F20
_chemical_formula_sum   'Rb2 Pr1 Y5 F20'
_cell_volume   416.28817496
_cell_formula_units_Z   1
loop_
 _symmetry_equiv_pos_site_id
 _symmetry_equiv_pos_as_xyz
  1  'x, y, z'
loop_
 _atom_site_type_symbol
 _atom_site_label
 _atom_site_symmetry_multiplicity
 _atom_site_fract_x
 _atom_site_fract_y
 _atom_site_fract_z
 _atom_site_occupancy
  Rb  Rb0  1  0.249443  0.249443  0.250557  1
  Rb  Rb1  1  0.749443  0.749443  0.750557  1
  Pr  Pr2  1  0.759215  0.759215  0.240785  1
  Y  Y3  1  0.759088  0.239637  0.240912  1
  Y  Y4  1  0.239637  0.759088  0.760363  1
  Y  Y5  1  0.239637  0.759088  0.240912  1
  Y  Y6  1  0.759088  0.239637  0.760363  1
  Y  Y7  1  0.240336  0.240336  0.759664  1
  F  F8  1  0.832831  0.491760  0.508240  1
  F  F9  1  0.171183  0.500167  0.499833  1
  F  F10  1  0.491760  0.832831  0.167169  1
  F  F11  1  0.500167  0.171183  0.828817  1
  F  F12  1  0.491760  0.832831  0.508240  1
  F  F13  1  0.171183  0.500167  0.828817  1
  F  F14  1  0.500167  0.171183  0.499833  1
  F  F15  1  0.832831  0.491760  0.167169  1
  F  F16  1  0.499976  0.499976  0.827817  1
  F  F17  1  0.499976  0.499976  0.172231  1
  F  F18  1  0.172183  0.827769  0.500024  1
  F  F19  1  0.827769  0.172183  0.500024  1
  F  F20  1  0.110352  0.110352  0.109818  1
  F  F21  1  0.892729  0.892729  0.881334  1
  F  F22  1  0.110352  0.110352  0.669477  1
  F  F23  1  0.118666  0.666792  0.107271  1
  F  F24  1  0.892729  0.892729  0.333208  1
  F  F25  1  0.890182  0.330523  0.889648  1
  F  F26  1  0.666792  0.118666  0.107271  1
  F  F27  1  0.330523  0.890182  0.889648  1
