# generated using pymatgen
data_Pr3CdIr2(RhO7)2
_symmetry_space_group_name_H-M   'P 1'
_cell_length_a   7.30112956
_cell_length_b   7.45767709
_cell_length_c   7.45767843
_cell_angle_alpha   60.01532891
_cell_angle_beta   59.32713093
_cell_angle_gamma   59.32713342
_symmetry_Int_Tables_number   1
_chemical_formula_structural   Pr3CdIr2(RhO7)2
_chemical_formula_sum   'Pr3 Cd1 Ir2 Rh2 O14'
_cell_volume   284.20968789
_cell_formula_units_Z   1
loop_
 _symmetry_equiv_pos_site_id
 _symmetry_equiv_pos_as_xyz
  1  'x, y, z'
loop_
 _atom_site_type_symbol
 _atom_site_label
 _atom_site_symmetry_multiplicity
 _atom_site_fract_x
 _atom_site_fract_y
 _atom_site_fract_z
 _atom_site_occupancy
  Pr  Pr0  1  0.125000  0.125000  0.625000  1
  Pr  Pr1  1  0.125000  0.125000  0.125000  1
  Pr  Pr2  1  0.125000  0.625000  0.125000  1
  Cd  Cd3  1  0.625000  0.125000  0.125000  1
  Ir  Ir4  1  0.625000  0.125000  0.625000  1
  Ir  Ir5  1  0.625000  0.625000  0.125000  1
  Rh  Rh6  1  0.625000  0.625000  0.625000  1
  Rh  Rh7  1  0.125000  0.625000  0.625000  1
  O  O8  1  0.962529  0.539171  0.539171  1
  O  O9  1  0.293399  0.291667  0.709874  1
  O  O10  1  0.956601  0.540126  0.958333  1
  O  O11  1  0.697892  0.303474  0.303474  1
  O  O12  1  0.553311  0.549038  0.952491  1
  O  O13  1  0.553311  0.952491  0.549038  1
  O  O14  1  0.552108  0.946526  0.946526  1
  O  O15  1  0.264111  0.244804  0.244804  1
  O  O16  1  0.287471  0.710829  0.710829  1
  O  O17  1  0.696689  0.297509  0.700962  1
  O  O18  1  0.985889  0.005196  0.005196  1
  O  O19  1  0.956601  0.958333  0.540126  1
  O  O20  1  0.293399  0.709874  0.291667  1
  O  O21  1  0.696689  0.700962  0.297509  1
