# generated using pymatgen
data_Sc4Cd2PtAu3
_symmetry_space_group_name_H-M   'P 1'
_cell_length_a   7.79368724
_cell_length_b   7.79368663
_cell_length_c   3.36156600
_cell_angle_alpha   90.00000000
_cell_angle_beta   90.00000000
_cell_angle_gamma   90.39206858
_symmetry_Int_Tables_number   1
_chemical_formula_structural   Sc4Cd2PtAu3
_chemical_formula_sum   'Sc4 Cd2 Pt1 Au3'
_cell_volume   204.18196900
_cell_formula_units_Z   1
loop_
 _symmetry_equiv_pos_site_id
 _symmetry_equiv_pos_as_xyz
  1  'x, y, z'
loop_
 _atom_site_type_symbol
 _atom_site_label
 _atom_site_symmetry_multiplicity
 _atom_site_fract_x
 _atom_site_fract_y
 _atom_site_fract_z
 _atom_site_occupancy
  Sc  Sc0  1  0.662339  0.162339  0.500000  1
  Sc  Sc1  1  0.323983  0.823983  0.500000  1
  Sc  Sc2  1  0.170169  0.350025  0.500000  1
  Sc  Sc3  1  0.850025  0.670169  0.500000  1
  Cd  Cd4  1  0.001123  0.001092  0.000000  1
  Cd  Cd5  1  0.501092  0.501123  0.000000  1
  Pt  Pt6  1  0.129455  0.629455  0.000000  1
  Au  Au7  1  0.866377  0.366377  0.000000  1
  Au  Au8  1  0.629811  0.865627  0.000000  1
  Au  Au9  1  0.365627  0.129811  0.000000  1
