# generated using pymatgen
data_Rb2Fe(SeO3)2
_symmetry_space_group_name_H-M   'P 1'
_cell_length_a   5.72535187
_cell_length_b   7.38976436
_cell_length_c   9.35164585
_cell_angle_alpha   71.55376409
_cell_angle_beta   89.95136791
_cell_angle_gamma   89.92480424
_symmetry_Int_Tables_number   1
_chemical_formula_structural   Rb2Fe(SeO3)2
_chemical_formula_sum   'Rb4 Fe2 Se4 O12'
_cell_volume   375.32987300
_cell_formula_units_Z   2
loop_
 _symmetry_equiv_pos_site_id
 _symmetry_equiv_pos_as_xyz
  1  'x, y, z'
loop_
 _atom_site_type_symbol
 _atom_site_label
 _atom_site_symmetry_multiplicity
 _atom_site_fract_x
 _atom_site_fract_y
 _atom_site_fract_z
 _atom_site_occupancy
  Rb  Rb0  1  0.000113  0.608608  0.804382  1
  Rb  Rb1  1  0.500120  0.108612  0.304350  1
  Rb  Rb2  1  0.999887  0.391393  0.195618  1
  Rb  Rb3  1  0.499880  0.891389  0.695650  1
  Fe  Fe4  1  0.500000  0.500000  0.500000  1
  Fe  Fe5  1  0.000000  0.000000  0.000000  1
  Se  Se6  1  0.000267  0.266192  0.633528  1
  Se  Se7  1  0.500257  0.766159  0.133524  1
  Se  Se8  1  0.999733  0.733808  0.366472  1
  Se  Se9  1  0.499743  0.233841  0.866476  1
  O  O10  1  0.238577  0.726073  0.482385  1
  O  O11  1  0.738603  0.226087  0.982390  1
  O  O12  1  0.761424  0.273928  0.517615  1
  O  O13  1  0.261397  0.773914  0.017610  1
  O  O14  1  0.237372  0.272707  0.516725  1
  O  O15  1  0.737379  0.772639  0.016753  1
  O  O16  1  0.762628  0.727293  0.483275  1
  O  O17  1  0.262621  0.227361  0.983246  1
  O  O18  1  0.000770  0.966031  0.245153  1
  O  O19  1  0.500718  0.466062  0.745170  1
  O  O20  1  0.999230  0.033970  0.754848  1
  O  O21  1  0.499282  0.533938  0.254831  1
