# generated using pymatgen
data_Ag3Hg4NO11
_symmetry_space_group_name_H-M   'P 1'
_cell_length_a   7.57724111
_cell_length_b   7.08127098
_cell_length_c   7.08127102
_cell_angle_alpha   61.10058683
_cell_angle_beta   64.50162381
_cell_angle_gamma   64.50162834
_symmetry_Int_Tables_number   1
_chemical_formula_structural   Ag3Hg4NO11
_chemical_formula_sum   'Ag3 Hg4 N1 O11'
_cell_volume   288.09841437
_cell_formula_units_Z   1
loop_
 _symmetry_equiv_pos_site_id
 _symmetry_equiv_pos_as_xyz
  1  'x, y, z'
loop_
 _atom_site_type_symbol
 _atom_site_label
 _atom_site_symmetry_multiplicity
 _atom_site_fract_x
 _atom_site_fract_y
 _atom_site_fract_z
 _atom_site_occupancy
  Ag  Ag0  1  0.002897  0.000571  0.499182  1
  Ag  Ag1  1  0.002834  0.500101  0.500101  1
  Ag  Ag2  1  0.002897  0.499182  0.000571  1
  Hg  Hg3  1  0.005408  0.999863  0.999863  1
  Hg  Hg4  1  0.517489  0.990866  0.990866  1
  Hg  Hg5  1  0.504410  0.496610  0.999060  1
  Hg  Hg6  1  0.504410  0.999060  0.496610  1
  N  N7  1  0.483898  0.504283  0.504283  1
  O  O8  1  0.419407  0.855135  0.855135  1
  O  O9  1  0.889663  0.421435  0.839325  1
  O  O10  1  0.904844  0.843113  0.843113  1
  O  O11  1  0.889663  0.839325  0.421435  1
  O  O12  1  0.412547  0.411817  0.715243  1
  O  O13  1  0.412547  0.715243  0.411817  1
  O  O14  1  0.621181  0.388946  0.388946  1
  O  O15  1  0.115618  0.160979  0.578662  1
  O  O16  1  0.115618  0.578662  0.160979  1
  O  O17  1  0.102851  0.156670  0.156670  1
  O  O18  1  0.591815  0.138142  0.138142  1
