# generated using pymatgen
data_ZrZn2Cu2Pt
_symmetry_space_group_name_H-M   'P 1'
_cell_length_a   4.97888844
_cell_length_b   4.96714511
_cell_length_c   4.96714628
_cell_angle_alpha   60.37896667
_cell_angle_beta   59.92177166
_cell_angle_gamma   59.92176672
_symmetry_Int_Tables_number   1
_chemical_formula_structural   ZrZn2Cu2Pt
_chemical_formula_sum   'Zr1 Zn2 Cu2 Pt1'
_cell_volume   87.00457528
_cell_formula_units_Z   1
loop_
 _symmetry_equiv_pos_site_id
 _symmetry_equiv_pos_as_xyz
  1  'x, y, z'
loop_
 _atom_site_type_symbol
 _atom_site_label
 _atom_site_symmetry_multiplicity
 _atom_site_fract_x
 _atom_site_fract_y
 _atom_site_fract_z
 _atom_site_occupancy
  Zr  Zr0  1  0.002992  0.997008  0.997008  1
  Zn  Zn1  1  0.623088  0.624849  0.128975  1
  Zn  Zn2  1  0.623088  0.128975  0.624849  1
  Cu  Cu3  1  0.122990  0.625868  0.625868  1
  Cu  Cu4  1  0.625272  0.625868  0.625868  1
  Pt  Pt5  1  0.252570  0.247430  0.247430  1
