# generated using pymatgen
data_Nd3Pd2PtPb3
_symmetry_space_group_name_H-M   'P 1'
_cell_length_a   8.00413400
_cell_length_b   8.00413367
_cell_length_c   3.99471700
_cell_angle_alpha   90.00000000
_cell_angle_beta   90.00000000
_cell_angle_gamma   120.00000136
_symmetry_Int_Tables_number   1
_chemical_formula_structural   Nd3Pd2PtPb3
_chemical_formula_sum   'Nd3 Pd2 Pt1 Pb3'
_cell_volume   221.63856370
_cell_formula_units_Z   1
loop_
 _symmetry_equiv_pos_site_id
 _symmetry_equiv_pos_as_xyz
  1  'x, y, z'
loop_
 _atom_site_type_symbol
 _atom_site_label
 _atom_site_symmetry_multiplicity
 _atom_site_fract_x
 _atom_site_fract_y
 _atom_site_fract_z
 _atom_site_occupancy
  Nd  Nd0  1  0.407940  0.400034  0.500000  1
  Nd  Nd1  1  0.992093  0.592060  0.500000  1
  Nd  Nd2  1  0.599966  0.007907  0.500000  1
  Pd  Pd3  1  0.000000  0.000000  0.500000  1
  Pd  Pd4  1  0.333333  0.666667  0.000000  1
  Pt  Pt5  1  0.666667  0.333333  0.000000  1
  Pb  Pb6  1  0.256632  0.993754  0.000000  1
  Pb  Pb7  1  0.737122  0.743368  0.000000  1
  Pb  Pb8  1  0.006246  0.262878  0.000000  1
