# generated using pymatgen
data_Y3Cd2CuIrPbAu
_symmetry_space_group_name_H-M   'P 1'
_cell_length_a   7.81981500
_cell_length_b   7.81981573
_cell_length_c   3.73332300
_cell_angle_alpha   90.00000000
_cell_angle_beta   90.00000000
_cell_angle_gamma   120.00000113
_symmetry_Int_Tables_number   1
_chemical_formula_structural   Y3Cd2CuIrPbAu
_chemical_formula_sum   'Y3 Cd2 Cu1 Ir1 Pb1 Au1'
_cell_volume   197.70570009
_cell_formula_units_Z   1
loop_
 _symmetry_equiv_pos_site_id
 _symmetry_equiv_pos_as_xyz
  1  'x, y, z'
loop_
 _atom_site_type_symbol
 _atom_site_label
 _atom_site_symmetry_multiplicity
 _atom_site_fract_x
 _atom_site_fract_y
 _atom_site_fract_z
 _atom_site_occupancy
  Y  Y0  1  0.587413  0.978945  0.000000  1
  Y  Y1  1  0.016314  0.593513  0.000000  1
  Y  Y2  1  0.402068  0.424063  0.000000  1
  Cd  Cd3  1  0.998337  0.253510  0.500000  1
  Cd  Cd4  1  0.745209  0.744699  0.500000  1
  Cu  Cu5  1  0.990129  0.998327  0.000000  1
  Ir  Ir6  1  0.333180  0.665019  0.500000  1
  Pb  Pb7  1  0.253504  0.002064  0.500000  1
  Au  Au8  1  0.673846  0.339861  0.500000  1
