# generated using pymatgen
data_Y12Al9Pt3C4
_symmetry_space_group_name_H-M   'P 1'
_cell_length_a   9.16304111
_cell_length_b   9.16304105
_cell_length_c   9.16304200
_cell_angle_alpha   59.88887959
_cell_angle_beta   59.88887982
_cell_angle_gamma   59.88887585
_symmetry_Int_Tables_number   1
_chemical_formula_structural   Y12Al9Pt3C4
_chemical_formula_sum   'Y12 Al9 Pt3 C4'
_cell_volume   542.63479505
_cell_formula_units_Z   1
loop_
 _symmetry_equiv_pos_site_id
 _symmetry_equiv_pos_as_xyz
  1  'x, y, z'
loop_
 _atom_site_type_symbol
 _atom_site_label
 _atom_site_symmetry_multiplicity
 _atom_site_fract_x
 _atom_site_fract_y
 _atom_site_fract_z
 _atom_site_occupancy
  Y  Y0  1  0.447604  0.447604  0.053534  1
  Y  Y1  1  0.053881  0.446823  0.053881  1
  Y  Y2  1  0.446823  0.053881  0.053881  1
  Y  Y3  1  0.053881  0.053881  0.446823  1
  Y  Y4  1  0.447604  0.053534  0.447604  1
  Y  Y5  1  0.053534  0.447604  0.447604  1
  Y  Y6  1  0.802396  0.802396  0.196466  1
  Y  Y7  1  0.196119  0.803177  0.196119  1
  Y  Y8  1  0.803177  0.196119  0.196119  1
  Y  Y9  1  0.196119  0.196119  0.803177  1
  Y  Y10  1  0.802396  0.196466  0.802396  1
  Y  Y11  1  0.196466  0.802396  0.802396  1
  Al  Al12  1  0.831969  0.831969  0.522236  1
  Al  Al13  1  0.831969  0.522236  0.831969  1
  Al  Al14  1  0.522236  0.831969  0.831969  1
  Al  Al15  1  0.827022  0.827022  0.827022  1
  Al  Al16  1  0.418031  0.418031  0.727764  1
  Al  Al17  1  0.418031  0.727764  0.418031  1
  Al  Al18  1  0.727764  0.418031  0.418031  1
  Al  Al19  1  0.422978  0.422978  0.422978  1
  Al  Al20  1  0.625000  0.625000  0.625000  1
  Pt  Pt21  1  0.625000  0.625000  0.125000  1
  Pt  Pt22  1  0.625000  0.125000  0.625000  1
  Pt  Pt23  1  0.125000  0.625000  0.625000  1
  C  C24  1  0.125000  0.125000  0.625000  1
  C  C25  1  0.125000  0.625000  0.125000  1
  C  C26  1  0.625000  0.125000  0.125000  1
  C  C27  1  0.125000  0.125000  0.125000  1
