# generated using pymatgen
data_Pr8Er8Lu3Si16Mo
_symmetry_space_group_name_H-M   'P 1'
_cell_length_a   7.41961800
_cell_length_b   7.76386200
_cell_length_c   14.73743100
_cell_angle_alpha   90.00000000
_cell_angle_beta   90.00000000
_cell_angle_gamma   90.00159404
_symmetry_Int_Tables_number   1
_chemical_formula_structural   Pr8Er8Lu3Si16Mo
_chemical_formula_sum   'Pr8 Er8 Lu3 Si16 Mo1'
_cell_volume   848.94809524
_cell_formula_units_Z   1
loop_
 _symmetry_equiv_pos_site_id
 _symmetry_equiv_pos_as_xyz
  1  'x, y, z'
loop_
 _atom_site_type_symbol
 _atom_site_label
 _atom_site_symmetry_multiplicity
 _atom_site_fract_x
 _atom_site_fract_y
 _atom_site_fract_z
 _atom_site_occupancy
  Pr  Pr0  1  0.021789  0.178247  0.404274  1
  Pr  Pr1  1  0.521804  0.320668  0.402148  1
  Pr  Pr2  1  0.474749  0.674082  0.898360  1
  Pr  Pr3  1  0.474749  0.674082  0.601640  1
  Pr  Pr4  1  0.984484  0.815961  0.602562  1
  Pr  Pr5  1  0.984484  0.815961  0.897438  1
  Pr  Pr6  1  0.521804  0.320668  0.097852  1
  Pr  Pr7  1  0.021789  0.178247  0.095726  1
  Er  Er8  1  0.318185  0.181476  0.627267  1
  Er  Er9  1  0.681160  0.823461  0.377006  1
  Er  Er10  1  0.180879  0.673872  0.377909  1
  Er  Er11  1  0.820312  0.331400  0.872583  1
  Er  Er12  1  0.820312  0.331400  0.627417  1
  Er  Er13  1  0.318185  0.181476  0.872733  1
  Er  Er14  1  0.180879  0.673872  0.122091  1
  Er  Er15  1  0.681160  0.823461  0.122994  1
  Lu  Lu16  1  0.652268  0.989181  0.750000  1
  Lu  Lu17  1  0.848710  0.491607  0.250000  1
  Lu  Lu18  1  0.349038  0.008080  0.250000  1
  Si  Si19  1  0.273824  0.866501  0.750000  1
  Si  Si20  1  0.476306  0.617927  0.250000  1
  Si  Si21  1  0.023306  0.123346  0.750000  1
  Si  Si22  1  0.510613  0.398325  0.750000  1
  Si  Si23  1  0.144191  0.469808  0.548614  1
  Si  Si24  1  0.978848  0.884656  0.250000  1
  Si  Si25  1  0.726740  0.123426  0.250000  1
  Si  Si26  1  0.854934  0.532112  0.038117  1
  Si  Si27  1  0.355499  0.967242  0.037132  1
  Si  Si28  1  0.144191  0.469808  0.951386  1
  Si  Si29  1  0.646803  0.032350  0.541187  1
  Si  Si30  1  0.355499  0.967242  0.462868  1
  Si  Si31  1  0.854934  0.532112  0.461883  1
  Si  Si32  1  0.786164  0.623538  0.750000  1
  Si  Si33  1  0.223640  0.375852  0.250000  1
  Si  Si34  1  0.646803  0.032350  0.958813  1
  Mo  Mo35  1  0.140966  0.496202  0.750000  1
