# generated using pymatgen
data_Yb2Al6Si4Pt
_symmetry_space_group_name_H-M   'P 1'
_cell_length_a   4.12744519
_cell_length_b   4.13285714
_cell_length_c   17.81174139
_cell_angle_alpha   83.34649706
_cell_angle_beta   96.65341109
_cell_angle_gamma   119.95669400
_symmetry_Int_Tables_number   1
_chemical_formula_structural   Yb2Al6Si4Pt
_chemical_formula_sum   'Yb2 Al6 Si4 Pt1'
_cell_volume   260.87614183
_cell_formula_units_Z   1
loop_
 _symmetry_equiv_pos_site_id
 _symmetry_equiv_pos_as_xyz
  1  'x, y, z'
loop_
 _atom_site_type_symbol
 _atom_site_label
 _atom_site_symmetry_multiplicity
 _atom_site_fract_x
 _atom_site_fract_y
 _atom_site_fract_z
 _atom_site_occupancy
  Yb  Yb0  1  0.433468  0.566474  0.300459  1
  Yb  Yb1  1  0.566532  0.433527  0.699541  1
  Al  Al2  1  0.684089  0.316545  0.051634  1
  Al  Al3  1  0.049290  0.950778  0.147803  1
  Al  Al4  1  0.816205  0.185511  0.446902  1
  Al  Al5  1  0.183795  0.814491  0.553098  1
  Al  Al6  1  0.950710  0.049223  0.852197  1
  Al  Al7  1  0.315911  0.683456  0.948366  1
  Si  Si8  1  0.732634  0.268352  0.196917  1
  Si  Si9  1  0.135002  0.864655  0.405349  1
  Si  Si10  1  0.864998  0.135344  0.594651  1
  Si  Si11  1  0.267366  0.731647  0.803083  1
  Pt  Pt12  1  0.000000  0.000000  0.000000  1
