# generated using pymatgen
data_CaDy3(ZnSi3)2
_symmetry_space_group_name_H-M   'P 1'
_cell_length_a   4.08324500
_cell_length_b   4.10906200
_cell_length_c   13.98197700
_cell_angle_alpha   90.00000000
_cell_angle_beta   90.00000000
_cell_angle_gamma   90.00000000
_symmetry_Int_Tables_number   1
_chemical_formula_structural   CaDy3(ZnSi3)2
_chemical_formula_sum   'Ca1 Dy3 Zn2 Si6'
_cell_volume   234.59390070
_cell_formula_units_Z   1
loop_
 _symmetry_equiv_pos_site_id
 _symmetry_equiv_pos_as_xyz
  1  'x, y, z'
loop_
 _atom_site_type_symbol
 _atom_site_label
 _atom_site_symmetry_multiplicity
 _atom_site_fract_x
 _atom_site_fract_y
 _atom_site_fract_z
 _atom_site_occupancy
  Ca  Ca0  1  0.500000  0.500000  0.003378  1
  Dy  Dy1  1  0.000000  0.000000  0.505394  1
  Dy  Dy2  1  0.500000  0.000000  0.744523  1
  Dy  Dy3  1  0.000000  0.500000  0.247181  1
  Zn  Zn4  1  0.000000  0.000000  0.914859  1
  Zn  Zn5  1  0.500000  0.500000  0.415701  1
  Si  Si6  1  0.000000  0.500000  0.831151  1
  Si  Si7  1  0.500000  0.000000  0.334264  1
  Si  Si8  1  0.000000  0.000000  0.085221  1
  Si  Si9  1  0.500000  0.500000  0.582352  1
  Si  Si10  1  0.500000  0.000000  0.169415  1
  Si  Si11  1  0.000000  0.500000  0.666560  1
