# generated using pymatgen
data_Zr10SiIrPb6
_symmetry_space_group_name_H-M   'P 1'
_cell_length_a   8.87262100
_cell_length_b   8.87262109
_cell_length_c   5.95381800
_cell_angle_alpha   90.00000000
_cell_angle_beta   90.00000000
_cell_angle_gamma   120.00000339
_symmetry_Int_Tables_number   1
_chemical_formula_structural   Zr10SiIrPb6
_chemical_formula_sum   'Zr10 Si1 Ir1 Pb6'
_cell_volume   405.91026801
_cell_formula_units_Z   1
loop_
 _symmetry_equiv_pos_site_id
 _symmetry_equiv_pos_as_xyz
  1  'x, y, z'
loop_
 _atom_site_type_symbol
 _atom_site_label
 _atom_site_symmetry_multiplicity
 _atom_site_fract_x
 _atom_site_fract_y
 _atom_site_fract_z
 _atom_site_occupancy
  Zr  Zr0  1  0.666667  0.333333  0.500000  1
  Zr  Zr1  1  0.333333  0.666667  0.500000  1
  Zr  Zr2  1  0.333333  0.666667  0.000000  1
  Zr  Zr3  1  0.666667  0.333333  0.000000  1
  Zr  Zr4  1  0.746554  0.746554  0.249049  1
  Zr  Zr5  1  0.253446  0.000000  0.249049  1
  Zr  Zr6  1  0.000000  0.253446  0.249049  1
  Zr  Zr7  1  0.253446  0.253446  0.750951  1
  Zr  Zr8  1  0.746554  0.000000  0.750951  1
  Zr  Zr9  1  0.000000  0.746554  0.750951  1
  Si  Si10  1  0.000000  0.000000  0.000000  1
  Ir  Ir11  1  0.000000  0.000000  0.500000  1
  Pb  Pb12  1  0.394442  0.394442  0.249757  1
  Pb  Pb13  1  0.605558  0.000000  0.249757  1
  Pb  Pb14  1  0.000000  0.605558  0.249757  1
  Pb  Pb15  1  0.605558  0.605558  0.750243  1
  Pb  Pb16  1  0.394442  0.000000  0.750243  1
  Pb  Pb17  1  0.000000  0.394442  0.750243  1
