# generated using pymatgen
data_Zr8V12Si15B
_symmetry_space_group_name_H-M   'P 1'
_cell_length_a   6.64001961
_cell_length_b   6.63229202
_cell_length_c   12.28961700
_cell_angle_alpha   89.97352174
_cell_angle_beta   89.97536461
_cell_angle_gamma   90.03609062
_symmetry_Int_Tables_number   1
_chemical_formula_structural   Zr8V12Si15B
_chemical_formula_sum   'Zr8 V12 Si15 B1'
_cell_volume   541.21668677
_cell_formula_units_Z   1
loop_
 _symmetry_equiv_pos_site_id
 _symmetry_equiv_pos_as_xyz
  1  'x, y, z'
loop_
 _atom_site_type_symbol
 _atom_site_label
 _atom_site_symmetry_multiplicity
 _atom_site_fract_x
 _atom_site_fract_y
 _atom_site_fract_z
 _atom_site_occupancy
  Zr  Zr0  1  0.006516  0.668612  0.031575  1
  Zr  Zr1  1  0.838984  0.502592  0.279829  1
  Zr  Zr2  1  0.162225  0.499222  0.782339  1
  Zr  Zr3  1  0.502578  0.838977  0.721163  1
  Zr  Zr4  1  0.488564  0.152227  0.213183  1
  Zr  Zr5  1  0.996661  0.338505  0.530412  1
  Zr  Zr6  1  0.653863  0.004339  0.971878  1
  Zr  Zr7  1  0.337237  0.997641  0.469328  1
  V  V8  1  0.331985  0.323971  0.001083  1
  V  V9  1  0.171791  0.836284  0.242321  1
  V  V10  1  0.833027  0.167375  0.750392  1
  V  V11  1  0.667462  0.665906  0.499942  1
  V  V12  1  0.024829  0.145297  0.120571  1
  V  V13  1  0.339322  0.504414  0.376265  1
  V  V14  1  0.657659  0.498590  0.878574  1
  V  V15  1  0.504881  0.340590  0.623382  1
  V  V16  1  0.489688  0.666799  0.123455  1
  V  V17  1  0.994428  0.840801  0.627059  1
  V  V18  1  0.163412  0.008185  0.880636  1
  V  V19  1  0.839134  0.994530  0.373269  1
  Si  Si20  1  0.539828  0.789295  0.313895  1
  Si  Si21  1  0.461217  0.211743  0.814619  1
  Si  Si22  1  0.790268  0.540169  0.687104  1
  Si  Si23  1  0.210298  0.458455  0.184752  1
  Si  Si24  1  0.709229  0.039714  0.564172  1
  Si  Si25  1  0.957632  0.291634  0.936331  1
  Si  Si26  1  0.041105  0.710723  0.433916  1
  Si  Si27  1  0.705981  0.374896  0.072664  1
  Si  Si28  1  0.125198  0.203776  0.319061  1
  Si  Si29  1  0.874720  0.798913  0.822917  1
  Si  Si30  1  0.204118  0.126128  0.681111  1
  Si  Si31  1  0.794764  0.875838  0.178912  1
  Si  Si32  1  0.293944  0.626132  0.571053  1
  Si  Si33  1  0.371211  0.713787  0.934858  1
  Si  Si34  1  0.624660  0.293294  0.427150  1
  B  B35  1  0.291583  0.950645  0.060831  1
