# generated using pymatgen
data_Tm8B24Mo3Rh
_symmetry_space_group_name_H-M   'P 1'
_cell_length_a   3.62057900
_cell_length_b   9.18161840
_cell_length_c   11.56121449
_cell_angle_alpha   90.15470790
_cell_angle_beta   90.00000000
_cell_angle_gamma   90.00000000
_symmetry_Int_Tables_number   1
_chemical_formula_structural   Tm8B24Mo3Rh
_chemical_formula_sum   'Tm8 B24 Mo3 Rh1'
_cell_volume   384.32544846
_cell_formula_units_Z   1
loop_
 _symmetry_equiv_pos_site_id
 _symmetry_equiv_pos_as_xyz
  1  'x, y, z'
loop_
 _atom_site_type_symbol
 _atom_site_label
 _atom_site_symmetry_multiplicity
 _atom_site_fract_x
 _atom_site_fract_y
 _atom_site_fract_z
 _atom_site_occupancy
  Tm  Tm0  1  0.500000  0.318184  0.414477  1
  Tm  Tm1  1  0.500000  0.679092  0.588904  1
  Tm  Tm2  1  0.500000  0.178375  0.913397  1
  Tm  Tm3  1  0.500000  0.824612  0.082856  1
  Tm  Tm4  1  0.500000  0.443377  0.129234  1
  Tm  Tm5  1  0.500000  0.556217  0.872747  1
  Tm  Tm6  1  0.500000  0.055076  0.627671  1
  Tm  Tm7  1  0.500000  0.942505  0.370759  1
  B  B8  1  0.000000  0.099618  0.471411  1
  B  B9  1  0.000000  0.895239  0.527279  1
  B  B10  1  0.000000  0.398121  0.972476  1
  B  B11  1  0.000000  0.603587  0.030313  1
  B  B12  1  0.000000  0.131232  0.317956  1
  B  B13  1  0.000000  0.867600  0.683168  1
  B  B14  1  0.000000  0.369271  0.815780  1
  B  B15  1  0.000000  0.632118  0.184110  1
  B  B16  1  0.000000  0.052204  0.065450  1
  B  B17  1  0.000000  0.948906  0.934562  1
  B  B18  1  0.000000  0.448883  0.563772  1
  B  B19  1  0.000000  0.554662  0.433303  1
  B  B20  1  0.000000  0.483412  0.288129  1
  B  B21  1  0.000000  0.521312  0.712197  1
  B  B22  1  0.000000  0.020741  0.786939  1
  B  B23  1  0.000000  0.978495  0.212319  1
  B  B24  1  0.000000  0.251778  0.079278  1
  B  B25  1  0.000000  0.749351  0.921723  1
  B  B26  1  0.000000  0.247347  0.578242  1
  B  B27  1  0.000000  0.749318  0.420122  1
  B  B28  1  0.000000  0.295643  0.237574  1
  B  B29  1  0.000000  0.704953  0.764927  1
  B  B30  1  0.000000  0.205643  0.735011  1
  B  B31  1  0.000000  0.791580  0.264600  1
  Mo  Mo32  1  0.500000  0.139822  0.181095  1
  Mo  Mo33  1  0.500000  0.860760  0.820095  1
  Mo  Mo34  1  0.500000  0.362039  0.677294  1
  Rh  Rh35  1  0.500000  0.638927  0.320832  1
