# generated using pymatgen
data_HoTm3Fe16(P3Ru)4
_symmetry_space_group_name_H-M   'P 1'
_cell_length_a   3.69793100
_cell_length_b   10.32969013
_cell_length_c   11.78495214
_cell_angle_alpha   90.01789251
_cell_angle_beta   90.00000000
_cell_angle_gamma   90.00000000
_symmetry_Int_Tables_number   1
_chemical_formula_structural   HoTm3Fe16(P3Ru)4
_chemical_formula_sum   'Ho1 Tm3 Fe16 P12 Ru4'
_cell_volume   450.16725257
_cell_formula_units_Z   1
loop_
 _symmetry_equiv_pos_site_id
 _symmetry_equiv_pos_as_xyz
  1  'x, y, z'
loop_
 _atom_site_type_symbol
 _atom_site_label
 _atom_site_symmetry_multiplicity
 _atom_site_fract_x
 _atom_site_fract_y
 _atom_site_fract_z
 _atom_site_occupancy
  Ho  Ho0  1  0.250000  0.581646  0.703925  1
  Tm  Tm1  1  0.250000  0.918348  0.203872  1
  Tm  Tm2  1  0.750000  0.418473  0.296079  1
  Tm  Tm3  1  0.750000  0.081514  0.796078  1
  Fe  Fe4  1  0.250000  0.405484  0.488745  1
  Fe  Fe5  1  0.250000  0.094348  0.988884  1
  Fe  Fe6  1  0.750000  0.594361  0.510562  1
  Fe  Fe7  1  0.750000  0.905631  0.011139  1
  Fe  Fe8  1  0.250000  0.220019  0.175387  1
  Fe  Fe9  1  0.250000  0.279810  0.675343  1
  Fe  Fe10  1  0.750000  0.780410  0.824673  1
  Fe  Fe11  1  0.750000  0.720072  0.324555  1
  Fe  Fe12  1  0.250000  0.877918  0.704136  1
  Fe  Fe13  1  0.250000  0.622436  0.204214  1
  Fe  Fe14  1  0.750000  0.122436  0.295793  1
  Fe  Fe15  1  0.750000  0.377176  0.796036  1
  Fe  Fe16  1  0.250000  0.462557  0.932717  1
  Fe  Fe17  1  0.250000  0.037300  0.432406  1
  Fe  Fe18  1  0.750000  0.537359  0.067824  1
  Fe  Fe19  1  0.750000  0.962773  0.567660  1
  P  P20  1  0.250000  0.424786  0.115149  1
  P  P21  1  0.250000  0.075115  0.615104  1
  P  P22  1  0.750000  0.575113  0.885468  1
  P  P23  1  0.750000  0.924683  0.384876  1
  P  P24  1  0.250000  0.265582  0.867068  1
  P  P25  1  0.250000  0.234470  0.367069  1
  P  P26  1  0.750000  0.734344  0.132919  1
  P  P27  1  0.750000  0.766343  0.632669  1
  P  P28  1  0.250000  0.595211  0.394711  1
  P  P29  1  0.250000  0.904815  0.894690  1
  P  P30  1  0.750000  0.404305  0.604989  1
  P  P31  1  0.750000  0.095221  0.105272  1
  Ru  Ru32  1  0.250000  0.707978  0.988470  1
  Ru  Ru33  1  0.250000  0.792052  0.488345  1
  Ru  Ru34  1  0.750000  0.291968  0.011621  1
  Ru  Ru35  1  0.750000  0.207941  0.511552  1
