# generated using pymatgen
data_HoZr(Al3Ni)6
_symmetry_space_group_name_H-M   'P 1'
_cell_length_a   9.99869951
_cell_length_b   9.99870055
_cell_length_c   9.99870000
_cell_angle_alpha   42.39505768
_cell_angle_beta   42.39506213
_cell_angle_gamma   42.39505809
_symmetry_Int_Tables_number   1
_chemical_formula_structural   HoZr(Al3Ni)6
_chemical_formula_sum   'Ho1 Zr1 Al18 Ni6'
_cell_volume   411.38199766
_cell_formula_units_Z   1
loop_
 _symmetry_equiv_pos_site_id
 _symmetry_equiv_pos_as_xyz
  1  'x, y, z'
loop_
 _atom_site_type_symbol
 _atom_site_label
 _atom_site_symmetry_multiplicity
 _atom_site_fract_x
 _atom_site_fract_y
 _atom_site_fract_z
 _atom_site_occupancy
  Ho  Ho0  1  0.833000  0.833000  0.833000  1
  Zr  Zr1  1  0.167050  0.167050  0.167050  1
  Al  Al2  1  0.103650  0.431917  0.766269  1
  Al  Al3  1  0.431917  0.766269  0.103650  1
  Al  Al4  1  0.564577  0.897873  0.235513  1
  Al  Al5  1  0.947561  0.947561  0.947561  1
  Al  Al6  1  0.052592  0.052592  0.052592  1
  Al  Al7  1  0.291875  0.715058  0.493119  1
  Al  Al8  1  0.897873  0.235513  0.564577  1
  Al  Al9  1  0.387698  0.387698  0.387698  1
  Al  Al10  1  0.493119  0.291875  0.715058  1
  Al  Al11  1  0.235513  0.564577  0.897873  1
  Al  Al12  1  0.718345  0.718345  0.718345  1
  Al  Al13  1  0.612588  0.612588  0.612588  1
  Al  Al14  1  0.333298  0.000712  0.666038  1
  Al  Al15  1  0.715058  0.493119  0.291875  1
  Al  Al16  1  0.666038  0.333298  0.000712  1
  Al  Al17  1  0.281117  0.281117  0.281117  1
  Al  Al18  1  0.000712  0.666038  0.333298  1
  Al  Al19  1  0.766269  0.103650  0.431917  1
  Ni  Ni20  1  0.419093  0.078295  0.758861  1
  Ni  Ni21  1  0.581446  0.240920  0.921538  1
  Ni  Ni22  1  0.078295  0.758861  0.419093  1
  Ni  Ni23  1  0.758861  0.419093  0.078295  1
  Ni  Ni24  1  0.921538  0.581446  0.240920  1
  Ni  Ni25  1  0.240920  0.921538  0.581446  1
