# generated using pymatgen
data_Cs8Pr3UBr20
_symmetry_space_group_name_H-M   'P 1'
_cell_length_a   9.14059967
_cell_length_b   9.64139700
_cell_length_c   14.68035800
_cell_angle_alpha   90.00000000
_cell_angle_beta   90.27023254
_cell_angle_gamma   90.00000000
_symmetry_Int_Tables_number   1
_chemical_formula_structural   Cs8Pr3UBr20
_chemical_formula_sum   'Cs8 Pr3 U1 Br20'
_cell_volume   1293.73840506
_cell_formula_units_Z   1
loop_
 _symmetry_equiv_pos_site_id
 _symmetry_equiv_pos_as_xyz
  1  'x, y, z'
loop_
 _atom_site_type_symbol
 _atom_site_label
 _atom_site_symmetry_multiplicity
 _atom_site_fract_x
 _atom_site_fract_y
 _atom_site_fract_z
 _atom_site_occupancy
  Cs  Cs0  1  0.943077  0.004818  0.827658  1
  Cs  Cs1  1  0.056666  0.995874  0.172474  1
  Cs  Cs2  1  0.442826  0.995804  0.671478  1
  Cs  Cs3  1  0.056666  0.504126  0.172474  1
  Cs  Cs4  1  0.557588  0.004612  0.328462  1
  Cs  Cs5  1  0.943077  0.495182  0.827658  1
  Cs  Cs6  1  0.557588  0.495388  0.328462  1
  Cs  Cs7  1  0.442826  0.504196  0.671478  1
  Pr  Pr8  1  0.930166  0.750000  0.503871  1
  Pr  Pr9  1  0.069351  0.250000  0.496149  1
  Pr  Pr10  1  0.430048  0.250000  0.996323  1
  U  U11  1  0.569230  0.750000  0.003208  1
  Br  Br12  1  0.111734  0.750000  0.670597  1
  Br  Br13  1  0.887726  0.250000  0.329443  1
  Br  Br14  1  0.611263  0.250000  0.830049  1
  Br  Br15  1  0.390008  0.750000  0.169742  1
  Br  Br16  1  0.842177  0.042913  0.567724  1
  Br  Br17  1  0.157264  0.957149  0.432372  1
  Br  Br18  1  0.343446  0.957896  0.930617  1
  Br  Br19  1  0.157264  0.542851  0.432372  1
  Br  Br20  1  0.657091  0.042585  0.069016  1
  Br  Br21  1  0.842177  0.457087  0.567724  1
  Br  Br22  1  0.657091  0.457415  0.069016  1
  Br  Br23  1  0.343446  0.542104  0.930617  1
  Br  Br24  1  0.604750  0.750000  0.513734  1
  Br  Br25  1  0.394773  0.250000  0.486079  1
  Br  Br26  1  0.103933  0.250000  0.987013  1
  Br  Br27  1  0.896162  0.750000  0.013204  1
  Br  Br28  1  0.649654  0.750000  0.809635  1
  Br  Br29  1  0.350956  0.250000  0.191416  1
  Br  Br30  1  0.150055  0.250000  0.691303  1
  Br  Br31  1  0.849921  0.750000  0.308633  1
