# generated using pymatgen
data_Ho2Tm4Bi2Ru
_symmetry_space_group_name_H-M   'P 1'
_cell_length_a   8.27200304
_cell_length_b   8.26086577
_cell_length_c   4.19111300
_cell_angle_alpha   90.00000000
_cell_angle_beta   90.00000000
_cell_angle_gamma   119.95547579
_symmetry_Int_Tables_number   1
_chemical_formula_structural   Ho2Tm4Bi2Ru
_chemical_formula_sum   'Ho2 Tm4 Bi2 Ru1'
_cell_volume   248.13665679
_cell_formula_units_Z   1
loop_
 _symmetry_equiv_pos_site_id
 _symmetry_equiv_pos_as_xyz
  1  'x, y, z'
loop_
 _atom_site_type_symbol
 _atom_site_label
 _atom_site_symmetry_multiplicity
 _atom_site_fract_x
 _atom_site_fract_y
 _atom_site_fract_z
 _atom_site_occupancy
  Ho  Ho0  1  0.388406  0.388586  0.500000  1
  Ho  Ho1  1  0.611594  0.000180  0.500000  1
  Tm  Tm2  1  0.232822  0.999658  0.000000  1
  Tm  Tm3  1  0.000000  0.612826  0.500000  1
  Tm  Tm4  1  0.767178  0.766836  0.000000  1
  Tm  Tm5  1  0.000000  0.232543  0.000000  1
  Bi  Bi6  1  0.332555  0.666791  0.000000  1
  Bi  Bi7  1  0.667445  0.334235  0.000000  1
  Ru  Ru8  1  0.000000  0.998345  0.500000  1
