# generated using pymatgen
data_LaTbNd6Ho8(CdPd)4
_symmetry_space_group_name_H-M   'P 1'
_cell_length_a   9.80043665
_cell_length_b   9.80043682
_cell_length_c   9.79864464
_cell_angle_alpha   60.23337813
_cell_angle_beta   60.23337872
_cell_angle_gamma   60.20813740
_symmetry_Int_Tables_number   1
_chemical_formula_structural   LaTbNd6Ho8(CdPd)4
_chemical_formula_sum   'La1 Tb1 Nd6 Ho8 Cd4 Pd4'
_cell_volume   668.87992354
_cell_formula_units_Z   1
loop_
 _symmetry_equiv_pos_site_id
 _symmetry_equiv_pos_as_xyz
  1  'x, y, z'
loop_
 _atom_site_type_symbol
 _atom_site_label
 _atom_site_symmetry_multiplicity
 _atom_site_fract_x
 _atom_site_fract_y
 _atom_site_fract_z
 _atom_site_occupancy
  La  La0  1  0.350178  0.350178  0.350381  1
  Tb  Tb1  1  0.812476  0.812476  0.188556  1
  Nd  Nd2  1  0.937508  0.563596  0.564120  1
  Nd  Nd3  1  0.562395  0.936980  0.936415  1
  Nd  Nd4  1  0.563596  0.937508  0.564120  1
  Nd  Nd5  1  0.936980  0.562395  0.936415  1
  Nd  Nd6  1  0.563814  0.563814  0.937395  1
  Nd  Nd7  1  0.936684  0.936684  0.562831  1
  Ho  Ho8  1  0.352869  0.352869  0.939955  1
  Ho  Ho9  1  0.352283  0.940127  0.353142  1
  Ho  Ho10  1  0.940127  0.352283  0.353142  1
  Ho  Ho11  1  0.815604  0.187130  0.186661  1
  Ho  Ho12  1  0.188851  0.812485  0.812189  1
  Ho  Ho13  1  0.187130  0.815604  0.186661  1
  Ho  Ho14  1  0.812485  0.188851  0.812189  1
  Ho  Ho15  1  0.186730  0.186730  0.815527  1
  Cd  Cd16  1  0.580440  0.580440  0.580708  1
  Cd  Cd17  1  0.582327  0.582327  0.259571  1
  Cd  Cd18  1  0.582415  0.259605  0.582449  1
  Cd  Cd19  1  0.259605  0.582415  0.582449  1
  Pd  Pd20  1  0.144664  0.144664  0.144545  1
  Pd  Pd21  1  0.139256  0.139256  0.572223  1
  Pd  Pd22  1  0.140279  0.571302  0.139176  1
  Pd  Pd23  1  0.571302  0.140279  0.139176  1
