# generated using pymatgen
data_Li4La3ThSn4
_symmetry_space_group_name_H-M   'P 1'
_cell_length_a   7.85872229
_cell_length_b   4.82865800
_cell_length_c   8.32410300
_cell_angle_alpha   90.00000000
_cell_angle_beta   90.01559486
_cell_angle_gamma   90.00000000
_symmetry_Int_Tables_number   1
_chemical_formula_structural   Li4La3ThSn4
_chemical_formula_sum   'Li4 La3 Th1 Sn4'
_cell_volume   315.87540959
_cell_formula_units_Z   1
loop_
 _symmetry_equiv_pos_site_id
 _symmetry_equiv_pos_as_xyz
  1  'x, y, z'
loop_
 _atom_site_type_symbol
 _atom_site_label
 _atom_site_symmetry_multiplicity
 _atom_site_fract_x
 _atom_site_fract_y
 _atom_site_fract_z
 _atom_site_occupancy
  Li  Li0  1  0.816137  0.250001  0.078935  1
  Li  Li1  1  0.318424  0.250001  0.420671  1
  Li  Li2  1  0.681674  0.749999  0.579370  1
  Li  Li3  1  0.183297  0.749999  0.920065  1
  La  La4  1  0.500394  0.749999  0.220744  1
  La  La5  1  0.000843  0.749999  0.279184  1
  La  La6  1  0.999065  0.250001  0.721743  1
  Th  Th7  1  0.499031  0.250001  0.777436  1
  Sn  Sn8  1  0.229819  0.250001  0.085583  1
  Sn  Sn9  1  0.725403  0.250001  0.414695  1
  Sn  Sn10  1  0.279533  0.749999  0.593107  1
  Sn  Sn11  1  0.766381  0.749999  0.908469  1
