# generated using pymatgen
data_Yb8Tc11Ge16Ru
_symmetry_space_group_name_H-M   'P 1'
_cell_length_a   6.91131628
_cell_length_b   6.97964021
_cell_length_c   12.92974800
_cell_angle_alpha   90.00443285
_cell_angle_beta   89.82220108
_cell_angle_gamma   90.01350106
_symmetry_Int_Tables_number   1
_chemical_formula_structural   Yb8Tc11Ge16Ru
_chemical_formula_sum   'Yb8 Tc11 Ge16 Ru1'
_cell_volume   623.70863986
_cell_formula_units_Z   1
loop_
 _symmetry_equiv_pos_site_id
 _symmetry_equiv_pos_as_xyz
  1  'x, y, z'
loop_
 _atom_site_type_symbol
 _atom_site_label
 _atom_site_symmetry_multiplicity
 _atom_site_fract_x
 _atom_site_fract_y
 _atom_site_fract_z
 _atom_site_occupancy
  Yb  Yb0  1  0.484879  0.664784  0.589648  1
  Yb  Yb1  1  0.984368  0.836399  0.910795  1
  Yb  Yb2  1  0.514495  0.335566  0.089781  1
  Yb  Yb3  1  0.014951  0.165483  0.411627  1
  Yb  Yb4  1  0.514418  0.335673  0.410602  1
  Yb  Yb5  1  0.014921  0.164018  0.089406  1
  Yb  Yb6  1  0.485462  0.662387  0.909876  1
  Yb  Yb7  1  0.986289  0.836061  0.589171  1
  Tc  Tc8  1  0.677806  0.145271  0.629868  1
  Tc  Tc9  1  0.172095  0.351634  0.868304  1
  Tc  Tc10  1  0.324823  0.853124  0.129522  1
  Tc  Tc11  1  0.825333  0.645044  0.371192  1
  Tc  Tc12  1  0.324953  0.855565  0.371581  1
  Tc  Tc13  1  0.825729  0.646141  0.129537  1
  Tc  Tc14  1  0.676641  0.146363  0.870677  1
  Tc  Tc15  1  0.826020  0.496889  0.749441  1
  Tc  Tc16  1  0.328447  0.999680  0.750490  1
  Tc  Tc17  1  0.171488  0.502465  0.249938  1
  Tc  Tc18  1  0.671654  0.997290  0.250348  1
  Ge  Ge19  1  0.662733  0.948541  0.449060  1
  Ge  Ge20  1  0.161575  0.551610  0.051134  1
  Ge  Ge21  1  0.338908  0.051061  0.949023  1
  Ge  Ge22  1  0.836105  0.448674  0.551658  1
  Ge  Ge23  1  0.339029  0.055222  0.553131  1
  Ge  Ge24  1  0.835975  0.447574  0.949150  1
  Ge  Ge25  1  0.662117  0.947580  0.051615  1
  Ge  Ge26  1  0.161972  0.553999  0.447984  1
  Ge  Ge27  1  0.475004  0.357980  0.750213  1
  Ge  Ge28  1  0.978223  0.139648  0.747131  1
  Ge  Ge29  1  0.524074  0.639501  0.250587  1
  Ge  Ge30  1  0.024092  0.861365  0.250516  1
  Ge  Ge31  1  0.682172  0.848733  0.750408  1
  Ge  Ge32  1  0.179972  0.649801  0.750803  1
  Ge  Ge33  1  0.318234  0.150200  0.250090  1
  Ge  Ge34  1  0.818319  0.349069  0.250039  1
  Ru  Ru35  1  0.176723  0.359606  0.625652  1
