# generated using pymatgen
data_Pr5(MoO6)2
_symmetry_space_group_name_H-M   'P 1'
_cell_length_a   7.16009250
_cell_length_b   7.16009245
_cell_length_c   7.67732451
_cell_angle_alpha   74.48422834
_cell_angle_beta   74.48422890
_cell_angle_gamma   51.42905903
_symmetry_Int_Tables_number   1
_chemical_formula_structural   Pr5(MoO6)2
_chemical_formula_sum   'Pr5 Mo2 O12'
_cell_volume   293.84887681
_cell_formula_units_Z   1
loop_
 _symmetry_equiv_pos_site_id
 _symmetry_equiv_pos_as_xyz
  1  'x, y, z'
loop_
 _atom_site_type_symbol
 _atom_site_label
 _atom_site_symmetry_multiplicity
 _atom_site_fract_x
 _atom_site_fract_y
 _atom_site_fract_z
 _atom_site_occupancy
  Pr  Pr0  1  0.304060  0.304060  0.359710  1
  Pr  Pr1  1  0.695940  0.695940  0.640290  1
  Pr  Pr2  1  0.693200  0.693200  0.168401  1
  Pr  Pr3  1  0.306800  0.306800  0.831599  1
  Pr  Pr4  1  0.000000  0.000000  0.500000  1
  Mo  Mo5  1  0.755759  0.244241  0.000000  1
  Mo  Mo6  1  0.244241  0.755759  0.000000  1
  O  O7  1  0.094772  0.596502  0.577049  1
  O  O8  1  0.999135  0.999135  0.177599  1
  O  O9  1  0.403498  0.905228  0.422951  1
  O  O10  1  0.500728  0.500728  0.179188  1
  O  O11  1  0.104418  0.574599  0.079725  1
  O  O12  1  0.905228  0.403498  0.422951  1
  O  O13  1  0.000865  0.000865  0.822401  1
  O  O14  1  0.596502  0.094771  0.577049  1
  O  O15  1  0.499272  0.499272  0.820812  1
  O  O16  1  0.574599  0.104418  0.079725  1
  O  O17  1  0.425401  0.895582  0.920275  1
  O  O18  1  0.895582  0.425401  0.920275  1
