# generated using pymatgen
data_La2Tb2B4I5
_symmetry_space_group_name_H-M   'P 1'
_cell_length_a   9.84922020
_cell_length_b   9.84921935
_cell_length_c   9.83213545
_cell_angle_alpha   74.84564752
_cell_angle_beta   74.84564828
_cell_angle_gamma   25.38110217
_symmetry_Int_Tables_number   1
_chemical_formula_structural   La2Tb2B4I5
_chemical_formula_sum   'La2 Tb2 B4 I5'
_cell_volume   393.87707463
_cell_formula_units_Z   1
loop_
 _symmetry_equiv_pos_site_id
 _symmetry_equiv_pos_as_xyz
  1  'x, y, z'
loop_
 _atom_site_type_symbol
 _atom_site_label
 _atom_site_symmetry_multiplicity
 _atom_site_fract_x
 _atom_site_fract_y
 _atom_site_fract_z
 _atom_site_occupancy
  La  La0  1  0.135660  0.135660  0.931280  1
  La  La1  1  0.865697  0.865697  0.067428  1
  Tb  Tb2  1  0.505344  0.505344  0.753020  1
  Tb  Tb3  1  0.496309  0.496309  0.246072  1
  B  B4  1  0.315510  0.685827  0.999630  1
  B  B5  1  0.685827  0.315510  0.999630  1
  B  B6  1  0.999675  0.999675  0.096785  1
  B  B7  1  0.001602  0.001602  0.902492  1
  I  I8  1  0.673428  0.673428  0.666863  1
  I  I9  1  0.328369  0.328369  0.332694  1
  I  I10  1  0.332497  0.332497  0.831832  1
  I  I11  1  0.669652  0.669652  0.165098  1
  I  I12  1  0.004733  0.004733  0.497376  1
