# generated using pymatgen
data_HoEr15In4IrRu3
_symmetry_space_group_name_H-M   'P 1'
_cell_length_a   9.58501690
_cell_length_b   9.58896064
_cell_length_c   9.60158200
_cell_angle_alpha   59.95644962
_cell_angle_beta   59.94281416
_cell_angle_gamma   59.83279701
_symmetry_Int_Tables_number   1
_chemical_formula_structural   HoEr15In4IrRu3
_chemical_formula_sum   'Ho1 Er15 In4 Ir1 Ru3'
_cell_volume   622.74491111
_cell_formula_units_Z   1
loop_
 _symmetry_equiv_pos_site_id
 _symmetry_equiv_pos_as_xyz
  1  'x, y, z'
loop_
 _atom_site_type_symbol
 _atom_site_label
 _atom_site_symmetry_multiplicity
 _atom_site_fract_x
 _atom_site_fract_y
 _atom_site_fract_z
 _atom_site_occupancy
  Ho  Ho0  1  0.058196  0.058750  0.441527  1
  Er  Er1  1  0.652277  0.042696  0.652514  1
  Er  Er2  1  0.191762  0.809997  0.191161  1
  Er  Er3  1  0.442168  0.059319  0.441311  1
  Er  Er4  1  0.194137  0.191265  0.807300  1
  Er  Er5  1  0.650688  0.651855  0.652439  1
  Er  Er6  1  0.043576  0.652088  0.652168  1
  Er  Er7  1  0.442168  0.059319  0.057203  1
  Er  Er8  1  0.650688  0.651855  0.045019  1
  Er  Er9  1  0.191762  0.809997  0.807081  1
  Er  Er10  1  0.809131  0.191009  0.806845  1
  Er  Er11  1  0.809131  0.191009  0.193016  1
  Er  Er12  1  0.808748  0.808636  0.191308  1
  Er  Er13  1  0.059491  0.442777  0.439492  1
  Er  Er14  1  0.439474  0.441669  0.059429  1
  Er  Er15  1  0.059491  0.442777  0.058241  1
  In  In16  1  0.748162  0.417303  0.417267  1
  In  In17  1  0.417310  0.417516  0.748009  1
  In  In18  1  0.417120  0.748380  0.417250  1
  In  In19  1  0.417310  0.417516  0.417166  1
  Ir  Ir20  1  0.858757  0.420257  0.860493  1
  Ru  Ru21  1  0.859289  0.858038  0.863219  1
  Ru  Ru22  1  0.419880  0.857939  0.861092  1
  Ru  Ru23  1  0.859289  0.858038  0.419456  1
