# generated using pymatgen
data_Sr20In3PdAu8
_symmetry_space_group_name_H-M   'P 1'
_cell_length_a   8.50169102
_cell_length_b   8.48298524
_cell_length_c   15.77339500
_cell_angle_alpha   89.92600772
_cell_angle_beta   90.00427274
_cell_angle_gamma   90.10470919
_symmetry_Int_Tables_number   1
_chemical_formula_structural   Sr20In3PdAu8
_chemical_formula_sum   'Sr20 In3 Pd1 Au8'
_cell_volume   1137.56997101
_cell_formula_units_Z   1
loop_
 _symmetry_equiv_pos_site_id
 _symmetry_equiv_pos_as_xyz
  1  'x, y, z'
loop_
 _atom_site_type_symbol
 _atom_site_label
 _atom_site_symmetry_multiplicity
 _atom_site_fract_x
 _atom_site_fract_y
 _atom_site_fract_z
 _atom_site_occupancy
  Sr  Sr0  1  0.000454  0.999595  0.756472  1
  Sr  Sr1  1  0.500678  0.498386  0.252667  1
  Sr  Sr2  1  0.998129  0.001175  0.243963  1
  Sr  Sr3  1  0.499827  0.500486  0.746768  1
  Sr  Sr4  1  0.175759  0.660740  0.108164  1
  Sr  Sr5  1  0.669768  0.169191  0.611037  1
  Sr  Sr6  1  0.820015  0.334717  0.109664  1
  Sr  Sr7  1  0.330949  0.831737  0.610418  1
  Sr  Sr8  1  0.343936  0.174612  0.109501  1
  Sr  Sr9  1  0.831141  0.669530  0.610077  1
  Sr  Sr10  1  0.661096  0.829470  0.109265  1
  Sr  Sr11  1  0.168693  0.330766  0.610095  1
  Sr  Sr12  1  0.339877  0.824160  0.893688  1
  Sr  Sr13  1  0.826977  0.326182  0.385955  1
  Sr  Sr14  1  0.660845  0.176232  0.892997  1
  Sr  Sr15  1  0.168015  0.668419  0.387774  1
  Sr  Sr16  1  0.176739  0.338988  0.894086  1
  Sr  Sr17  1  0.668919  0.836330  0.386390  1
  Sr  Sr18  1  0.823425  0.660402  0.894249  1
  Sr  Sr19  1  0.335196  0.167854  0.386717  1
  In  In20  1  0.000449  0.000043  0.499661  1
  In  In21  1  0.001088  0.000439  0.000363  1
  In  In22  1  0.500049  0.500590  0.499892  1
  Pd  Pd23  1  0.624160  0.126039  0.247249  1
  Au  Au24  1  0.128336  0.626587  0.752665  1
  Au  Au25  1  0.871786  0.373355  0.752672  1
  Au  Au26  1  0.375210  0.874447  0.247404  1
  Au  Au27  1  0.372790  0.128683  0.752588  1
  Au  Au28  1  0.870403  0.626805  0.247278  1
  Au  Au29  1  0.128692  0.372323  0.247374  1
  Au  Au30  1  0.627253  0.871201  0.752616  1
  Au  Au31  1  0.499345  0.500520  0.000293  1
