# generated using pymatgen
data_NdDy(Ho4Bi3)2
_symmetry_space_group_name_H-M   'P 1'
_cell_length_a   8.31320900
_cell_length_b   9.52654300
_cell_length_c   12.09926500
_cell_angle_alpha   90.00000000
_cell_angle_beta   90.00000000
_cell_angle_gamma   90.00000000
_symmetry_Int_Tables_number   1
_chemical_formula_structural   NdDy(Ho4Bi3)2
_chemical_formula_sum   'Nd2 Dy2 Ho16 Bi12'
_cell_volume   958.21512121
_cell_formula_units_Z   2
loop_
 _symmetry_equiv_pos_site_id
 _symmetry_equiv_pos_as_xyz
  1  'x, y, z'
loop_
 _atom_site_type_symbol
 _atom_site_label
 _atom_site_symmetry_multiplicity
 _atom_site_fract_x
 _atom_site_fract_y
 _atom_site_fract_z
 _atom_site_occupancy
  Nd  Nd0  1  0.313927  0.250000  0.219864  1
  Nd  Nd1  1  0.813927  0.250000  0.280136  1
  Dy  Dy2  1  0.687561  0.750000  0.781848  1
  Dy  Dy3  1  0.187561  0.750000  0.718152  1
  Ho  Ho4  1  0.352461  0.750000  0.215831  1
  Ho  Ho5  1  0.852461  0.750000  0.284169  1
  Ho  Ho6  1  0.647331  0.250000  0.783692  1
  Ho  Ho7  1  0.147331  0.250000  0.716308  1
  Ho  Ho8  1  0.692428  0.564898  0.058750  1
  Ho  Ho9  1  0.192428  0.935102  0.441250  1
  Ho  Ho10  1  0.307190  0.064762  0.940414  1
  Ho  Ho11  1  0.807190  0.435238  0.559586  1
  Ho  Ho12  1  0.307190  0.435238  0.940414  1
  Ho  Ho13  1  0.807190  0.064762  0.559586  1
  Ho  Ho14  1  0.692428  0.935102  0.058750  1
  Ho  Ho15  1  0.192428  0.564898  0.441250  1
  Ho  Ho16  1  0.475032  0.250000  0.489223  1
  Ho  Ho17  1  0.975032  0.250000  0.010777  1
  Ho  Ho18  1  0.524689  0.750000  0.512152  1
  Ho  Ho19  1  0.024689  0.750000  0.987848  1
  Bi  Bi20  1  0.406997  0.750000  0.957533  1
  Bi  Bi21  1  0.906997  0.750000  0.542467  1
  Bi  Bi22  1  0.594451  0.250000  0.039041  1
  Bi  Bi23  1  0.094451  0.250000  0.460959  1
  Bi  Bi24  1  0.564290  0.991406  0.326759  1
  Bi  Bi25  1  0.064290  0.508594  0.173241  1
  Bi  Bi26  1  0.434868  0.495304  0.674543  1
  Bi  Bi27  1  0.934868  0.004696  0.825457  1
  Bi  Bi28  1  0.434868  0.004696  0.674543  1
  Bi  Bi29  1  0.934868  0.495304  0.825457  1
  Bi  Bi30  1  0.564290  0.508594  0.326759  1
  Bi  Bi31  1  0.064290  0.991406  0.173241  1
