# generated using pymatgen
data_TbPa2(Ga2Co3)3
_symmetry_space_group_name_H-M   'P 1'
_cell_length_a   4.17224800
_cell_length_b   8.58666819
_cell_length_c   8.58030535
_cell_angle_alpha   59.97949272
_cell_angle_beta   90.00000000
_cell_angle_gamma   90.00000000
_symmetry_Int_Tables_number   1
_chemical_formula_structural   TbPa2(Ga2Co3)3
_chemical_formula_sum   'Tb1 Pa2 Ga6 Co9'
_cell_volume   266.15730426
_cell_formula_units_Z   1
loop_
 _symmetry_equiv_pos_site_id
 _symmetry_equiv_pos_as_xyz
  1  'x, y, z'
loop_
 _atom_site_type_symbol
 _atom_site_label
 _atom_site_symmetry_multiplicity
 _atom_site_fract_x
 _atom_site_fract_y
 _atom_site_fract_z
 _atom_site_occupancy
  Tb  Tb0  1  0.500000  0.666678  0.666627  1
  Pa  Pa1  1  0.500000  0.333359  0.333397  1
  Pa  Pa2  1  0.000000  0.000072  0.999955  1
  Ga  Ga3  1  0.000000  0.497972  0.507271  1
  Ga  Ga4  1  0.000000  0.507158  0.994723  1
  Ga  Ga5  1  0.000000  0.994711  0.498110  1
  Ga  Ga6  1  0.500000  0.728911  0.277448  1
  Ga  Ga7  1  0.500000  0.277421  0.993759  1
  Ga  Ga8  1  0.500000  0.993737  0.728788  1
  Co  Co9  1  0.000000  0.182513  0.175765  1
  Co  Co10  1  0.000000  0.175805  0.641679  1
  Co  Co11  1  0.000000  0.641806  0.182441  1
  Co  Co12  1  0.000000  0.826940  0.831346  1
  Co  Co13  1  0.000000  0.341627  0.826924  1
  Co  Co14  1  0.000000  0.831385  0.341725  1
  Co  Co15  1  0.500000  0.307633  0.678436  1
  Co  Co16  1  0.500000  0.678375  0.013963  1
  Co  Co17  1  0.500000  0.013798  0.307742  1
