# generated using pymatgen
data_DyInNi3Pt
_symmetry_space_group_name_H-M   'P 1'
_cell_length_a   5.09458327
_cell_length_b   5.02470829
_cell_length_c   5.02470700
_cell_angle_alpha   60.00000194
_cell_angle_beta   60.45268067
_cell_angle_gamma   60.45267087
_symmetry_Int_Tables_number   1
_chemical_formula_structural   DyInNi3Pt
_chemical_formula_sum   'Dy1 In1 Ni3 Pt1'
_cell_volume   91.56998738
_cell_formula_units_Z   1
loop_
 _symmetry_equiv_pos_site_id
 _symmetry_equiv_pos_as_xyz
  1  'x, y, z'
loop_
 _atom_site_type_symbol
 _atom_site_label
 _atom_site_symmetry_multiplicity
 _atom_site_fract_x
 _atom_site_fract_y
 _atom_site_fract_z
 _atom_site_occupancy
  Dy  Dy0  1  0.250403  0.249866  0.249866  1
  In  In1  1  0.999333  0.000222  0.000222  1
  Ni  Ni2  1  0.625768  0.625729  0.625729  1
  Ni  Ni3  1  0.625768  0.625729  0.122775  1
  Ni  Ni4  1  0.625768  0.122775  0.625729  1
  Pt  Pt5  1  0.122960  0.625680  0.625680  1
