# generated using pymatgen
data_Ca14ZrBi11
_symmetry_space_group_name_H-M   'P 1'
_cell_length_a   16.60538127
_cell_length_b   16.60538090
_cell_length_c   16.60538100
_cell_angle_alpha   117.56788670
_cell_angle_beta   117.56788604
_cell_angle_gamma   94.26683545
_symmetry_Int_Tables_number   1
_chemical_formula_structural   Ca14ZrBi11
_chemical_formula_sum   'Ca56 Zr4 Bi44'
_cell_volume   3346.64356403
_cell_formula_units_Z   4
loop_
 _symmetry_equiv_pos_site_id
 _symmetry_equiv_pos_as_xyz
  1  'x, y, z'
loop_
 _atom_site_type_symbol
 _atom_site_label
 _atom_site_symmetry_multiplicity
 _atom_site_fract_x
 _atom_site_fract_y
 _atom_site_fract_z
 _atom_site_occupancy
  Ca  Ca0  1  0.301723  0.643566  0.014235  1
  Ca  Ca1  1  0.408831  0.014429  0.658005  1
  Ca  Ca2  1  0.393566  0.879331  0.841842  1
  Ca  Ca3  1  0.165096  0.377008  0.133285  1
  Ca  Ca4  1  0.037488  0.551723  0.158158  1
  Ca  Ca5  1  0.264429  0.158831  0.158005  1
  Ca  Ca6  1  0.985571  0.643578  0.394403  1
  Ca  Ca7  1  0.212512  0.870669  0.014235  1
  Ca  Ca8  1  0.475627  0.875000  0.100628  1
  Ca  Ca9  1  0.841169  0.999175  0.105597  1
  Ca  Ca10  1  0.625000  0.524373  0.399373  1
  Ca  Ca11  1  0.341169  0.235571  0.841995  1
  Ca  Ca12  1  0.856434  0.198277  0.985765  1
  Ca  Ca13  1  0.743723  0.877008  0.211913  1
  Ca  Ca14  1  0.774372  0.375000  0.899372  1
  Ca  Ca15  1  0.122992  0.334904  0.866715  1
  Ca  Ca16  1  0.948277  0.462512  0.841842  1
  Ca  Ca17  1  0.764429  0.606422  0.105597  1
  Ca  Ca18  1  0.712512  0.698277  0.341842  1
  Ca  Ca19  1  0.485571  0.091169  0.341995  1
  Ca  Ca20  1  0.908831  0.250825  0.394403  1
  Ca  Ca21  1  0.356422  0.750825  0.341995  1
  Ca  Ca22  1  0.356434  0.370669  0.658158  1
  Ca  Ca23  1  0.506277  0.218189  0.633285  1
  Ca  Ca24  1  0.243723  0.031811  0.866715  1
  Ca  Ca25  1  0.620669  0.106434  0.158158  1
  Ca  Ca26  1  0.856422  0.514429  0.605597  1
  Ca  Ca27  1  0.893578  0.735571  0.894403  1
  Ca  Ca28  1  0.893566  0.051723  0.514235  1
  Ca  Ca29  1  0.120669  0.962512  0.514235  1
  Ca  Ca30  1  0.627008  0.915096  0.633285  1
  Ca  Ca31  1  0.084904  0.718189  0.711913  1
  Ca  Ca32  1  0.129331  0.143566  0.341842  1
  Ca  Ca33  1  0.274373  0.375000  0.399372  1
  Ca  Ca34  1  0.537488  0.379331  0.485765  1
  Ca  Ca35  1  0.625000  0.024372  0.899372  1
  Ca  Ca36  1  0.749175  0.143578  0.658005  1
  Ca  Ca37  1  0.006277  0.372992  0.288087  1
  Ca  Ca38  1  0.127008  0.493723  0.711913  1
  Ca  Ca39  1  0.500825  0.658831  0.894403  1
  Ca  Ca40  1  0.968189  0.834904  0.211913  1
  Ca  Ca41  1  0.584904  0.872992  0.366715  1
  Ca  Ca42  1  0.125000  0.225628  0.600628  1
  Ca  Ca43  1  0.249175  0.591169  0.605597  1
  Ca  Ca44  1  0.781811  0.415096  0.288087  1
  Ca  Ca45  1  0.622992  0.756277  0.788087  1
  Ca  Ca46  1  0.448277  0.606434  0.485765  1
  Ca  Ca47  1  0.125000  0.725628  0.100628  1
  Ca  Ca48  1  0.629331  0.287488  0.985765  1
  Ca  Ca49  1  0.975628  0.875000  0.600628  1
  Ca  Ca50  1  0.393578  0.499175  0.158005  1
  Ca  Ca51  1  0.281811  0.993723  0.366715  1
  Ca  Ca52  1  0.665096  0.531811  0.788087  1
  Ca  Ca53  1  0.000825  0.106422  0.841995  1
  Ca  Ca54  1  0.801723  0.787488  0.658158  1
  Ca  Ca55  1  0.468189  0.256277  0.133285  1
  Zr  Zr56  1  0.000000  0.000000  0.000000  1
  Zr  Zr57  1  0.500000  0.500000  0.000000  1
  Zr  Zr58  1  0.250000  0.750000  0.500000  1
  Zr  Zr59  1  0.750000  0.250000  0.500000  1
  Bi  Bi60  1  0.293773  0.428248  0.850579  1
  Bi  Bi61  1  0.357319  0.857319  0.214640  1
  Bi  Bi62  1  0.793773  0.943193  0.865525  1
  Bi  Bi63  1  0.172332  0.806807  0.350579  1
  Bi  Bi64  1  0.956955  0.048771  0.351680  1
  Bi  Bi65  1  0.178248  0.827668  0.634475  1
  Bi  Bi66  1  0.107319  0.107319  0.714640  1
  Bi  Bi67  1  0.793045  0.201229  0.148320  1
  Bi  Bi68  1  0.355275  0.206955  0.408184  1
  Bi  Bi69  1  0.250000  0.250000  0.000000  1
  Bi  Bi70  1  0.798771  0.947090  0.591816  1
  Bi  Bi71  1  0.456227  0.821752  0.649421  1
  Bi  Bi72  1  0.056807  0.922332  0.850579  1
  Bi  Bi73  1  0.857319  0.642681  0.500000  1
  Bi  Bi74  1  0.552910  0.701229  0.408184  1
  Bi  Bi75  1  0.678248  0.043773  0.350579  1
  Bi  Bi76  1  0.071752  0.206227  0.149421  1
  Bi  Bi77  1  0.142681  0.357319  0.500000  1
  Bi  Bi78  1  0.193193  0.543773  0.365525  1
  Bi  Bi79  1  0.392681  0.392681  0.285360  1
  Bi  Bi80  1  0.500000  0.000000  0.500000  1
  Bi  Bi81  1  0.077668  0.928248  0.134475  1
  Bi  Bi82  1  0.571752  0.422332  0.865525  1
  Bi  Bi83  1  0.451229  0.543045  0.648320  1
  Bi  Bi84  1  0.672332  0.321752  0.365525  1
  Bi  Bi85  1  0.456955  0.105275  0.908184  1
  Bi  Bi86  1  0.394725  0.043045  0.091816  1
  Bi  Bi87  1  0.894725  0.802910  0.351680  1
  Bi  Bi88  1  0.697090  0.605275  0.648320  1
  Bi  Bi89  1  0.693193  0.327668  0.649421  1
  Bi  Bi90  1  0.750000  0.750000  0.000000  1
  Bi  Bi91  1  0.197090  0.548771  0.091816  1
  Bi  Bi92  1  0.956227  0.306807  0.634475  1
  Bi  Bi93  1  0.855275  0.447090  0.148320  1
  Bi  Bi94  1  0.892681  0.607319  0.000000  1
  Bi  Bi95  1  0.298771  0.706955  0.851680  1
  Bi  Bi96  1  0.000000  0.500000  0.500000  1
  Bi  Bi97  1  0.293045  0.144725  0.591816  1
  Bi  Bi98  1  0.642681  0.142681  0.785360  1
  Bi  Bi99  1  0.556807  0.706227  0.134475  1
  Bi  Bi100  1  0.577668  0.443193  0.149421  1
  Bi  Bi101  1  0.052910  0.644725  0.851680  1
  Bi  Bi102  1  0.951229  0.302910  0.908184  1
  Bi  Bi103  1  0.607319  0.892681  0.000000  1
