# generated using pymatgen
data_CsPm2SnF3
_symmetry_space_group_name_H-M   'P 1'
_cell_length_a   6.11743176
_cell_length_b   4.47435138
_cell_length_c   9.10180900
_cell_angle_alpha   104.36207373
_cell_angle_beta   79.59132069
_cell_angle_gamma   136.69564034
_symmetry_Int_Tables_number   1
_chemical_formula_structural   CsPm2SnF3
_chemical_formula_sum   'Cs1 Pm2 Sn1 F3'
_cell_volume   165.53190682
_cell_formula_units_Z   1
loop_
 _symmetry_equiv_pos_site_id
 _symmetry_equiv_pos_as_xyz
  1  'x, y, z'
loop_
 _atom_site_type_symbol
 _atom_site_label
 _atom_site_symmetry_multiplicity
 _atom_site_fract_x
 _atom_site_fract_y
 _atom_site_fract_z
 _atom_site_occupancy
  Cs  Cs0  1  0.834056  0.082265  0.980551  1
  Pm  Pm1  1  0.336001  0.925188  0.656683  1
  Pm  Pm2  1  0.334296  0.239267  0.294648  1
  Sn  Sn3  1  0.835800  0.881969  0.570475  1
  F  F4  1  0.834172  0.681459  0.182807  1
  F  F5  1  0.335102  0.050633  0.910817  1
  F  F6  1  0.332259  0.705536  0.232366  1
