# generated using pymatgen
data_LaCoAsH2
_symmetry_space_group_name_H-M   'P 1'
_cell_length_a   4.18648200
_cell_length_b   4.18648220
_cell_length_c   8.63994300
_cell_angle_alpha   90.00000000
_cell_angle_beta   90.00000000
_cell_angle_gamma   119.99999839
_symmetry_Int_Tables_number   1
_chemical_formula_structural   LaCoAsH2
_chemical_formula_sum   'La2 Co2 As2 H4'
_cell_volume   131.14145379
_cell_formula_units_Z   2
loop_
 _symmetry_equiv_pos_site_id
 _symmetry_equiv_pos_as_xyz
  1  'x, y, z'
loop_
 _atom_site_type_symbol
 _atom_site_label
 _atom_site_symmetry_multiplicity
 _atom_site_fract_x
 _atom_site_fract_y
 _atom_site_fract_z
 _atom_site_occupancy
  La  La0  1  0.000000  0.000000  0.000000  1
  La  La1  1  0.000000  0.000000  0.500000  1
  Co  Co2  1  0.666667  0.333333  0.250000  1
  Co  Co3  1  0.333333  0.666667  0.750000  1
  As  As4  1  0.333333  0.666667  0.250000  1
  As  As5  1  0.666667  0.333333  0.750000  1
  H  H6  1  0.333333  0.666667  0.934433  1
  H  H7  1  0.666667  0.333333  0.065567  1
  H  H8  1  0.333333  0.666667  0.565567  1
  H  H9  1  0.666667  0.333333  0.434433  1
