# generated using pymatgen
data_LiLa2MgSn2
_symmetry_space_group_name_H-M   'P 1'
_cell_length_a   7.84110000
_cell_length_b   4.85351000
_cell_length_c   8.67026800
_cell_angle_alpha   90.00000000
_cell_angle_beta   90.00000000
_cell_angle_gamma   90.00000000
_symmetry_Int_Tables_number   1
_chemical_formula_structural   LiLa2MgSn2
_chemical_formula_sum   'Li2 La4 Mg2 Sn4'
_cell_volume   329.96315169
_cell_formula_units_Z   2
loop_
 _symmetry_equiv_pos_site_id
 _symmetry_equiv_pos_as_xyz
  1  'x, y, z'
loop_
 _atom_site_type_symbol
 _atom_site_label
 _atom_site_symmetry_multiplicity
 _atom_site_fract_x
 _atom_site_fract_y
 _atom_site_fract_z
 _atom_site_occupancy
  Li  Li0  1  0.837434  0.749999  0.068283  1
  Li  Li1  1  0.337434  0.749999  0.431717  1
  La  La2  1  0.505445  0.249999  0.210490  1
  La  La3  1  0.005445  0.249999  0.289510  1
  La  La4  1  0.987897  0.749999  0.704390  1
  La  La5  1  0.487897  0.749999  0.795610  1
  Mg  Mg6  1  0.668551  0.249999  0.574270  1
  Mg  Mg7  1  0.168551  0.249999  0.925730  1
  Sn  Sn8  1  0.230360  0.749999  0.105479  1
  Sn  Sn9  1  0.730360  0.749999  0.394521  1
  Sn  Sn10  1  0.270312  0.249999  0.595094  1
  Sn  Sn11  1  0.770312  0.249999  0.904905  1
