# generated using pymatgen
data_Y5Zr3As11PRh16
_symmetry_space_group_name_H-M   'P 1'
_cell_length_a   13.29560149
_cell_length_b   13.29560155
_cell_length_c   4.00375400
_cell_angle_alpha   90.00000000
_cell_angle_beta   90.00000000
_cell_angle_gamma   119.96880249
_symmetry_Int_Tables_number   1
_chemical_formula_structural   Y5Zr3As11PRh16
_chemical_formula_sum   'Y5 Zr3 As11 P1 Rh16'
_cell_volume   613.12699856
_cell_formula_units_Z   1
loop_
 _symmetry_equiv_pos_site_id
 _symmetry_equiv_pos_as_xyz
  1  'x, y, z'
loop_
 _atom_site_type_symbol
 _atom_site_label
 _atom_site_symmetry_multiplicity
 _atom_site_fract_x
 _atom_site_fract_y
 _atom_site_fract_z
 _atom_site_occupancy
  Y  Y0  1  0.186610  0.186610  0.500000  1
  Y  Y1  1  0.813347  0.996729  0.500000  1
  Y  Y2  1  0.996729  0.813347  0.500000  1
  Y  Y3  1  0.333762  0.666559  0.000000  1
  Y  Y4  1  0.666559  0.333762  0.000000  1
  Zr  Zr5  1  0.556668  0.556668  0.000000  1
  Zr  Zr6  1  0.443796  0.999906  0.000000  1
  Zr  Zr7  1  0.999906  0.443796  0.000000  1
  As  As8  1  0.172217  0.998892  0.000000  1
  As  As9  1  0.998892  0.172217  0.000000  1
  As  As10  1  0.170753  0.485464  0.500000  1
  As  As11  1  0.516788  0.685602  0.500000  1
  As  As12  1  0.315065  0.829420  0.500000  1
  As  As13  1  0.685602  0.516788  0.500000  1
  As  As14  1  0.829420  0.315065  0.500000  1
  As  As15  1  0.485464  0.170753  0.500000  1
  As  As16  1  0.354754  0.354754  0.000000  1
  As  As17  1  0.647139  0.999950  0.000000  1
  As  As18  1  0.999950  0.647139  0.000000  1
  P  P19  1  0.821056  0.821056  0.000000  1
  Rh  Rh20  1  0.727909  0.727909  0.500000  1
  Rh  Rh21  1  0.280263  0.000603  0.500000  1
  Rh  Rh22  1  0.000603  0.280263  0.500000  1
  Rh  Rh23  1  0.176014  0.372408  0.000000  1
  Rh  Rh24  1  0.631764  0.804087  0.000000  1
  Rh  Rh25  1  0.197643  0.823800  0.000000  1
  Rh  Rh26  1  0.804087  0.631764  0.000000  1
  Rh  Rh27  1  0.823800  0.197643  0.000000  1
  Rh  Rh28  1  0.372408  0.176014  0.000000  1
  Rh  Rh29  1  0.355206  0.483273  0.500000  1
  Rh  Rh30  1  0.518292  0.872177  0.500000  1
  Rh  Rh31  1  0.127074  0.644902  0.500000  1
  Rh  Rh32  1  0.872177  0.518292  0.500000  1
  Rh  Rh33  1  0.644902  0.127074  0.500000  1
  Rh  Rh34  1  0.483273  0.355206  0.500000  1
  Rh  Rh35  1  0.990108  0.990108  0.000000  1
