# generated using pymatgen
data_Hf2FeSiAsRh
_symmetry_space_group_name_H-M   'P 1'
_cell_length_a   3.92050100
_cell_length_b   6.45508765
_cell_length_c   7.35965763
_cell_angle_alpha   91.56789778
_cell_angle_beta   90.00000000
_cell_angle_gamma   90.00000000
_symmetry_Int_Tables_number   1
_chemical_formula_structural   Hf2FeSiAsRh
_chemical_formula_sum   'Hf4 Fe2 Si2 As2 Rh2'
_cell_volume   186.18243004
_cell_formula_units_Z   2
loop_
 _symmetry_equiv_pos_site_id
 _symmetry_equiv_pos_as_xyz
  1  'x, y, z'
loop_
 _atom_site_type_symbol
 _atom_site_label
 _atom_site_symmetry_multiplicity
 _atom_site_fract_x
 _atom_site_fract_y
 _atom_site_fract_z
 _atom_site_occupancy
  Hf  Hf0  1  0.250000  0.473658  0.194511  1
  Hf  Hf1  1  0.750000  0.526342  0.805489  1
  Hf  Hf2  1  0.750000  0.011267  0.681212  1
  Hf  Hf3  1  0.250000  0.988733  0.318788  1
  Fe  Fe4  1  0.750000  0.650288  0.447725  1
  Fe  Fe5  1  0.250000  0.349712  0.552275  1
  Si  Si6  1  0.250000  0.712940  0.600896  1
  Si  Si7  1  0.750000  0.287060  0.399104  1
  As  As8  1  0.750000  0.758449  0.134832  1
  As  As9  1  0.250000  0.241551  0.865168  1
  Rh  Rh10  1  0.250000  0.846235  0.923456  1
  Rh  Rh11  1  0.750000  0.153765  0.076544  1
