# generated using pymatgen
data_Sm12B(CCl4)3
_symmetry_space_group_name_H-M   'P 1'
_cell_length_a   9.48051530
_cell_length_b   9.57662010
_cell_length_c   9.57662016
_cell_angle_alpha   109.67360904
_cell_angle_beta   109.26805934
_cell_angle_gamma   109.26806559
_symmetry_Int_Tables_number   1
_chemical_formula_structural   Sm12B(CCl4)3
_chemical_formula_sum   'Sm12 B1 C3 Cl12'
_cell_volume   670.99199286
_cell_formula_units_Z   1
loop_
 _symmetry_equiv_pos_site_id
 _symmetry_equiv_pos_as_xyz
  1  'x, y, z'
loop_
 _atom_site_type_symbol
 _atom_site_label
 _atom_site_symmetry_multiplicity
 _atom_site_fract_x
 _atom_site_fract_y
 _atom_site_fract_z
 _atom_site_occupancy
  Sm  Sm0  1  0.468390  0.480040  0.237189  1
  Sm  Sm1  1  0.750000  0.233010  0.266990  1
  Sm  Sm2  1  0.750000  0.018954  0.481046  1
  Sm  Sm3  1  0.231046  0.462094  0.481046  1
  Sm  Sm4  1  0.268799  0.757149  0.237189  1
  Sm  Sm5  1  0.031610  0.262811  0.019960  1
  Sm  Sm6  1  0.016990  0.033981  0.266990  1
  Sm  Sm7  1  0.488350  0.757149  0.019960  1
  Sm  Sm8  1  0.483010  0.233010  0.466019  1
  Sm  Sm9  1  0.011650  0.480040  0.742851  1
  Sm  Sm10  1  0.268954  0.018954  0.037906  1
  Sm  Sm11  1  0.231201  0.262811  0.742851  1
  B  B12  1  0.250000  0.500000  0.000000  1
  C  C13  1  0.250000  0.249861  0.250139  1
  C  C14  1  0.500139  0.000278  0.250139  1
  C  C15  1  0.999861  0.249861  0.499722  1
  Cl  Cl16  1  0.250000  0.756093  0.743907  1
  Cl  Cl17  1  0.511028  0.505243  0.753909  1
  Cl  Cl18  1  0.988972  0.746091  0.994757  1
  Cl  Cl19  1  0.742881  0.248667  0.753909  1
  Cl  Cl20  1  0.993907  0.987815  0.743907  1
  Cl  Cl21  1  0.250000  0.994257  0.505743  1
  Cl  Cl22  1  0.755743  0.511485  0.505743  1
  Cl  Cl23  1  0.505785  0.248667  0.994757  1
  Cl  Cl24  1  0.757119  0.746091  0.251333  1
  Cl  Cl25  1  0.744257  0.994257  0.988515  1
  Cl  Cl26  1  0.994215  0.505243  0.251333  1
  Cl  Cl27  1  0.506093  0.756093  0.512185  1
