# generated using pymatgen
data_Nd2DySn3Hg2
_symmetry_space_group_name_H-M   'P 1'
_cell_length_a   6.50169700
_cell_length_b   6.50169670
_cell_length_c   10.30758600
_cell_angle_alpha   90.00000000
_cell_angle_beta   90.00000000
_cell_angle_gamma   102.94923510
_symmetry_Int_Tables_number   1
_chemical_formula_structural   Nd2DySn3Hg2
_chemical_formula_sum   'Nd4 Dy2 Sn6 Hg4'
_cell_volume   424.64204088
_cell_formula_units_Z   2
loop_
 _symmetry_equiv_pos_site_id
 _symmetry_equiv_pos_as_xyz
  1  'x, y, z'
loop_
 _atom_site_type_symbol
 _atom_site_label
 _atom_site_symmetry_multiplicity
 _atom_site_fract_x
 _atom_site_fract_y
 _atom_site_fract_z
 _atom_site_occupancy
  Nd  Nd0  1  0.795585  0.204415  0.000000  1
  Nd  Nd1  1  0.204415  0.795585  0.000000  1
  Nd  Nd2  1  0.204415  0.795585  0.500000  1
  Nd  Nd3  1  0.795585  0.204415  0.500000  1
  Dy  Dy4  1  0.625040  0.625040  0.250000  1
  Dy  Dy5  1  0.374960  0.374960  0.750000  1
  Sn  Sn6  1  0.064518  0.492879  0.250000  1
  Sn  Sn7  1  0.935482  0.507121  0.750000  1
  Sn  Sn8  1  0.492879  0.064518  0.250000  1
  Sn  Sn9  1  0.507121  0.935482  0.750000  1
  Sn  Sn10  1  0.012411  0.012411  0.250000  1
  Sn  Sn11  1  0.987589  0.987589  0.750000  1
  Hg  Hg12  1  0.314565  0.314565  0.039613  1
  Hg  Hg13  1  0.685435  0.685435  0.960387  1
  Hg  Hg14  1  0.685435  0.685435  0.539613  1
  Hg  Hg15  1  0.314565  0.314565  0.460387  1
