# generated using pymatgen
data_Rb2Hg(PSe3)2
_symmetry_space_group_name_H-M   'P 1'
_cell_length_a   13.01966700
_cell_length_b   6.89682459
_cell_length_c   10.29824413
_cell_angle_alpha   51.25685213
_cell_angle_beta   90.00000000
_cell_angle_gamma   90.00000000
_symmetry_Int_Tables_number   1
_chemical_formula_structural   Rb2Hg(PSe3)2
_chemical_formula_sum   'Rb4 Hg2 P4 Se12'
_cell_volume   721.24729886
_cell_formula_units_Z   2
loop_
 _symmetry_equiv_pos_site_id
 _symmetry_equiv_pos_as_xyz
  1  'x, y, z'
loop_
 _atom_site_type_symbol
 _atom_site_label
 _atom_site_symmetry_multiplicity
 _atom_site_fract_x
 _atom_site_fract_y
 _atom_site_fract_z
 _atom_site_occupancy
  Rb  Rb0  1  0.178591  0.262953  0.976951  1
  Rb  Rb1  1  0.678591  0.737047  0.523049  1
  Rb  Rb2  1  0.821409  0.737047  0.023049  1
  Rb  Rb3  1  0.321409  0.262953  0.476951  1
  Hg  Hg4  1  0.000000  0.000000  0.500000  1
  Hg  Hg5  1  0.500000  0.000000  0.000000  1
  P  P6  1  0.040698  0.649276  0.374452  1
  P  P7  1  0.540698  0.350724  0.125548  1
  P  P8  1  0.959302  0.350724  0.625548  1
  P  P9  1  0.459302  0.649276  0.874452  1
  Se  Se10  1  0.184812  0.752022  0.425725  1
  Se  Se11  1  0.684812  0.247978  0.074275  1
  Se  Se12  1  0.815188  0.247978  0.574275  1
  Se  Se13  1  0.315188  0.752022  0.925725  1
  Se  Se14  1  0.934799  0.961874  0.220176  1
  Se  Se15  1  0.434799  0.038126  0.279824  1
  Se  Se16  1  0.065201  0.038126  0.779824  1
  Se  Se17  1  0.565201  0.961874  0.720176  1
  Se  Se18  1  0.433859  0.450079  0.766756  1
  Se  Se19  1  0.933859  0.549921  0.733244  1
  Se  Se20  1  0.566141  0.549921  0.233244  1
  Se  Se21  1  0.066141  0.450079  0.266756  1
