# generated using pymatgen
data_Y5AlBi2Cl
_symmetry_space_group_name_H-M   'P 1'
_cell_length_a   9.20734400
_cell_length_b   9.12510178
_cell_length_c   6.52321000
_cell_angle_alpha   90.00000000
_cell_angle_beta   90.00000000
_cell_angle_gamma   120.29859706
_symmetry_Int_Tables_number   1
_chemical_formula_structural   Y5AlBi2Cl
_chemical_formula_sum   'Y10 Al2 Bi4 Cl2'
_cell_volume   473.20515423
_cell_formula_units_Z   2
loop_
 _symmetry_equiv_pos_site_id
 _symmetry_equiv_pos_as_xyz
  1  'x, y, z'
loop_
 _atom_site_type_symbol
 _atom_site_label
 _atom_site_symmetry_multiplicity
 _atom_site_fract_x
 _atom_site_fract_y
 _atom_site_fract_z
 _atom_site_occupancy
  Y  Y0  1  0.272818  0.000000  0.750000  1
  Y  Y1  1  0.727182  0.000000  0.250000  1
  Y  Y2  1  0.987490  0.252592  0.750000  1
  Y  Y3  1  0.012510  0.747408  0.250000  1
  Y  Y4  1  0.734899  0.747408  0.750000  1
  Y  Y5  1  0.265101  0.252592  0.250000  1
  Y  Y6  1  0.341645  0.683289  0.500000  1
  Y  Y7  1  0.658355  0.316711  0.500000  1
  Y  Y8  1  0.658355  0.316711  0.000000  1
  Y  Y9  1  0.341645  0.683289  0.000000  1
  Al  Al10  1  0.605661  0.000000  0.750000  1
  Al  Al11  1  0.394339  0.000000  0.250000  1
  Bi  Bi12  1  0.995142  0.610611  0.750000  1
  Bi  Bi13  1  0.004858  0.389389  0.250000  1
  Bi  Bi14  1  0.384531  0.389389  0.750000  1
  Bi  Bi15  1  0.615469  0.610611  0.250000  1
  Cl  Cl16  1  0.000000  0.000000  0.500000  1
  Cl  Cl17  1  0.000000  0.000000  0.000000  1
