# generated using pymatgen
data_Pr7Y(ErBi)12
_symmetry_space_group_name_H-M   'P 1'
_cell_length_a   8.37397600
_cell_length_b   9.54528800
_cell_length_c   12.30666200
_cell_angle_alpha   90.00000000
_cell_angle_beta   90.00045266
_cell_angle_gamma   90.00000000
_symmetry_Int_Tables_number   1
_chemical_formula_structural   Pr7Y(ErBi)12
_chemical_formula_sum   'Pr7 Y1 Er12 Bi12'
_cell_volume   983.69626235
_cell_formula_units_Z   1
loop_
 _symmetry_equiv_pos_site_id
 _symmetry_equiv_pos_as_xyz
  1  'x, y, z'
loop_
 _atom_site_type_symbol
 _atom_site_label
 _atom_site_symmetry_multiplicity
 _atom_site_fract_x
 _atom_site_fract_y
 _atom_site_fract_z
 _atom_site_occupancy
  Pr  Pr0  1  0.184509  0.750000  0.720672  1
  Pr  Pr1  1  0.685330  0.750000  0.779057  1
  Pr  Pr2  1  0.816303  0.250000  0.280311  1
  Pr  Pr3  1  0.315429  0.250000  0.220851  1
  Pr  Pr4  1  0.352656  0.750000  0.214772  1
  Pr  Pr5  1  0.852878  0.750000  0.285194  1
  Pr  Pr6  1  0.646809  0.250000  0.784901  1
  Y  Y7  1  0.147028  0.250000  0.715340  1
  Er  Er8  1  0.025607  0.750000  0.987859  1
  Er  Er9  1  0.525064  0.750000  0.511956  1
  Er  Er10  1  0.975139  0.250000  0.010232  1
  Er  Er11  1  0.474259  0.250000  0.488873  1
  Er  Er12  1  0.306533  0.435622  0.940444  1
  Er  Er13  1  0.807022  0.064298  0.559196  1
  Er  Er14  1  0.693185  0.936064  0.058085  1
  Er  Er15  1  0.193054  0.564306  0.441817  1
  Er  Er16  1  0.693185  0.563936  0.058085  1
  Er  Er17  1  0.193054  0.935694  0.441817  1
  Er  Er18  1  0.306533  0.064378  0.940444  1
  Er  Er19  1  0.807022  0.435702  0.559196  1
  Bi  Bi20  1  0.433141  0.006136  0.668132  1
  Bi  Bi21  1  0.938528  0.492959  0.829797  1
  Bi  Bi22  1  0.563938  0.504337  0.332286  1
  Bi  Bi23  1  0.064176  0.995846  0.167782  1
  Bi  Bi24  1  0.563938  0.995663  0.332286  1
  Bi  Bi25  1  0.064176  0.504154  0.167782  1
  Bi  Bi26  1  0.433141  0.493864  0.668132  1
  Bi  Bi27  1  0.938528  0.007041  0.829797  1
  Bi  Bi28  1  0.407825  0.750000  0.957916  1
  Bi  Bi29  1  0.907409  0.750000  0.542128  1
  Bi  Bi30  1  0.591852  0.250000  0.042042  1
  Bi  Bi31  1  0.092749  0.250000  0.462820  1
