# generated using pymatgen
data_Ti3AlPtO
_symmetry_space_group_name_H-M   'P 1'
_cell_length_a   6.88317300
_cell_length_b   6.88317300
_cell_length_c   6.88317300
_cell_angle_alpha   90.00000000
_cell_angle_beta   90.00000000
_cell_angle_gamma   90.00000000
_symmetry_Int_Tables_number   1
_chemical_formula_structural   Ti3AlPtO
_chemical_formula_sum   'Ti12 Al4 Pt4 O4'
_cell_volume   326.11145599
_cell_formula_units_Z   4
loop_
 _symmetry_equiv_pos_site_id
 _symmetry_equiv_pos_as_xyz
  1  'x, y, z'
loop_
 _atom_site_type_symbol
 _atom_site_label
 _atom_site_symmetry_multiplicity
 _atom_site_fract_x
 _atom_site_fract_y
 _atom_site_fract_z
 _atom_site_occupancy
  Ti  Ti0  1  0.790580  0.958020  0.375814  1
  Ti  Ti1  1  0.709420  0.041980  0.875814  1
  Ti  Ti2  1  0.209420  0.458020  0.124186  1
  Ti  Ti3  1  0.290580  0.541980  0.624186  1
  Ti  Ti4  1  0.958020  0.375814  0.790580  1
  Ti  Ti5  1  0.041980  0.875814  0.709420  1
  Ti  Ti6  1  0.458020  0.124186  0.209420  1
  Ti  Ti7  1  0.541980  0.624186  0.290580  1
  Ti  Ti8  1  0.375814  0.790580  0.958020  1
  Ti  Ti9  1  0.875814  0.709420  0.041980  1
  Ti  Ti10  1  0.124186  0.209420  0.458020  1
  Ti  Ti11  1  0.624186  0.290580  0.541980  1
  Al  Al12  1  0.571459  0.428541  0.928541  1
  Al  Al13  1  0.428541  0.928541  0.571459  1
  Al  Al14  1  0.928541  0.571459  0.428541  1
  Al  Al15  1  0.071459  0.071459  0.071459  1
  Pt  Pt16  1  0.178323  0.821677  0.321677  1
  Pt  Pt17  1  0.321677  0.178323  0.821677  1
  Pt  Pt18  1  0.821677  0.321677  0.178323  1
  Pt  Pt19  1  0.678323  0.678323  0.678323  1
  O  O20  1  0.875022  0.124978  0.624978  1
  O  O21  1  0.624978  0.875022  0.124978  1
  O  O22  1  0.124978  0.624978  0.875022  1
  O  O23  1  0.375022  0.375022  0.375022  1
