# generated using pymatgen
data_Sr2TbLu(CuSe3)2
_symmetry_space_group_name_H-M   'P 1'
_cell_length_a   4.07499900
_cell_length_b   7.09651438
_cell_length_c   10.59358522
_cell_angle_alpha   92.40584477
_cell_angle_beta   90.00000000
_cell_angle_gamma   73.31482710
_symmetry_Int_Tables_number   1
_chemical_formula_structural   Sr2TbLu(CuSe3)2
_chemical_formula_sum   'Sr2 Tb1 Lu1 Cu2 Se6'
_cell_volume   293.16821080
_cell_formula_units_Z   1
loop_
 _symmetry_equiv_pos_site_id
 _symmetry_equiv_pos_as_xyz
  1  'x, y, z'
loop_
 _atom_site_type_symbol
 _atom_site_label
 _atom_site_symmetry_multiplicity
 _atom_site_fract_x
 _atom_site_fract_y
 _atom_site_fract_z
 _atom_site_occupancy
  Sr  Sr0  1  0.752836  0.494332  0.266972  1
  Sr  Sr1  1  0.247164  0.505668  0.733028  1
  Tb  Tb2  1  0.000000  0.000000  0.000000  1
  Lu  Lu3  1  0.000000  0.000000  0.500000  1
  Cu  Cu4  1  0.473526  0.052948  0.250261  1
  Cu  Cu5  1  0.526474  0.947053  0.749739  1
  Se  Se6  1  0.360455  0.279090  0.076716  1
  Se  Se7  1  0.079504  0.840991  0.249802  1
  Se  Se8  1  0.364569  0.270860  0.444065  1
  Se  Se9  1  0.635432  0.729140  0.555935  1
  Se  Se10  1  0.920496  0.159009  0.750198  1
  Se  Se11  1  0.639546  0.720910  0.923284  1
