# generated using pymatgen
data_Rb16HfZrSb8
_symmetry_space_group_name_H-M   'P 1'
_cell_length_a   12.07015984
_cell_length_b   12.07015968
_cell_length_c   12.07015900
_cell_angle_alpha   59.99999912
_cell_angle_beta   59.99999955
_cell_angle_gamma   59.99999927
_symmetry_Int_Tables_number   1
_chemical_formula_structural   Rb16HfZrSb8
_chemical_formula_sum   'Rb16 Hf1 Zr1 Sb8'
_cell_volume   1243.43767869
_cell_formula_units_Z   1
loop_
 _symmetry_equiv_pos_site_id
 _symmetry_equiv_pos_as_xyz
  1  'x, y, z'
loop_
 _atom_site_type_symbol
 _atom_site_label
 _atom_site_symmetry_multiplicity
 _atom_site_fract_x
 _atom_site_fract_y
 _atom_site_fract_z
 _atom_site_occupancy
  Rb  Rb0  1  0.624992  0.125025  0.624992  1
  Rb  Rb1  1  0.624992  0.624992  0.125025  1
  Rb  Rb2  1  0.125025  0.624992  0.624992  1
  Rb  Rb3  1  0.624992  0.624992  0.624992  1
  Rb  Rb4  1  0.025715  0.025715  0.474285  1
  Rb  Rb5  1  0.775710  0.224290  0.224290  1
  Rb  Rb6  1  0.224290  0.775710  0.775710  1
  Rb  Rb7  1  0.775710  0.775710  0.224290  1
  Rb  Rb8  1  0.775710  0.224290  0.775710  1
  Rb  Rb9  1  0.224290  0.775710  0.224290  1
  Rb  Rb10  1  0.474285  0.025715  0.474285  1
  Rb  Rb11  1  0.474285  0.025715  0.025715  1
  Rb  Rb12  1  0.025715  0.474285  0.474285  1
  Rb  Rb13  1  0.025715  0.474285  0.025715  1
  Rb  Rb14  1  0.224290  0.224290  0.775710  1
  Rb  Rb15  1  0.474285  0.474285  0.025715  1
  Hf  Hf16  1  0.750000  0.750000  0.750000  1
  Zr  Zr17  1  0.500000  0.500000  0.500000  1
  Sb  Sb18  1  0.401653  0.795043  0.401653  1
  Sb  Sb19  1  0.847588  0.847588  0.457234  1
  Sb  Sb20  1  0.457234  0.847588  0.847588  1
  Sb  Sb21  1  0.847588  0.847588  0.847588  1
  Sb  Sb22  1  0.795043  0.401653  0.401653  1
  Sb  Sb23  1  0.401653  0.401653  0.401653  1
  Sb  Sb24  1  0.401653  0.401653  0.795043  1
  Sb  Sb25  1  0.847588  0.457234  0.847588  1
