# generated using pymatgen
data_Th10GaSn6As
_symmetry_space_group_name_H-M   'P 1'
_cell_length_a   9.58566300
_cell_length_b   9.58566217
_cell_length_c   6.56354400
_cell_angle_alpha   90.00000000
_cell_angle_beta   90.00000000
_cell_angle_gamma   119.99999941
_symmetry_Int_Tables_number   1
_chemical_formula_structural   Th10GaSn6As
_chemical_formula_sum   'Th10 Ga1 Sn6 As1'
_cell_volume   522.29192424
_cell_formula_units_Z   1
loop_
 _symmetry_equiv_pos_site_id
 _symmetry_equiv_pos_as_xyz
  1  'x, y, z'
loop_
 _atom_site_type_symbol
 _atom_site_label
 _atom_site_symmetry_multiplicity
 _atom_site_fract_x
 _atom_site_fract_y
 _atom_site_fract_z
 _atom_site_occupancy
  Th  Th0  1  0.000000  0.736557  0.749748  1
  Th  Th1  1  0.263443  0.263443  0.749748  1
  Th  Th2  1  0.333333  0.666667  0.500000  1
  Th  Th3  1  0.666667  0.333333  0.500000  1
  Th  Th4  1  0.736557  0.736557  0.250252  1
  Th  Th5  1  0.736557  0.000000  0.749748  1
  Th  Th6  1  0.000000  0.263443  0.250252  1
  Th  Th7  1  0.263443  0.000000  0.250252  1
  Th  Th8  1  0.333333  0.666667  0.000000  1
  Th  Th9  1  0.666667  0.333333  0.000000  1
  Ga  Ga10  1  0.000000  0.000000  0.000000  1
  Sn  Sn11  1  0.612759  0.612759  0.751353  1
  Sn  Sn12  1  0.000000  0.387241  0.751353  1
  Sn  Sn13  1  0.387241  0.000000  0.751353  1
  Sn  Sn14  1  0.612759  0.000000  0.248647  1
  Sn  Sn15  1  0.387241  0.387241  0.248647  1
  Sn  Sn16  1  0.000000  0.612759  0.248647  1
  As  As17  1  0.000000  0.000000  0.500000  1
