# generated using pymatgen
data_Tb2Dy6Sc11Si16Ag
_symmetry_space_group_name_H-M   'P 1'
_cell_length_a   7.04596807
_cell_length_b   7.40615709
_cell_length_c   14.04061309
_cell_angle_alpha   90.04224518
_cell_angle_beta   90.01586519
_cell_angle_gamma   89.91328367
_symmetry_Int_Tables_number   1
_chemical_formula_structural   Tb2Dy6Sc11Si16Ag
_chemical_formula_sum   'Tb2 Dy6 Sc11 Si16 Ag1'
_cell_volume   732.68791754
_cell_formula_units_Z   1
loop_
 _symmetry_equiv_pos_site_id
 _symmetry_equiv_pos_as_xyz
  1  'x, y, z'
loop_
 _atom_site_type_symbol
 _atom_site_label
 _atom_site_symmetry_multiplicity
 _atom_site_fract_x
 _atom_site_fract_y
 _atom_site_fract_z
 _atom_site_occupancy
  Tb  Tb0  1  0.011178  0.175085  0.096507  1
  Tb  Tb1  1  0.990522  0.815530  0.900892  1
  Dy  Dy2  1  0.483772  0.673877  0.901192  1
  Dy  Dy3  1  0.990394  0.815379  0.599234  1
  Dy  Dy4  1  0.510912  0.323712  0.096567  1
  Dy  Dy5  1  0.011272  0.175276  0.403399  1
  Dy  Dy6  1  0.510936  0.323641  0.403469  1
  Dy  Dy7  1  0.483745  0.673881  0.598784  1
  Sc  Sc8  1  0.838373  0.497277  0.250005  1
  Sc  Sc9  1  0.339953  0.002709  0.250038  1
  Sc  Sc10  1  0.657977  0.998253  0.749947  1
  Sc  Sc11  1  0.326466  0.182745  0.626457  1
  Sc  Sc12  1  0.671012  0.823486  0.374936  1
  Sc  Sc13  1  0.170669  0.678331  0.374011  1
  Sc  Sc14  1  0.670976  0.823444  0.125112  1
  Sc  Sc15  1  0.835493  0.327185  0.626465  1
  Sc  Sc16  1  0.326512  0.182773  0.873479  1
  Sc  Sc17  1  0.835428  0.327270  0.873498  1
  Sc  Sc18  1  0.170788  0.678221  0.126023  1
  Si  Si19  1  0.028477  0.100941  0.749888  1
  Si  Si20  1  0.968805  0.886402  0.250104  1
  Si  Si21  1  0.467468  0.617005  0.250020  1
  Si  Si22  1  0.537387  0.384737  0.749979  1
  Si  Si23  1  0.289017  0.885043  0.749880  1
  Si  Si24  1  0.713350  0.127093  0.250142  1
  Si  Si25  1  0.212882  0.372822  0.250129  1
  Si  Si26  1  0.776190  0.628615  0.749877  1
  Si  Si27  1  0.160629  0.460108  0.531824  1
  Si  Si28  1  0.843172  0.535645  0.461940  1
  Si  Si29  1  0.344786  0.965310  0.462529  1
  Si  Si30  1  0.843005  0.535607  0.038079  1
  Si  Si31  1  0.657712  0.033784  0.540198  1
  Si  Si32  1  0.160807  0.460116  0.968168  1
  Si  Si33  1  0.657289  0.033883  0.959839  1
  Si  Si34  1  0.345244  0.965198  0.037429  1
  Ag  Ag35  1  0.157399  0.509611  0.749961  1
