# generated using pymatgen
data_TmHf3Al17GaIr6
_symmetry_space_group_name_H-M   'P 1'
_cell_length_a   7.47235186
_cell_length_b   7.46536945
_cell_length_c   9.27929300
_cell_angle_alpha   90.00000000
_cell_angle_beta   90.00000000
_cell_angle_gamma   119.69545845
_symmetry_Int_Tables_number   1
_chemical_formula_structural   TmHf3Al17GaIr6
_chemical_formula_sum   'Tm1 Hf3 Al17 Ga1 Ir6'
_cell_volume   449.65427036
_cell_formula_units_Z   1
loop_
 _symmetry_equiv_pos_site_id
 _symmetry_equiv_pos_as_xyz
  1  'x, y, z'
loop_
 _atom_site_type_symbol
 _atom_site_label
 _atom_site_symmetry_multiplicity
 _atom_site_fract_x
 _atom_site_fract_y
 _atom_site_fract_z
 _atom_site_occupancy
  Tm  Tm0  1  0.326647  0.006062  0.750000  1
  Hf  Hf1  1  0.994201  0.671585  0.250000  1
  Hf  Hf2  1  0.005887  0.327907  0.750000  1
  Hf  Hf3  1  0.671314  0.994119  0.250000  1
  Al  Al4  1  0.124912  0.125957  0.250000  1
  Al  Al5  1  0.998078  0.334922  0.077487  1
  Al  Al6  1  0.000353  0.663057  0.925395  1
  Al  Al7  1  0.000353  0.663057  0.574605  1
  Al  Al8  1  0.335253  0.998705  0.419974  1
  Al  Al9  1  0.998078  0.334922  0.422513  1
  Al  Al10  1  0.667462  0.001806  0.575060  1
  Al  Al11  1  0.667462  0.001806  0.924940  1
  Al  Al12  1  0.335253  0.998705  0.080026  1
  Al  Al13  1  0.331692  0.333670  0.556745  1
  Al  Al14  1  0.668200  0.668141  0.437628  1
  Al  Al15  1  0.668200  0.668141  0.062372  1
  Al  Al16  1  0.331692  0.333670  0.943255  1
  Al  Al17  1  0.337999  0.552387  0.250000  1
  Al  Al18  1  0.666797  0.450829  0.750000  1
  Al  Al19  1  0.553469  0.339082  0.250000  1
  Al  Al20  1  0.446151  0.658516  0.750000  1
  Ga  Ga21  1  0.867297  0.869666  0.750000  1
  Ir  Ir22  1  0.673465  0.328548  0.000936  1
  Ir  Ir23  1  0.328753  0.673865  0.001335  1
  Ir  Ir24  1  0.328753  0.673865  0.498665  1
  Ir  Ir25  1  0.673465  0.328548  0.499064  1
  Ir  Ir26  1  0.999407  0.999229  0.004063  1
  Ir  Ir27  1  0.999407  0.999229  0.495937  1
