# generated using pymatgen
data_Pr2P7IrRu11
_symmetry_space_group_name_H-M   'P 1'
_cell_length_a   9.45293905
_cell_length_b   9.49535040
_cell_length_c   3.98522300
_cell_angle_alpha   90.00000000
_cell_angle_beta   90.00000000
_cell_angle_gamma   119.73392230
_symmetry_Int_Tables_number   1
_chemical_formula_structural   Pr2P7IrRu11
_chemical_formula_sum   'Pr2 P7 Ir1 Ru11'
_cell_volume   310.61276521
_cell_formula_units_Z   1
loop_
 _symmetry_equiv_pos_site_id
 _symmetry_equiv_pos_as_xyz
  1  'x, y, z'
loop_
 _atom_site_type_symbol
 _atom_site_label
 _atom_site_symmetry_multiplicity
 _atom_site_fract_x
 _atom_site_fract_y
 _atom_site_fract_z
 _atom_site_occupancy
  Pr  Pr0  1  0.667817  0.334801  0.500000  1
  Pr  Pr1  1  0.331475  0.663348  0.000000  1
  P  P2  1  0.603256  0.711130  0.500000  1
  P  P3  1  0.999173  0.999429  0.000000  1
  P  P4  1  0.280749  0.885953  0.500000  1
  P  P5  1  0.110962  0.395490  0.500000  1
  P  P6  1  0.890905  0.579941  0.000000  1
  P  P7  1  0.422818  0.311738  0.000000  1
  P  P8  1  0.694109  0.115619  0.000000  1
  Ir  Ir9  1  0.555793  0.946203  0.500000  1
  Ru  Ru10  1  0.389133  0.438007  0.500000  1
  Ru  Ru11  1  0.911817  0.122127  0.500000  1
  Ru  Ru12  1  0.208416  0.086139  0.500000  1
  Ru  Ru13  1  0.878959  0.795007  0.500000  1
  Ru  Ru14  1  0.729103  0.893428  0.000000  1
  Ru  Ru15  1  0.109506  0.839275  0.000000  1
  Ru  Ru16  1  0.161005  0.267784  0.000000  1
  Ru  Ru17  1  0.426407  0.066354  0.000000  1
  Ru  Ru18  1  0.937247  0.360050  0.000000  1
  Ru  Ru19  1  0.642106  0.578576  0.000000  1
  Ru  Ru20  1  0.049245  0.609601  0.500000  1
