# generated using pymatgen
data_Hf5Fe4Rh
_symmetry_space_group_name_H-M   'P 1'
_cell_length_a   3.16187600
_cell_length_b   3.16187600
_cell_length_c   15.80752700
_cell_angle_alpha   90.00000000
_cell_angle_beta   90.00000000
_cell_angle_gamma   90.00000000
_symmetry_Int_Tables_number   1
_chemical_formula_structural   Hf5Fe4Rh
_chemical_formula_sum   'Hf5 Fe4 Rh1'
_cell_volume   158.03511634
_cell_formula_units_Z   1
loop_
 _symmetry_equiv_pos_site_id
 _symmetry_equiv_pos_as_xyz
  1  'x, y, z'
loop_
 _atom_site_type_symbol
 _atom_site_label
 _atom_site_symmetry_multiplicity
 _atom_site_fract_x
 _atom_site_fract_y
 _atom_site_fract_z
 _atom_site_occupancy
  Hf  Hf0  1  0.500000  0.500000  0.107901  1
  Hf  Hf1  1  0.500000  0.500000  0.303077  1
  Hf  Hf2  1  0.500000  0.500000  0.500000  1
  Hf  Hf3  1  0.500000  0.500000  0.696923  1
  Hf  Hf4  1  0.500000  0.500000  0.892099  1
  Fe  Fe5  1  0.000000  0.000000  0.201805  1
  Fe  Fe6  1  0.000000  0.000000  0.401108  1
  Fe  Fe7  1  0.000000  0.000000  0.598892  1
  Fe  Fe8  1  0.000000  0.000000  0.798195  1
  Rh  Rh9  1  0.000000  0.000000  0.000000  1
