# generated using pymatgen
data_Nd2Dy2CuPt3
_symmetry_space_group_name_H-M   'P 1'
_cell_length_a   4.54355500
_cell_length_b   5.66425437
_cell_length_c   7.24182486
_cell_angle_alpha   88.59950965
_cell_angle_beta   90.00000000
_cell_angle_gamma   90.00000000
_symmetry_Int_Tables_number   1
_chemical_formula_structural   Nd2Dy2CuPt3
_chemical_formula_sum   'Nd2 Dy2 Cu1 Pt3'
_cell_volume   186.31885379
_cell_formula_units_Z   1
loop_
 _symmetry_equiv_pos_site_id
 _symmetry_equiv_pos_as_xyz
  1  'x, y, z'
loop_
 _atom_site_type_symbol
 _atom_site_label
 _atom_site_symmetry_multiplicity
 _atom_site_fract_x
 _atom_site_fract_y
 _atom_site_fract_z
 _atom_site_occupancy
  Nd  Nd0  1  0.000000  0.639021  0.314495  1
  Nd  Nd1  1  0.500000  0.366657  0.688169  1
  Dy  Dy2  1  0.000000  0.858392  0.821972  1
  Dy  Dy3  1  0.500000  0.136727  0.173869  1
  Cu  Cu4  1  0.000000  0.128458  0.461703  1
  Pt  Pt5  1  0.000000  0.334101  0.960983  1
  Pt  Pt6  1  0.500000  0.877420  0.538135  1
  Pt  Pt7  1  0.500000  0.659225  0.040674  1
