# generated using pymatgen
data_Nd4Zn3Ir11
_symmetry_space_group_name_H-M   'P 1'
_cell_length_a   13.04675070
_cell_length_b   13.04675076
_cell_length_c   13.04675065
_cell_angle_alpha   24.15875482
_cell_angle_beta   24.15875351
_cell_angle_gamma   24.15875289
_symmetry_Int_Tables_number   1
_chemical_formula_structural   Nd4Zn3Ir11
_chemical_formula_sum   'Nd4 Zn3 Ir11'
_cell_volume   326.91368266
_cell_formula_units_Z   1
loop_
 _symmetry_equiv_pos_site_id
 _symmetry_equiv_pos_as_xyz
  1  'x, y, z'
loop_
 _atom_site_type_symbol
 _atom_site_label
 _atom_site_symmetry_multiplicity
 _atom_site_fract_x
 _atom_site_fract_y
 _atom_site_fract_z
 _atom_site_occupancy
  Nd  Nd0  1  0.952378  0.952378  0.952378  1
  Nd  Nd1  1  0.051911  0.051911  0.051911  1
  Nd  Nd2  1  0.853395  0.853395  0.853395  1
  Nd  Nd3  1  0.148605  0.148605  0.148605  1
  Zn  Zn4  1  0.721175  0.721175  0.721175  1
  Zn  Zn5  1  0.278464  0.278464  0.278464  1
  Zn  Zn6  1  0.609879  0.609879  0.609879  1
  Ir  Ir7  1  0.500593  0.500593  0.500593  1
  Ir  Ir8  1  0.387130  0.387130  0.387130  1
  Ir  Ir9  1  0.500864  0.500864  0.996512  1
  Ir  Ir10  1  0.996512  0.500864  0.500864  1
  Ir  Ir11  1  0.500864  0.996512  0.500864  1
  Ir  Ir12  1  0.386491  0.894837  0.386491  1
  Ir  Ir13  1  0.386491  0.386491  0.894837  1
  Ir  Ir14  1  0.894837  0.386491  0.386491  1
  Ir  Ir15  1  0.611585  0.107244  0.611585  1
  Ir  Ir16  1  0.611585  0.611585  0.107244  1
  Ir  Ir17  1  0.107244  0.611585  0.611585  1
