# generated using pymatgen
data_Zr10Sn4BiSb2
_symmetry_space_group_name_H-M   'P 1'
_cell_length_a   5.94018901
_cell_length_b   8.71459076
_cell_length_c   8.70888581
_cell_angle_alpha   119.98946071
_cell_angle_beta   89.95346204
_cell_angle_gamma   89.92783176
_symmetry_Int_Tables_number   1
_chemical_formula_structural   Zr10Sn4BiSb2
_chemical_formula_sum   'Zr10 Sn4 Bi1 Sb2'
_cell_volume   390.46818660
_cell_formula_units_Z   1
loop_
 _symmetry_equiv_pos_site_id
 _symmetry_equiv_pos_as_xyz
  1  'x, y, z'
loop_
 _atom_site_type_symbol
 _atom_site_label
 _atom_site_symmetry_multiplicity
 _atom_site_fract_x
 _atom_site_fract_y
 _atom_site_fract_z
 _atom_site_occupancy
  Zr  Zr0  1  0.498838  0.331986  0.663326  1
  Zr  Zr1  1  0.498763  0.665533  0.335537  1
  Zr  Zr2  1  0.002471  0.666346  0.335994  1
  Zr  Zr3  1  0.002375  0.331589  0.663668  1
  Zr  Zr4  1  0.773786  0.262587  0.000448  1
  Zr  Zr5  1  0.772640  0.735096  0.729971  1
  Zr  Zr6  1  0.772261  0.005567  0.268925  1
  Zr  Zr7  1  0.229266  0.734048  0.000274  1
  Zr  Zr8  1  0.228245  0.267646  0.268253  1
  Zr  Zr9  1  0.225007  0.999650  0.733122  1
  Sn  Sn10  1  0.742573  0.000471  0.610810  1
  Sn  Sn11  1  0.254872  0.386132  0.999160  1
  Sn  Sn12  1  0.255932  0.613659  0.614070  1
  Sn  Sn13  1  0.255343  0.998821  0.388014  1
  Bi  Bi14  1  0.743775  0.611916  0.000219  1
  Sb  Sb15  1  0.746075  0.389465  0.389092  1
  Sb  Sb16  1  0.497777  0.999490  0.999116  1
