# generated using pymatgen
data_SmZnRu2C
_symmetry_space_group_name_H-M   'P 1'
_cell_length_a   5.77221731
_cell_length_b   5.77221684
_cell_length_c   7.47537000
_cell_angle_alpha   90.00000000
_cell_angle_beta   90.00000000
_cell_angle_gamma   139.51973792
_symmetry_Int_Tables_number   1
_chemical_formula_structural   SmZnRu2C
_chemical_formula_sum   'Sm2 Zn2 Ru4 C2'
_cell_volume   161.69149865
_cell_formula_units_Z   2
loop_
 _symmetry_equiv_pos_site_id
 _symmetry_equiv_pos_as_xyz
  1  'x, y, z'
loop_
 _atom_site_type_symbol
 _atom_site_label
 _atom_site_symmetry_multiplicity
 _atom_site_fract_x
 _atom_site_fract_y
 _atom_site_fract_z
 _atom_site_occupancy
  Sm  Sm0  1  0.544060  0.455940  0.250000  1
  Sm  Sm1  1  0.455940  0.544060  0.750000  1
  Zn  Zn2  1  0.268402  0.731598  0.250000  1
  Zn  Zn3  1  0.731598  0.268402  0.750000  1
  Ru  Ru4  1  0.831946  0.168054  0.055487  1
  Ru  Ru5  1  0.168054  0.831946  0.944513  1
  Ru  Ru6  1  0.168054  0.831946  0.555487  1
  Ru  Ru7  1  0.831946  0.168054  0.444513  1
  C  C8  1  0.000000  0.000000  0.000000  1
  C  C9  1  0.000000  0.000000  0.500000  1
