# generated using pymatgen
data_Lu18Sc2CoBi11
_symmetry_space_group_name_H-M   'P 1'
_cell_length_a   8.03430545
_cell_length_b   9.29418900
_cell_length_c   11.86300300
_cell_angle_alpha   90.00000000
_cell_angle_beta   89.67100570
_cell_angle_gamma   90.00000000
_symmetry_Int_Tables_number   1
_chemical_formula_structural   Lu18Sc2CoBi11
_chemical_formula_sum   'Lu18 Sc2 Co1 Bi11'
_cell_volume   885.82374810
_cell_formula_units_Z   1
loop_
 _symmetry_equiv_pos_site_id
 _symmetry_equiv_pos_as_xyz
  1  'x, y, z'
loop_
 _atom_site_type_symbol
 _atom_site_label
 _atom_site_symmetry_multiplicity
 _atom_site_fract_x
 _atom_site_fract_y
 _atom_site_fract_z
 _atom_site_occupancy
  Lu  Lu0  1  0.177989  0.576379  0.445097  1
  Lu  Lu1  1  0.696833  0.931788  0.063992  1
  Lu  Lu2  1  0.819492  0.024047  0.561191  1
  Lu  Lu3  1  0.303542  0.432731  0.941963  1
  Lu  Lu4  1  0.819492  0.475953  0.561191  1
  Lu  Lu5  1  0.303542  0.067269  0.941963  1
  Lu  Lu6  1  0.177989  0.923621  0.445097  1
  Lu  Lu7  1  0.696833  0.568212  0.063992  1
  Lu  Lu8  1  0.551738  0.750000  0.506800  1
  Lu  Lu9  1  0.488876  0.250000  0.493827  1
  Lu  Lu10  1  0.133082  0.750000  0.697313  1
  Lu  Lu11  1  0.700104  0.750000  0.778394  1
  Lu  Lu12  1  0.818892  0.250000  0.278055  1
  Lu  Lu13  1  0.309687  0.250000  0.215077  1
  Lu  Lu14  1  0.858692  0.750000  0.307939  1
  Lu  Lu15  1  0.347591  0.750000  0.214467  1
  Lu  Lu16  1  0.153863  0.250000  0.718271  1
  Lu  Lu17  1  0.645445  0.250000  0.779214  1
  Sc  Sc18  1  0.026423  0.750000  0.989714  1
  Sc  Sc19  1  0.978239  0.250000  0.012666  1
  Co  Co20  1  0.917356  0.750000  0.526519  1
  Bi  Bi21  1  0.934150  0.492032  0.833659  1
  Bi  Bi22  1  0.429645  0.996513  0.675395  1
  Bi  Bi23  1  0.063410  0.994052  0.171206  1
  Bi  Bi24  1  0.559202  0.499113  0.322139  1
  Bi  Bi25  1  0.063410  0.505948  0.171206  1
  Bi  Bi26  1  0.559202  0.000887  0.322139  1
  Bi  Bi27  1  0.934150  0.007968  0.833659  1
  Bi  Bi28  1  0.429645  0.503487  0.675395  1
  Bi  Bi29  1  0.404763  0.750000  0.953199  1
  Bi  Bi30  1  0.095786  0.250000  0.458735  1
  Bi  Bi31  1  0.600936  0.250000  0.040528  1
