# generated using pymatgen
data_Mn2Nb4CrOs5
_symmetry_space_group_name_H-M   'P 1'
_cell_length_a   5.06759000
_cell_length_b   4.99381685
_cell_length_c   8.34023900
_cell_angle_alpha   90.00000000
_cell_angle_beta   90.00000000
_cell_angle_gamma   120.48989870
_symmetry_Int_Tables_number   1
_chemical_formula_structural   Mn2Nb4CrOs5
_chemical_formula_sum   'Mn2 Nb4 Cr1 Os5'
_cell_volume   181.87711548
_cell_formula_units_Z   1
loop_
 _symmetry_equiv_pos_site_id
 _symmetry_equiv_pos_as_xyz
  1  'x, y, z'
loop_
 _atom_site_type_symbol
 _atom_site_label
 _atom_site_symmetry_multiplicity
 _atom_site_fract_x
 _atom_site_fract_y
 _atom_site_fract_z
 _atom_site_occupancy
  Mn  Mn0  1  0.646049  0.833624  0.750000  1
  Mn  Mn1  1  0.187575  0.833624  0.750000  1
  Nb  Nb2  1  0.333730  0.667461  0.435398  1
  Nb  Nb3  1  0.668979  0.337957  0.930399  1
  Nb  Nb4  1  0.668979  0.337957  0.569601  1
  Nb  Nb5  1  0.333730  0.667461  0.064602  1
  Cr  Cr6  1  0.827343  0.654684  0.250000  1
  Os  Os7  1  0.176636  0.353272  0.750000  1
  Os  Os8  1  0.833058  0.177805  0.250000  1
  Os  Os9  1  0.344746  0.177805  0.250000  1
  Os  Os10  1  0.989587  0.979174  0.992915  1
  Os  Os11  1  0.989587  0.979174  0.507085  1
