# generated using pymatgen
data_Tb7YRe(B8Os)3
_symmetry_space_group_name_H-M   'P 1'
_cell_length_a   3.68064200
_cell_length_b   9.19133966
_cell_length_c   11.57530306
_cell_angle_alpha   89.90292408
_cell_angle_beta   90.00000000
_cell_angle_gamma   90.00000000
_symmetry_Int_Tables_number   1
_chemical_formula_structural   Tb7YRe(B8Os)3
_chemical_formula_sum   'Tb7 Y1 Re1 B24 Os3'
_cell_volume   391.59229700
_cell_formula_units_Z   1
loop_
 _symmetry_equiv_pos_site_id
 _symmetry_equiv_pos_as_xyz
  1  'x, y, z'
loop_
 _atom_site_type_symbol
 _atom_site_label
 _atom_site_symmetry_multiplicity
 _atom_site_fract_x
 _atom_site_fract_y
 _atom_site_fract_z
 _atom_site_occupancy
  Tb  Tb0  1  0.000000  0.822901  0.085253  1
  Tb  Tb1  1  0.000000  0.179609  0.911785  1
  Tb  Tb2  1  0.000000  0.322921  0.416201  1
  Tb  Tb3  1  0.000000  0.676232  0.586939  1
  Tb  Tb4  1  0.000000  0.442882  0.128183  1
  Tb  Tb5  1  0.000000  0.556377  0.872268  1
  Tb  Tb6  1  0.000000  0.942577  0.372228  1
  Y  Y7  1  0.000000  0.056840  0.626996  1
  Re  Re8  1  0.000000  0.362714  0.678218  1
  B  B9  1  0.500000  0.053692  0.067173  1
  B  B10  1  0.500000  0.946485  0.932460  1
  B  B11  1  0.500000  0.553442  0.432322  1
  B  B12  1  0.500000  0.447159  0.567222  1
  B  B13  1  0.500000  0.247286  0.080854  1
  B  B14  1  0.500000  0.752859  0.919319  1
  B  B15  1  0.500000  0.747049  0.418993  1
  B  B16  1  0.500000  0.252430  0.580880  1
  B  B17  1  0.500000  0.289332  0.233370  1
  B  B18  1  0.500000  0.710244  0.767354  1
  B  B19  1  0.500000  0.789833  0.266548  1
  B  B20  1  0.500000  0.209269  0.733488  1
  B  B21  1  0.500000  0.131052  0.313912  1
  B  B22  1  0.500000  0.868576  0.686314  1
  B  B23  1  0.500000  0.631737  0.185874  1
  B  B24  1  0.500000  0.368488  0.813793  1
  B  B25  1  0.500000  0.483869  0.287450  1
  B  B26  1  0.500000  0.517187  0.712621  1
  B  B27  1  0.500000  0.983505  0.212057  1
  B  B28  1  0.500000  0.016705  0.787224  1
  B  B29  1  0.500000  0.107006  0.469784  1
  B  B30  1  0.500000  0.891621  0.530052  1
  B  B31  1  0.500000  0.608600  0.030578  1
  B  B32  1  0.500000  0.391965  0.970483  1
  Os  Os33  1  0.000000  0.136948  0.178255  1
  Os  Os34  1  0.000000  0.863236  0.822238  1
  Os  Os35  1  0.000000  0.637370  0.321310  1
