# generated using pymatgen
data_DyEr7B24MoOs3
_symmetry_space_group_name_H-M   'P 1'
_cell_length_a   3.63746600
_cell_length_b   9.13945902
_cell_length_c   11.52327100
_cell_angle_alpha   89.90751021
_cell_angle_beta   90.00000000
_cell_angle_gamma   90.00000000
_symmetry_Int_Tables_number   1
_chemical_formula_structural   DyEr7B24MoOs3
_chemical_formula_sum   'Dy1 Er7 B24 Mo1 Os3'
_cell_volume   383.08455440
_cell_formula_units_Z   1
loop_
 _symmetry_equiv_pos_site_id
 _symmetry_equiv_pos_as_xyz
  1  'x, y, z'
loop_
 _atom_site_type_symbol
 _atom_site_label
 _atom_site_symmetry_multiplicity
 _atom_site_fract_x
 _atom_site_fract_y
 _atom_site_fract_z
 _atom_site_occupancy
  Dy  Dy0  1  0.000000  0.322099  0.413194  1
  Er  Er1  1  0.000000  0.677326  0.584815  1
  Er  Er2  1  0.000000  0.820491  0.087342  1
  Er  Er3  1  0.000000  0.177569  0.914600  1
  Er  Er4  1  0.000000  0.944891  0.372779  1
  Er  Er5  1  0.000000  0.057348  0.628491  1
  Er  Er6  1  0.000000  0.443420  0.126709  1
  Er  Er7  1  0.000000  0.556890  0.871483  1
  B  B8  1  0.500000  0.551522  0.435623  1
  B  B9  1  0.500000  0.446428  0.568164  1
  B  B10  1  0.500000  0.053285  0.066714  1
  B  B11  1  0.500000  0.946433  0.933323  1
  B  B12  1  0.500000  0.750810  0.421860  1
  B  B13  1  0.500000  0.251913  0.581460  1
  B  B14  1  0.500000  0.248339  0.080027  1
  B  B15  1  0.500000  0.751431  0.919151  1
  B  B16  1  0.500000  0.794504  0.264566  1
  B  B17  1  0.500000  0.208484  0.734614  1
  B  B18  1  0.500000  0.290838  0.232570  1
  B  B19  1  0.500000  0.709160  0.765897  1
  B  B20  1  0.500000  0.631989  0.183060  1
  B  B21  1  0.500000  0.368120  0.815069  1
  B  B22  1  0.500000  0.131106  0.313556  1
  B  B23  1  0.500000  0.869239  0.685683  1
  B  B24  1  0.500000  0.982939  0.212571  1
  B  B25  1  0.500000  0.017413  0.788131  1
  B  B26  1  0.500000  0.478877  0.286262  1
  B  B27  1  0.500000  0.516756  0.713097  1
  B  B28  1  0.500000  0.605851  0.027906  1
  B  B29  1  0.500000  0.393674  0.969813  1
  B  B30  1  0.500000  0.105998  0.471238  1
  B  B31  1  0.500000  0.896032  0.530311  1
  Mo  Mo32  1  0.000000  0.637886  0.321227  1
  Os  Os33  1  0.000000  0.361028  0.680543  1
  Os  Os34  1  0.000000  0.137405  0.176927  1
  Os  Os35  1  0.000000  0.862507  0.821225  1
