# generated using pymatgen
data_Ti8Mn2Al15Ir3Pd2
_symmetry_space_group_name_H-M   'P 1'
_cell_length_a   8.65820178
_cell_length_b   8.64052729
_cell_length_c   8.65818825
_cell_angle_alpha   120.67139497
_cell_angle_beta   119.95511900
_cell_angle_gamma   89.51815397
_symmetry_Int_Tables_number   1
_chemical_formula_structural   Ti8Mn2Al15Ir3Pd2
_chemical_formula_sum   'Ti8 Mn2 Al15 Ir3 Pd2'
_cell_volume   455.57009201
_cell_formula_units_Z   1
loop_
 _symmetry_equiv_pos_site_id
 _symmetry_equiv_pos_as_xyz
  1  'x, y, z'
loop_
 _atom_site_type_symbol
 _atom_site_label
 _atom_site_symmetry_multiplicity
 _atom_site_fract_x
 _atom_site_fract_y
 _atom_site_fract_z
 _atom_site_occupancy
  Ti  Ti0  1  0.795085  0.282602  0.068810  1
  Ti  Ti1  1  0.213800  0.282597  0.487507  1
  Ti  Ti2  1  0.209927  0.707144  0.497239  1
  Ti  Ti3  1  0.208620  0.722924  0.928809  1
  Ti  Ti4  1  0.794109  0.722912  0.514279  1
  Ti  Ti5  1  0.782753  0.287233  0.504492  1
  Ti  Ti6  1  0.387268  0.121676  0.734448  1
  Ti  Ti7  1  0.381233  0.644554  0.263368  1
  Mn  Mn8  1  0.000826  0.999454  0.998822  1
  Mn  Mn9  1  0.495333  0.996947  0.501424  1
  Al  Al10  1  0.996794  0.496021  0.499201  1
  Al  Al11  1  0.156392  0.337495  0.181095  1
  Al  Al12  1  0.157166  0.974190  0.817008  1
  Al  Al13  1  0.153449  0.348801  0.804663  1
  Al  Al14  1  0.544152  0.348815  0.195364  1
  Al  Al15  1  0.843987  0.660982  0.816983  1
  Al  Al16  1  0.847552  0.034026  0.186469  1
  Al  Al17  1  0.843191  0.650549  0.190504  1
  Al  Al18  1  0.460052  0.650553  0.807362  1
  Al  Al19  1  0.380774  0.121062  0.265098  1
  Al  Al20  1  0.855919  0.121022  0.740268  1
  Al  Al21  1  0.615314  0.878691  0.263380  1
  Al  Al22  1  0.619100  0.357737  0.738629  1
  Al  Al23  1  0.620365  0.878482  0.736976  1
  Al  Al24  1  0.141456  0.878443  0.258099  1
  Ir  Ir25  1  0.498692  0.499057  0.000362  1
  Ir  Ir26  1  0.499142  0.498853  0.499135  1
  Ir  Ir27  1  0.999694  0.498811  0.999674  1
  Pd  Pd28  1  0.996306  0.999180  0.497648  1
  Pd  Pd29  1  0.501545  0.999189  0.002880  1
