# generated using pymatgen
data_Ho2Er14In4Ni3Ir
_symmetry_space_group_name_H-M   'P 1'
_cell_length_a   9.52762918
_cell_length_b   9.51872688
_cell_length_c   9.51814500
_cell_angle_alpha   60.00202563
_cell_angle_beta   60.03292688
_cell_angle_gamma   60.11541376
_symmetry_Int_Tables_number   1
_chemical_formula_structural   Ho2Er14In4Ni3Ir
_chemical_formula_sum   'Ho2 Er14 In4 Ni3 Ir1'
_cell_volume   611.07316917
_cell_formula_units_Z   1
loop_
 _symmetry_equiv_pos_site_id
 _symmetry_equiv_pos_as_xyz
  1  'x, y, z'
loop_
 _atom_site_type_symbol
 _atom_site_label
 _atom_site_symmetry_multiplicity
 _atom_site_fract_x
 _atom_site_fract_y
 _atom_site_fract_z
 _atom_site_occupancy
  Ho  Ho0  1  0.061990  0.062669  0.437670  1
  Ho  Ho1  1  0.652073  0.045554  0.651186  1
  Er  Er2  1  0.188730  0.809643  0.189323  1
  Er  Er3  1  0.437785  0.062960  0.437398  1
  Er  Er4  1  0.190595  0.188284  0.810560  1
  Er  Er5  1  0.650761  0.654017  0.650300  1
  Er  Er6  1  0.047679  0.653024  0.649648  1
  Er  Er7  1  0.437785  0.062960  0.061857  1
  Er  Er8  1  0.650761  0.654017  0.044921  1
  Er  Er9  1  0.188730  0.809643  0.812305  1
  Er  Er10  1  0.810062  0.187309  0.811678  1
  Er  Er11  1  0.810062  0.187309  0.190949  1
  Er  Er12  1  0.811248  0.810712  0.189021  1
  Er  Er13  1  0.060785  0.437257  0.441313  1
  Er  Er14  1  0.440396  0.436188  0.061708  1
  Er  Er15  1  0.060785  0.437257  0.060646  1
  In  In16  1  0.747688  0.417358  0.417477  1
  In  In17  1  0.417021  0.416916  0.748926  1
  In  In18  1  0.417566  0.748170  0.417132  1
  In  In19  1  0.417021  0.416916  0.417137  1
  Ni  Ni20  1  0.858473  0.858171  0.857343  1
  Ni  Ni21  1  0.424900  0.858619  0.858241  1
  Ni  Ni22  1  0.858473  0.858171  0.426013  1
  Ir  Ir23  1  0.858629  0.426873  0.857249  1
