# generated using pymatgen
data_La4Nd3Th(ZnRh)8
_symmetry_space_group_name_H-M   'P 1'
_cell_length_a   3.98815800
_cell_length_b   7.50301950
_cell_length_c   16.67742356
_cell_angle_alpha   90.04364707
_cell_angle_beta   90.00000000
_cell_angle_gamma   90.00000000
_symmetry_Int_Tables_number   1
_chemical_formula_structural   La4Nd3Th(ZnRh)8
_chemical_formula_sum   'La4 Nd3 Th1 Zn8 Rh8'
_cell_volume   499.04219025
_cell_formula_units_Z   1
loop_
 _symmetry_equiv_pos_site_id
 _symmetry_equiv_pos_as_xyz
  1  'x, y, z'
loop_
 _atom_site_type_symbol
 _atom_site_label
 _atom_site_symmetry_multiplicity
 _atom_site_fract_x
 _atom_site_fract_y
 _atom_site_fract_z
 _atom_site_occupancy
  La  La0  1  0.250000  0.173195  0.938389  1
  La  La1  1  0.750000  0.325865  0.438774  1
  La  La2  1  0.750000  0.947162  0.283656  1
  La  La3  1  0.750000  0.828562  0.060216  1
  Nd  Nd4  1  0.750000  0.447970  0.214983  1
  Nd  Nd5  1  0.250000  0.053850  0.714863  1
  Nd  Nd6  1  0.250000  0.549925  0.785200  1
  Th  Th7  1  0.250000  0.671923  0.561312  1
  Zn  Zn8  1  0.750000  0.008129  0.561240  1
  Zn  Zn9  1  0.250000  0.617521  0.347581  1
  Zn  Zn10  1  0.750000  0.379792  0.654215  1
  Zn  Zn11  1  0.250000  0.498216  0.059858  1
  Zn  Zn12  1  0.750000  0.504849  0.939699  1
  Zn  Zn13  1  0.250000  0.996296  0.442189  1
  Zn  Zn14  1  0.250000  0.127479  0.150687  1
  Zn  Zn15  1  0.750000  0.877917  0.845831  1
  Rh  Rh16  1  0.750000  0.745546  0.441684  1
  Rh  Rh17  1  0.250000  0.236886  0.314820  1
  Rh  Rh18  1  0.750000  0.254337  0.814609  1
  Rh  Rh19  1  0.750000  0.750465  0.678834  1
  Rh  Rh20  1  0.250000  0.256318  0.564958  1
  Rh  Rh21  1  0.250000  0.744121  0.187679  1
  Rh  Rh22  1  0.750000  0.256930  0.064251  1
  Rh  Rh23  1  0.250000  0.746746  0.934472  1
