# generated using pymatgen
data_Nd5Tc3(P3Ir4)4
_symmetry_space_group_name_H-M   'P 1'
_cell_length_a   12.74989900
_cell_length_b   12.74990061
_cell_length_c   4.02415700
_cell_angle_alpha   90.00000000
_cell_angle_beta   90.00000000
_cell_angle_gamma   119.99999842
_symmetry_Int_Tables_number   1
_chemical_formula_structural   Nd5Tc3(P3Ir4)4
_chemical_formula_sum   'Nd5 Tc3 P12 Ir16'
_cell_volume   566.52502482
_cell_formula_units_Z   1
loop_
 _symmetry_equiv_pos_site_id
 _symmetry_equiv_pos_as_xyz
  1  'x, y, z'
loop_
 _atom_site_type_symbol
 _atom_site_label
 _atom_site_symmetry_multiplicity
 _atom_site_fract_x
 _atom_site_fract_y
 _atom_site_fract_z
 _atom_site_occupancy
  Nd  Nd0  1  0.333333  0.666667  0.500000  1
  Nd  Nd1  1  0.666667  0.333333  0.500000  1
  Nd  Nd2  1  0.000000  0.814497  0.000000  1
  Nd  Nd3  1  0.185503  0.185503  0.000000  1
  Nd  Nd4  1  0.814497  0.000000  0.000000  1
  Tc  Tc5  1  0.000000  0.454954  0.500000  1
  Tc  Tc6  1  0.545046  0.545046  0.500000  1
  Tc  Tc7  1  0.454954  0.000000  0.500000  1
  P  P8  1  0.000000  0.636492  0.500000  1
  P  P9  1  0.363508  0.363508  0.500000  1
  P  P10  1  0.636492  0.000000  0.500000  1
  P  P11  1  0.516771  0.685628  0.000000  1
  P  P12  1  0.314372  0.831143  0.000000  1
  P  P13  1  0.168857  0.483229  0.000000  1
  P  P14  1  0.483229  0.168857  0.000000  1
  P  P15  1  0.685628  0.516771  0.000000  1
  P  P16  1  0.831143  0.314372  0.000000  1
  P  P17  1  0.000000  0.178315  0.500000  1
  P  P18  1  0.821685  0.821685  0.500000  1
  P  P19  1  0.178315  0.000000  0.500000  1
  Ir  Ir20  1  0.511287  0.870623  0.000000  1
  Ir  Ir21  1  0.129377  0.640665  0.000000  1
  Ir  Ir22  1  0.359335  0.488713  0.000000  1
  Ir  Ir23  1  0.488713  0.359335  0.000000  1
  Ir  Ir24  1  0.870623  0.511287  0.000000  1
  Ir  Ir25  1  0.640665  0.129377  0.000000  1
  Ir  Ir26  1  0.000000  0.290619  0.000000  1
  Ir  Ir27  1  0.709381  0.709381  0.000000  1
  Ir  Ir28  1  0.290619  0.000000  0.000000  1
  Ir  Ir29  1  0.623910  0.802591  0.500000  1
  Ir  Ir30  1  0.197409  0.821320  0.500000  1
  Ir  Ir31  1  0.178680  0.376090  0.500000  1
  Ir  Ir32  1  0.376090  0.178680  0.500000  1
  Ir  Ir33  1  0.802591  0.623910  0.500000  1
  Ir  Ir34  1  0.821320  0.197409  0.500000  1
  Ir  Ir35  1  0.000000  0.000000  0.500000  1
