# generated using pymatgen
data_HfU(SbO5)2
_symmetry_space_group_name_H-M   'P 1'
_cell_length_a   5.43129426
_cell_length_b   5.43129440
_cell_length_c   7.46855301
_cell_angle_alpha   69.99382648
_cell_angle_beta   69.99382700
_cell_angle_gamma   72.67652642
_symmetry_Int_Tables_number   1
_chemical_formula_structural   HfU(SbO5)2
_chemical_formula_sum   'Hf1 U1 Sb2 O10'
_cell_volume   190.40919456
_cell_formula_units_Z   1
loop_
 _symmetry_equiv_pos_site_id
 _symmetry_equiv_pos_as_xyz
  1  'x, y, z'
loop_
 _atom_site_type_symbol
 _atom_site_label
 _atom_site_symmetry_multiplicity
 _atom_site_fract_x
 _atom_site_fract_y
 _atom_site_fract_z
 _atom_site_occupancy
  Hf  Hf0  1  0.463308  0.536692  0.750000  1
  U  U1  1  0.531251  0.468749  0.250000  1
  Sb  Sb2  1  0.007687  0.014674  0.990113  1
  Sb  Sb3  1  0.985326  0.992313  0.509887  1
  O  O4  1  0.228478  0.274440  0.867356  1
  O  O5  1  0.769526  0.722374  0.127429  1
  O  O6  1  0.725560  0.771522  0.632644  1
  O  O7  1  0.277626  0.230474  0.372571  1
  O  O8  1  0.113707  0.886293  0.750000  1
  O  O9  1  0.903749  0.096251  0.250000  1
  O  O10  1  0.678653  0.293136  0.966074  1
  O  O11  1  0.307522  0.699256  0.039315  1
  O  O12  1  0.300744  0.692478  0.460685  1
  O  O13  1  0.706864  0.321347  0.533926  1
