# generated using pymatgen
data_DyMg3Ge6Ir7
_symmetry_space_group_name_H-M   'P 1'
_cell_length_a   7.16566079
_cell_length_b   7.16566041
_cell_length_c   7.16566011
_cell_angle_alpha   109.93809053
_cell_angle_beta   109.93808498
_cell_angle_gamma   109.93808199
_symmetry_Int_Tables_number   1
_chemical_formula_structural   DyMg3Ge6Ir7
_chemical_formula_sum   'Dy1 Mg3 Ge6 Ir7'
_cell_volume   278.23151184
_cell_formula_units_Z   1
loop_
 _symmetry_equiv_pos_site_id
 _symmetry_equiv_pos_as_xyz
  1  'x, y, z'
loop_
 _atom_site_type_symbol
 _atom_site_label
 _atom_site_symmetry_multiplicity
 _atom_site_fract_x
 _atom_site_fract_y
 _atom_site_fract_z
 _atom_site_occupancy
  Dy  Dy0  1  0.500000  0.500000  0.500000  1
  Mg  Mg1  1  0.000000  0.000000  0.500000  1
  Mg  Mg2  1  0.000000  0.500000  0.000000  1
  Mg  Mg3  1  0.500000  0.000000  0.000000  1
  Ge  Ge4  1  0.693107  0.693107  0.007721  1
  Ge  Ge5  1  0.306893  0.992279  0.306893  1
  Ge  Ge6  1  0.992279  0.306893  0.306893  1
  Ge  Ge7  1  0.306893  0.306893  0.992279  1
  Ge  Ge8  1  0.693107  0.007721  0.693107  1
  Ge  Ge9  1  0.007721  0.693107  0.693107  1
  Ir  Ir10  1  0.754090  0.245910  0.500000  1
  Ir  Ir11  1  0.754090  0.500000  0.245910  1
  Ir  Ir12  1  0.500000  0.245910  0.754090  1
  Ir  Ir13  1  0.245910  0.500000  0.754090  1
  Ir  Ir14  1  0.245910  0.754090  0.500000  1
  Ir  Ir15  1  0.500000  0.754090  0.245910  1
  Ir  Ir16  1  0.000000  0.000000  0.000000  1
