# generated using pymatgen
data_LiTm6Co2(P4Rh5)3
_symmetry_space_group_name_H-M   'P 1'
_cell_length_a   3.85350900
_cell_length_b   11.11368000
_cell_length_c   12.72968300
_cell_angle_alpha   90.00000000
_cell_angle_beta   90.00000000
_cell_angle_gamma   90.00000000
_symmetry_Int_Tables_number   1
_chemical_formula_structural   LiTm6Co2(P4Rh5)3
_chemical_formula_sum   'Li1 Tm6 Co2 P12 Rh15'
_cell_volume   545.16988089
_cell_formula_units_Z   1
loop_
 _symmetry_equiv_pos_site_id
 _symmetry_equiv_pos_as_xyz
  1  'x, y, z'
loop_
 _atom_site_type_symbol
 _atom_site_label
 _atom_site_symmetry_multiplicity
 _atom_site_fract_x
 _atom_site_fract_y
 _atom_site_fract_z
 _atom_site_occupancy
  Li  Li0  1  0.500000  0.500000  0.158368  1
  Tm  Tm1  1  0.000000  0.500000  0.518155  1
  Tm  Tm2  1  0.500000  0.000000  0.477729  1
  Tm  Tm3  1  0.500000  0.815478  0.202178  1
  Tm  Tm4  1  0.500000  0.184522  0.202178  1
  Tm  Tm5  1  0.000000  0.682481  0.798297  1
  Tm  Tm6  1  0.000000  0.317519  0.798297  1
  Co  Co7  1  0.000000  0.500000  0.983068  1
  Co  Co8  1  0.500000  0.000000  0.019192  1
  P  P9  1  0.500000  0.500000  0.883283  1
  P  P10  1  0.000000  0.000000  0.118684  1
  P  P11  1  0.500000  0.500000  0.349689  1
  P  P12  1  0.000000  0.000000  0.647681  1
  P  P13  1  0.500000  0.316142  0.620011  1
  P  P14  1  0.500000  0.683858  0.620011  1
  P  P15  1  0.000000  0.185976  0.380193  1
  P  P16  1  0.000000  0.814024  0.380193  1
  P  P17  1  0.500000  0.852284  0.894688  1
  P  P18  1  0.500000  0.147716  0.894688  1
  P  P19  1  0.000000  0.651519  0.104733  1
  P  P20  1  0.000000  0.348481  0.104733  1
  Rh  Rh21  1  0.000000  0.000000  0.832098  1
  Rh  Rh22  1  0.500000  0.500000  0.703556  1
  Rh  Rh23  1  0.000000  0.000000  0.297366  1
  Rh  Rh24  1  0.500000  0.334225  0.994483  1
  Rh  Rh25  1  0.500000  0.665775  0.994483  1
  Rh  Rh26  1  0.000000  0.162911  0.006215  1
  Rh  Rh27  1  0.000000  0.837089  0.006215  1
  Rh  Rh28  1  0.500000  0.292497  0.433217  1
  Rh  Rh29  1  0.500000  0.707503  0.433217  1
  Rh  Rh30  1  0.000000  0.203680  0.571272  1
  Rh  Rh31  1  0.000000  0.796320  0.571272  1
  Rh  Rh32  1  0.500000  0.873473  0.712482  1
  Rh  Rh33  1  0.500000  0.126527  0.712482  1
  Rh  Rh34  1  0.000000  0.626321  0.287796  1
  Rh  Rh35  1  0.000000  0.373679  0.287796  1
