# generated using pymatgen
data_Ti6Al6Ru7Rh5
_symmetry_space_group_name_H-M   'P 1'
_cell_length_a   4.31906700
_cell_length_b   6.10621538
_cell_length_c   12.90926281
_cell_angle_alpha   89.95939327
_cell_angle_beta   90.00108540
_cell_angle_gamma   90.00013220
_symmetry_Int_Tables_number   1
_chemical_formula_structural   Ti6Al6Ru7Rh5
_chemical_formula_sum   'Ti6 Al6 Ru7 Rh5'
_cell_volume   340.45788230
_cell_formula_units_Z   1
loop_
 _symmetry_equiv_pos_site_id
 _symmetry_equiv_pos_as_xyz
  1  'x, y, z'
loop_
 _atom_site_type_symbol
 _atom_site_label
 _atom_site_symmetry_multiplicity
 _atom_site_fract_x
 _atom_site_fract_y
 _atom_site_fract_z
 _atom_site_occupancy
  Ti  Ti0  1  0.000008  0.499949  0.994533  1
  Ti  Ti1  1  0.499832  0.997257  0.169047  1
  Ti  Ti2  1  0.999837  0.504785  0.338835  1
  Ti  Ti3  1  0.500004  0.997801  0.503136  1
  Ti  Ti4  1  0.000157  0.499962  0.666239  1
  Ti  Ti5  1  0.500169  0.000179  0.828119  1
  Al  Al6  1  0.999999  0.999970  0.998066  1
  Al  Al7  1  0.499816  0.500505  0.167547  1
  Al  Al8  1  0.999825  0.998595  0.335586  1
  Al  Al9  1  0.499995  0.501099  0.501462  1
  Al  Al10  1  0.000169  0.999937  0.666468  1
  Al  Al11  1  0.500183  0.499872  0.830837  1
  Ru  Ru12  1  0.499820  0.749924  0.330249  1
  Ru  Ru13  1  0.000001  0.250921  0.498147  1
  Ru  Ru14  1  0.999992  0.749410  0.498325  1
  Ru  Ru15  1  0.500138  0.249117  0.666932  1
  Ru  Ru16  1  0.500155  0.750948  0.667264  1
  Ru  Ru17  1  0.000176  0.250649  0.836145  1
  Ru  Ru18  1  0.000166  0.749281  0.836266  1
  Rh  Rh19  1  0.500008  0.251364  0.002283  1
  Rh  Rh20  1  0.500005  0.748907  0.002110  1
  Rh  Rh21  1  0.999850  0.248008  0.166079  1
  Rh  Rh22  1  0.999842  0.751678  0.165455  1
  Rh  Rh23  1  0.499852  0.249879  0.330868  1
