# generated using pymatgen
data_Y12IrOs2Ru
_symmetry_space_group_name_H-M   'P 1'
_cell_length_a   6.41012108
_cell_length_b   7.37436225
_cell_length_c   9.15083300
_cell_angle_alpha   90.00000000
_cell_angle_beta   90.00000000
_cell_angle_gamma   90.13329382
_symmetry_Int_Tables_number   1
_chemical_formula_structural   Y12IrOs2Ru
_chemical_formula_sum   'Y12 Ir1 Os2 Ru1'
_cell_volume   432.56378309
_cell_formula_units_Z   1
loop_
 _symmetry_equiv_pos_site_id
 _symmetry_equiv_pos_as_xyz
  1  'x, y, z'
loop_
 _atom_site_type_symbol
 _atom_site_label
 _atom_site_symmetry_multiplicity
 _atom_site_fract_x
 _atom_site_fract_y
 _atom_site_fract_z
 _atom_site_occupancy
  Y  Y0  1  0.634201  0.040277  0.250000  1
  Y  Y1  1  0.369061  0.960097  0.750000  1
  Y  Y2  1  0.130284  0.460824  0.750000  1
  Y  Y3  1  0.868379  0.541588  0.250000  1
  Y  Y4  1  0.172956  0.175485  0.065593  1
  Y  Y5  1  0.827202  0.822984  0.936112  1
  Y  Y6  1  0.669201  0.326088  0.936949  1
  Y  Y7  1  0.827202  0.822984  0.563888  1
  Y  Y8  1  0.330401  0.674194  0.063152  1
  Y  Y9  1  0.172956  0.175485  0.434407  1
  Y  Y10  1  0.330401  0.674194  0.436848  1
  Y  Y11  1  0.669201  0.326088  0.563051  1
  Ir  Ir12  1  0.960111  0.115499  0.750000  1
  Os  Os13  1  0.464199  0.382915  0.250000  1
  Os  Os14  1  0.537732  0.616294  0.750000  1
  Ru  Ru15  1  0.036512  0.885003  0.250000  1
