# generated using pymatgen
data_Sc4Ti2CoB4Ir9
_symmetry_space_group_name_H-M   'P 1'
_cell_length_a   9.32501465
_cell_length_b   9.32501465
_cell_length_c   3.11635900
_cell_angle_alpha   90.00000000
_cell_angle_beta   90.00000000
_cell_angle_gamma   89.53234299
_symmetry_Int_Tables_number   1
_chemical_formula_structural   Sc4Ti2CoB4Ir9
_chemical_formula_sum   'Sc4 Ti2 Co1 B4 Ir9'
_cell_volume   270.97676972
_cell_formula_units_Z   1
loop_
 _symmetry_equiv_pos_site_id
 _symmetry_equiv_pos_as_xyz
  1  'x, y, z'
loop_
 _atom_site_type_symbol
 _atom_site_label
 _atom_site_symmetry_multiplicity
 _atom_site_fract_x
 _atom_site_fract_y
 _atom_site_fract_z
 _atom_site_occupancy
  Sc  Sc0  1  0.671794  0.171794  0.000000  1
  Sc  Sc1  1  0.179495  0.320505  0.000000  1
  Sc  Sc2  1  0.820505  0.679495  0.000000  1
  Sc  Sc3  1  0.328206  0.828206  0.000000  1
  Ti  Ti4  1  0.000000  0.000000  0.000000  1
  Ti  Ti5  1  0.500000  0.500000  0.000000  1
  Co  Co6  1  0.500000  0.000000  0.500000  1
  B  B7  1  0.392593  0.107407  0.000000  1
  B  B8  1  0.878190  0.378190  0.000000  1
  B  B9  1  0.121810  0.621810  0.000000  1
  B  B10  1  0.607407  0.892593  0.000000  1
  Ir  Ir11  1  0.223738  0.066807  0.500000  1
  Ir  Ir12  1  0.929951  0.216460  0.500000  1
  Ir  Ir13  1  0.433192  0.276262  0.500000  1
  Ir  Ir14  1  0.716460  0.429950  0.500000  1
  Ir  Ir15  1  0.000000  0.500000  0.500000  1
  Ir  Ir16  1  0.283540  0.570050  0.500000  1
  Ir  Ir17  1  0.566808  0.723738  0.500000  1
  Ir  Ir18  1  0.070049  0.783540  0.500000  1
  Ir  Ir19  1  0.776262  0.933193  0.500000  1
