# generated using pymatgen
data_Tb3TmAl24Pt8Au
_symmetry_space_group_name_H-M   'P 1'
_cell_length_a   7.55200006
_cell_length_b   7.57193394
_cell_length_c   13.17230329
_cell_angle_alpha   84.54912384
_cell_angle_beta   79.01616838
_cell_angle_gamma   59.89501520
_symmetry_Int_Tables_number   1
_chemical_formula_structural   Tb3TmAl24Pt8Au
_chemical_formula_sum   'Tb3 Tm1 Al24 Pt8 Au1'
_cell_volume   639.69215414
_cell_formula_units_Z   1
loop_
 _symmetry_equiv_pos_site_id
 _symmetry_equiv_pos_as_xyz
  1  'x, y, z'
loop_
 _atom_site_type_symbol
 _atom_site_label
 _atom_site_symmetry_multiplicity
 _atom_site_fract_x
 _atom_site_fract_y
 _atom_site_fract_z
 _atom_site_occupancy
  Tb  Tb0  1  0.392629  0.169308  0.809109  1
  Tb  Tb1  1  0.606186  0.831811  0.192037  1
  Tb  Tb2  1  0.734054  0.498867  0.808968  1
  Tm  Tm3  1  0.266461  0.501084  0.192237  1
  Al  Al4  1  0.683459  0.834128  0.945569  1
  Al  Al5  1  0.315354  0.166985  0.056338  1
  Al  Al6  1  0.146835  0.839116  0.559828  1
  Al  Al7  1  0.854349  0.167253  0.436320  1
  Al  Al8  1  0.488556  0.159414  0.557268  1
  Al  Al9  1  0.520035  0.833674  0.439888  1
  Al  Al10  1  0.217581  0.165911  0.328305  1
  Al  Al11  1  0.777856  0.838995  0.673305  1
  Al  Al12  1  0.439924  0.507331  0.673508  1
  Al  Al13  1  0.562901  0.493196  0.327916  1
  Al  Al14  1  0.108843  0.153986  0.672127  1
  Al  Al15  1  0.891174  0.839712  0.329328  1
  Al  Al16  1  0.352644  0.499414  0.945963  1
  Al  Al17  1  0.646440  0.500391  0.056395  1
  Al  Al18  1  0.015193  0.167357  0.954177  1
  Al  Al19  1  0.984925  0.831794  0.047846  1
  Al  Al20  1  0.188126  0.499710  0.436310  1
  Al  Al21  1  0.806771  0.499937  0.557151  1
  Al  Al22  1  0.733531  0.164867  0.183381  1
  Al  Al23  1  0.266533  0.835344  0.816848  1
  Al  Al24  1  0.060538  0.633833  0.818118  1
  Al  Al25  1  0.939419  0.368463  0.184705  1
  Al  Al26  1  0.854537  0.041809  0.816257  1
  Al  Al27  1  0.144364  0.957578  0.183789  1
  Pt  Pt28  1  0.879991  0.508677  0.360912  1
  Pt  Pt29  1  0.657282  0.171465  0.999521  1
  Pt  Pt30  1  0.342904  0.828418  0.999914  1
  Pt  Pt31  1  0.537117  0.167160  0.361061  1
  Pt  Pt32  1  0.462585  0.833198  0.638018  1
  Pt  Pt33  1  0.779146  0.175173  0.636636  1
  Pt  Pt34  1  0.221416  0.824401  0.362311  1
  Pt  Pt35  1  0.999957  0.499924  0.000362  1
  Au  Au36  1  0.120386  0.490319  0.638270  1
