# generated using pymatgen
data_Tb7Tm3(Pb3Cl)2
_symmetry_space_group_name_H-M   'P 1'
_cell_length_a   9.12272600
_cell_length_b   9.12272783
_cell_length_c   6.68558900
_cell_angle_alpha   90.00000000
_cell_angle_beta   90.00000000
_cell_angle_gamma   120.00000063
_symmetry_Int_Tables_number   1
_chemical_formula_structural   Tb7Tm3(Pb3Cl)2
_chemical_formula_sum   'Tb7 Tm3 Pb6 Cl2'
_cell_volume   481.85864237
_cell_formula_units_Z   1
loop_
 _symmetry_equiv_pos_site_id
 _symmetry_equiv_pos_as_xyz
  1  'x, y, z'
loop_
 _atom_site_type_symbol
 _atom_site_label
 _atom_site_symmetry_multiplicity
 _atom_site_fract_x
 _atom_site_fract_y
 _atom_site_fract_z
 _atom_site_occupancy
  Tb  Tb0  1  0.741316  0.741441  0.250525  1
  Tb  Tb1  1  0.000127  0.741441  0.749475  1
  Tb  Tb2  1  0.741316  0.999873  0.749475  1
  Tb  Tb3  1  0.258559  0.258684  0.749475  1
  Tb  Tb4  1  0.000127  0.258684  0.250525  1
  Tb  Tb5  1  0.258559  0.999873  0.250525  1
  Tb  Tb6  1  0.666667  0.333333  0.000000  1
  Tm  Tm7  1  0.333333  0.666667  0.500000  1
  Tm  Tm8  1  0.666667  0.333333  0.500000  1
  Tm  Tm9  1  0.333333  0.666667  0.000000  1
  Pb  Pb10  1  0.391888  0.998742  0.749362  1
  Pb  Pb11  1  0.001258  0.608112  0.250638  1
  Pb  Pb12  1  0.606855  0.998742  0.250638  1
  Pb  Pb13  1  0.001258  0.393145  0.749362  1
  Pb  Pb14  1  0.391888  0.393145  0.250638  1
  Pb  Pb15  1  0.606855  0.608112  0.749362  1
  Cl  Cl16  1  0.000000  0.000000  0.500000  1
  Cl  Cl17  1  0.000000  0.000000  0.000000  1
