# generated using pymatgen
data_Th3ScAl2Ir3
_symmetry_space_group_name_H-M   'P 1'
_cell_length_a   7.25365300
_cell_length_b   7.33522991
_cell_length_c   4.20630400
_cell_angle_alpha   90.00000000
_cell_angle_beta   90.00000000
_cell_angle_gamma   119.63278446
_symmetry_Int_Tables_number   1
_chemical_formula_structural   Th3ScAl2Ir3
_chemical_formula_sum   'Th3 Sc1 Al2 Ir3'
_cell_volume   194.53464402
_cell_formula_units_Z   1
loop_
 _symmetry_equiv_pos_site_id
 _symmetry_equiv_pos_as_xyz
  1  'x, y, z'
loop_
 _atom_site_type_symbol
 _atom_site_label
 _atom_site_symmetry_multiplicity
 _atom_site_fract_x
 _atom_site_fract_y
 _atom_site_fract_z
 _atom_site_occupancy
  Th  Th0  1  0.404174  0.000000  0.500000  1
  Th  Th1  1  0.006472  0.426784  0.500000  1
  Th  Th2  1  0.579688  0.573216  0.500000  1
  Sc  Sc3  1  0.767520  0.000000  0.000000  1
  Al  Al4  1  0.001230  0.765256  0.000000  1
  Al  Al5  1  0.235974  0.234744  0.000000  1
  Ir  Ir6  1  0.329275  0.661394  0.000000  1
  Ir  Ir7  1  0.667882  0.338606  0.000000  1
  Ir  Ir8  1  0.007786  0.000000  0.500000  1
