# generated using pymatgen
data_YEr(Lu9Pt8)2
_symmetry_space_group_name_H-M   'P 1'
_cell_length_a   7.39735609
_cell_length_b   7.48453534
_cell_length_c   14.58768200
_cell_angle_alpha   90.01103117
_cell_angle_beta   90.00869813
_cell_angle_gamma   90.03240288
_symmetry_Int_Tables_number   1
_chemical_formula_structural   YEr(Lu9Pt8)2
_chemical_formula_sum   'Y1 Er1 Lu18 Pt16'
_cell_volume   807.65813692
_cell_formula_units_Z   1
loop_
 _symmetry_equiv_pos_site_id
 _symmetry_equiv_pos_as_xyz
  1  'x, y, z'
loop_
 _atom_site_type_symbol
 _atom_site_label
 _atom_site_symmetry_multiplicity
 _atom_site_fract_x
 _atom_site_fract_y
 _atom_site_fract_z
 _atom_site_occupancy
  Y  Y0  1  0.998881  0.820397  0.092702  1
  Er  Er1  1  0.498053  0.679944  0.407402  1
  Lu  Lu2  1  0.681426  0.989887  0.250221  1
  Lu  Lu3  1  0.181291  0.509994  0.250260  1
  Lu  Lu4  1  0.818577  0.489773  0.749888  1
  Lu  Lu5  1  0.318649  0.010365  0.750005  1
  Lu  Lu6  1  0.656306  0.833284  0.622473  1
  Lu  Lu7  1  0.156810  0.666555  0.877369  1
  Lu  Lu8  1  0.844790  0.332492  0.377975  1
  Lu  Lu9  1  0.345142  0.167702  0.122402  1
  Lu  Lu10  1  0.344464  0.167355  0.378032  1
  Lu  Lu11  1  0.844290  0.332695  0.122102  1
  Lu  Lu12  1  0.155651  0.667611  0.622111  1
  Lu  Lu13  1  0.655700  0.832316  0.877770  1
  Lu  Lu14  1  0.997636  0.820122  0.406973  1
  Lu  Lu15  1  0.497549  0.680004  0.092815  1
  Lu  Lu16  1  0.502413  0.319099  0.593051  1
  Lu  Lu17  1  0.002744  0.181476  0.906790  1
  Lu  Lu18  1  0.002389  0.180143  0.592839  1
  Lu  Lu19  1  0.502080  0.319931  0.907111  1
  Pt  Pt20  1  0.817607  0.642522  0.251805  1
  Pt  Pt21  1  0.319765  0.856554  0.250109  1
  Pt  Pt22  1  0.680466  0.144306  0.749720  1
  Pt  Pt23  1  0.180460  0.355621  0.749675  1
  Pt  Pt24  1  0.546304  0.385041  0.249921  1
  Pt  Pt25  1  0.047056  0.115609  0.251053  1
  Pt  Pt26  1  0.953477  0.886288  0.749911  1
  Pt  Pt27  1  0.453518  0.613792  0.749698  1
  Pt  Pt28  1  0.815140  0.531430  0.542512  1
  Pt  Pt29  1  0.315645  0.969233  0.956949  1
  Pt  Pt30  1  0.685660  0.033358  0.458463  1
  Pt  Pt31  1  0.186262  0.464506  0.040814  1
  Pt  Pt32  1  0.183489  0.466355  0.458410  1
  Pt  Pt33  1  0.680930  0.035138  0.041227  1
  Pt  Pt34  1  0.314747  0.968844  0.542330  1
  Pt  Pt35  1  0.814636  0.530256  0.957114  1
