# generated using pymatgen
data_Sm2(GaPt3)3
_symmetry_space_group_name_H-M   'P 1'
_cell_length_a   7.79082085
_cell_length_b   7.79082175
_cell_length_c   10.16518000
_cell_angle_alpha   67.69009788
_cell_angle_beta   67.69009517
_cell_angle_gamma   60.02603195
_symmetry_Int_Tables_number   1
_chemical_formula_structural   Sm2(GaPt3)3
_chemical_formula_sum   'Sm4 Ga6 Pt18'
_cell_volume   480.37383718
_cell_formula_units_Z   2
loop_
 _symmetry_equiv_pos_site_id
 _symmetry_equiv_pos_as_xyz
  1  'x, y, z'
loop_
 _atom_site_type_symbol
 _atom_site_label
 _atom_site_symmetry_multiplicity
 _atom_site_fract_x
 _atom_site_fract_y
 _atom_site_fract_z
 _atom_site_occupancy
  Sm  Sm0  1  0.414866  0.246068  0.250252  1
  Sm  Sm1  1  0.585134  0.753932  0.749748  1
  Sm  Sm2  1  0.753932  0.585134  0.249748  1
  Sm  Sm3  1  0.246068  0.414866  0.750252  1
  Ga  Ga4  1  0.500000  0.000000  0.000000  1
  Ga  Ga5  1  0.000000  0.500000  0.500000  1
  Ga  Ga6  1  0.639415  0.181258  0.498710  1
  Ga  Ga7  1  0.360585  0.818742  0.501290  1
  Ga  Ga8  1  0.818742  0.360585  0.001290  1
  Ga  Ga9  1  0.181258  0.639415  0.998710  1
  Pt  Pt10  1  0.291401  0.917964  0.254068  1
  Pt  Pt11  1  0.708599  0.082036  0.745932  1
  Pt  Pt12  1  0.082036  0.708599  0.245932  1
  Pt  Pt13  1  0.917964  0.291401  0.754068  1
  Pt  Pt14  1  0.469855  0.645370  0.078910  1
  Pt  Pt15  1  0.530145  0.354630  0.921090  1
  Pt  Pt16  1  0.354630  0.530145  0.421090  1
  Pt  Pt17  1  0.645370  0.469855  0.578910  1
  Pt  Pt18  1  0.868703  0.131297  0.250000  1
  Pt  Pt19  1  0.131297  0.868703  0.750000  1
  Pt  Pt20  1  0.809146  0.978327  0.071980  1
  Pt  Pt21  1  0.190854  0.021673  0.928020  1
  Pt  Pt22  1  0.021673  0.190854  0.428020  1
  Pt  Pt23  1  0.978327  0.809146  0.571980  1
  Pt  Pt24  1  0.697865  0.859946  0.421879  1
  Pt  Pt25  1  0.302135  0.140054  0.578121  1
  Pt  Pt26  1  0.140054  0.302135  0.078121  1
  Pt  Pt27  1  0.859946  0.697865  0.921879  1
