# generated using pymatgen
data_Dy5Nb3(As3Rh4)4
_symmetry_space_group_name_H-M   'P 1'
_cell_length_a   13.23645000
_cell_length_b   13.23645054
_cell_length_c   3.98799900
_cell_angle_alpha   90.00000000
_cell_angle_beta   90.00000000
_cell_angle_gamma   120.00000365
_symmetry_Int_Tables_number   1
_chemical_formula_structural   Dy5Nb3(As3Rh4)4
_chemical_formula_sum   'Dy5 Nb3 As12 Rh16'
_cell_volume   605.10218482
_cell_formula_units_Z   1
loop_
 _symmetry_equiv_pos_site_id
 _symmetry_equiv_pos_as_xyz
  1  'x, y, z'
loop_
 _atom_site_type_symbol
 _atom_site_label
 _atom_site_symmetry_multiplicity
 _atom_site_fract_x
 _atom_site_fract_y
 _atom_site_fract_z
 _atom_site_occupancy
  Dy  Dy0  1  0.188470  0.188470  0.500000  1
  Dy  Dy1  1  0.811530  0.000000  0.500000  1
  Dy  Dy2  1  0.000000  0.811530  0.500000  1
  Dy  Dy3  1  0.333333  0.666667  0.000000  1
  Dy  Dy4  1  0.666667  0.333333  0.000000  1
  Nb  Nb5  1  0.553209  0.553209  0.000000  1
  Nb  Nb6  1  0.446791  0.000000  0.000000  1
  Nb  Nb7  1  0.000000  0.446791  0.000000  1
  As  As8  1  0.824284  0.824284  0.000000  1
  As  As9  1  0.175716  0.000000  0.000000  1
  As  As10  1  0.000000  0.175716  0.000000  1
  As  As11  1  0.165780  0.485059  0.500000  1
  As  As12  1  0.514941  0.680721  0.500000  1
  As  As13  1  0.319279  0.834220  0.500000  1
  As  As14  1  0.680721  0.514941  0.500000  1
  As  As15  1  0.834220  0.319279  0.500000  1
  As  As16  1  0.485059  0.165780  0.500000  1
  As  As17  1  0.359762  0.359762  0.000000  1
  As  As18  1  0.640238  0.000000  0.000000  1
  As  As19  1  0.000000  0.640238  0.000000  1
  Rh  Rh20  1  0.720009  0.720009  0.500000  1
  Rh  Rh21  1  0.279991  0.000000  0.500000  1
  Rh  Rh22  1  0.000000  0.279991  0.500000  1
  Rh  Rh23  1  0.176236  0.374289  0.000000  1
  Rh  Rh24  1  0.625711  0.801945  0.000000  1
  Rh  Rh25  1  0.198055  0.823764  0.000000  1
  Rh  Rh26  1  0.801945  0.625711  0.000000  1
  Rh  Rh27  1  0.823764  0.198055  0.000000  1
  Rh  Rh28  1  0.374289  0.176236  0.000000  1
  Rh  Rh29  1  0.352747  0.483280  0.500000  1
  Rh  Rh30  1  0.516720  0.869468  0.500000  1
  Rh  Rh31  1  0.130532  0.647253  0.500000  1
  Rh  Rh32  1  0.869468  0.516720  0.500000  1
  Rh  Rh33  1  0.647253  0.130532  0.500000  1
  Rh  Rh34  1  0.483280  0.352747  0.500000  1
  Rh  Rh35  1  0.000000  0.000000  0.000000  1
