# generated using pymatgen
data_TbEr(LuBi)3
_symmetry_space_group_name_H-M   'P 1'
_cell_length_a   8.18304900
_cell_length_b   9.39098500
_cell_length_c   11.91451000
_cell_angle_alpha   90.00000000
_cell_angle_beta   90.00000000
_cell_angle_gamma   90.00000000
_symmetry_Int_Tables_number   1
_chemical_formula_structural   TbEr(LuBi)3
_chemical_formula_sum   'Tb4 Er4 Lu12 Bi12'
_cell_volume   915.59304430
_cell_formula_units_Z   4
loop_
 _symmetry_equiv_pos_site_id
 _symmetry_equiv_pos_as_xyz
  1  'x, y, z'
loop_
 _atom_site_type_symbol
 _atom_site_label
 _atom_site_symmetry_multiplicity
 _atom_site_fract_x
 _atom_site_fract_y
 _atom_site_fract_z
 _atom_site_occupancy
  Tb  Tb0  1  0.313079  0.250000  0.218185  1
  Tb  Tb1  1  0.813079  0.250000  0.281815  1
  Tb  Tb2  1  0.686921  0.750000  0.781815  1
  Tb  Tb3  1  0.186921  0.750000  0.718185  1
  Er  Er4  1  0.352403  0.750000  0.218004  1
  Er  Er5  1  0.852403  0.750000  0.281996  1
  Er  Er6  1  0.647597  0.250000  0.781996  1
  Er  Er7  1  0.147597  0.250000  0.718004  1
  Lu  Lu8  1  0.692798  0.566916  0.059667  1
  Lu  Lu9  1  0.192798  0.933084  0.440333  1
  Lu  Lu10  1  0.307202  0.066916  0.940333  1
  Lu  Lu11  1  0.807202  0.433084  0.559667  1
  Lu  Lu12  1  0.307202  0.433084  0.940333  1
  Lu  Lu13  1  0.807202  0.066916  0.559667  1
  Lu  Lu14  1  0.692798  0.933084  0.059667  1
  Lu  Lu15  1  0.192798  0.566916  0.440333  1
  Lu  Lu16  1  0.476600  0.250000  0.489039  1
  Lu  Lu17  1  0.976600  0.250000  0.010961  1
  Lu  Lu18  1  0.523400  0.750000  0.510961  1
  Lu  Lu19  1  0.023400  0.750000  0.989039  1
  Bi  Bi20  1  0.403836  0.750000  0.959349  1
  Bi  Bi21  1  0.903836  0.750000  0.540651  1
  Bi  Bi22  1  0.596164  0.250000  0.040651  1
  Bi  Bi23  1  0.096164  0.250000  0.459349  1
  Bi  Bi24  1  0.565601  0.994360  0.326481  1
  Bi  Bi25  1  0.065601  0.505640  0.173519  1
  Bi  Bi26  1  0.434399  0.494360  0.673519  1
  Bi  Bi27  1  0.934399  0.005640  0.826481  1
  Bi  Bi28  1  0.434399  0.005640  0.673519  1
  Bi  Bi29  1  0.934399  0.494360  0.826481  1
  Bi  Bi30  1  0.565601  0.505640  0.326481  1
  Bi  Bi31  1  0.065601  0.994360  0.173519  1
