# generated using pymatgen
data_NdEr5ZnGa17Pd4
_symmetry_space_group_name_H-M   'P 1'
_cell_length_a   8.15444540
_cell_length_b   8.15444544
_cell_length_c   15.73273242
_cell_angle_alpha   74.45910489
_cell_angle_beta   74.45910485
_cell_angle_gamma   30.70193610
_symmetry_Int_Tables_number   1
_chemical_formula_structural   NdEr5ZnGa17Pd4
_chemical_formula_sum   'Nd1 Er5 Zn1 Ga17 Pd4'
_cell_volume   513.10365211
_cell_formula_units_Z   1
loop_
 _symmetry_equiv_pos_site_id
 _symmetry_equiv_pos_as_xyz
  1  'x, y, z'
loop_
 _atom_site_type_symbol
 _atom_site_label
 _atom_site_symmetry_multiplicity
 _atom_site_fract_x
 _atom_site_fract_y
 _atom_site_fract_z
 _atom_site_occupancy
  Nd  Nd0  1  0.750140  0.750140  0.750474  1
  Er  Er1  1  0.250066  0.250066  0.249339  1
  Er  Er2  1  0.599574  0.599574  0.600124  1
  Er  Er3  1  0.098849  0.098849  0.100042  1
  Er  Er4  1  0.901544  0.901544  0.901242  1
  Er  Er5  1  0.399998  0.399998  0.398611  1
  Zn  Zn6  1  0.500160  0.500160  0.000141  1
  Ga  Ga7  1  0.821794  0.821794  0.537198  1
  Ga  Ga8  1  0.324373  0.324373  0.039849  1
  Ga  Ga9  1  0.675218  0.675218  0.962230  1
  Ga  Ga10  1  0.178596  0.178596  0.460723  1
  Ga  Ga11  1  0.538784  0.538784  0.825015  1
  Ga  Ga12  1  0.038966  0.038966  0.321261  1
  Ga  Ga13  1  0.962016  0.962016  0.678543  1
  Ga  Ga14  1  0.460340  0.460340  0.175053  1
  Ga  Ga15  1  0.262669  0.262669  0.897711  1
  Ga  Ga16  1  0.760840  0.760840  0.393591  1
  Ga  Ga17  1  0.238417  0.238417  0.603805  1
  Ga  Ga18  1  0.737884  0.737884  0.104940  1
  Ga  Ga19  1  0.396912  0.396912  0.762527  1
  Ga  Ga20  1  0.894038  0.894038  0.261229  1
  Ga  Ga21  1  0.103819  0.103819  0.737997  1
  Ga  Ga22  1  0.605273  0.605273  0.238433  1
  Ga  Ga23  1  0.999747  0.999747  0.499816  1
  Pd  Pd24  1  0.093595  0.093595  0.906728  1
  Pd  Pd25  1  0.590867  0.590867  0.408814  1
  Pd  Pd26  1  0.409174  0.409174  0.591236  1
  Pd  Pd27  1  0.906346  0.906346  0.093327  1
