# generated using pymatgen
data_Gd7Er3(Sn3S)2
_symmetry_space_group_name_H-M   'P 1'
_cell_length_a   9.30761900
_cell_length_b   9.30761831
_cell_length_c   6.67687700
_cell_angle_alpha   90.00000000
_cell_angle_beta   90.00000000
_cell_angle_gamma   119.99999888
_symmetry_Int_Tables_number   1
_chemical_formula_structural   Gd7Er3(Sn3S)2
_chemical_formula_sum   'Gd7 Er3 Sn6 S2'
_cell_volume   500.93476789
_cell_formula_units_Z   1
loop_
 _symmetry_equiv_pos_site_id
 _symmetry_equiv_pos_as_xyz
  1  'x, y, z'
loop_
 _atom_site_type_symbol
 _atom_site_label
 _atom_site_symmetry_multiplicity
 _atom_site_fract_x
 _atom_site_fract_y
 _atom_site_fract_z
 _atom_site_occupancy
  Gd  Gd0  1  0.245031  0.244607  0.749048  1
  Gd  Gd1  1  0.999577  0.754969  0.749048  1
  Gd  Gd2  1  0.755393  0.000423  0.749048  1
  Gd  Gd3  1  0.999577  0.244607  0.250952  1
  Gd  Gd4  1  0.755393  0.754969  0.250952  1
  Gd  Gd5  1  0.245031  0.000423  0.250952  1
  Gd  Gd6  1  0.666667  0.333333  0.000000  1
  Er  Er7  1  0.333333  0.666667  0.500000  1
  Er  Er8  1  0.666667  0.333333  0.500000  1
  Er  Er9  1  0.333333  0.666667  0.000000  1
  Sn  Sn10  1  0.600337  0.997330  0.253638  1
  Sn  Sn11  1  0.002670  0.399663  0.746362  1
  Sn  Sn12  1  0.396993  0.997330  0.746362  1
  Sn  Sn13  1  0.600337  0.603007  0.746362  1
  Sn  Sn14  1  0.002670  0.603007  0.253638  1
  Sn  Sn15  1  0.396993  0.399663  0.253638  1
  S  S16  1  0.000000  0.000000  0.000000  1
  S  S17  1  0.000000  0.000000  0.500000  1
