# generated using pymatgen
data_Sr11InBi9
_symmetry_space_group_name_H-M   'P 1'
_cell_length_a   13.03568364
_cell_length_b   13.03568395
_cell_length_c   13.03568400
_cell_angle_alpha   120.90199027
_cell_angle_beta   117.15435236
_cell_angle_gamma   91.72140840
_symmetry_Int_Tables_number   1
_chemical_formula_structural   Sr11InBi9
_chemical_formula_sum   'Sr22 In2 Bi18'
_cell_volume   1586.52594722
_cell_formula_units_Z   2
loop_
 _symmetry_equiv_pos_site_id
 _symmetry_equiv_pos_as_xyz
  1  'x, y, z'
loop_
 _atom_site_type_symbol
 _atom_site_label
 _atom_site_symmetry_multiplicity
 _atom_site_fract_x
 _atom_site_fract_y
 _atom_site_fract_z
 _atom_site_occupancy
  Sr  Sr0  1  0.321109  0.321109  0.000000  1
  Sr  Sr1  1  0.826953  0.840929  0.666965  1
  Sr  Sr2  1  0.430991  0.068620  0.183241  1
  Sr  Sr3  1  0.821109  0.821109  0.000000  1
  Sr  Sr4  1  0.689028  0.944046  0.372198  1
  Sr  Sr5  1  0.425515  0.687838  0.370328  1
  Sr  Sr6  1  0.326953  0.659988  0.986024  1
  Sr  Sr7  1  0.817510  0.187838  0.262323  1
  Sr  Sr8  1  0.620437  0.415067  0.350774  1
  Sr  Sr9  1  0.885379  0.247750  0.816759  1
  Sr  Sr10  1  0.120437  0.769662  0.205370  1
  Sr  Sr11  1  0.189028  0.816831  0.744983  1
  Sr  Sr12  1  0.925515  0.555187  0.737677  1
  Sr  Sr13  1  0.385379  0.568620  0.637630  1
  Sr  Sr14  1  0.064292  0.269662  0.649226  1
  Sr  Sr15  1  0.564292  0.915067  0.794630  1
  Sr  Sr16  1  0.930991  0.747750  0.362370  1
  Sr  Sr17  1  0.673964  0.340929  0.013976  1
  Sr  Sr18  1  0.571849  0.316831  0.627802  1
  Sr  Sr19  1  0.173964  0.159988  0.333035  1
  Sr  Sr20  1  0.071849  0.444046  0.255017  1
  Sr  Sr21  1  0.317510  0.055187  0.629672  1
  In  In22  1  0.607545  0.607545  0.000000  1
  In  In23  1  0.107545  0.107545  0.000000  1
  Bi  Bi24  1  0.638669  0.639752  0.644336  1
  Bi  Bi25  1  0.395151  0.967954  0.356793  1
  Bi  Bi26  1  0.995415  0.994333  0.355664  1
  Bi  Bi27  1  0.613815  0.625462  0.245616  1
  Bi  Bi28  1  0.050093  0.041811  0.712072  1
  Bi  Bi29  1  0.248878  0.748878  0.500000  1
  Bi  Bi30  1  0.550093  0.838020  0.008282  1
  Bi  Bi31  1  0.748878  0.248878  0.500000  1
  Bi  Bi32  1  0.879848  0.125462  0.011648  1
  Bi  Bi33  1  0.495415  0.139752  0.001083  1
  Bi  Bi34  1  0.138669  0.494333  0.998917  1
  Bi  Bi35  1  0.379848  0.368200  0.754384  1
  Bi  Bi36  1  0.329738  0.338020  0.287928  1
  Bi  Bi37  1  0.895151  0.538359  0.427199  1
  Bi  Bi38  1  0.111161  0.467954  0.572801  1
  Bi  Bi39  1  0.829738  0.541811  0.991718  1
  Bi  Bi40  1  0.611161  0.038359  0.643207  1
  Bi  Bi41  1  0.113815  0.868200  0.988352  1
