# generated using pymatgen
data_CePRhN
_symmetry_space_group_name_H-M   'P 1'
_cell_length_a   3.98484500
_cell_length_b   3.98484500
_cell_length_c   8.34048500
_cell_angle_alpha   90.00000000
_cell_angle_beta   90.00000000
_cell_angle_gamma   90.00000000
_symmetry_Int_Tables_number   1
_chemical_formula_structural   CePRhN
_chemical_formula_sum   'Ce2 P2 Rh2 N2'
_cell_volume   132.43847519
_cell_formula_units_Z   2
loop_
 _symmetry_equiv_pos_site_id
 _symmetry_equiv_pos_as_xyz
  1  'x, y, z'
loop_
 _atom_site_type_symbol
 _atom_site_label
 _atom_site_symmetry_multiplicity
 _atom_site_fract_x
 _atom_site_fract_y
 _atom_site_fract_z
 _atom_site_occupancy
  Ce  Ce0  1  0.250001  0.250001  0.133231  1
  Ce  Ce1  1  0.750001  0.750001  0.866771  1
  P  P2  1  0.750001  0.750001  0.346544  1
  P  P3  1  0.250001  0.250001  0.653454  1
  Rh  Rh4  1  0.750001  0.250003  0.499999  1
  Rh  Rh5  1  0.250003  0.750001  0.499999  1
  N  N6  1  0.750001  0.250003  0.000000  1
  N  N7  1  0.250003  0.750001  0.000000  1
