# generated using pymatgen
data_KBa2SnHg10
_symmetry_space_group_name_H-M   'P 1'
_cell_length_a   9.73518144
_cell_length_b   9.73518166
_cell_length_c   9.73518113
_cell_angle_alpha   147.89805374
_cell_angle_beta   116.81415000
_cell_angle_gamma   72.65036479
_symmetry_Int_Tables_number   1
_chemical_formula_structural   KBa2SnHg10
_chemical_formula_sum   'K1 Ba2 Sn1 Hg10'
_cell_volume   430.68914567
_cell_formula_units_Z   1
loop_
 _symmetry_equiv_pos_site_id
 _symmetry_equiv_pos_as_xyz
  1  'x, y, z'
loop_
 _atom_site_type_symbol
 _atom_site_label
 _atom_site_symmetry_multiplicity
 _atom_site_fract_x
 _atom_site_fract_y
 _atom_site_fract_z
 _atom_site_occupancy
  K  K0  1  0.000000  0.000000  0.000000  1
  Ba  Ba1  1  0.700712  0.700712  0.000000  1
  Ba  Ba2  1  0.299288  0.299288  0.000000  1
  Sn  Sn3  1  0.500000  0.000000  0.500000  1
  Hg  Hg4  1  0.150752  0.861699  0.289053  1
  Hg  Hg5  1  0.849248  0.138301  0.710947  1
  Hg  Hg6  1  0.427353  0.138301  0.289053  1
  Hg  Hg7  1  0.572647  0.861699  0.710947  1
  Hg  Hg8  1  0.016293  0.662785  0.353505  1
  Hg  Hg9  1  0.983707  0.337215  0.646495  1
  Hg  Hg10  1  0.690720  0.337215  0.353505  1
  Hg  Hg11  1  0.309280  0.662785  0.646495  1
  Hg  Hg12  1  0.678085  0.500000  0.178085  1
  Hg  Hg13  1  0.321915  0.500000  0.821915  1
