# generated using pymatgen
data_HoEr2Sc3MnSb2
_symmetry_space_group_name_H-M   'P 1'
_cell_length_a   7.80332200
_cell_length_b   7.80278759
_cell_length_c   4.20338800
_cell_angle_alpha   90.00000000
_cell_angle_beta   90.00000000
_cell_angle_gamma   120.00226563
_symmetry_Int_Tables_number   1
_chemical_formula_structural   HoEr2Sc3MnSb2
_chemical_formula_sum   'Ho1 Er2 Sc3 Mn1 Sb2'
_cell_volume   221.64069810
_cell_formula_units_Z   1
loop_
 _symmetry_equiv_pos_site_id
 _symmetry_equiv_pos_as_xyz
  1  'x, y, z'
loop_
 _atom_site_type_symbol
 _atom_site_label
 _atom_site_symmetry_multiplicity
 _atom_site_fract_x
 _atom_site_fract_y
 _atom_site_fract_z
 _atom_site_occupancy
  Ho  Ho0  1  0.605371  0.000000  0.000000  1
  Er  Er1  1  0.999929  0.605543  0.000000  1
  Er  Er2  1  0.394387  0.394457  0.000000  1
  Sc  Sc3  1  0.227916  0.000000  0.500000  1
  Sc  Sc4  1  0.000241  0.228156  0.500000  1
  Sc  Sc5  1  0.772085  0.771844  0.500000  1
  Mn  Mn6  1  0.000379  0.000000  0.000000  1
  Sb  Sb7  1  0.332978  0.666264  0.500000  1
  Sb  Sb8  1  0.666715  0.333736  0.500000  1
