# generated using pymatgen
data_Te10Ir3Se2
_symmetry_space_group_name_H-M   'P 1'
_cell_length_a   4.07930452
_cell_length_b   7.21088575
_cell_length_c   15.45368690
_cell_angle_alpha   107.21292694
_cell_angle_beta   89.46898718
_cell_angle_gamma   107.06081662
_symmetry_Int_Tables_number   1
_chemical_formula_structural   Te10Ir3Se2
_chemical_formula_sum   'Te10 Ir3 Se2'
_cell_volume   413.60876566
_cell_formula_units_Z   1
loop_
 _symmetry_equiv_pos_site_id
 _symmetry_equiv_pos_as_xyz
  1  'x, y, z'
loop_
 _atom_site_type_symbol
 _atom_site_label
 _atom_site_symmetry_multiplicity
 _atom_site_fract_x
 _atom_site_fract_y
 _atom_site_fract_z
 _atom_site_occupancy
  Te  Te0  1  0.820307  0.651495  0.106162  1
  Te  Te1  1  0.479789  0.942934  0.882261  1
  Te  Te2  1  0.040017  0.042027  0.685692  1
  Te  Te3  1  0.654442  0.321195  0.479159  1
  Te  Te4  1  0.218543  0.461179  0.284384  1
  Te  Te5  1  0.558153  0.148055  0.115615  1
  Te  Te6  1  0.145216  0.274376  0.919835  1
  Te  Te7  1  0.786130  0.551519  0.715054  1
  Te  Te8  1  0.341829  0.652944  0.519023  1
  Te  Te9  1  0.957654  0.955630  0.292272  1
  Ir  Ir10  1  0.412913  0.796995  0.700506  1
  Ir  Ir11  1  0.189435  0.396766  0.105160  1
  Ir  Ir12  1  0.588715  0.210309  0.294214  1
  Se  Se13  1  0.817897  0.628167  0.893948  1
  Se  Se14  1  0.988960  0.966409  0.506717  1
