# generated using pymatgen
data_PrAg6NO11
_symmetry_space_group_name_H-M   'P 1'
_cell_length_a   7.15518032
_cell_length_b   7.15518059
_cell_length_c   7.15518042
_cell_angle_alpha   61.52185089
_cell_angle_beta   61.52184923
_cell_angle_gamma   61.52184852
_symmetry_Int_Tables_number   1
_chemical_formula_structural   PrAg6NO11
_chemical_formula_sum   'Pr1 Ag6 N1 O11'
_cell_volume   267.87549789
_cell_formula_units_Z   1
loop_
 _symmetry_equiv_pos_site_id
 _symmetry_equiv_pos_as_xyz
  1  'x, y, z'
loop_
 _atom_site_type_symbol
 _atom_site_label
 _atom_site_symmetry_multiplicity
 _atom_site_fract_x
 _atom_site_fract_y
 _atom_site_fract_z
 _atom_site_occupancy
  Pr  Pr0  1  0.999006  0.999006  0.999006  1
  Ag  Ag1  1  0.498459  0.000879  0.000879  1
  Ag  Ag2  1  0.500313  0.500313  0.000357  1
  Ag  Ag3  1  0.500313  0.000357  0.500313  1
  Ag  Ag4  1  0.000879  0.000879  0.498459  1
  Ag  Ag5  1  0.000357  0.500313  0.500313  1
  Ag  Ag6  1  0.000879  0.498459  0.000879  1
  N  N7  1  0.500094  0.500094  0.500094  1
  O  O8  1  0.576711  0.146019  0.146019  1
  O  O9  1  0.146019  0.576711  0.146019  1
  O  O10  1  0.142075  0.142075  0.142075  1
  O  O11  1  0.146019  0.146019  0.576711  1
  O  O12  1  0.599947  0.599947  0.300277  1
  O  O13  1  0.599947  0.300277  0.599947  1
  O  O14  1  0.300277  0.599947  0.599947  1
  O  O15  1  0.855000  0.855000  0.421443  1
  O  O16  1  0.855000  0.421443  0.855000  1
  O  O17  1  0.857262  0.857262  0.857262  1
  O  O18  1  0.421443  0.855000  0.855000  1
