# generated using pymatgen
data_TaTi4AlRh10
_symmetry_space_group_name_H-M   'P 1'
_cell_length_a   4.06860300
_cell_length_b   5.43232503
_cell_length_c   10.63020314
_cell_angle_alpha   90.04158306
_cell_angle_beta   90.00000000
_cell_angle_gamma   90.00000000
_symmetry_Int_Tables_number   1
_chemical_formula_structural   TaTi4AlRh10
_chemical_formula_sum   'Ta1 Ti4 Al1 Rh10'
_cell_volume   234.94841043
_cell_formula_units_Z   1
loop_
 _symmetry_equiv_pos_site_id
 _symmetry_equiv_pos_as_xyz
  1  'x, y, z'
loop_
 _atom_site_type_symbol
 _atom_site_label
 _atom_site_symmetry_multiplicity
 _atom_site_fract_x
 _atom_site_fract_y
 _atom_site_fract_z
 _atom_site_occupancy
  Ta  Ta0  1  0.500000  0.326494  0.139021  1
  Ti  Ti1  1  0.000000  0.499726  0.501098  1
  Ti  Ti2  1  0.500000  0.676115  0.857847  1
  Ti  Ti3  1  0.500000  0.834595  0.358110  1
  Ti  Ti4  1  0.500000  0.163317  0.644934  1
  Al  Al5  1  0.000000  0.000267  0.999044  1
  Rh  Rh6  1  0.000000  0.999720  0.501223  1
  Rh  Rh7  1  0.000000  0.504974  0.997844  1
  Rh  Rh8  1  0.000000  0.081672  0.242294  1
  Rh  Rh9  1  0.000000  0.913171  0.760182  1
  Rh  Rh10  1  0.000000  0.584745  0.258240  1
  Rh  Rh11  1  0.000000  0.410517  0.739031  1
  Rh  Rh12  1  0.500000  0.311511  0.393232  1
  Rh  Rh13  1  0.500000  0.687583  0.606981  1
  Rh  Rh14  1  0.500000  0.812173  0.110325  1
  Rh  Rh15  1  0.500000  0.193420  0.890595  1
