# generated using pymatgen
data_Rb2SiSe4
_symmetry_space_group_name_H-M   'P 1'
_cell_length_a   8.42545507
_cell_length_b   8.42545546
_cell_length_c   10.02571302
_cell_angle_alpha   62.66465035
_cell_angle_beta   62.66464830
_cell_angle_gamma   53.67505694
_symmetry_Int_Tables_number   1
_chemical_formula_structural   Rb2SiSe4
_chemical_formula_sum   'Rb4 Si2 Se8'
_cell_volume   491.64289899
_cell_formula_units_Z   2
loop_
 _symmetry_equiv_pos_site_id
 _symmetry_equiv_pos_as_xyz
  1  'x, y, z'
loop_
 _atom_site_type_symbol
 _atom_site_label
 _atom_site_symmetry_multiplicity
 _atom_site_fract_x
 _atom_site_fract_y
 _atom_site_fract_z
 _atom_site_occupancy
  Rb  Rb0  1  0.399342  0.399342  0.864764  1
  Rb  Rb1  1  0.844092  0.844092  0.290832  1
  Rb  Rb2  1  0.600658  0.600658  0.135236  1
  Rb  Rb3  1  0.155908  0.155908  0.709168  1
  Si  Si4  1  0.156373  0.156373  0.293272  1
  Si  Si5  1  0.843627  0.843627  0.706728  1
  Se  Se6  1  0.684457  0.684457  0.737511  1
  Se  Se7  1  0.846837  0.336562  0.456793  1
  Se  Se8  1  0.315543  0.315543  0.262489  1
  Se  Se9  1  0.663438  0.153163  0.543207  1
  Se  Se10  1  0.123568  0.123568  0.100804  1
  Se  Se11  1  0.876432  0.876432  0.899196  1
  Se  Se12  1  0.153163  0.663438  0.543207  1
  Se  Se13  1  0.336562  0.846837  0.456793  1
