# generated using pymatgen
data_Hf5ZrGa6(Mo2N)2
_symmetry_space_group_name_H-M   'P 1'
_cell_length_a   7.82740000
_cell_length_b   7.80778733
_cell_length_c   5.37223700
_cell_angle_alpha   90.00000000
_cell_angle_beta   90.00000000
_cell_angle_gamma   120.08312904
_symmetry_Int_Tables_number   1
_chemical_formula_structural   Hf5ZrGa6(Mo2N)2
_chemical_formula_sum   'Hf5 Zr1 Ga6 Mo4 N2'
_cell_volume   284.09716277
_cell_formula_units_Z   1
loop_
 _symmetry_equiv_pos_site_id
 _symmetry_equiv_pos_as_xyz
  1  'x, y, z'
loop_
 _atom_site_type_symbol
 _atom_site_label
 _atom_site_symmetry_multiplicity
 _atom_site_fract_x
 _atom_site_fract_y
 _atom_site_fract_z
 _atom_site_occupancy
  Hf  Hf0  1  0.000154  0.234630  0.250000  1
  Hf  Hf1  1  0.765523  0.765370  0.250000  1
  Hf  Hf2  1  0.763574  0.000000  0.750000  1
  Hf  Hf3  1  0.999645  0.765871  0.750000  1
  Hf  Hf4  1  0.233773  0.234129  0.750000  1
  Zr  Zr5  1  0.237008  0.000000  0.250000  1
  Ga  Ga6  1  0.590789  0.000000  0.250000  1
  Ga  Ga7  1  0.000703  0.589375  0.250000  1
  Ga  Ga8  1  0.411328  0.410625  0.250000  1
  Ga  Ga9  1  0.409403  0.000000  0.750000  1
  Ga  Ga10  1  0.000549  0.411206  0.750000  1
  Ga  Ga11  1  0.589342  0.588794  0.750000  1
  Mo  Mo12  1  0.668577  0.334597  0.999724  1
  Mo  Mo13  1  0.333979  0.665403  0.999724  1
  Mo  Mo14  1  0.668577  0.334597  0.500276  1
  Mo  Mo15  1  0.333979  0.665403  0.500276  1
  N  N16  1  0.996548  0.000000  0.998444  1
  N  N17  1  0.996548  0.000000  0.501556  1
