# generated using pymatgen
data_Dy4Sc3AlOs4
_symmetry_space_group_name_H-M   'P 1'
_cell_length_a   4.09744600
_cell_length_b   7.21303792
_cell_length_c   8.55443150
_cell_angle_alpha   89.94442780
_cell_angle_beta   90.00000000
_cell_angle_gamma   90.00000000
_symmetry_Int_Tables_number   1
_chemical_formula_structural   Dy4Sc3AlOs4
_chemical_formula_sum   'Dy4 Sc3 Al1 Os4'
_cell_volume   252.82638933
_cell_formula_units_Z   1
loop_
 _symmetry_equiv_pos_site_id
 _symmetry_equiv_pos_as_xyz
  1  'x, y, z'
loop_
 _atom_site_type_symbol
 _atom_site_label
 _atom_site_symmetry_multiplicity
 _atom_site_fract_x
 _atom_site_fract_y
 _atom_site_fract_z
 _atom_site_occupancy
  Dy  Dy0  1  0.250000  0.470978  0.176236  1
  Dy  Dy1  1  0.750000  0.521262  0.817352  1
  Dy  Dy2  1  0.750000  0.042027  0.668453  1
  Dy  Dy3  1  0.250000  0.974240  0.332578  1
  Sc  Sc4  1  0.250000  0.855576  0.939398  1
  Sc  Sc5  1  0.750000  0.141567  0.058846  1
  Sc  Sc6  1  0.750000  0.633681  0.446506  1
  Al  Al7  1  0.250000  0.362397  0.556829  1
  Os  Os8  1  0.250000  0.729686  0.628511  1
  Os  Os9  1  0.750000  0.268674  0.378913  1
  Os  Os10  1  0.750000  0.765713  0.130345  1
  Os  Os11  1  0.250000  0.234199  0.866034  1
