# generated using pymatgen
data_Li4NbN3
_symmetry_space_group_name_H-M   'P 1'
_cell_length_a   4.92107297
_cell_length_b   8.95178181
_cell_length_c   8.95178077
_cell_angle_alpha   65.79971689
_cell_angle_beta   74.04600083
_cell_angle_gamma   74.04599417
_symmetry_Int_Tables_number   1
_chemical_formula_structural   Li4NbN3
_chemical_formula_sum   'Li16 Nb4 N12'
_cell_volume   339.87103175
_cell_formula_units_Z   4
loop_
 _symmetry_equiv_pos_site_id
 _symmetry_equiv_pos_as_xyz
  1  'x, y, z'
loop_
 _atom_site_type_symbol
 _atom_site_label
 _atom_site_symmetry_multiplicity
 _atom_site_fract_x
 _atom_site_fract_y
 _atom_site_fract_z
 _atom_site_occupancy
  Li  Li0  1  0.390331  0.620284  0.549557  1
  Li  Li1  1  0.060172  0.879716  0.950443  1
  Li  Li2  1  0.109669  0.450443  0.379716  1
  Li  Li3  1  0.439828  0.049557  0.120284  1
  Li  Li4  1  0.609669  0.379716  0.450443  1
  Li  Li5  1  0.939828  0.120284  0.049557  1
  Li  Li6  1  0.890331  0.549557  0.620284  1
  Li  Li7  1  0.560172  0.950443  0.879716  1
  Li  Li8  1  0.725578  0.024422  0.524422  1
  Li  Li9  1  0.774422  0.475578  0.975578  1
  Li  Li10  1  0.274422  0.975578  0.475578  1
  Li  Li11  1  0.225578  0.524422  0.024422  1
  Li  Li12  1  0.343903  0.250000  0.250000  1
  Li  Li13  1  0.156097  0.750000  0.750000  1
  Li  Li14  1  0.656097  0.750000  0.750000  1
  Li  Li15  1  0.843903  0.250000  0.250000  1
  Nb  Nb16  1  0.918672  0.831328  0.331328  1
  Nb  Nb17  1  0.581328  0.668672  0.168672  1
  Nb  Nb18  1  0.081328  0.168672  0.668672  1
  Nb  Nb19  1  0.418672  0.331328  0.831328  1
  N  N20  1  0.750000  0.631017  0.368983  1
  N  N21  1  0.250000  0.868983  0.131017  1
  N  N22  1  0.250000  0.368983  0.631017  1
  N  N23  1  0.750000  0.131017  0.868983  1
  N  N24  1  0.652847  0.040301  0.289245  1
  N  N25  1  0.482393  0.459699  0.210755  1
  N  N26  1  0.847153  0.710755  0.959699  1
  N  N27  1  0.017607  0.789245  0.540301  1
  N  N28  1  0.347153  0.959699  0.710755  1
  N  N29  1  0.517607  0.540301  0.789245  1
  N  N30  1  0.152847  0.289245  0.040301  1
  N  N31  1  0.982393  0.210755  0.459699  1
