# generated using pymatgen
data_Dy15Ho(HfIr3)4
_symmetry_space_group_name_H-M   'P 1'
_cell_length_a   10.84192000
_cell_length_b   10.83907901
_cell_length_c   6.25596700
_cell_angle_alpha   90.00250751
_cell_angle_beta   90.00065732
_cell_angle_gamma   90.00321348
_symmetry_Int_Tables_number   1
_chemical_formula_structural   Dy15Ho(HfIr3)4
_chemical_formula_sum   'Dy15 Ho1 Hf4 Ir12'
_cell_volume   735.17889077
_cell_formula_units_Z   1
loop_
 _symmetry_equiv_pos_site_id
 _symmetry_equiv_pos_as_xyz
  1  'x, y, z'
loop_
 _atom_site_type_symbol
 _atom_site_label
 _atom_site_symmetry_multiplicity
 _atom_site_fract_x
 _atom_site_fract_y
 _atom_site_fract_z
 _atom_site_occupancy
  Dy  Dy0  1  0.289112  0.085891  0.374639  1
  Dy  Dy1  1  0.289207  0.914307  0.874734  1
  Dy  Dy2  1  0.710773  0.085718  0.874796  1
  Dy  Dy3  1  0.710782  0.914286  0.374745  1
  Dy  Dy4  1  0.585704  0.789237  0.874729  1
  Dy  Dy5  1  0.585716  0.210770  0.374736  1
  Dy  Dy6  1  0.414273  0.789226  0.374739  1
  Dy  Dy7  1  0.414213  0.210788  0.874871  1
  Dy  Dy8  1  0.210681  0.414145  0.625204  1
  Dy  Dy9  1  0.210720  0.585510  0.125206  1
  Dy  Dy10  1  0.789381  0.414208  0.125254  1
  Dy  Dy11  1  0.789244  0.585685  0.625243  1
  Dy  Dy12  1  0.914320  0.710751  0.125217  1
  Dy  Dy13  1  0.914432  0.289199  0.625187  1
  Dy  Dy14  1  0.085686  0.710785  0.625252  1
  Ho  Ho15  1  0.085582  0.289457  0.124885  1
  Hf  Hf16  1  0.000032  0.000086  0.500019  1
  Hf  Hf17  1  0.000129  0.000297  0.000193  1
  Hf  Hf18  1  0.499986  0.499979  0.000085  1
  Hf  Hf19  1  0.499973  0.499952  0.500010  1
  Ir  Ir20  1  0.857684  0.142784  0.249838  1
  Ir  Ir21  1  0.857410  0.857429  0.749966  1
  Ir  Ir22  1  0.142475  0.142837  0.750526  1
  Ir  Ir23  1  0.142581  0.857401  0.250009  1
  Ir  Ir24  1  0.642592  0.357397  0.749986  1
  Ir  Ir25  1  0.642583  0.642590  0.250016  1
  Ir  Ir26  1  0.357112  0.357311  0.249879  1
  Ir  Ir27  1  0.357386  0.642576  0.750000  1
  Ir  Ir28  1  0.499964  0.000005  0.121225  1
  Ir  Ir29  1  0.500009  0.000000  0.621251  1
  Ir  Ir30  1  0.000129  0.499691  0.879096  1
  Ir  Ir31  1  0.000130  0.499701  0.378464  1
