# generated using pymatgen
data_SmSc4(FeSn3)6
_symmetry_space_group_name_H-M   'P 1'
_cell_length_a   9.54004857
_cell_length_b   9.54004785
_cell_length_c   9.54004800
_cell_angle_alpha   59.99999253
_cell_angle_beta   59.99999504
_cell_angle_gamma   59.99999819
_symmetry_Int_Tables_number   1
_chemical_formula_structural   SmSc4(FeSn3)6
_chemical_formula_sum   'Sm1 Sc4 Fe6 Sn18'
_cell_volume   613.95516005
_cell_formula_units_Z   1
loop_
 _symmetry_equiv_pos_site_id
 _symmetry_equiv_pos_as_xyz
  1  'x, y, z'
loop_
 _atom_site_type_symbol
 _atom_site_label
 _atom_site_symmetry_multiplicity
 _atom_site_fract_x
 _atom_site_fract_y
 _atom_site_fract_z
 _atom_site_occupancy
  Sm  Sm0  1  0.000000  0.000000  0.000000  1
  Sc  Sc1  1  0.374266  0.374267  0.877203  1
  Sc  Sc2  1  0.374267  0.877202  0.374266  1
  Sc  Sc3  1  0.877202  0.374267  0.374266  1
  Sc  Sc4  1  0.374267  0.374266  0.374266  1
  Fe  Fe5  1  0.258376  0.258376  0.741624  1
  Fe  Fe6  1  0.741624  0.258376  0.741624  1
  Fe  Fe7  1  0.258376  0.741624  0.741624  1
  Fe  Fe8  1  0.741624  0.741624  0.258376  1
  Fe  Fe9  1  0.258376  0.741624  0.258376  1
  Fe  Fe10  1  0.741624  0.258376  0.258376  1
  Sn  Sn11  1  0.592033  0.592033  0.223903  1
  Sn  Sn12  1  0.592033  0.223903  0.592033  1
  Sn  Sn13  1  0.223903  0.592033  0.592033  1
  Sn  Sn14  1  0.592033  0.592033  0.592033  1
  Sn  Sn15  1  0.750000  0.750000  0.750000  1
  Sn  Sn16  1  0.999326  0.348432  0.652917  1
  Sn  Sn17  1  0.999326  0.999326  0.652917  1
  Sn  Sn18  1  0.348432  0.999326  0.652917  1
  Sn  Sn19  1  0.999326  0.652917  0.348432  1
  Sn  Sn20  1  0.348432  0.652917  0.999326  1
  Sn  Sn21  1  0.999326  0.652917  0.999326  1
  Sn  Sn22  1  0.652917  0.999326  0.999326  1
  Sn  Sn23  1  0.652917  0.348432  0.999326  1
  Sn  Sn24  1  0.652917  0.999326  0.348432  1
  Sn  Sn25  1  0.348432  0.999326  0.999326  1
  Sn  Sn26  1  0.999326  0.999326  0.348432  1
  Sn  Sn27  1  0.999326  0.348432  0.999326  1
  Sn  Sn28  1  0.250000  0.250000  0.250000  1
