# generated using pymatgen
data_Y3TmGa20(Tc2Os)2
_symmetry_space_group_name_H-M   'P 1'
_cell_length_a   9.03665508
_cell_length_b   9.03665508
_cell_length_c   6.34226200
_cell_angle_alpha   90.00000000
_cell_angle_beta   90.00000000
_cell_angle_gamma   89.87848036
_symmetry_Int_Tables_number   1
_chemical_formula_structural   Y3TmGa20(Tc2Os)2
_chemical_formula_sum   'Y3 Tm1 Ga20 Tc4 Os2'
_cell_volume   517.91514888
_cell_formula_units_Z   1
loop_
 _symmetry_equiv_pos_site_id
 _symmetry_equiv_pos_as_xyz
  1  'x, y, z'
loop_
 _atom_site_type_symbol
 _atom_site_label
 _atom_site_symmetry_multiplicity
 _atom_site_fract_x
 _atom_site_fract_y
 _atom_site_fract_z
 _atom_site_occupancy
  Y  Y0  1  0.183141  0.316887  0.000000  1
  Y  Y1  1  0.683295  0.183295  0.000000  1
  Y  Y2  1  0.816887  0.683141  0.000000  1
  Tm  Tm3  1  0.316596  0.816596  0.000000  1
  Ga  Ga4  1  0.499419  0.999419  0.288094  1
  Ga  Ga5  1  0.499419  0.999419  0.711906  1
  Ga  Ga6  1  0.294506  0.560669  0.707907  1
  Ga  Ga7  1  0.999977  0.499977  0.289943  1
  Ga  Ga8  1  0.999977  0.499977  0.710057  1
  Ga  Ga9  1  0.060669  0.794506  0.707907  1
  Ga  Ga10  1  0.205542  0.059100  0.292361  1
  Ga  Ga11  1  0.060669  0.794506  0.292093  1
  Ga  Ga12  1  0.705143  0.440373  0.706876  1
  Ga  Ga13  1  0.205542  0.059100  0.707639  1
  Ga  Ga14  1  0.940373  0.205143  0.706876  1
  Ga  Ga15  1  0.705143  0.440373  0.293124  1
  Ga  Ga16  1  0.559100  0.705542  0.292361  1
  Ga  Ga17  1  0.940373  0.205143  0.293124  1
  Ga  Ga18  1  0.559100  0.705542  0.707639  1
  Ga  Ga19  1  0.794914  0.940273  0.293217  1
  Ga  Ga20  1  0.440273  0.294914  0.706783  1
  Ga  Ga21  1  0.794914  0.940273  0.706783  1
  Ga  Ga22  1  0.440273  0.294914  0.293217  1
  Ga  Ga23  1  0.294506  0.560669  0.292093  1
  Tc  Tc24  1  0.179597  0.320560  0.500000  1
  Tc  Tc25  1  0.320629  0.820629  0.500000  1
  Tc  Tc26  1  0.820560  0.679597  0.500000  1
  Tc  Tc27  1  0.678940  0.178940  0.500000  1
  Os  Os28  1  0.001286  0.999241  0.000000  1
  Os  Os29  1  0.499241  0.501286  0.000000  1
