# generated using pymatgen
data_Sm4ErLu(Si3Ru)8
_symmetry_space_group_name_H-M   'P 1'
_cell_length_a   10.12626697
_cell_length_b   10.12626656
_cell_length_c   8.18362239
_cell_angle_alpha   90.01904400
_cell_angle_beta   90.01904831
_cell_angle_gamma   132.37453148
_symmetry_Int_Tables_number   1
_chemical_formula_structural   Sm4ErLu(Si3Ru)8
_chemical_formula_sum   'Sm4 Er1 Lu1 Si24 Ru8'
_cell_volume   619.93277457
_cell_formula_units_Z   1
loop_
 _symmetry_equiv_pos_site_id
 _symmetry_equiv_pos_as_xyz
  1  'x, y, z'
loop_
 _atom_site_type_symbol
 _atom_site_label
 _atom_site_symmetry_multiplicity
 _atom_site_fract_x
 _atom_site_fract_y
 _atom_site_fract_z
 _atom_site_occupancy
  Sm  Sm0  1  0.497300  0.997488  0.250346  1
  Sm  Sm1  1  0.002512  0.502700  0.749654  1
  Sm  Sm2  1  0.502700  0.002512  0.749654  1
  Sm  Sm3  1  0.997488  0.497300  0.250346  1
  Er  Er4  1  0.000000  0.000000  0.000000  1
  Lu  Lu5  1  0.500000  0.500000  0.500000  1
  Si  Si6  1  0.386878  0.155103  0.004562  1
  Si  Si7  1  0.655454  0.887458  0.495355  1
  Si  Si8  1  0.112542  0.344546  0.504645  1
  Si  Si9  1  0.844897  0.613122  0.995438  1
  Si  Si10  1  0.613122  0.844897  0.995438  1
  Si  Si11  1  0.344546  0.112542  0.504645  1
  Si  Si12  1  0.887458  0.655454  0.495355  1
  Si  Si13  1  0.155103  0.386878  0.004562  1
  Si  Si14  1  0.611380  0.378817  0.228938  1
  Si  Si15  1  0.879698  0.112590  0.271481  1
  Si  Si16  1  0.887410  0.120302  0.728519  1
  Si  Si17  1  0.621183  0.388620  0.771062  1
  Si  Si18  1  0.388620  0.621183  0.771062  1
  Si  Si19  1  0.120302  0.887410  0.728519  1
  Si  Si20  1  0.705044  0.294956  0.000000  1
  Si  Si21  1  0.794633  0.205367  0.500000  1
  Si  Si22  1  0.294956  0.705044  0.000000  1
  Si  Si23  1  0.205367  0.794633  0.500000  1
  Si  Si24  1  0.167719  0.167719  0.332694  1
  Si  Si25  1  0.668495  0.668495  0.166947  1
  Si  Si26  1  0.331505  0.331505  0.833053  1
  Si  Si27  1  0.832281  0.832281  0.667306  1
  Si  Si28  1  0.378817  0.611380  0.228938  1
  Si  Si29  1  0.112590  0.879698  0.271481  1
  Ru  Ru30  1  0.624766  0.624766  0.872104  1
  Ru  Ru31  1  0.126331  0.126331  0.625581  1
  Ru  Ru32  1  0.873669  0.873669  0.374419  1
  Ru  Ru33  1  0.375234  0.375234  0.127896  1
  Ru  Ru34  1  0.333175  0.666825  0.500000  1
  Ru  Ru35  1  0.167736  0.832264  0.000000  1
  Ru  Ru36  1  0.666825  0.333175  0.500000  1
  Ru  Ru37  1  0.832264  0.167736  0.000000  1
