# generated using pymatgen
data_Ca2SiPtI
_symmetry_space_group_name_H-M   'P 1'
_cell_length_a   4.20503400
_cell_length_b   4.20503377
_cell_length_c   16.78561000
_cell_angle_alpha   90.00000000
_cell_angle_beta   90.00000000
_cell_angle_gamma   120.00000182
_symmetry_Int_Tables_number   1
_chemical_formula_structural   Ca2SiPtI
_chemical_formula_sum   'Ca4 Si2 Pt2 I2'
_cell_volume   257.04357421
_cell_formula_units_Z   2
loop_
 _symmetry_equiv_pos_site_id
 _symmetry_equiv_pos_as_xyz
  1  'x, y, z'
loop_
 _atom_site_type_symbol
 _atom_site_label
 _atom_site_symmetry_multiplicity
 _atom_site_fract_x
 _atom_site_fract_y
 _atom_site_fract_z
 _atom_site_occupancy
  Ca  Ca0  1  0.000000  0.000000  0.612225  1
  Ca  Ca1  1  0.000000  0.000000  0.388735  1
  Ca  Ca2  1  0.000000  0.000000  0.112225  1
  Ca  Ca3  1  0.000000  0.000000  0.888735  1
  Si  Si4  1  0.666667  0.333333  0.504512  1
  Si  Si5  1  0.333333  0.666667  0.004512  1
  Pt  Pt6  1  0.666667  0.333333  0.995626  1
  Pt  Pt7  1  0.333333  0.666667  0.495626  1
  I  I8  1  0.666667  0.333333  0.248903  1
  I  I9  1  0.333333  0.666667  0.748903  1
