# generated using pymatgen
data_Tb3ErAl18(FePd2)2
_symmetry_space_group_name_H-M   'P 1'
_cell_length_a   7.56012603
_cell_length_b   7.56319508
_cell_length_c   9.45802202
_cell_angle_alpha   90.00422497
_cell_angle_beta   90.00313201
_cell_angle_gamma   119.75483523
_symmetry_Int_Tables_number   1
_chemical_formula_structural   Tb3ErAl18(FePd2)2
_chemical_formula_sum   'Tb3 Er1 Al18 Fe2 Pd4'
_cell_volume   469.49707812
_cell_formula_units_Z   1
loop_
 _symmetry_equiv_pos_site_id
 _symmetry_equiv_pos_as_xyz
  1  'x, y, z'
loop_
 _atom_site_type_symbol
 _atom_site_label
 _atom_site_symmetry_multiplicity
 _atom_site_fract_x
 _atom_site_fract_y
 _atom_site_fract_z
 _atom_site_occupancy
  Tb  Tb0  1  0.993684  0.664017  0.249922  1
  Tb  Tb1  1  0.006702  0.335921  0.750073  1
  Tb  Tb2  1  0.663858  0.993461  0.249924  1
  Er  Er3  1  0.335736  0.006699  0.750243  1
  Al  Al4  1  0.112994  0.112861  0.249901  1
  Al  Al5  1  0.888035  0.887471  0.750088  1
  Al  Al6  1  0.999962  0.322139  0.074868  1
  Al  Al7  1  0.000903  0.678660  0.924684  1
  Al  Al8  1  0.000917  0.678555  0.575328  1
  Al  Al9  1  0.322287  0.999920  0.425827  1
  Al  Al10  1  0.999958  0.322245  0.425095  1
  Al  Al11  1  0.676976  0.000064  0.575276  1
  Al  Al12  1  0.677095  0.000057  0.924733  1
  Al  Al13  1  0.322166  0.999923  0.074154  1
  Al  Al14  1  0.322838  0.322151  0.552484  1
  Al  Al15  1  0.677226  0.677221  0.448313  1
  Al  Al16  1  0.677331  0.677328  0.051637  1
  Al  Al17  1  0.322738  0.322055  0.947539  1
  Al  Al18  1  0.340252  0.542466  0.250000  1
  Al  Al19  1  0.658852  0.456372  0.749983  1
  Al  Al20  1  0.542305  0.340054  0.249996  1
  Al  Al21  1  0.457123  0.660101  0.749985  1
  Fe  Fe22  1  0.000372  0.000200  0.999505  1
  Fe  Fe23  1  0.000368  0.000233  0.500476  1
  Pd  Pd24  1  0.671832  0.327606  0.999713  1
  Pd  Pd25  1  0.327830  0.672314  0.999748  1
  Pd  Pd26  1  0.327858  0.672295  0.500234  1
  Pd  Pd27  1  0.671802  0.327611  0.500274  1
