# generated using pymatgen
data_Zr2MnPtRh4
_symmetry_space_group_name_H-M   'P 1'
_cell_length_a   5.58587527
_cell_length_b   5.58587414
_cell_length_c   8.27926800
_cell_angle_alpha   90.00000000
_cell_angle_beta   90.00000000
_cell_angle_gamma   97.10809945
_symmetry_Int_Tables_number   1
_chemical_formula_structural   Zr2MnPtRh4
_chemical_formula_sum   'Zr4 Mn2 Pt2 Rh8'
_cell_volume   256.34428480
_cell_formula_units_Z   2
loop_
 _symmetry_equiv_pos_site_id
 _symmetry_equiv_pos_as_xyz
  1  'x, y, z'
loop_
 _atom_site_type_symbol
 _atom_site_label
 _atom_site_symmetry_multiplicity
 _atom_site_fract_x
 _atom_site_fract_y
 _atom_site_fract_z
 _atom_site_occupancy
  Zr  Zr0  1  0.772776  0.227224  0.500000  1
  Zr  Zr1  1  0.227224  0.772776  0.000000  1
  Zr  Zr2  1  0.227224  0.772776  0.500000  1
  Zr  Zr3  1  0.772776  0.227224  0.000000  1
  Mn  Mn4  1  0.502873  0.502873  0.750000  1
  Mn  Mn5  1  0.497127  0.497127  0.250000  1
  Pt  Pt6  1  0.000651  0.000651  0.250000  1
  Pt  Pt7  1  0.999349  0.999349  0.750000  1
  Rh  Rh8  1  0.722810  0.722810  0.001279  1
  Rh  Rh9  1  0.722810  0.722810  0.498721  1
  Rh  Rh10  1  0.277190  0.277190  0.998721  1
  Rh  Rh11  1  0.277190  0.277190  0.501279  1
  Rh  Rh12  1  0.499802  0.000542  0.750000  1
  Rh  Rh13  1  0.500198  0.999458  0.250000  1
  Rh  Rh14  1  0.000542  0.499802  0.750000  1
  Rh  Rh15  1  0.999458  0.500198  0.250000  1
