# generated using pymatgen
data_ErZr3(SiW)4
_symmetry_space_group_name_H-M   'P 1'
_cell_length_a   3.57989200
_cell_length_b   7.04161959
_cell_length_c   8.28878251
_cell_angle_alpha   90.06459689
_cell_angle_beta   90.00000000
_cell_angle_gamma   90.00000000
_symmetry_Int_Tables_number   1
_chemical_formula_structural   ErZr3(SiW)4
_chemical_formula_sum   'Er1 Zr3 Si4 W4'
_cell_volume   208.94546634
_cell_formula_units_Z   1
loop_
 _symmetry_equiv_pos_site_id
 _symmetry_equiv_pos_as_xyz
  1  'x, y, z'
loop_
 _atom_site_type_symbol
 _atom_site_label
 _atom_site_symmetry_multiplicity
 _atom_site_fract_x
 _atom_site_fract_y
 _atom_site_fract_z
 _atom_site_occupancy
  Er  Er0  1  0.250000  0.040770  0.335878  1
  Zr  Zr1  1  0.250000  0.541850  0.163705  1
  Zr  Zr2  1  0.750000  0.958387  0.670399  1
  Zr  Zr3  1  0.750000  0.458553  0.833132  1
  Si  Si4  1  0.250000  0.260090  0.641481  1
  Si  Si5  1  0.250000  0.756463  0.860715  1
  Si  Si6  1  0.750000  0.735065  0.358402  1
  Si  Si7  1  0.750000  0.244595  0.137304  1
  W  W8  1  0.250000  0.131042  0.938900  1
  W  W9  1  0.250000  0.630675  0.559984  1
  W  W10  1  0.750000  0.869019  0.056954  1
  W  W11  1  0.750000  0.373491  0.443145  1
