# generated using pymatgen
data_K4Li2ScAlBi4
_symmetry_space_group_name_H-M   'P 1'
_cell_length_a   9.64853565
_cell_length_b   9.64853678
_cell_length_c   9.64853550
_cell_angle_alpha   137.23925459
_cell_angle_beta   61.69597855
_cell_angle_gamma   137.72757676
_symmetry_Int_Tables_number   1
_chemical_formula_structural   K4Li2ScAlBi4
_chemical_formula_sum   'K4 Li2 Sc1 Al1 Bi4'
_cell_volume   405.48596240
_cell_formula_units_Z   1
loop_
 _symmetry_equiv_pos_site_id
 _symmetry_equiv_pos_as_xyz
  1  'x, y, z'
loop_
 _atom_site_type_symbol
 _atom_site_label
 _atom_site_symmetry_multiplicity
 _atom_site_fract_x
 _atom_site_fract_y
 _atom_site_fract_z
 _atom_site_occupancy
  K  K0  1  0.333417  0.769578  0.095418  1
  K  K1  1  0.166583  0.262001  0.436159  1
  K  K2  1  0.825841  0.730423  0.563840  1
  K  K3  1  0.674160  0.237999  0.904582  1
  Li  Li4  1  0.750000  0.250000  0.500000  1
  Li  Li5  1  0.250000  0.749999  0.500000  1
  Sc  Sc6  1  0.250000  0.250000  0.000000  1
  Al  Al7  1  0.750000  0.750000  0.000000  1
  Bi  Bi8  1  0.895168  0.229894  0.137015  1
  Bi  Bi9  1  0.604834  0.741849  0.334727  1
  Bi  Bi10  1  0.407122  0.270107  0.665273  1
  Bi  Bi11  1  0.092878  0.758152  0.862986  1
