# generated using pymatgen
data_Y6Al24Os7Pt
_symmetry_space_group_name_H-M   'P 1'
_cell_length_a   8.85138542
_cell_length_b   8.85138562
_cell_length_c   9.55990877
_cell_angle_alpha   89.62615464
_cell_angle_beta   90.37384402
_cell_angle_gamma   119.87603626
_symmetry_Int_Tables_number   1
_chemical_formula_structural   Y6Al24Os7Pt
_chemical_formula_sum   'Y6 Al24 Os7 Pt1'
_cell_volume   649.43500195
_cell_formula_units_Z   1
loop_
 _symmetry_equiv_pos_site_id
 _symmetry_equiv_pos_as_xyz
  1  'x, y, z'
loop_
 _atom_site_type_symbol
 _atom_site_label
 _atom_site_symmetry_multiplicity
 _atom_site_fract_x
 _atom_site_fract_y
 _atom_site_fract_z
 _atom_site_occupancy
  Y  Y0  1  0.190286  0.386222  0.251276  1
  Y  Y1  1  0.809714  0.613778  0.748724  1
  Y  Y2  1  0.613778  0.809714  0.251276  1
  Y  Y3  1  0.386222  0.190286  0.748724  1
  Y  Y4  1  0.194575  0.805425  0.251447  1
  Y  Y5  1  0.805425  0.194575  0.748553  1
  Al  Al6  1  0.331443  0.668557  0.018279  1
  Al  Al7  1  0.668557  0.331443  0.981721  1
  Al  Al8  1  0.666677  0.333323  0.516421  1
  Al  Al9  1  0.333323  0.666677  0.483579  1
  Al  Al10  1  0.163509  0.325831  0.576618  1
  Al  Al11  1  0.836491  0.674169  0.423382  1
  Al  Al12  1  0.674169  0.836491  0.576618  1
  Al  Al13  1  0.842366  0.675364  0.077279  1
  Al  Al14  1  0.325831  0.163509  0.423382  1
  Al  Al15  1  0.157634  0.324636  0.922721  1
  Al  Al16  1  0.163615  0.836385  0.574835  1
  Al  Al17  1  0.324636  0.157634  0.077279  1
  Al  Al18  1  0.836385  0.163615  0.425165  1
  Al  Al19  1  0.675364  0.842366  0.922721  1
  Al  Al20  1  0.836915  0.163085  0.075406  1
  Al  Al21  1  0.163085  0.836915  0.924594  1
  Al  Al22  1  0.560298  0.121597  0.249176  1
  Al  Al23  1  0.439702  0.878403  0.750824  1
  Al  Al24  1  0.878403  0.439702  0.249176  1
  Al  Al25  1  0.121597  0.560298  0.750824  1
  Al  Al26  1  0.561912  0.438088  0.252207  1
  Al  Al27  1  0.438088  0.561912  0.747793  1
  Al  Al28  1  0.999701  0.000299  0.250143  1
  Al  Al29  1  0.000299  0.999701  0.749857  1
  Os  Os30  1  0.500000  0.000000  0.000000  1
  Os  Os31  1  0.000000  0.500000  0.000000  1
  Os  Os32  1  0.500000  0.000000  0.500000  1
  Os  Os33  1  0.000000  0.500000  0.500000  1
  Os  Os34  1  0.500000  0.500000  0.500000  1
  Os  Os35  1  0.000000  0.000000  0.000000  1
  Os  Os36  1  0.000000  0.000000  0.500000  1
  Pt  Pt37  1  0.500000  0.500000  0.000000  1
