# generated using pymatgen
data_Ho12AlZnFe4
_symmetry_space_group_name_H-M   'P 1'
_cell_length_a   8.28786416
_cell_length_b   8.28771748
_cell_length_c   8.28786439
_cell_angle_alpha   111.12028098
_cell_angle_beta   110.79428775
_cell_angle_gamma   106.53915840
_symmetry_Int_Tables_number   1
_chemical_formula_structural   Ho12AlZnFe4
_chemical_formula_sum   'Ho12 Al1 Zn1 Fe4'
_cell_volume   437.36343107
_cell_formula_units_Z   1
loop_
 _symmetry_equiv_pos_site_id
 _symmetry_equiv_pos_as_xyz
  1  'x, y, z'
loop_
 _atom_site_type_symbol
 _atom_site_label
 _atom_site_symmetry_multiplicity
 _atom_site_fract_x
 _atom_site_fract_y
 _atom_site_fract_z
 _atom_site_occupancy
  Ho  Ho0  1  0.314711  0.613512  0.298801  1
  Ho  Ho1  1  0.685289  0.386488  0.701199  1
  Ho  Ho2  1  0.314693  0.015882  0.701190  1
  Ho  Ho3  1  0.685307  0.984118  0.298810  1
  Ho  Ho4  1  0.186963  0.286842  0.473818  1
  Ho  Ho5  1  0.813037  0.713158  0.526182  1
  Ho  Ho6  1  0.186977  0.713158  0.900121  1
  Ho  Ho7  1  0.813023  0.286842  0.099879  1
  Ho  Ho8  1  0.429564  0.227184  0.202385  1
  Ho  Ho9  1  0.570436  0.772816  0.797615  1
  Ho  Ho10  1  0.024799  0.227184  0.797619  1
  Ho  Ho11  1  0.975201  0.772816  0.202381  1
  Al  Al12  1  0.500000  0.500000  0.000000  1
  Zn  Zn13  1  0.000000  0.000000  0.000000  1
  Fe  Fe14  1  0.109103  0.609115  0.500012  1
  Fe  Fe15  1  0.890897  0.390885  0.499988  1
  Fe  Fe16  1  0.381600  0.000000  0.381600  1
  Fe  Fe17  1  0.618400  0.000000  0.618400  1
