# generated using pymatgen
data_LiPrHo4(P2Ru3)6
_symmetry_space_group_name_H-M   'P 1'
_cell_length_a   12.64724416
_cell_length_b   12.44148613
_cell_length_c   3.97981800
_cell_angle_alpha   90.00000000
_cell_angle_beta   90.00000000
_cell_angle_gamma   119.46326714
_symmetry_Int_Tables_number   1
_chemical_formula_structural   LiPrHo4(P2Ru3)6
_chemical_formula_sum   'Li1 Pr1 Ho4 P12 Ru18'
_cell_volume   545.23730301
_cell_formula_units_Z   1
loop_
 _symmetry_equiv_pos_site_id
 _symmetry_equiv_pos_as_xyz
  1  'x, y, z'
loop_
 _atom_site_type_symbol
 _atom_site_label
 _atom_site_symmetry_multiplicity
 _atom_site_fract_x
 _atom_site_fract_y
 _atom_site_fract_z
 _atom_site_occupancy
  Li  Li0  1  0.000000  0.562376  0.000000  1
  Pr  Pr1  1  0.000000  0.181822  0.500000  1
  Ho  Ho2  1  0.816907  0.816108  0.500000  1
  Ho  Ho3  1  0.183093  0.999200  0.500000  1
  Ho  Ho4  1  0.659672  0.329471  0.000000  1
  Ho  Ho5  1  0.340328  0.669800  0.000000  1
  P  P6  1  0.000000  0.807749  0.000000  1
  P  P7  1  0.184975  0.183297  0.000000  1
  P  P8  1  0.815025  0.998322  0.000000  1
  P  P9  1  0.691997  0.173453  0.500000  1
  P  P10  1  0.819525  0.519293  0.500000  1
  P  P11  1  0.475200  0.306878  0.500000  1
  P  P12  1  0.180475  0.699768  0.500000  1
  P  P13  1  0.524800  0.831678  0.500000  1
  P  P14  1  0.308003  0.481456  0.500000  1
  P  P15  1  0.000000  0.370437  0.000000  1
  P  P16  1  0.626352  0.625204  0.000000  1
  P  P17  1  0.373648  0.998851  0.000000  1
  Ru  Ru18  1  0.445122  0.444854  0.000000  1
  Ru  Ru19  1  0.554878  0.999732  0.000000  1
  Ru  Ru20  1  0.000000  0.712152  0.500000  1
  Ru  Ru21  1  0.283127  0.284049  0.500000  1
  Ru  Ru22  1  0.716873  0.000923  0.500000  1
  Ru  Ru23  1  0.802896  0.186130  0.000000  1
  Ru  Ru24  1  0.813039  0.618836  0.000000  1
  Ru  Ru25  1  0.373732  0.188698  0.000000  1
  Ru  Ru26  1  0.186961  0.805798  0.000000  1
  Ru  Ru27  1  0.626268  0.814966  0.000000  1
  Ru  Ru28  1  0.197104  0.383234  0.000000  1
  Ru  Ru29  1  0.876086  0.368345  0.500000  1
  Ru  Ru30  1  0.631249  0.509113  0.500000  1
  Ru  Ru31  1  0.492894  0.128486  0.500000  1
  Ru  Ru32  1  0.368751  0.877865  0.500000  1
  Ru  Ru33  1  0.507106  0.635592  0.500000  1
  Ru  Ru34  1  0.123914  0.492259  0.500000  1
  Ru  Ru35  1  0.000000  0.993805  0.000000  1
