# generated using pymatgen
data_Dy4LuZn2Bi
_symmetry_space_group_name_H-M   'P 1'
_cell_length_a   8.60857954
_cell_length_b   8.60857939
_cell_length_c   8.60857921
_cell_angle_alpha   123.79373510
_cell_angle_beta   123.79373716
_cell_angle_gamma   83.54576456
_symmetry_Int_Tables_number   1
_chemical_formula_structural   Dy4LuZn2Bi
_chemical_formula_sum   'Dy8 Lu2 Zn4 Bi2'
_cell_volume   422.30328199
_cell_formula_units_Z   2
loop_
 _symmetry_equiv_pos_site_id
 _symmetry_equiv_pos_as_xyz
  1  'x, y, z'
loop_
 _atom_site_type_symbol
 _atom_site_label
 _atom_site_symmetry_multiplicity
 _atom_site_fract_x
 _atom_site_fract_y
 _atom_site_fract_z
 _atom_site_occupancy
  Dy  Dy0  1  0.513248  0.013248  0.808819  1
  Dy  Dy1  1  0.204429  0.704429  0.191181  1
  Dy  Dy2  1  0.013248  0.204429  0.500000  1
  Dy  Dy3  1  0.704429  0.513248  0.500000  1
  Dy  Dy4  1  0.486752  0.986752  0.191181  1
  Dy  Dy5  1  0.795571  0.295571  0.808819  1
  Dy  Dy6  1  0.986752  0.795571  0.500000  1
  Dy  Dy7  1  0.295571  0.486752  0.500000  1
  Lu  Lu8  1  0.500000  0.500000  0.000000  1
  Lu  Lu9  1  0.000000  0.000000  0.000000  1
  Zn  Zn10  1  0.138532  0.638532  0.777064  1
  Zn  Zn11  1  0.861468  0.361468  0.222936  1
  Zn  Zn12  1  0.638532  0.861468  0.500000  1
  Zn  Zn13  1  0.361468  0.138532  0.500000  1
  Bi  Bi14  1  0.250000  0.250000  0.000000  1
  Bi  Bi15  1  0.750000  0.750000  0.000000  1
