# generated using pymatgen
data_U4Mn6Si4AsPRu
_symmetry_space_group_name_H-M   'P 1'
_cell_length_a   6.91642502
_cell_length_b   6.91642530
_cell_length_c   6.91642600
_cell_angle_alpha   109.53088248
_cell_angle_beta   109.35197848
_cell_angle_gamma   109.53087089
_symmetry_Int_Tables_number   1
_chemical_formula_structural   U4Mn6Si4AsPRu
_chemical_formula_sum   'U4 Mn6 Si4 As1 P1 Ru1'
_cell_volume   254.69579503
_cell_formula_units_Z   1
loop_
 _symmetry_equiv_pos_site_id
 _symmetry_equiv_pos_as_xyz
  1  'x, y, z'
loop_
 _atom_site_type_symbol
 _atom_site_label
 _atom_site_symmetry_multiplicity
 _atom_site_fract_x
 _atom_site_fract_y
 _atom_site_fract_z
 _atom_site_occupancy
  U  U0  1  0.004643  0.000000  0.495778  1
  U  U1  1  0.495778  0.000000  0.004643  1
  U  U2  1  0.004643  0.508865  0.004643  1
  U  U3  1  0.495778  0.491135  0.495778  1
  Mn  Mn4  1  0.747814  0.500000  0.247814  1
  Mn  Mn5  1  0.496043  0.752310  0.248353  1
  Mn  Mn6  1  0.496043  0.247690  0.743733  1
  Mn  Mn7  1  0.743733  0.247690  0.496043  1
  Mn  Mn8  1  0.248353  0.752310  0.496043  1
  Mn  Mn9  1  0.247814  0.500000  0.747814  1
  Si  Si10  1  0.998323  0.327145  0.325469  1
  Si  Si11  1  0.998323  0.672855  0.671179  1
  Si  Si12  1  0.325469  0.327145  0.998323  1
  Si  Si13  1  0.671179  0.672855  0.998323  1
  As  As14  1  0.689826  0.000000  0.689826  1
  P  P15  1  0.324015  0.000000  0.324015  1
  Ru  Ru16  1  0.012222  0.000000  0.012222  1
