# generated using pymatgen
data_Dy2Ho2Al24Ir(Pt3Au)2
_symmetry_space_group_name_H-M   'P 1'
_cell_length_a   7.51896559
_cell_length_b   7.54352156
_cell_length_c   13.16863100
_cell_angle_alpha   84.63336999
_cell_angle_beta   79.12296247
_cell_angle_gamma   59.91494738
_symmetry_Int_Tables_number   1
_chemical_formula_structural   Dy2Ho2Al24Ir(Pt3Au)2
_chemical_formula_sum   'Dy2 Ho2 Al24 Ir1 Pt6 Au2'
_cell_volume   634.68321438
_cell_formula_units_Z   1
loop_
 _symmetry_equiv_pos_site_id
 _symmetry_equiv_pos_as_xyz
  1  'x, y, z'
loop_
 _atom_site_type_symbol
 _atom_site_label
 _atom_site_symmetry_multiplicity
 _atom_site_fract_x
 _atom_site_fract_y
 _atom_site_fract_z
 _atom_site_occupancy
  Dy  Dy0  1  0.392632  0.168996  0.809591  1
  Dy  Dy1  1  0.607368  0.831004  0.190409  1
  Ho  Ho2  1  0.733707  0.498691  0.809991  1
  Ho  Ho3  1  0.266293  0.501309  0.190009  1
  Al  Al4  1  0.685821  0.830975  0.946302  1
  Al  Al5  1  0.314179  0.169025  0.053698  1
  Al  Al6  1  0.145974  0.838376  0.561565  1
  Al  Al7  1  0.854026  0.161624  0.438435  1
  Al  Al8  1  0.487589  0.159644  0.558941  1
  Al  Al9  1  0.512411  0.840356  0.441059  1
  Al  Al10  1  0.222720  0.161044  0.325050  1
  Al  Al11  1  0.777280  0.838956  0.674950  1
  Al  Al12  1  0.439296  0.507295  0.675194  1
  Al  Al13  1  0.560704  0.492705  0.324806  1
  Al  Al14  1  0.108584  0.154993  0.673100  1
  Al  Al15  1  0.891416  0.845007  0.326900  1
  Al  Al16  1  0.350046  0.498955  0.946303  1
  Al  Al17  1  0.649954  0.501045  0.053697  1
  Al  Al18  1  0.014877  0.170878  0.954771  1
  Al  Al19  1  0.985123  0.829122  0.045229  1
  Al  Al20  1  0.194755  0.499524  0.438086  1
  Al  Al21  1  0.805245  0.500476  0.561914  1
  Al  Al22  1  0.733388  0.164276  0.182814  1
  Al  Al23  1  0.266612  0.835724  0.817186  1
  Al  Al24  1  0.059526  0.632052  0.819864  1
  Al  Al25  1  0.940474  0.367948  0.180136  1
  Al  Al26  1  0.854752  0.042459  0.816723  1
  Al  Al27  1  0.145248  0.957541  0.183277  1
  Ir  Ir28  1  0.000000  0.500000  0.000000  1
  Pt  Pt29  1  0.657603  0.171245  0.999777  1
  Pt  Pt30  1  0.342397  0.828755  0.000223  1
  Pt  Pt31  1  0.537372  0.166876  0.362443  1
  Pt  Pt32  1  0.462628  0.833124  0.637557  1
  Pt  Pt33  1  0.779286  0.175325  0.636430  1
  Pt  Pt34  1  0.220714  0.824675  0.363570  1
  Au  Au35  1  0.120002  0.491105  0.638329  1
  Au  Au36  1  0.879998  0.508895  0.361671  1
