# generated using pymatgen
data_FeBi6(RhO9)2
_symmetry_space_group_name_H-M   'P 1'
_cell_length_a   9.19817900
_cell_length_b   9.19817952
_cell_length_c   5.11964100
_cell_angle_alpha   90.00000000
_cell_angle_beta   90.00000000
_cell_angle_gamma   120.00000171
_symmetry_Int_Tables_number   1
_chemical_formula_structural   FeBi6(RhO9)2
_chemical_formula_sum   'Fe1 Bi6 Rh2 O18'
_cell_volume   375.12315388
_cell_formula_units_Z   1
loop_
 _symmetry_equiv_pos_site_id
 _symmetry_equiv_pos_as_xyz
  1  'x, y, z'
loop_
 _atom_site_type_symbol
 _atom_site_label
 _atom_site_symmetry_multiplicity
 _atom_site_fract_x
 _atom_site_fract_y
 _atom_site_fract_z
 _atom_site_occupancy
  Fe  Fe0  1  0.000000  0.000000  0.500000  1
  Bi  Bi1  1  0.000000  0.369637  0.500000  1
  Bi  Bi2  1  0.287840  0.287840  0.000000  1
  Bi  Bi3  1  0.000000  0.712160  0.000000  1
  Bi  Bi4  1  0.630363  0.630363  0.500000  1
  Bi  Bi5  1  0.369637  0.000000  0.500000  1
  Bi  Bi6  1  0.712160  0.000000  0.000000  1
  Rh  Rh7  1  0.333333  0.666667  0.997751  1
  Rh  Rh8  1  0.666667  0.333333  0.002249  1
  O  O9  1  0.084012  0.207088  0.722076  1
  O  O10  1  0.230240  0.461070  0.222763  1
  O  O11  1  0.132355  0.596156  0.782333  1
  O  O12  1  0.403844  0.536200  0.782333  1
  O  O13  1  0.230831  0.769760  0.222763  1
  O  O14  1  0.123077  0.915988  0.722076  1
  O  O15  1  0.538930  0.769169  0.222763  1
  O  O16  1  0.207088  0.084012  0.277924  1
  O  O17  1  0.463800  0.867645  0.782333  1
  O  O18  1  0.792912  0.876923  0.722076  1
  O  O19  1  0.461070  0.230240  0.777237  1
  O  O20  1  0.596156  0.132355  0.217667  1
  O  O21  1  0.536200  0.403844  0.217667  1
  O  O22  1  0.769760  0.230831  0.777237  1
  O  O23  1  0.915988  0.123077  0.277924  1
  O  O24  1  0.769169  0.538930  0.777237  1
  O  O25  1  0.867645  0.463800  0.217667  1
  O  O26  1  0.876923  0.792912  0.277924  1
