# generated using pymatgen
data_TbPa2Sb4Pt3
_symmetry_space_group_name_H-M   'P 1'
_cell_length_a   8.46709572
_cell_length_b   8.46709701
_cell_length_c   8.46709650
_cell_angle_alpha   109.60391140
_cell_angle_beta   109.60391187
_cell_angle_gamma   109.20616678
_symmetry_Int_Tables_number   1
_chemical_formula_structural   TbPa2Sb4Pt3
_chemical_formula_sum   'Tb2 Pa4 Sb8 Pt6'
_cell_volume   467.27725138
_cell_formula_units_Z   2
loop_
 _symmetry_equiv_pos_site_id
 _symmetry_equiv_pos_as_xyz
  1  'x, y, z'
loop_
 _atom_site_type_symbol
 _atom_site_label
 _atom_site_symmetry_multiplicity
 _atom_site_fract_x
 _atom_site_fract_y
 _atom_site_fract_z
 _atom_site_occupancy
  Tb  Tb0  1  0.125000  0.875000  0.250000  1
  Tb  Tb1  1  0.375000  0.625000  0.750000  1
  Pa  Pa2  1  0.875398  0.250000  0.125398  1
  Pa  Pa3  1  0.624602  0.750000  0.374602  1
  Pa  Pa4  1  0.250000  0.124602  0.874602  1
  Pa  Pa5  1  0.750000  0.375398  0.625398  1
  Sb  Sb6  1  0.675848  0.500794  0.998853  1
  Sb  Sb7  1  0.498060  0.999206  0.675055  1
  Sb  Sb8  1  0.001940  0.676995  0.501147  1
  Sb  Sb9  1  0.824152  0.823005  0.824945  1
  Sb  Sb10  1  0.499206  0.998060  0.175055  1
  Sb  Sb11  1  0.176995  0.501940  0.001147  1
  Sb  Sb12  1  0.000794  0.175848  0.498853  1
  Sb  Sb13  1  0.323005  0.324152  0.324945  1
  Pt  Pt14  1  0.376758  0.250000  0.626758  1
  Pt  Pt15  1  0.123242  0.750000  0.873242  1
  Pt  Pt16  1  0.250000  0.623242  0.373242  1
  Pt  Pt17  1  0.750000  0.876758  0.126758  1
  Pt  Pt18  1  0.625000  0.375000  0.250000  1
  Pt  Pt19  1  0.875000  0.125000  0.750000  1
