# generated using pymatgen
data_Er6Al24FeRu7
_symmetry_space_group_name_H-M   'P 1'
_cell_length_a   8.74004100
_cell_length_b   8.74004115
_cell_length_c   9.50977000
_cell_angle_alpha   90.00000000
_cell_angle_beta   90.00000000
_cell_angle_gamma   119.99999564
_symmetry_Int_Tables_number   1
_chemical_formula_structural   Er6Al24FeRu7
_chemical_formula_sum   'Er6 Al24 Fe1 Ru7'
_cell_volume   629.11148190
_cell_formula_units_Z   1
loop_
 _symmetry_equiv_pos_site_id
 _symmetry_equiv_pos_as_xyz
  1  'x, y, z'
loop_
 _atom_site_type_symbol
 _atom_site_label
 _atom_site_symmetry_multiplicity
 _atom_site_fract_x
 _atom_site_fract_y
 _atom_site_fract_z
 _atom_site_occupancy
  Er  Er0  1  0.193774  0.387546  0.250038  1
  Er  Er1  1  0.806226  0.612454  0.749962  1
  Er  Er2  1  0.612454  0.806226  0.250038  1
  Er  Er3  1  0.387546  0.193774  0.749962  1
  Er  Er4  1  0.193774  0.806226  0.250038  1
  Er  Er5  1  0.806226  0.193774  0.749962  1
  Al  Al6  1  0.333333  0.666667  0.016180  1
  Al  Al7  1  0.666667  0.333333  0.983820  1
  Al  Al8  1  0.666667  0.333333  0.517144  1
  Al  Al9  1  0.333333  0.666667  0.482856  1
  Al  Al10  1  0.162185  0.324369  0.577941  1
  Al  Al11  1  0.837815  0.675631  0.422059  1
  Al  Al12  1  0.675631  0.837815  0.577941  1
  Al  Al13  1  0.840172  0.680345  0.076551  1
  Al  Al14  1  0.324369  0.162185  0.422059  1
  Al  Al15  1  0.159828  0.319655  0.923449  1
  Al  Al16  1  0.162185  0.837815  0.577941  1
  Al  Al17  1  0.319655  0.159828  0.076551  1
  Al  Al18  1  0.837815  0.162185  0.422059  1
  Al  Al19  1  0.680345  0.840172  0.923449  1
  Al  Al20  1  0.840172  0.159828  0.076551  1
  Al  Al21  1  0.159828  0.840172  0.923449  1
  Al  Al22  1  0.561084  0.122167  0.249583  1
  Al  Al23  1  0.438916  0.877833  0.750417  1
  Al  Al24  1  0.877833  0.438916  0.249583  1
  Al  Al25  1  0.122167  0.561084  0.750417  1
  Al  Al26  1  0.561084  0.438916  0.249583  1
  Al  Al27  1  0.438916  0.561084  0.750417  1
  Al  Al28  1  0.000000  0.000000  0.243930  1
  Al  Al29  1  0.000000  0.000000  0.756070  1
  Fe  Fe30  1  0.000000  0.000000  0.000000  1
  Ru  Ru31  1  0.500000  0.000000  0.000000  1
  Ru  Ru32  1  0.000000  0.500000  0.000000  1
  Ru  Ru33  1  0.500000  0.000000  0.500000  1
  Ru  Ru34  1  0.500000  0.500000  0.000000  1
  Ru  Ru35  1  0.000000  0.500000  0.500000  1
  Ru  Ru36  1  0.500000  0.500000  0.500000  1
  Ru  Ru37  1  0.000000  0.000000  0.500000  1
