# generated using pymatgen
data_DyFeB6Mo
_symmetry_space_group_name_H-M   'P 1'
_cell_length_a   3.31436600
_cell_length_b   8.86636800
_cell_length_c   11.19911400
_cell_angle_alpha   90.00000000
_cell_angle_beta   90.00000000
_cell_angle_gamma   90.00000000
_symmetry_Int_Tables_number   1
_chemical_formula_structural   DyFeB6Mo
_chemical_formula_sum   'Dy4 Fe4 B24 Mo4'
_cell_volume   329.10151646
_cell_formula_units_Z   4
loop_
 _symmetry_equiv_pos_site_id
 _symmetry_equiv_pos_as_xyz
  1  'x, y, z'
loop_
 _atom_site_type_symbol
 _atom_site_label
 _atom_site_symmetry_multiplicity
 _atom_site_fract_x
 _atom_site_fract_y
 _atom_site_fract_z
 _atom_site_occupancy
  Dy  Dy0  1  0.000000  0.821194  0.086544  1
  Dy  Dy1  1  0.000000  0.178806  0.913456  1
  Dy  Dy2  1  0.000000  0.321194  0.413456  1
  Dy  Dy3  1  0.000000  0.678806  0.586544  1
  Fe  Fe4  1  0.000000  0.142708  0.183348  1
  Fe  Fe5  1  0.000000  0.857292  0.816652  1
  Fe  Fe6  1  0.000000  0.642708  0.316652  1
  Fe  Fe7  1  0.000000  0.357292  0.683348  1
  B  B8  1  0.500000  0.055193  0.067424  1
  B  B9  1  0.500000  0.944807  0.932576  1
  B  B10  1  0.500000  0.555193  0.432576  1
  B  B11  1  0.500000  0.444807  0.567424  1
  B  B12  1  0.500000  0.252933  0.082792  1
  B  B13  1  0.500000  0.747067  0.917208  1
  B  B14  1  0.500000  0.752933  0.417208  1
  B  B15  1  0.500000  0.247067  0.582792  1
  B  B16  1  0.500000  0.297042  0.235415  1
  B  B17  1  0.500000  0.702958  0.764585  1
  B  B18  1  0.500000  0.797042  0.264585  1
  B  B19  1  0.500000  0.202958  0.735415  1
  B  B20  1  0.500000  0.128717  0.317797  1
  B  B21  1  0.500000  0.871283  0.682203  1
  B  B22  1  0.500000  0.628717  0.182203  1
  B  B23  1  0.500000  0.371283  0.817797  1
  B  B24  1  0.500000  0.482086  0.286155  1
  B  B25  1  0.500000  0.517914  0.713845  1
  B  B26  1  0.500000  0.982086  0.213845  1
  B  B27  1  0.500000  0.017914  0.786155  1
  B  B28  1  0.500000  0.099579  0.473794  1
  B  B29  1  0.500000  0.900421  0.526206  1
  B  B30  1  0.500000  0.599579  0.026206  1
  B  B31  1  0.500000  0.400421  0.973794  1
  Mo  Mo32  1  0.000000  0.445037  0.127403  1
  Mo  Mo33  1  0.000000  0.554963  0.872597  1
  Mo  Mo34  1  0.000000  0.945037  0.372597  1
  Mo  Mo35  1  0.000000  0.054963  0.627403  1
