# generated using pymatgen
data_Ta8Ga5Mo2As
_symmetry_space_group_name_H-M   'P 1'
_cell_length_a   6.61580719
_cell_length_b   7.66626547
_cell_length_c   6.61580632
_cell_angle_alpha   115.42036770
_cell_angle_beta   90.29637826
_cell_angle_gamma   115.42036720
_symmetry_Int_Tables_number   1
_chemical_formula_structural   Ta8Ga5Mo2As
_chemical_formula_sum   'Ta8 Ga5 Mo2 As1'
_cell_volume   266.23363431
_cell_formula_units_Z   1
loop_
 _symmetry_equiv_pos_site_id
 _symmetry_equiv_pos_as_xyz
  1  'x, y, z'
loop_
 _atom_site_type_symbol
 _atom_site_label
 _atom_site_symmetry_multiplicity
 _atom_site_fract_x
 _atom_site_fract_y
 _atom_site_fract_z
 _atom_site_occupancy
  Ta  Ta0  1  0.504505  0.689050  0.684545  1
  Ta  Ta1  1  0.183302  0.689150  0.005846  1
  Ta  Ta2  1  0.683159  0.690497  0.182733  1
  Ta  Ta3  1  0.007764  0.690497  0.507337  1
  Ta  Ta4  1  0.494154  0.310850  0.316698  1
  Ta  Ta5  1  0.815455  0.310950  0.995495  1
  Ta  Ta6  1  0.317267  0.309503  0.816841  1
  Ta  Ta7  1  0.992663  0.309503  0.492236  1
  Ga  Ga8  1  0.749550  0.500000  0.750450  1
  Ga  Ga9  1  0.249550  0.500000  0.250450  1
  Ga  Ga10  1  0.141244  0.000000  0.358756  1
  Ga  Ga11  1  0.633877  0.000000  0.136152  1
  Ga  Ga12  1  0.363848  0.000000  0.866123  1
  Mo  Mo13  1  0.997537  0.000000  0.997638  1
  Mo  Mo14  1  0.502362  0.000000  0.502463  1
  As  As15  1  0.863768  0.000000  0.636232  1
