# generated using pymatgen
data_Tb10Bi5PbCl2
_symmetry_space_group_name_H-M   'P 1'
_cell_length_a   9.30113300
_cell_length_b   9.30288437
_cell_length_c   6.52315700
_cell_angle_alpha   90.00000000
_cell_angle_beta   90.00000000
_cell_angle_gamma   119.99376900
_symmetry_Int_Tables_number   1
_chemical_formula_structural   Tb10Bi5PbCl2
_chemical_formula_sum   'Tb10 Bi5 Pb1 Cl2'
_cell_volume   488.84278040
_cell_formula_units_Z   1
loop_
 _symmetry_equiv_pos_site_id
 _symmetry_equiv_pos_as_xyz
  1  'x, y, z'
loop_
 _atom_site_type_symbol
 _atom_site_label
 _atom_site_symmetry_multiplicity
 _atom_site_fract_x
 _atom_site_fract_y
 _atom_site_fract_z
 _atom_site_occupancy
  Tb  Tb0  1  0.268217  0.000000  0.750000  1
  Tb  Tb1  1  0.732924  0.000000  0.250000  1
  Tb  Tb2  1  0.996748  0.264586  0.750000  1
  Tb  Tb3  1  0.000292  0.734046  0.250000  1
  Tb  Tb4  1  0.732162  0.735414  0.750000  1
  Tb  Tb5  1  0.266246  0.265954  0.250000  1
  Tb  Tb6  1  0.333927  0.667590  0.500284  1
  Tb  Tb7  1  0.666338  0.332410  0.500284  1
  Tb  Tb8  1  0.666338  0.332410  0.999716  1
  Tb  Tb9  1  0.333927  0.667590  0.999716  1
  Bi  Bi10  1  0.388598  0.000000  0.250000  1
  Bi  Bi11  1  0.999391  0.612390  0.750000  1
  Bi  Bi12  1  0.000043  0.387975  0.250000  1
  Bi  Bi13  1  0.387001  0.387610  0.750000  1
  Bi  Bi14  1  0.612068  0.612025  0.250000  1
  Pb  Pb15  1  0.612078  0.000000  0.750000  1
  Cl  Cl16  1  0.001851  0.000000  0.499373  1
  Cl  Cl17  1  0.001851  0.000000  0.000627  1
