# generated using pymatgen
data_Ca20CdGa9Bi2
_symmetry_space_group_name_H-M   'P 1'
_cell_length_a   8.12727600
_cell_length_b   8.12727600
_cell_length_c   14.61551900
_cell_angle_alpha   90.00000000
_cell_angle_beta   90.00000000
_cell_angle_gamma   90.00000000
_symmetry_Int_Tables_number   1
_chemical_formula_structural   Ca20CdGa9Bi2
_chemical_formula_sum   'Ca20 Cd1 Ga9 Bi2'
_cell_volume   965.39325217
_cell_formula_units_Z   1
loop_
 _symmetry_equiv_pos_site_id
 _symmetry_equiv_pos_as_xyz
  1  'x, y, z'
loop_
 _atom_site_type_symbol
 _atom_site_label
 _atom_site_symmetry_multiplicity
 _atom_site_fract_x
 _atom_site_fract_y
 _atom_site_fract_z
 _atom_site_occupancy
  Ca  Ca0  1  0.680316  0.165602  0.106918  1
  Ca  Ca1  1  0.171899  0.671650  0.611378  1
  Ca  Ca2  1  0.319684  0.834398  0.106918  1
  Ca  Ca3  1  0.828101  0.328350  0.611378  1
  Ca  Ca4  1  0.834398  0.680316  0.106918  1
  Ca  Ca5  1  0.328350  0.171899  0.611378  1
  Ca  Ca6  1  0.165602  0.319684  0.106918  1
  Ca  Ca7  1  0.671650  0.828101  0.611378  1
  Ca  Ca8  1  0.834398  0.319684  0.893082  1
  Ca  Ca9  1  0.328350  0.828101  0.388622  1
  Ca  Ca10  1  0.165602  0.680316  0.893082  1
  Ca  Ca11  1  0.671650  0.171899  0.388622  1
  Ca  Ca12  1  0.680316  0.834398  0.893082  1
  Ca  Ca13  1  0.171899  0.328350  0.388622  1
  Ca  Ca14  1  0.319684  0.165602  0.893082  1
  Ca  Ca15  1  0.828101  0.671650  0.388622  1
  Ca  Ca16  1  0.500000  0.500000  0.754029  1
  Ca  Ca17  1  0.000000  0.000000  0.246424  1
  Ca  Ca18  1  0.000000  0.000000  0.753576  1
  Ca  Ca19  1  0.500000  0.500000  0.245971  1
  Cd  Cd20  1  0.500000  0.500000  0.000000  1
  Ga  Ga21  1  0.612922  0.115317  0.750836  1
  Ga  Ga22  1  0.115317  0.612922  0.249164  1
  Ga  Ga23  1  0.884683  0.387078  0.249164  1
  Ga  Ga24  1  0.387078  0.884683  0.750836  1
  Ga  Ga25  1  0.884683  0.612922  0.750836  1
  Ga  Ga26  1  0.387078  0.115317  0.249164  1
  Ga  Ga27  1  0.115317  0.387078  0.750836  1
  Ga  Ga28  1  0.612922  0.884683  0.249164  1
  Ga  Ga29  1  0.000000  0.000000  0.000000  1
  Bi  Bi30  1  0.500000  0.500000  0.500000  1
  Bi  Bi31  1  0.000000  0.000000  0.500000  1
