# generated using pymatgen
data_Ti9Ge6WN2
_symmetry_space_group_name_H-M   'P 1'
_cell_length_a   7.52930800
_cell_length_b   7.52930800
_cell_length_c   5.25002300
_cell_angle_alpha   90.00000000
_cell_angle_beta   90.00000000
_cell_angle_gamma   120.00000000
_symmetry_Int_Tables_number   1
_chemical_formula_structural   Ti9Ge6WN2
_chemical_formula_sum   'Ti9 Ge6 W1 N2'
_cell_volume   257.75195255
_cell_formula_units_Z   1
loop_
 _symmetry_equiv_pos_site_id
 _symmetry_equiv_pos_as_xyz
  1  'x, y, z'
loop_
 _atom_site_type_symbol
 _atom_site_label
 _atom_site_symmetry_multiplicity
 _atom_site_fract_x
 _atom_site_fract_y
 _atom_site_fract_z
 _atom_site_occupancy
  Ti  Ti0  1  0.225574  0.999673  0.749538  1
  Ti  Ti1  1  0.774099  0.999673  0.250462  1
  Ti  Ti2  1  0.000327  0.225901  0.749538  1
  Ti  Ti3  1  0.000327  0.774426  0.250462  1
  Ti  Ti4  1  0.774099  0.774426  0.749538  1
  Ti  Ti5  1  0.225574  0.225901  0.250462  1
  Ti  Ti6  1  0.666667  0.333333  0.500000  1
  Ti  Ti7  1  0.666667  0.333333  0.000000  1
  Ti  Ti8  1  0.333333  0.666667  0.000000  1
  Ge  Ge9  1  0.593468  0.000911  0.749976  1
  Ge  Ge10  1  0.407443  0.000911  0.250024  1
  Ge  Ge11  1  0.999089  0.592557  0.749976  1
  Ge  Ge12  1  0.999089  0.406532  0.250024  1
  Ge  Ge13  1  0.407443  0.406532  0.749976  1
  Ge  Ge14  1  0.593468  0.592557  0.250024  1
  W  W15  1  0.333333  0.666667  0.500000  1
  N  N16  1  0.000000  0.000000  0.500000  1
  N  N17  1  0.000000  0.000000  0.000000  1
