# generated using pymatgen
data_Lu3Sc2BiPb2
_symmetry_space_group_name_H-M   'P 1'
_cell_length_a   8.82331838
_cell_length_b   8.82781967
_cell_length_c   6.24735700
_cell_angle_alpha   90.00000000
_cell_angle_beta   90.00000000
_cell_angle_gamma   120.01687830
_symmetry_Int_Tables_number   1
_chemical_formula_structural   Lu3Sc2BiPb2
_chemical_formula_sum   'Lu6 Sc4 Bi2 Pb4'
_cell_volume   421.34560763
_cell_formula_units_Z   2
loop_
 _symmetry_equiv_pos_site_id
 _symmetry_equiv_pos_as_xyz
  1  'x, y, z'
loop_
 _atom_site_type_symbol
 _atom_site_label
 _atom_site_symmetry_multiplicity
 _atom_site_fract_x
 _atom_site_fract_y
 _atom_site_fract_z
 _atom_site_occupancy
  Lu  Lu0  1  0.234581  0.999812  0.250000  1
  Lu  Lu1  1  0.234581  0.234769  0.750000  1
  Lu  Lu2  1  0.002214  0.764641  0.750000  1
  Lu  Lu3  1  0.002214  0.237573  0.250000  1
  Lu  Lu4  1  0.764869  0.762240  0.250000  1
  Lu  Lu5  1  0.764869  0.002629  0.750000  1
  Sc  Sc6  1  0.331182  0.665591  0.000000  1
  Sc  Sc7  1  0.667403  0.333701  0.500000  1
  Sc  Sc8  1  0.667403  0.333701  0.000000  1
  Sc  Sc9  1  0.331182  0.665591  0.500000  1
  Bi  Bi10  1  0.603121  0.999403  0.250000  1
  Bi  Bi11  1  0.603121  0.603718  0.750000  1
  Pb  Pb12  1  0.999483  0.397759  0.750000  1
  Pb  Pb13  1  0.999483  0.601723  0.250000  1
  Pb  Pb14  1  0.397148  0.397080  0.250000  1
  Pb  Pb15  1  0.397148  0.000067  0.750000  1
