# generated using pymatgen
data_Tb3Dy2Ho7Ru4
_symmetry_space_group_name_H-M   'P 1'
_cell_length_a   6.30021521
_cell_length_b   7.30095579
_cell_length_c   9.16993824
_cell_angle_alpha   89.99781561
_cell_angle_beta   90.02637054
_cell_angle_gamma   89.97977284
_symmetry_Int_Tables_number   1
_chemical_formula_structural   Tb3Dy2Ho7Ru4
_chemical_formula_sum   'Tb3 Dy2 Ho7 Ru4'
_cell_volume   421.79501299
_cell_formula_units_Z   1
loop_
 _symmetry_equiv_pos_site_id
 _symmetry_equiv_pos_as_xyz
  1  'x, y, z'
loop_
 _atom_site_type_symbol
 _atom_site_label
 _atom_site_symmetry_multiplicity
 _atom_site_fract_x
 _atom_site_fract_y
 _atom_site_fract_z
 _atom_site_occupancy
  Tb  Tb0  1  0.865681  0.539194  0.250107  1
  Tb  Tb1  1  0.634357  0.039268  0.250058  1
  Tb  Tb2  1  0.134419  0.460529  0.749923  1
  Dy  Dy3  1  0.330465  0.676657  0.064751  1
  Dy  Dy4  1  0.365551  0.960775  0.749937  1
  Ho  Ho5  1  0.169806  0.175836  0.435226  1
  Ho  Ho6  1  0.669322  0.323563  0.565054  1
  Ho  Ho7  1  0.829944  0.824040  0.934653  1
  Ho  Ho8  1  0.669381  0.323457  0.934870  1
  Ho  Ho9  1  0.829922  0.824002  0.565271  1
  Ho  Ho10  1  0.330474  0.676522  0.435281  1
  Ho  Ho11  1  0.169730  0.175791  0.064800  1
  Ru  Ru12  1  0.041521  0.884456  0.250094  1
  Ru  Ru13  1  0.458499  0.384084  0.250080  1
  Ru  Ru14  1  0.959608  0.115560  0.750031  1
  Ru  Ru15  1  0.541321  0.616268  0.749863  1
