# generated using pymatgen
data_Rb3Co4As3O16
_symmetry_space_group_name_H-M   'P 1'
_cell_length_a   7.78360708
_cell_length_b   7.78405254
_cell_length_c   7.78486300
_cell_angle_alpha   90.18082232
_cell_angle_beta   90.22133360
_cell_angle_gamma   89.78830920
_symmetry_Int_Tables_number   1
_chemical_formula_structural   Rb3Co4As3O16
_chemical_formula_sum   'Rb3 Co4 As3 O16'
_cell_volume   471.66026346
_cell_formula_units_Z   1
loop_
 _symmetry_equiv_pos_site_id
 _symmetry_equiv_pos_as_xyz
  1  'x, y, z'
loop_
 _atom_site_type_symbol
 _atom_site_label
 _atom_site_symmetry_multiplicity
 _atom_site_fract_x
 _atom_site_fract_y
 _atom_site_fract_z
 _atom_site_occupancy
  Rb  Rb0  1  0.999813  0.502898  0.000803  1
  Rb  Rb1  1  0.000268  0.997048  0.499992  1
  Rb  Rb2  1  0.500108  0.997174  0.999340  1
  Co  Co3  1  0.373762  0.371960  0.370850  1
  Co  Co4  1  0.627496  0.628452  0.372044  1
  Co  Co5  1  0.630111  0.372893  0.627381  1
  Co  Co6  1  0.372062  0.626802  0.627786  1
  As  As7  1  0.500155  0.998947  0.500598  1
  As  As8  1  0.500844  0.503364  0.000075  1
  As  As9  1  0.999973  0.503441  0.498597  1
  O  O10  1  0.369338  0.370139  0.124469  1
  O  O11  1  0.878981  0.633210  0.365869  1
  O  O12  1  0.616467  0.612462  0.614871  1
  O  O13  1  0.615127  0.385696  0.385753  1
  O  O14  1  0.121693  0.366566  0.370167  1
  O  O15  1  0.365532  0.631189  0.879136  1
  O  O16  1  0.634005  0.633048  0.120616  1
  O  O17  1  0.388177  0.380541  0.613129  1
  O  O18  1  0.631628  0.879777  0.367565  1
  O  O19  1  0.875151  0.369893  0.630297  1
  O  O20  1  0.367110  0.124099  0.369506  1
  O  O21  1  0.629231  0.365952  0.878336  1
  O  O22  1  0.383904  0.612027  0.382945  1
  O  O23  1  0.367865  0.878663  0.631171  1
  O  O24  1  0.120429  0.630791  0.634434  1
  O  O25  1  0.630770  0.122966  0.634271  1
