# generated using pymatgen
data_ErTm9In8(AgPt)2
_symmetry_space_group_name_H-M   'P 1'
_cell_length_a   3.60981900
_cell_length_b   8.13385302
_cell_length_c   18.24721166
_cell_angle_alpha   89.98859091
_cell_angle_beta   90.00000000
_cell_angle_gamma   90.00000000
_symmetry_Int_Tables_number   1
_chemical_formula_structural   ErTm9In8(AgPt)2
_chemical_formula_sum   'Er1 Tm9 In8 Ag2 Pt2'
_cell_volume   535.76982223
_cell_formula_units_Z   1
loop_
 _symmetry_equiv_pos_site_id
 _symmetry_equiv_pos_as_xyz
  1  'x, y, z'
loop_
 _atom_site_type_symbol
 _atom_site_label
 _atom_site_symmetry_multiplicity
 _atom_site_fract_x
 _atom_site_fract_y
 _atom_site_fract_z
 _atom_site_occupancy
  Er  Er0  1  0.000000  0.000000  0.000000  1
  Tm  Tm1  1  0.000000  0.122414  0.420990  1
  Tm  Tm2  1  0.000000  0.877586  0.579010  1
  Tm  Tm3  1  0.000000  0.383671  0.916206  1
  Tm  Tm4  1  0.000000  0.616329  0.083794  1
  Tm  Tm5  1  0.000000  0.255921  0.216211  1
  Tm  Tm6  1  0.000000  0.744079  0.783789  1
  Tm  Tm7  1  0.000000  0.273096  0.721157  1
  Tm  Tm8  1  0.000000  0.726904  0.278843  1
  Tm  Tm9  1  0.000000  0.500000  0.500000  1
  In  In10  1  0.500000  0.419671  0.352616  1
  In  In11  1  0.500000  0.580329  0.647384  1
  In  In12  1  0.500000  0.076544  0.851845  1
  In  In13  1  0.500000  0.923456  0.148155  1
  In  In14  1  0.500000  0.292091  0.065051  1
  In  In15  1  0.500000  0.707909  0.934949  1
  In  In16  1  0.500000  0.208936  0.568128  1
  In  In17  1  0.500000  0.791064  0.431872  1
  Ag  Ag18  1  0.500000  0.026614  0.302113  1
  Ag  Ag19  1  0.500000  0.973386  0.697887  1
  Pt  Pt20  1  0.500000  0.472917  0.804055  1
  Pt  Pt21  1  0.500000  0.527083  0.195945  1
