# generated using pymatgen
data_Ta4Be4TcIr
_symmetry_space_group_name_H-M   'P 1'
_cell_length_a   6.26971000
_cell_length_b   6.26971000
_cell_length_c   3.34154500
_cell_angle_alpha   90.00000000
_cell_angle_beta   90.00000000
_cell_angle_gamma   90.00000000
_symmetry_Int_Tables_number   1
_chemical_formula_structural   Ta4Be4TcIr
_chemical_formula_sum   'Ta4 Be4 Tc1 Ir1'
_cell_volume   131.35367285
_cell_formula_units_Z   1
loop_
 _symmetry_equiv_pos_site_id
 _symmetry_equiv_pos_as_xyz
  1  'x, y, z'
loop_
 _atom_site_type_symbol
 _atom_site_label
 _atom_site_symmetry_multiplicity
 _atom_site_fract_x
 _atom_site_fract_y
 _atom_site_fract_z
 _atom_site_occupancy
  Ta  Ta0  1  0.679002  0.171059  0.500000  1
  Ta  Ta1  1  0.320998  0.828941  0.500000  1
  Ta  Ta2  1  0.171059  0.320998  0.500000  1
  Ta  Ta3  1  0.828941  0.679002  0.500000  1
  Be  Be4  1  0.123712  0.617741  0.000000  1
  Be  Be5  1  0.876288  0.382259  0.000000  1
  Be  Be6  1  0.617741  0.876288  0.000000  1
  Be  Be7  1  0.382259  0.123712  0.000000  1
  Tc  Tc8  1  0.000000  0.000000  0.000000  1
  Ir  Ir9  1  0.500000  0.500000  0.000000  1
