# generated using pymatgen
data_PrNd3Al18Rh5Au
_symmetry_space_group_name_H-M   'P 1'
_cell_length_a   7.65820559
_cell_length_b   7.65848814
_cell_length_c   9.61941917
_cell_angle_alpha   89.88638155
_cell_angle_beta   89.89694364
_cell_angle_gamma   119.33775661
_symmetry_Int_Tables_number   1
_chemical_formula_structural   PrNd3Al18Rh5Au
_chemical_formula_sum   'Pr1 Nd3 Al18 Rh5 Au1'
_cell_volume   491.81993277
_cell_formula_units_Z   1
loop_
 _symmetry_equiv_pos_site_id
 _symmetry_equiv_pos_as_xyz
  1  'x, y, z'
loop_
 _atom_site_type_symbol
 _atom_site_label
 _atom_site_symmetry_multiplicity
 _atom_site_fract_x
 _atom_site_fract_y
 _atom_site_fract_z
 _atom_site_occupancy
  Pr  Pr0  1  0.995906  0.674008  0.749712  1
  Nd  Nd1  1  0.004092  0.325985  0.250228  1
  Nd  Nd2  1  0.673997  0.995979  0.749749  1
  Nd  Nd3  1  0.325941  0.004058  0.250234  1
  Al  Al4  1  0.137935  0.138179  0.757847  1
  Al  Al5  1  0.862162  0.862180  0.242141  1
  Al  Al6  1  0.004080  0.344563  0.577008  1
  Al  Al7  1  0.995905  0.655092  0.422624  1
  Al  Al8  1  0.998695  0.663813  0.072502  1
  Al  Al9  1  0.336511  0.001609  0.927891  1
  Al  Al10  1  0.001304  0.335897  0.927884  1
  Al  Al11  1  0.663819  0.998706  0.072223  1
  Al  Al12  1  0.655122  0.995931  0.422880  1
  Al  Al13  1  0.345207  0.004372  0.577043  1
  Al  Al14  1  0.334158  0.334164  0.047164  1
  Al  Al15  1  0.665575  0.665826  0.952985  1
  Al  Al16  1  0.656388  0.656634  0.553528  1
  Al  Al17  1  0.343349  0.343351  0.446331  1
  Al  Al18  1  0.340078  0.549410  0.751254  1
  Al  Al19  1  0.660167  0.450480  0.248747  1
  Al  Al20  1  0.549094  0.339535  0.751249  1
  Al  Al21  1  0.450491  0.660177  0.248750  1
  Rh  Rh22  1  0.671045  0.328730  0.499875  1
  Rh  Rh23  1  0.328974  0.671142  0.499855  1
  Rh  Rh24  1  0.328981  0.671138  0.000138  1
  Rh  Rh25  1  0.671015  0.328738  0.000130  1
  Rh  Rh26  1  0.999999  0.000154  0.000148  1
  Au  Au27  1  0.000011  0.000149  0.499879  1
