# generated using pymatgen
data_Tb6Dy10Cd3AgIr4
_symmetry_space_group_name_H-M   'P 1'
_cell_length_a   9.64412494
_cell_length_b   9.64412493
_cell_length_c   9.64412517
_cell_angle_alpha   59.98428882
_cell_angle_beta   59.98428465
_cell_angle_gamma   59.98429325
_symmetry_Int_Tables_number   1
_chemical_formula_structural   Tb6Dy10Cd3AgIr4
_chemical_formula_sum   'Tb6 Dy10 Cd3 Ag1 Ir4'
_cell_volume   634.04305999
_cell_formula_units_Z   1
loop_
 _symmetry_equiv_pos_site_id
 _symmetry_equiv_pos_as_xyz
  1  'x, y, z'
loop_
 _atom_site_type_symbol
 _atom_site_label
 _atom_site_symmetry_multiplicity
 _atom_site_fract_x
 _atom_site_fract_y
 _atom_site_fract_z
 _atom_site_occupancy
  Tb  Tb0  1  0.185884  0.811806  0.811806  1
  Tb  Tb1  1  0.811834  0.187139  0.187139  1
  Tb  Tb2  1  0.811806  0.185884  0.811806  1
  Tb  Tb3  1  0.187139  0.811834  0.187139  1
  Tb  Tb4  1  0.811806  0.811806  0.185884  1
  Tb  Tb5  1  0.187139  0.187139  0.811834  1
  Dy  Dy6  1  0.598499  0.598499  0.598499  1
  Dy  Dy7  1  0.599971  0.599971  0.202234  1
  Dy  Dy8  1  0.599971  0.202234  0.599971  1
  Dy  Dy9  1  0.202234  0.599971  0.599971  1
  Dy  Dy10  1  0.060189  0.439028  0.439028  1
  Dy  Dy11  1  0.437757  0.060645  0.060645  1
  Dy  Dy12  1  0.439028  0.060189  0.439028  1
  Dy  Dy13  1  0.060645  0.437757  0.060645  1
  Dy  Dy14  1  0.439028  0.439028  0.060189  1
  Dy  Dy15  1  0.060645  0.060645  0.437757  1
  Cd  Cd16  1  0.831045  0.831045  0.508920  1
  Cd  Cd17  1  0.831045  0.508920  0.831045  1
  Cd  Cd18  1  0.508920  0.831045  0.831045  1
  Ag  Ag19  1  0.832809  0.832809  0.832809  1
  Ir  Ir20  1  0.391724  0.391724  0.391724  1
  Ir  Ir21  1  0.392600  0.392600  0.825682  1
  Ir  Ir22  1  0.392600  0.825682  0.392600  1
  Ir  Ir23  1  0.825682  0.392600  0.392600  1
