# generated using pymatgen
data_Ce2Nd3Dy3(CdIr)2
_symmetry_space_group_name_H-M   'P 1'
_cell_length_a   9.77607586
_cell_length_b   9.77607629
_cell_length_c   9.77607600
_cell_angle_alpha   60.00000097
_cell_angle_beta   59.99999952
_cell_angle_gamma   60.00000113
_symmetry_Int_Tables_number   1
_chemical_formula_structural   Ce2Nd3Dy3(CdIr)2
_chemical_formula_sum   'Ce4 Nd6 Dy6 Cd4 Ir4'
_cell_volume   660.66107750
_cell_formula_units_Z   2
loop_
 _symmetry_equiv_pos_site_id
 _symmetry_equiv_pos_as_xyz
  1  'x, y, z'
loop_
 _atom_site_type_symbol
 _atom_site_label
 _atom_site_symmetry_multiplicity
 _atom_site_fract_x
 _atom_site_fract_y
 _atom_site_fract_z
 _atom_site_occupancy
  Ce  Ce0  1  0.347877  0.347877  0.347877  1
  Ce  Ce1  1  0.347877  0.347877  0.956367  1
  Ce  Ce2  1  0.347877  0.956367  0.347877  1
  Ce  Ce3  1  0.956367  0.347877  0.347877  1
  Nd  Nd4  1  0.940768  0.559232  0.559232  1
  Nd  Nd5  1  0.559232  0.940768  0.940768  1
  Nd  Nd6  1  0.559232  0.940768  0.559232  1
  Nd  Nd7  1  0.940768  0.559232  0.940768  1
  Nd  Nd8  1  0.559232  0.559232  0.940768  1
  Nd  Nd9  1  0.940768  0.940768  0.559232  1
  Dy  Dy10  1  0.812634  0.187366  0.187366  1
  Dy  Dy11  1  0.187366  0.812634  0.812634  1
  Dy  Dy12  1  0.187366  0.812634  0.187366  1
  Dy  Dy13  1  0.812634  0.187366  0.812634  1
  Dy  Dy14  1  0.187366  0.187366  0.812634  1
  Dy  Dy15  1  0.812634  0.812634  0.187366  1
  Cd  Cd16  1  0.579609  0.579609  0.579609  1
  Cd  Cd17  1  0.579609  0.579609  0.261171  1
  Cd  Cd18  1  0.579609  0.261171  0.579609  1
  Cd  Cd19  1  0.261171  0.579609  0.579609  1
  Ir  Ir20  1  0.142941  0.142941  0.142941  1
  Ir  Ir21  1  0.142941  0.142941  0.571177  1
  Ir  Ir22  1  0.142941  0.571177  0.142941  1
  Ir  Ir23  1  0.571177  0.142941  0.142941  1
