# generated using pymatgen
data_SrGe6(As3Pt2)2
_symmetry_space_group_name_H-M   'P 1'
_cell_length_a   7.56299798
_cell_length_b   7.57398142
_cell_length_c   7.56299804
_cell_angle_alpha   109.43509534
_cell_angle_beta   109.50071112
_cell_angle_gamma   109.41917520
_symmetry_Int_Tables_number   1
_chemical_formula_structural   SrGe6(As3Pt2)2
_chemical_formula_sum   'Sr1 Ge6 As6 Pt4'
_cell_volume   333.73691440
_cell_formula_units_Z   1
loop_
 _symmetry_equiv_pos_site_id
 _symmetry_equiv_pos_as_xyz
  1  'x, y, z'
loop_
 _atom_site_type_symbol
 _atom_site_label
 _atom_site_symmetry_multiplicity
 _atom_site_fract_x
 _atom_site_fract_y
 _atom_site_fract_z
 _atom_site_occupancy
  Sr  Sr0  1  0.001655  0.995237  0.993581  1
  Ge  Ge1  1  0.145019  0.346936  0.497539  1
  Ge  Ge2  1  0.507374  0.155729  0.357733  1
  Ge  Ge3  1  0.849398  0.346936  0.201917  1
  Ge  Ge4  1  0.642683  0.492195  0.849513  1
  Ge  Ge5  1  0.355737  0.207698  0.851961  1
  Ge  Ge6  1  0.797997  0.155729  0.648356  1
  As  As7  1  0.851082  0.642048  0.498536  1
  As  As8  1  0.350223  0.495190  0.144966  1
  As  As9  1  0.209191  0.859986  0.355151  1
  As  As10  1  0.143511  0.642048  0.790965  1
  As  As11  1  0.648020  0.794248  0.146228  1
  As  As12  1  0.504834  0.859986  0.650795  1
  Pt  Pt13  1  0.000159  0.999101  0.505852  1
  Pt  Pt14  1  0.499147  0.503916  0.503194  1
  Pt  Pt15  1  0.000722  0.503916  0.004769  1
  Pt  Pt16  1  0.493250  0.999101  0.998943  1
