# generated using pymatgen
data_Zr13Cu3(Ir2N)4
_symmetry_space_group_name_H-M   'P 1'
_cell_length_a   8.63330523
_cell_length_b   8.57382620
_cell_length_c   8.63330500
_cell_angle_alpha   59.77025481
_cell_angle_beta   60.00000470
_cell_angle_gamma   59.77025100
_symmetry_Int_Tables_number   1
_chemical_formula_structural   Zr13Cu3(Ir2N)4
_chemical_formula_sum   'Zr13 Cu3 Ir8 N4'
_cell_volume   450.29483861
_cell_formula_units_Z   1
loop_
 _symmetry_equiv_pos_site_id
 _symmetry_equiv_pos_as_xyz
  1  'x, y, z'
loop_
 _atom_site_type_symbol
 _atom_site_label
 _atom_site_symmetry_multiplicity
 _atom_site_fract_x
 _atom_site_fract_y
 _atom_site_fract_z
 _atom_site_occupancy
  Zr  Zr0  1  0.625000  0.125000  0.625000  1
  Zr  Zr1  1  0.806742  0.809105  0.192076  1
  Zr  Zr2  1  0.184806  0.197814  0.808690  1
  Zr  Zr3  1  0.808690  0.197814  0.808690  1
  Zr  Zr4  1  0.192076  0.809105  0.192076  1
  Zr  Zr5  1  0.192076  0.809105  0.806742  1
  Zr  Zr6  1  0.808690  0.197814  0.184806  1
  Zr  Zr7  1  0.443258  0.440895  0.057924  1
  Zr  Zr8  1  0.065194  0.052186  0.441310  1
  Zr  Zr9  1  0.441310  0.052186  0.441310  1
  Zr  Zr10  1  0.057924  0.440895  0.057924  1
  Zr  Zr11  1  0.057924  0.440895  0.443258  1
  Zr  Zr12  1  0.441310  0.052186  0.065194  1
  Cu  Cu13  1  0.125000  0.625000  0.625000  1
  Cu  Cu14  1  0.625000  0.625000  0.125000  1
  Cu  Cu15  1  0.625000  0.625000  0.625000  1
  Ir  Ir16  1  0.754576  0.421986  0.411720  1
  Ir  Ir17  1  0.416797  0.749608  0.416797  1
  Ir  Ir18  1  0.411720  0.421986  0.754576  1
  Ir  Ir19  1  0.411720  0.421986  0.411720  1
  Ir  Ir20  1  0.495424  0.828014  0.838280  1
  Ir  Ir21  1  0.833203  0.500392  0.833203  1
  Ir  Ir22  1  0.838280  0.828014  0.495424  1
  Ir  Ir23  1  0.838280  0.828014  0.838280  1
  N  N24  1  0.625000  0.125000  0.125000  1
  N  N25  1  0.125000  0.625000  0.125000  1
  N  N26  1  0.125000  0.125000  0.625000  1
  N  N27  1  0.125000  0.125000  0.125000  1
