# generated using pymatgen
data_NaGdH6Ru
_symmetry_space_group_name_H-M   'P 1'
_cell_length_a   5.00875692
_cell_length_b   5.00875771
_cell_length_c   5.00875800
_cell_angle_alpha   60.00001129
_cell_angle_beta   60.00000608
_cell_angle_gamma   60.00000545
_symmetry_Int_Tables_number   1
_chemical_formula_structural   NaGdH6Ru
_chemical_formula_sum   'Na1 Gd1 H6 Ru1'
_cell_volume   88.85361580
_cell_formula_units_Z   1
loop_
 _symmetry_equiv_pos_site_id
 _symmetry_equiv_pos_as_xyz
  1  'x, y, z'
loop_
 _atom_site_type_symbol
 _atom_site_label
 _atom_site_symmetry_multiplicity
 _atom_site_fract_x
 _atom_site_fract_y
 _atom_site_fract_z
 _atom_site_occupancy
  Na  Na0  1  0.750000  0.750000  0.750000  1
  Gd  Gd1  1  0.250000  0.250000  0.250000  1
  H  H2  1  0.758691  0.758691  0.241309  1
  H  H3  1  0.241309  0.758691  0.241309  1
  H  H4  1  0.758691  0.241309  0.241309  1
  H  H5  1  0.241309  0.241309  0.758691  1
  H  H6  1  0.758691  0.241309  0.758691  1
  H  H7  1  0.241309  0.758691  0.758691  1
  Ru  Ru8  1  0.000000  0.000000  0.000000  1
