# generated using pymatgen
data_ErU3(InIr2)2
_symmetry_space_group_name_H-M   'P 1'
_cell_length_a   7.68688907
_cell_length_b   7.68688907
_cell_length_c   3.55966900
_cell_angle_alpha   90.00000000
_cell_angle_beta   90.00000000
_cell_angle_gamma   87.83485402
_symmetry_Int_Tables_number   1
_chemical_formula_structural   ErU3(InIr2)2
_chemical_formula_sum   'Er1 U3 In2 Ir4'
_cell_volume   210.18449882
_cell_formula_units_Z   1
loop_
 _symmetry_equiv_pos_site_id
 _symmetry_equiv_pos_as_xyz
  1  'x, y, z'
loop_
 _atom_site_type_symbol
 _atom_site_label
 _atom_site_symmetry_multiplicity
 _atom_site_fract_x
 _atom_site_fract_y
 _atom_site_fract_z
 _atom_site_occupancy
  Er  Er0  1  0.668051  0.168051  0.500000  1
  U  U1  1  0.334208  0.834208  0.500000  1
  U  U2  1  0.166341  0.331089  0.500000  1
  U  U3  1  0.831089  0.666341  0.500000  1
  In  In4  1  0.501610  0.490995  0.000000  1
  In  In5  1  0.990995  0.001610  0.000000  1
  Ir  Ir6  1  0.145181  0.645181  0.000000  1
  Ir  Ir7  1  0.885144  0.385144  0.000000  1
  Ir  Ir8  1  0.627840  0.849541  0.000000  1
  Ir  Ir9  1  0.349541  0.127840  0.000000  1
