# generated using pymatgen
data_SmEu3Al6(O3F)4
_symmetry_space_group_name_H-M   'P 1'
_cell_length_a   7.83742234
_cell_length_b   7.83742199
_cell_length_c   7.83742301
_cell_angle_alpha   109.46892481
_cell_angle_beta   109.46892434
_cell_angle_gamma   109.46891888
_symmetry_Int_Tables_number   1
_chemical_formula_structural   SmEu3Al6(O3F)4
_chemical_formula_sum   'Sm1 Eu3 Al6 O12 F4'
_cell_volume   370.62509495
_cell_formula_units_Z   1
loop_
 _symmetry_equiv_pos_site_id
 _symmetry_equiv_pos_as_xyz
  1  'x, y, z'
loop_
 _atom_site_type_symbol
 _atom_site_label
 _atom_site_symmetry_multiplicity
 _atom_site_fract_x
 _atom_site_fract_y
 _atom_site_fract_z
 _atom_site_occupancy
  Sm  Sm0  1  0.311711  0.311711  0.311711  1
  Eu  Eu1  1  0.691278  0.000810  0.000810  1
  Eu  Eu2  1  0.000810  0.691278  0.000810  1
  Eu  Eu3  1  0.000810  0.000810  0.691278  1
  Al  Al4  1  0.247726  0.747903  0.497609  1
  Al  Al5  1  0.747903  0.247726  0.497609  1
  Al  Al6  1  0.747903  0.497609  0.247726  1
  Al  Al7  1  0.247726  0.497609  0.747903  1
  Al  Al8  1  0.497609  0.247726  0.747903  1
  Al  Al9  1  0.497609  0.747903  0.247726  1
  O  O10  1  0.278024  0.552241  0.552241  1
  O  O11  1  0.715872  0.278074  0.278074  1
  O  O12  1  0.997576  0.438350  0.718766  1
  O  O13  1  0.552241  0.552241  0.278024  1
  O  O14  1  0.997576  0.718766  0.438350  1
  O  O15  1  0.278074  0.278074  0.715872  1
  O  O16  1  0.438350  0.718766  0.997576  1
  O  O17  1  0.718766  0.438350  0.997576  1
  O  O18  1  0.552241  0.278024  0.552241  1
  O  O19  1  0.718766  0.997576  0.438350  1
  O  O20  1  0.438350  0.997576  0.718766  1
  O  O21  1  0.278074  0.715872  0.278074  1
  F  F22  1  0.781367  0.781367  0.781367  1
  F  F23  1  0.230753  0.016443  0.016443  1
  F  F24  1  0.016443  0.230753  0.016443  1
  F  F25  1  0.016443  0.016443  0.230753  1
