# generated using pymatgen
data_LuV3O9
_symmetry_space_group_name_H-M   'P 1'
_cell_length_a   8.36640299
_cell_length_b   8.36640396
_cell_length_c   10.74627012
_cell_angle_alpha   57.62525892
_cell_angle_beta   122.37474589
_cell_angle_gamma   127.83265762
_symmetry_Int_Tables_number   1
_chemical_formula_structural   LuV3O9
_chemical_formula_sum   'Lu2 V6 O18'
_cell_volume   476.97232098
_cell_formula_units_Z   2
loop_
 _symmetry_equiv_pos_site_id
 _symmetry_equiv_pos_as_xyz
  1  'x, y, z'
loop_
 _atom_site_type_symbol
 _atom_site_label
 _atom_site_symmetry_multiplicity
 _atom_site_fract_x
 _atom_site_fract_y
 _atom_site_fract_z
 _atom_site_occupancy
  Lu  Lu0  1  0.389386  0.130978  0.354979  1
  Lu  Lu1  1  0.869022  0.610614  0.854979  1
  V  V2  1  0.651404  0.122331  0.178241  1
  V  V3  1  0.877669  0.348596  0.678242  1
  V  V4  1  0.081065  0.100339  0.525296  1
  V  V5  1  0.899660  0.918933  0.025296  1
  V  V6  1  0.327973  0.583893  0.592019  1
  V  V7  1  0.416107  0.672027  0.092018  1
  O  O8  1  0.850420  0.072311  0.357386  1
  O  O9  1  0.927689  0.149580  0.857387  1
  O  O10  1  0.239712  0.055490  0.509259  1
  O  O11  1  0.944511  0.760288  0.009260  1
  O  O12  1  0.007193  0.924985  0.687193  1
  O  O13  1  0.075015  0.992808  0.187193  1
  O  O14  1  0.213339  0.371412  0.521328  1
  O  O15  1  0.628588  0.786662  0.021328  1
  O  O16  1  0.538236  0.217790  0.195845  1
  O  O17  1  0.782210  0.461765  0.695844  1
  O  O18  1  0.458091  0.868894  0.144581  1
  O  O19  1  0.131107  0.541909  0.644582  1
  O  O20  1  0.390584  0.822730  0.453921  1
  O  O21  1  0.177270  0.609416  0.953921  1
  O  O22  1  0.416319  0.452462  0.245985  1
  O  O23  1  0.547539  0.583681  0.745986  1
  O  O24  1  0.701700  0.241210  0.531863  1
  O  O25  1  0.758790  0.298301  0.031862  1
