# generated using pymatgen
data_K8ZrAs4
_symmetry_space_group_name_H-M   'P 1'
_cell_length_a   11.04279612
_cell_length_b   11.04279596
_cell_length_c   11.04279600
_cell_angle_alpha   59.99999989
_cell_angle_beta   60.00000035
_cell_angle_gamma   59.99999805
_symmetry_Int_Tables_number   1
_chemical_formula_structural   K8ZrAs4
_chemical_formula_sum   'K16 Zr2 As8'
_cell_volume   952.18678006
_cell_formula_units_Z   2
loop_
 _symmetry_equiv_pos_site_id
 _symmetry_equiv_pos_as_xyz
  1  'x, y, z'
loop_
 _atom_site_type_symbol
 _atom_site_label
 _atom_site_symmetry_multiplicity
 _atom_site_fract_x
 _atom_site_fract_y
 _atom_site_fract_z
 _atom_site_occupancy
  K  K0  1  0.625000  0.625000  0.125000  1
  K  K1  1  0.625000  0.125000  0.625000  1
  K  K2  1  0.125000  0.625000  0.625000  1
  K  K3  1  0.625000  0.625000  0.625000  1
  K  K4  1  0.029973  0.470027  0.470027  1
  K  K5  1  0.779973  0.220027  0.220027  1
  K  K6  1  0.470027  0.029973  0.470027  1
  K  K7  1  0.470027  0.470027  0.029973  1
  K  K8  1  0.029973  0.029973  0.470027  1
  K  K9  1  0.029973  0.470027  0.029973  1
  K  K10  1  0.470027  0.029973  0.029973  1
  K  K11  1  0.779973  0.220027  0.779973  1
  K  K12  1  0.220027  0.779973  0.220027  1
  K  K13  1  0.220027  0.220027  0.779973  1
  K  K14  1  0.779973  0.779973  0.220027  1
  K  K15  1  0.220027  0.779973  0.779973  1
  Zr  Zr16  1  0.750000  0.750000  0.750000  1
  Zr  Zr17  1  0.500000  0.500000  0.500000  1
  As  As18  1  0.849405  0.849405  0.451786  1
  As  As19  1  0.849405  0.451786  0.849405  1
  As  As20  1  0.400595  0.400595  0.798214  1
  As  As21  1  0.400595  0.798214  0.400595  1
  As  As22  1  0.798214  0.400595  0.400595  1
  As  As23  1  0.849405  0.849405  0.849405  1
  As  As24  1  0.451786  0.849405  0.849405  1
  As  As25  1  0.400595  0.400595  0.400595  1
