# generated using pymatgen
data_HfMoOsBr12
_symmetry_space_group_name_H-M   'P 1'
_cell_length_a   9.55691580
_cell_length_b   9.55691540
_cell_length_c   7.35239557
_cell_angle_alpha   69.47915296
_cell_angle_beta   69.47915176
_cell_angle_gamma   84.52815523
_symmetry_Int_Tables_number   1
_chemical_formula_structural   HfMoOsBr12
_chemical_formula_sum   'Hf1 Mo1 Os1 Br12'
_cell_volume   588.71811898
_cell_formula_units_Z   1
loop_
 _symmetry_equiv_pos_site_id
 _symmetry_equiv_pos_as_xyz
  1  'x, y, z'
loop_
 _atom_site_type_symbol
 _atom_site_label
 _atom_site_symmetry_multiplicity
 _atom_site_fract_x
 _atom_site_fract_y
 _atom_site_fract_z
 _atom_site_occupancy
  Hf  Hf0  1  0.739391  0.739391  0.258833  1
  Mo  Mo1  1  0.231710  0.231710  0.770813  1
  Os  Os2  1  0.027772  0.027772  0.971870  1
  Br  Br3  1  0.961145  0.264663  0.731616  1
  Br  Br4  1  0.264663  0.961145  0.731616  1
  Br  Br5  1  0.038251  0.770195  0.229891  1
  Br  Br6  1  0.770195  0.038251  0.229891  1
  Br  Br7  1  0.198792  0.478205  0.805019  1
  Br  Br8  1  0.478205  0.198792  0.805019  1
  Br  Br9  1  0.791694  0.494199  0.205252  1
  Br  Br10  1  0.494199  0.791694  0.205252  1
  Br  Br11  1  0.125663  0.125663  0.182561  1
  Br  Br12  1  0.891836  0.891836  0.837066  1
  Br  Br13  1  0.656355  0.656355  0.642528  1
  Br  Br14  1  0.330130  0.330130  0.392777  1
