# generated using pymatgen
data_Li2Sc3Ni9As7
_symmetry_space_group_name_H-M   'P 1'
_cell_length_a   9.59715336
_cell_length_b   9.51033174
_cell_length_c   3.81718900
_cell_angle_alpha   90.00000000
_cell_angle_beta   90.00000000
_cell_angle_gamma   119.71887979
_symmetry_Int_Tables_number   1
_chemical_formula_structural   Li2Sc3Ni9As7
_chemical_formula_sum   'Li2 Sc3 Ni9 As7'
_cell_volume   302.57684398
_cell_formula_units_Z   1
loop_
 _symmetry_equiv_pos_site_id
 _symmetry_equiv_pos_as_xyz
  1  'x, y, z'
loop_
 _atom_site_type_symbol
 _atom_site_label
 _atom_site_symmetry_multiplicity
 _atom_site_fract_x
 _atom_site_fract_y
 _atom_site_fract_z
 _atom_site_occupancy
  Li  Li0  1  0.782949  0.222132  0.500000  1
  Li  Li1  1  0.998406  0.003078  0.500000  1
  Sc  Sc2  1  0.776105  0.562616  0.500000  1
  Sc  Sc3  1  0.439718  0.210432  0.500000  1
  Sc  Sc4  1  0.325815  0.659256  0.000000  1
  Ni  Ni5  1  0.272330  0.384501  0.500000  1
  Ni  Ni6  1  0.625802  0.898540  0.500000  1
  Ni  Ni7  1  0.108196  0.723412  0.500000  1
  Ni  Ni8  1  0.503222  0.458630  0.000000  1
  Ni  Ni9  1  0.543307  0.037520  0.000000  1
  Ni  Ni10  1  0.958204  0.503655  0.000000  1
  Ni  Ni11  1  0.724134  0.760844  0.000000  1
  Ni  Ni12  1  0.247203  0.968234  0.000000  1
  Ni  Ni13  1  0.033174  0.278533  0.000000  1
  As  As14  1  0.980014  0.769136  0.000000  1
  As  As15  1  0.236679  0.215783  0.000000  1
  As  As16  1  0.789136  0.031216  0.000000  1
  As  As17  1  0.670309  0.329716  0.000000  1
  As  As18  1  0.529365  0.621161  0.500000  1
  As  As19  1  0.380521  0.904011  0.500000  1
  As  As20  1  0.075413  0.457595  0.500000  1
