# generated using pymatgen
data_Nb12Al6ZnNiN4
_symmetry_space_group_name_H-M   'P 1'
_cell_length_a   7.04143770
_cell_length_b   7.03637113
_cell_length_c   7.04485279
_cell_angle_alpha   90.08988421
_cell_angle_beta   89.92192981
_cell_angle_gamma   90.15138727
_symmetry_Int_Tables_number   1
_chemical_formula_structural   Nb12Al6ZnNiN4
_chemical_formula_sum   'Nb12 Al6 Zn1 Ni1 N4'
_cell_volume   349.04349671
_cell_formula_units_Z   1
loop_
 _symmetry_equiv_pos_site_id
 _symmetry_equiv_pos_as_xyz
  1  'x, y, z'
loop_
 _atom_site_type_symbol
 _atom_site_label
 _atom_site_symmetry_multiplicity
 _atom_site_fract_x
 _atom_site_fract_y
 _atom_site_fract_z
 _atom_site_occupancy
  Nb  Nb0  1  0.791066  0.956416  0.376318  1
  Nb  Nb1  1  0.706636  0.043748  0.874132  1
  Nb  Nb2  1  0.204623  0.454183  0.126666  1
  Nb  Nb3  1  0.295919  0.542928  0.627386  1
  Nb  Nb4  1  0.956678  0.376554  0.793538  1
  Nb  Nb5  1  0.044209  0.871527  0.706900  1
  Nb  Nb6  1  0.457266  0.129457  0.205723  1
  Nb  Nb7  1  0.545231  0.621761  0.292217  1
  Nb  Nb8  1  0.376196  0.793373  0.954917  1
  Nb  Nb9  1  0.873484  0.706526  0.043333  1
  Nb  Nb10  1  0.123640  0.207257  0.457103  1
  Nb  Nb11  1  0.627118  0.293495  0.544419  1
  Al  Al12  1  0.822310  0.321344  0.175735  1
  Al  Al13  1  0.675706  0.678638  0.677360  1
  Al  Al14  1  0.557525  0.415321  0.923266  1
  Al  Al15  1  0.420145  0.939940  0.579731  1
  Al  Al16  1  0.934073  0.576176  0.427261  1
  Al  Al17  1  0.084450  0.072830  0.062405  1
  Zn  Zn18  1  0.182122  0.824206  0.319128  1
  Ni  Ni19  1  0.319235  0.176254  0.820017  1
  N  N20  1  0.877869  0.123348  0.628234  1
  N  N21  1  0.622320  0.876464  0.126211  1
  N  N22  1  0.127369  0.623714  0.879164  1
  N  N23  1  0.374812  0.374541  0.378836  1
