# generated using pymatgen
data_Tb8Mg3Sc8Si16Tc
_symmetry_space_group_name_H-M   'P 1'
_cell_length_a   6.95860990
_cell_length_b   7.39386750
_cell_length_c   13.92664200
_cell_angle_alpha   90.00000000
_cell_angle_beta   90.00000000
_cell_angle_gamma   90.23258716
_symmetry_Int_Tables_number   1
_chemical_formula_structural   Tb8Mg3Sc8Si16Tc
_chemical_formula_sum   'Tb8 Mg3 Sc8 Si16 Tc1'
_cell_volume   716.53430523
_cell_formula_units_Z   1
loop_
 _symmetry_equiv_pos_site_id
 _symmetry_equiv_pos_as_xyz
  1  'x, y, z'
loop_
 _atom_site_type_symbol
 _atom_site_label
 _atom_site_symmetry_multiplicity
 _atom_site_fract_x
 _atom_site_fract_y
 _atom_site_fract_z
 _atom_site_occupancy
  Tb  Tb0  1  0.013867  0.178695  0.094475  1
  Tb  Tb1  1  0.990185  0.820486  0.900830  1
  Tb  Tb2  1  0.489211  0.675407  0.901418  1
  Tb  Tb3  1  0.990185  0.820486  0.599170  1
  Tb  Tb4  1  0.513425  0.322977  0.096287  1
  Tb  Tb5  1  0.013867  0.178695  0.405525  1
  Tb  Tb6  1  0.513425  0.322977  0.403713  1
  Tb  Tb7  1  0.489211  0.675407  0.598582  1
  Mg  Mg8  1  0.843108  0.495462  0.250000  1
  Mg  Mg9  1  0.342871  0.003925  0.250000  1
  Mg  Mg10  1  0.658131  0.994516  0.750000  1
  Sc  Sc11  1  0.329945  0.178932  0.626262  1
  Sc  Sc12  1  0.671098  0.821293  0.375853  1
  Sc  Sc13  1  0.171060  0.677075  0.377468  1
  Sc  Sc14  1  0.671098  0.821293  0.124147  1
  Sc  Sc15  1  0.824879  0.325417  0.627467  1
  Sc  Sc16  1  0.329945  0.178932  0.873738  1
  Sc  Sc17  1  0.824879  0.325417  0.872533  1
  Sc  Sc18  1  0.171060  0.677075  0.122532  1
  Si  Si19  1  0.037657  0.124532  0.750000  1
  Si  Si20  1  0.967323  0.890067  0.250000  1
  Si  Si21  1  0.464877  0.608793  0.250000  1
  Si  Si22  1  0.516450  0.403580  0.750000  1
  Si  Si23  1  0.276613  0.866972  0.750000  1
  Si  Si24  1  0.720675  0.119575  0.250000  1
  Si  Si25  1  0.218205  0.381579  0.250000  1
  Si  Si26  1  0.796637  0.616814  0.750000  1
  Si  Si27  1  0.155249  0.465535  0.547058  1
  Si  Si28  1  0.840620  0.537133  0.466565  1
  Si  Si29  1  0.343227  0.962059  0.466674  1
  Si  Si30  1  0.840620  0.537133  0.033435  1
  Si  Si31  1  0.660284  0.037008  0.535909  1
  Si  Si32  1  0.155249  0.465535  0.952942  1
  Si  Si33  1  0.660284  0.037008  0.964091  1
  Si  Si34  1  0.343227  0.962059  0.033326  1
  Tc  Tc35  1  0.151353  0.490154  0.750000  1
