# generated using pymatgen
data_Dy5OsRh
_symmetry_space_group_name_H-M   'P 1'
_cell_length_a   6.43052146
_cell_length_b   7.27989822
_cell_length_c   8.49240714
_cell_angle_alpha   96.62960653
_cell_angle_beta   112.24724672
_cell_angle_gamma   89.99999309
_symmetry_Int_Tables_number   1
_chemical_formula_structural   Dy5OsRh
_chemical_formula_sum   'Dy10 Os2 Rh2'
_cell_volume   365.09098499
_cell_formula_units_Z   2
loop_
 _symmetry_equiv_pos_site_id
 _symmetry_equiv_pos_as_xyz
  1  'x, y, z'
loop_
 _atom_site_type_symbol
 _atom_site_label
 _atom_site_symmetry_multiplicity
 _atom_site_fract_x
 _atom_site_fract_y
 _atom_site_fract_z
 _atom_site_occupancy
  Dy  Dy0  1  0.791307  0.084897  0.818304  1
  Dy  Dy1  1  0.973003  0.415103  0.181696  1
  Dy  Dy2  1  0.207904  0.918174  0.186291  1
  Dy  Dy3  1  0.021613  0.581826  0.813709  1
  Dy  Dy4  1  0.211107  0.185414  0.560934  1
  Dy  Dy5  1  0.650173  0.314586  0.439066  1
  Dy  Dy6  1  0.789152  0.817789  0.436239  1
  Dy  Dy7  1  0.352914  0.682211  0.563761  1
  Dy  Dy8  1  0.426865  0.250000  0.000000  1
  Dy  Dy9  1  0.576878  0.750000  0.000000  1
  Os  Os10  1  0.605715  0.426333  0.781538  1
  Os  Os11  1  0.824177  0.073667  0.218462  1
  Rh  Rh12  1  0.395350  0.576108  0.221505  1
  Rh  Rh13  1  0.173845  0.923892  0.778495  1
