# generated using pymatgen
data_Y3Er2CrRuO12
_symmetry_space_group_name_H-M   'P 1'
_cell_length_a   6.82651300
_cell_length_b   6.82629110
_cell_length_c   7.29367700
_cell_angle_alpha   74.49354521
_cell_angle_beta   74.48860929
_cell_angle_gamma   50.58351465
_symmetry_Int_Tables_number   1
_chemical_formula_structural   Y3Er2CrRuO12
_chemical_formula_sum   'Y3 Er2 Cr1 Ru1 O12'
_cell_volume   250.83220155
_cell_formula_units_Z   1
loop_
 _symmetry_equiv_pos_site_id
 _symmetry_equiv_pos_as_xyz
  1  'x, y, z'
loop_
 _atom_site_type_symbol
 _atom_site_label
 _atom_site_symmetry_multiplicity
 _atom_site_fract_x
 _atom_site_fract_y
 _atom_site_fract_z
 _atom_site_occupancy
  Y  Y0  1  0.693126  0.692194  0.667646  1
  Y  Y1  1  0.693250  0.701931  0.140742  1
  Y  Y2  1  0.999201  0.000959  0.000065  1
  Er  Er3  1  0.298350  0.307035  0.859380  1
  Er  Er4  1  0.307849  0.307437  0.331659  1
  Cr  Cr5  1  0.250915  0.748546  0.500036  1
  Ru  Ru6  1  0.760484  0.238848  0.500107  1
  O  O7  1  0.399873  0.909105  0.924507  1
  O  O8  1  0.570017  0.098831  0.582800  1
  O  O9  1  0.906519  0.424893  0.416633  1
  O  O10  1  0.097267  0.596539  0.075158  1
  O  O11  1  0.002301  0.996176  0.318369  1
  O  O12  1  0.501122  0.497539  0.684836  1
  O  O13  1  0.903600  0.404828  0.924555  1
  O  O14  1  0.102419  0.576622  0.581486  1
  O  O15  1  0.419071  0.902036  0.418455  1
  O  O16  1  0.591445  0.102724  0.075469  1
  O  O17  1  0.500725  0.497618  0.315853  1
  O  O18  1  0.002468  0.996141  0.682243  1
