# generated using pymatgen
data_Pr4YGa2Pb
_symmetry_space_group_name_H-M   'P 1'
_cell_length_a   8.18184100
_cell_length_b   8.18184100
_cell_length_c   14.37459400
_cell_angle_alpha   90.00000000
_cell_angle_beta   90.00000000
_cell_angle_gamma   90.00000000
_symmetry_Int_Tables_number   1
_chemical_formula_structural   Pr4YGa2Pb
_chemical_formula_sum   'Pr16 Y4 Ga8 Pb4'
_cell_volume   962.27157723
_cell_formula_units_Z   4
loop_
 _symmetry_equiv_pos_site_id
 _symmetry_equiv_pos_as_xyz
  1  'x, y, z'
loop_
 _atom_site_type_symbol
 _atom_site_label
 _atom_site_symmetry_multiplicity
 _atom_site_fract_x
 _atom_site_fract_y
 _atom_site_fract_z
 _atom_site_occupancy
  Pr  Pr0  1  0.837072  0.835493  0.893004  1
  Pr  Pr1  1  0.164507  0.162928  0.606996  1
  Pr  Pr2  1  0.837072  0.164507  0.393004  1
  Pr  Pr3  1  0.162928  0.835493  0.393004  1
  Pr  Pr4  1  0.335493  0.337072  0.393004  1
  Pr  Pr5  1  0.835493  0.162928  0.106996  1
  Pr  Pr6  1  0.335493  0.662928  0.893004  1
  Pr  Pr7  1  0.164507  0.837072  0.106996  1
  Pr  Pr8  1  0.337072  0.664507  0.606996  1
  Pr  Pr9  1  0.662928  0.664507  0.106996  1
  Pr  Pr10  1  0.662928  0.335493  0.606996  1
  Pr  Pr11  1  0.835493  0.837072  0.606996  1
  Pr  Pr12  1  0.664507  0.337072  0.893004  1
  Pr  Pr13  1  0.162928  0.164507  0.893004  1
  Pr  Pr14  1  0.664507  0.662928  0.393004  1
  Pr  Pr15  1  0.337072  0.335493  0.106996  1
  Y  Y16  1  0.500000  0.000000  0.752414  1
  Y  Y17  1  0.000000  0.500000  0.247586  1
  Y  Y18  1  0.000000  0.500000  0.747586  1
  Y  Y19  1  0.500000  0.000000  0.252414  1
  Ga  Ga20  1  0.633653  0.366347  0.250000  1
  Ga  Ga21  1  0.366347  0.633653  0.250000  1
  Ga  Ga22  1  0.133653  0.133653  0.250000  1
  Ga  Ga23  1  0.366347  0.366347  0.750000  1
  Ga  Ga24  1  0.133653  0.866347  0.750000  1
  Ga  Ga25  1  0.866347  0.866347  0.250000  1
  Ga  Ga26  1  0.633653  0.633653  0.750000  1
  Ga  Ga27  1  0.866347  0.133653  0.750000  1
  Pb  Pb28  1  0.000000  0.500000  0.000198  1
  Pb  Pb29  1  0.500000  0.000000  0.999802  1
  Pb  Pb30  1  0.500000  0.000000  0.499802  1
  Pb  Pb31  1  0.000000  0.500000  0.500198  1
