# generated using pymatgen
data_ErTm2Co8P6Os
_symmetry_space_group_name_H-M   'P 1'
_cell_length_a   3.69973000
_cell_length_b   10.47997900
_cell_length_c   12.18420800
_cell_angle_alpha   90.00000000
_cell_angle_beta   90.00000000
_cell_angle_gamma   90.00000000
_symmetry_Int_Tables_number   1
_chemical_formula_structural   ErTm2Co8P6Os
_chemical_formula_sum   'Er2 Tm4 Co16 P12 Os2'
_cell_volume   472.41942633
_cell_formula_units_Z   2
loop_
 _symmetry_equiv_pos_site_id
 _symmetry_equiv_pos_as_xyz
  1  'x, y, z'
loop_
 _atom_site_type_symbol
 _atom_site_label
 _atom_site_symmetry_multiplicity
 _atom_site_fract_x
 _atom_site_fract_y
 _atom_site_fract_z
 _atom_site_occupancy
  Er  Er0  1  0.000000  0.500000  0.525377  1
  Er  Er1  1  0.500000  0.000000  0.474623  1
  Tm  Tm2  1  0.500000  0.817915  0.207326  1
  Tm  Tm3  1  0.500000  0.182085  0.207326  1
  Tm  Tm4  1  0.000000  0.682085  0.792674  1
  Tm  Tm5  1  0.000000  0.317915  0.792674  1
  Co  Co6  1  0.500000  0.500000  0.703442  1
  Co  Co7  1  0.000000  0.000000  0.296558  1
  Co  Co8  1  0.000000  0.500000  0.986975  1
  Co  Co9  1  0.500000  0.000000  0.013025  1
  Co  Co10  1  0.500000  0.332426  0.989573  1
  Co  Co11  1  0.500000  0.667574  0.989573  1
  Co  Co12  1  0.000000  0.167574  0.010427  1
  Co  Co13  1  0.000000  0.832426  0.010427  1
  Co  Co14  1  0.500000  0.297558  0.431204  1
  Co  Co15  1  0.500000  0.702442  0.431204  1
  Co  Co16  1  0.000000  0.202442  0.568796  1
  Co  Co17  1  0.000000  0.797558  0.568796  1
  Co  Co18  1  0.500000  0.878659  0.708220  1
  Co  Co19  1  0.500000  0.121341  0.708220  1
  Co  Co20  1  0.000000  0.621341  0.291780  1
  Co  Co21  1  0.000000  0.378659  0.291780  1
  P  P22  1  0.500000  0.500000  0.879876  1
  P  P23  1  0.000000  0.000000  0.120124  1
  P  P24  1  0.500000  0.500000  0.351775  1
  P  P25  1  0.000000  0.000000  0.648225  1
  P  P26  1  0.500000  0.312495  0.616437  1
  P  P27  1  0.500000  0.687505  0.616437  1
  P  P28  1  0.000000  0.187505  0.383563  1
  P  P29  1  0.000000  0.812495  0.383563  1
  P  P30  1  0.500000  0.845710  0.892080  1
  P  P31  1  0.500000  0.154290  0.892080  1
  P  P32  1  0.000000  0.654290  0.107920  1
  P  P33  1  0.000000  0.345710  0.107920  1
  Os  Os34  1  0.500000  0.500000  0.159426  1
  Os  Os35  1  0.000000  0.000000  0.840574  1
