# generated using pymatgen
data_Pr9TmSi5Pb
_symmetry_space_group_name_H-M   'P 1'
_cell_length_a   7.78357428
_cell_length_b   7.78357448
_cell_length_c   9.24474715
_cell_angle_alpha   114.89602740
_cell_angle_beta   114.89602741
_cell_angle_gamma   89.99999715
_symmetry_Int_Tables_number   1
_chemical_formula_structural   Pr9TmSi5Pb
_chemical_formula_sum   'Pr9 Tm1 Si5 Pb1'
_cell_volume   450.01057492
_cell_formula_units_Z   1
loop_
 _symmetry_equiv_pos_site_id
 _symmetry_equiv_pos_as_xyz
  1  'x, y, z'
loop_
 _atom_site_type_symbol
 _atom_site_label
 _atom_site_symmetry_multiplicity
 _atom_site_fract_x
 _atom_site_fract_y
 _atom_site_fract_z
 _atom_site_occupancy
  Pr  Pr0  1  0.974948  0.974948  0.949896  1
  Pr  Pr1  1  0.978162  0.829991  0.280574  1
  Pr  Pr2  1  0.302412  0.450582  0.280574  1
  Pr  Pr3  1  0.829991  0.302412  0.280574  1
  Pr  Pr4  1  0.450582  0.978162  0.280574  1
  Pr  Pr5  1  0.047957  0.197305  0.721105  1
  Pr  Pr6  1  0.673149  0.523801  0.721105  1
  Pr  Pr7  1  0.197305  0.673149  0.721105  1
  Pr  Pr8  1  0.523801  0.047957  0.721105  1
  Tm  Tm9  1  0.514159  0.514159  0.028319  1
  Si  Si10  1  0.257119  0.257119  0.514239  1
  Si  Si11  1  0.615633  0.880374  0.003748  1
  Si  Si12  1  0.388115  0.123374  0.003748  1
  Si  Si13  1  0.880374  0.388115  0.003748  1
  Si  Si14  1  0.123374  0.615633  0.003748  1
  Pb  Pb15  1  0.742918  0.742918  0.485837  1
