# generated using pymatgen
data_POs2Cl13
_symmetry_space_group_name_H-M   'P 1'
_cell_length_a   9.20513635
_cell_length_b   11.28311200
_cell_length_c   9.60285420
_cell_angle_alpha   90.00000000
_cell_angle_beta   96.99342271
_cell_angle_gamma   90.00000000
_symmetry_Int_Tables_number   1
_chemical_formula_structural   POs2Cl13
_chemical_formula_sum   'P2 Os4 Cl26'
_cell_volume   989.95690290
_cell_formula_units_Z   2
loop_
 _symmetry_equiv_pos_site_id
 _symmetry_equiv_pos_as_xyz
  1  'x, y, z'
loop_
 _atom_site_type_symbol
 _atom_site_label
 _atom_site_symmetry_multiplicity
 _atom_site_fract_x
 _atom_site_fract_y
 _atom_site_fract_z
 _atom_site_occupancy
  P  P0  1  0.260741  0.750000  0.491427  1
  P  P1  1  0.739260  0.250000  0.508573  1
  Os  Os2  1  0.176564  0.250000  0.086565  1
  Os  Os3  1  0.683633  0.750000  0.127221  1
  Os  Os4  1  0.316367  0.250000  0.872779  1
  Os  Os5  1  0.823436  0.750000  0.913435  1
  Cl  Cl6  1  0.924498  0.250000  0.069943  1
  Cl  Cl7  1  0.849963  0.590614  0.083981  1
  Cl  Cl8  1  0.849963  0.909387  0.083981  1
  Cl  Cl9  1  0.442880  0.250000  0.109213  1
  Cl  Cl10  1  0.524477  0.603858  0.177043  1
  Cl  Cl11  1  0.524477  0.896142  0.177043  1
  Cl  Cl12  1  0.194559  0.104631  0.256363  1
  Cl  Cl13  1  0.194559  0.395369  0.256363  1
  Cl  Cl14  1  0.188214  0.750000  0.291748  1
  Cl  Cl15  1  0.795648  0.750000  0.356793  1
  Cl  Cl16  1  0.809695  0.108507  0.418417  1
  Cl  Cl17  1  0.809695  0.391493  0.418417  1
  Cl  Cl18  1  0.525097  0.250000  0.483364  1
  Cl  Cl19  1  0.474904  0.750000  0.516636  1
  Cl  Cl20  1  0.190306  0.608507  0.581583  1
  Cl  Cl21  1  0.190306  0.891493  0.581583  1
  Cl  Cl22  1  0.204352  0.250000  0.643207  1
  Cl  Cl23  1  0.811786  0.250000  0.708252  1
  Cl  Cl24  1  0.805442  0.604630  0.743637  1
  Cl  Cl25  1  0.805442  0.895370  0.743637  1
  Cl  Cl26  1  0.475522  0.103858  0.822957  1
  Cl  Cl27  1  0.475522  0.396142  0.822957  1
  Cl  Cl28  1  0.557119  0.750000  0.890787  1
  Cl  Cl29  1  0.150037  0.090614  0.916019  1
  Cl  Cl30  1  0.150037  0.409386  0.916019  1
  Cl  Cl31  1  0.075502  0.750000  0.930058  1
