# generated using pymatgen
data_Nd6YP12Rh17
_symmetry_space_group_name_H-M   'P 1'
_cell_length_a   3.98826600
_cell_length_b   11.33577200
_cell_length_c   13.06100200
_cell_angle_alpha   90.00000000
_cell_angle_beta   90.00000000
_cell_angle_gamma   90.00000000
_symmetry_Int_Tables_number   1
_chemical_formula_structural   Nd6YP12Rh17
_chemical_formula_sum   'Nd6 Y1 P12 Rh17'
_cell_volume   590.48886760
_cell_formula_units_Z   1
loop_
 _symmetry_equiv_pos_site_id
 _symmetry_equiv_pos_as_xyz
  1  'x, y, z'
loop_
 _atom_site_type_symbol
 _atom_site_label
 _atom_site_symmetry_multiplicity
 _atom_site_fract_x
 _atom_site_fract_y
 _atom_site_fract_z
 _atom_site_occupancy
  Nd  Nd0  1  0.000000  0.500000  0.522602  1
  Nd  Nd1  1  0.500000  0.000000  0.478243  1
  Nd  Nd2  1  0.500000  0.819054  0.206771  1
  Nd  Nd3  1  0.500000  0.180946  0.206771  1
  Nd  Nd4  1  0.000000  0.682951  0.796386  1
  Nd  Nd5  1  0.000000  0.317049  0.796386  1
  Y  Y6  1  0.500000  0.500000  0.155616  1
  P  P7  1  0.500000  0.500000  0.880412  1
  P  P8  1  0.000000  0.000000  0.117721  1
  P  P9  1  0.500000  0.500000  0.361877  1
  P  P10  1  0.000000  0.000000  0.651530  1
  P  P11  1  0.500000  0.311379  0.617908  1
  P  P12  1  0.500000  0.688621  0.617908  1
  P  P13  1  0.000000  0.188181  0.385867  1
  P  P14  1  0.000000  0.811819  0.385867  1
  P  P15  1  0.500000  0.852146  0.888960  1
  P  P16  1  0.500000  0.147854  0.888960  1
  P  P17  1  0.000000  0.664194  0.101809  1
  P  P18  1  0.000000  0.335806  0.101809  1
  Rh  Rh19  1  0.000000  0.000000  0.828542  1
  Rh  Rh20  1  0.500000  0.500000  0.702344  1
  Rh  Rh21  1  0.000000  0.000000  0.297131  1
  Rh  Rh22  1  0.000000  0.500000  0.981993  1
  Rh  Rh23  1  0.500000  0.000000  0.017730  1
  Rh  Rh24  1  0.500000  0.327225  0.987506  1
  Rh  Rh25  1  0.500000  0.672775  0.987506  1
  Rh  Rh26  1  0.000000  0.161835  0.002897  1
  Rh  Rh27  1  0.000000  0.838165  0.002897  1
  Rh  Rh28  1  0.500000  0.287406  0.435797  1
  Rh  Rh29  1  0.500000  0.712594  0.435797  1
  Rh  Rh30  1  0.000000  0.204109  0.572807  1
  Rh  Rh31  1  0.000000  0.795891  0.572807  1
  Rh  Rh32  1  0.500000  0.876437  0.709412  1
  Rh  Rh33  1  0.500000  0.123563  0.709412  1
  Rh  Rh34  1  0.000000  0.626898  0.296010  1
  Rh  Rh35  1  0.000000  0.373102  0.296010  1
