# generated using pymatgen
data_SmLu7Sc12Si15As
_symmetry_space_group_name_H-M   'P 1'
_cell_length_a   7.09382062
_cell_length_b   7.31983740
_cell_length_c   13.89493619
_cell_angle_alpha   90.04762779
_cell_angle_beta   88.55022047
_cell_angle_gamma   90.05022862
_symmetry_Int_Tables_number   1
_chemical_formula_structural   SmLu7Sc12Si15As
_chemical_formula_sum   'Sm1 Lu7 Sc12 Si15 As1'
_cell_volume   721.27160808
_cell_formula_units_Z   1
loop_
 _symmetry_equiv_pos_site_id
 _symmetry_equiv_pos_as_xyz
  1  'x, y, z'
loop_
 _atom_site_type_symbol
 _atom_site_label
 _atom_site_symmetry_multiplicity
 _atom_site_fract_x
 _atom_site_fract_y
 _atom_site_fract_z
 _atom_site_occupancy
  Sm  Sm0  1  0.501379  0.678204  0.596391  1
  Lu  Lu1  1  0.010757  0.176948  0.096883  1
  Lu  Lu2  1  0.989922  0.823974  0.904901  1
  Lu  Lu3  1  0.490386  0.677345  0.902717  1
  Lu  Lu4  1  0.997677  0.823622  0.595181  1
  Lu  Lu5  1  0.510224  0.323635  0.096854  1
  Lu  Lu6  1  0.999512  0.178805  0.402690  1
  Lu  Lu7  1  0.502033  0.319047  0.401457  1
  Sc  Sc8  1  0.169452  0.501634  0.750635  1
  Sc  Sc9  1  0.830657  0.497417  0.252526  1
  Sc  Sc10  1  0.330202  0.002710  0.251192  1
  Sc  Sc11  1  0.670391  0.998509  0.749817  1
  Sc  Sc12  1  0.346001  0.168859  0.626048  1
  Sc  Sc13  1  0.654719  0.829229  0.373889  1
  Sc  Sc14  1  0.153594  0.671621  0.375844  1
  Sc  Sc15  1  0.665125  0.822488  0.125065  1
  Sc  Sc16  1  0.844302  0.329230  0.623234  1
  Sc  Sc17  1  0.333973  0.176627  0.875751  1
  Sc  Sc18  1  0.835832  0.322909  0.875813  1
  Sc  Sc19  1  0.165591  0.677386  0.125340  1
  Si  Si20  1  0.040970  0.114416  0.750585  1
  Si  Si21  1  0.958351  0.886497  0.248850  1
  Si  Si22  1  0.456818  0.613774  0.248710  1
  Si  Si23  1  0.543427  0.383463  0.751968  1
  Si  Si24  1  0.289490  0.870580  0.752689  1
  Si  Si25  1  0.707859  0.130179  0.248300  1
  Si  Si26  1  0.207542  0.370238  0.248786  1
  Si  Si27  1  0.797266  0.630173  0.752591  1
  Si  Si28  1  0.810869  0.537234  0.455566  1
  Si  Si29  1  0.318522  0.965218  0.458635  1
  Si  Si30  1  0.840938  0.533778  0.040039  1
  Si  Si31  1  0.681245  0.042054  0.538843  1
  Si  Si32  1  0.160508  0.466298  0.961203  1
  Si  Si33  1  0.658921  0.033858  0.960540  1
  Si  Si34  1  0.340524  0.966337  0.040262  1
  As  As35  1  0.185018  0.455704  0.540208  1
