# generated using pymatgen
data_Ca2NdU(NiAs)4
_symmetry_space_group_name_H-M   'P 1'
_cell_length_a   4.05676000
_cell_length_b   4.05676031
_cell_length_c   16.03064500
_cell_angle_alpha   90.00000000
_cell_angle_beta   90.00000000
_cell_angle_gamma   120.00001376
_symmetry_Int_Tables_number   1
_chemical_formula_structural   Ca2NdU(NiAs)4
_chemical_formula_sum   'Ca2 Nd1 U1 Ni4 As4'
_cell_volume   228.47581352
_cell_formula_units_Z   1
loop_
 _symmetry_equiv_pos_site_id
 _symmetry_equiv_pos_as_xyz
  1  'x, y, z'
loop_
 _atom_site_type_symbol
 _atom_site_label
 _atom_site_symmetry_multiplicity
 _atom_site_fract_x
 _atom_site_fract_y
 _atom_site_fract_z
 _atom_site_occupancy
  Ca  Ca0  1  0.000000  0.000000  0.246164  1
  Ca  Ca1  1  0.000000  0.000000  0.753836  1
  Nd  Nd2  1  0.000000  0.000000  0.500000  1
  U  U3  1  0.000000  0.000000  0.000000  1
  Ni  Ni4  1  0.333333  0.666667  0.102976  1
  Ni  Ni5  1  0.666667  0.333333  0.897024  1
  Ni  Ni6  1  0.666667  0.333333  0.629093  1
  Ni  Ni7  1  0.333333  0.666667  0.370907  1
  As  As8  1  0.333333  0.666667  0.627041  1
  As  As9  1  0.666667  0.333333  0.372959  1
  As  As10  1  0.666667  0.333333  0.117474  1
  As  As11  1  0.333333  0.666667  0.882526  1
