# generated using pymatgen
data_MnV18Si12Os
_symmetry_space_group_name_H-M   'P 1'
_cell_length_a   7.03092221
_cell_length_b   7.03092253
_cell_length_c   13.23512000
_cell_angle_alpha   90.00000000
_cell_angle_beta   90.00000000
_cell_angle_gamma   140.46181615
_symmetry_Int_Tables_number   1
_chemical_formula_structural   MnV18Si12Os
_chemical_formula_sum   'Mn1 V18 Si12 Os1'
_cell_volume   416.49892116
_cell_formula_units_Z   1
loop_
 _symmetry_equiv_pos_site_id
 _symmetry_equiv_pos_as_xyz
  1  'x, y, z'
loop_
 _atom_site_type_symbol
 _atom_site_label
 _atom_site_symmetry_multiplicity
 _atom_site_fract_x
 _atom_site_fract_y
 _atom_site_fract_z
 _atom_site_occupancy
  Mn  Mn0  1  0.000808  0.000808  0.000000  1
  V  V1  1  0.072291  0.422232  0.399803  1
  V  V2  1  0.571193  0.921744  0.900842  1
  V  V3  1  0.422232  0.072291  0.600197  1
  V  V4  1  0.921744  0.571193  0.099158  1
  V  V5  1  0.850941  0.651333  0.675515  1
  V  V6  1  0.354878  0.155201  0.174583  1
  V  V7  1  0.651333  0.850941  0.324485  1
  V  V8  1  0.155201  0.354878  0.825417  1
  V  V9  1  0.651333  0.850941  0.675515  1
  V  V10  1  0.155201  0.354878  0.174583  1
  V  V11  1  0.850941  0.651333  0.324485  1
  V  V12  1  0.354878  0.155201  0.825417  1
  V  V13  1  0.422232  0.072291  0.399803  1
  V  V14  1  0.921744  0.571193  0.900842  1
  V  V15  1  0.072291  0.422232  0.600197  1
  V  V16  1  0.571193  0.921744  0.099158  1
  V  V17  1  0.999149  0.999149  0.500000  1
  V  V18  1  0.500927  0.500927  0.000000  1
  Si  Si19  1  0.249786  0.750236  0.750480  1
  Si  Si20  1  0.750236  0.249786  0.249520  1
  Si  Si21  1  0.750236  0.249786  0.750480  1
  Si  Si22  1  0.249786  0.750236  0.249520  1
  Si  Si23  1  0.246664  0.246664  0.667865  1
  Si  Si24  1  0.761735  0.761735  0.164165  1
  Si  Si25  1  0.246664  0.246664  0.332135  1
  Si  Si26  1  0.761735  0.761735  0.835835  1
  Si  Si27  1  0.583729  0.919519  0.500000  1
  Si  Si28  1  0.075804  0.404162  0.000000  1
  Si  Si29  1  0.919519  0.583729  0.500000  1
  Si  Si30  1  0.404162  0.075804  0.000000  1
  Os  Os31  1  0.499440  0.499440  0.500000  1
