# generated using pymatgen
data_Cu2RuRhSe8
_symmetry_space_group_name_H-M   'P 1'
_cell_length_a   6.06230535
_cell_length_b   6.14677418
_cell_length_c   6.08400784
_cell_angle_alpha   89.94181882
_cell_angle_beta   90.01215702
_cell_angle_gamma   88.33920871
_symmetry_Int_Tables_number   1
_chemical_formula_structural   Cu2RuRhSe8
_chemical_formula_sum   'Cu2 Ru1 Rh1 Se8'
_cell_volume   226.61680976
_cell_formula_units_Z   1
loop_
 _symmetry_equiv_pos_site_id
 _symmetry_equiv_pos_as_xyz
  1  'x, y, z'
loop_
 _atom_site_type_symbol
 _atom_site_label
 _atom_site_symmetry_multiplicity
 _atom_site_fract_x
 _atom_site_fract_y
 _atom_site_fract_z
 _atom_site_occupancy
  Cu  Cu0  1  0.000000  0.500000  0.500000  1
  Cu  Cu1  1  0.500000  0.500000  0.000000  1
  Ru  Ru2  1  0.500000  0.000000  0.500000  1
  Rh  Rh3  1  0.000000  0.000000  0.000000  1
  Se  Se4  1  0.377784  0.108347  0.875668  1
  Se  Se5  1  0.126041  0.890269  0.380931  1
  Se  Se6  1  0.888583  0.382336  0.112795  1
  Se  Se7  1  0.610439  0.620702  0.612196  1
  Se  Se8  1  0.389561  0.379298  0.387804  1
  Se  Se9  1  0.111417  0.617664  0.887205  1
  Se  Se10  1  0.873959  0.109731  0.619069  1
  Se  Se11  1  0.622216  0.891653  0.124332  1
