# generated using pymatgen
data_TcSb(Cl2F3)2
_symmetry_space_group_name_H-M   'P 1'
_cell_length_a   9.10659300
_cell_length_b   9.10659300
_cell_length_c   6.80557200
_cell_angle_alpha   90.00000000
_cell_angle_beta   90.00000000
_cell_angle_gamma   90.00000000
_symmetry_Int_Tables_number   1
_chemical_formula_structural   TcSb(Cl2F3)2
_chemical_formula_sum   'Tc2 Sb2 Cl8 F12'
_cell_volume   564.38633142
_cell_formula_units_Z   2
loop_
 _symmetry_equiv_pos_site_id
 _symmetry_equiv_pos_as_xyz
  1  'x, y, z'
loop_
 _atom_site_type_symbol
 _atom_site_label
 _atom_site_symmetry_multiplicity
 _atom_site_fract_x
 _atom_site_fract_y
 _atom_site_fract_z
 _atom_site_occupancy
  Tc  Tc0  1  0.500000  0.500000  0.500000  1
  Tc  Tc1  1  0.000000  0.000000  0.500000  1
  Sb  Sb2  1  0.000000  0.500000  0.168570  1
  Sb  Sb3  1  0.500000  0.000000  0.831430  1
  Cl  Cl4  1  0.041096  0.189063  0.685033  1
  Cl  Cl5  1  0.458904  0.310937  0.314967  1
  Cl  Cl6  1  0.310937  0.541096  0.685033  1
  Cl  Cl7  1  0.810937  0.041096  0.314967  1
  Cl  Cl8  1  0.541096  0.689063  0.314967  1
  Cl  Cl9  1  0.189063  0.958904  0.314967  1
  Cl  Cl10  1  0.689063  0.458904  0.685033  1
  Cl  Cl11  1  0.958904  0.810937  0.685033  1
  F  F12  1  0.297494  0.938492  0.830597  1
  F  F13  1  0.797494  0.438492  0.169403  1
  F  F14  1  0.202506  0.561508  0.169403  1
  F  F15  1  0.938492  0.702506  0.169403  1
  F  F16  1  0.561508  0.797494  0.830597  1
  F  F17  1  0.702506  0.061508  0.830597  1
  F  F18  1  0.438492  0.202506  0.830597  1
  F  F19  1  0.000000  0.500000  0.885661  1
  F  F20  1  0.061508  0.297494  0.169403  1
  F  F21  1  0.500000  0.000000  0.549936  1
  F  F22  1  0.000000  0.500000  0.450064  1
  F  F23  1  0.500000  0.000000  0.114339  1
