# generated using pymatgen
data_Hf2ZrAsP
_symmetry_space_group_name_H-M   'P 1'
_cell_length_a   3.73081000
_cell_length_b   9.94243900
_cell_length_c   10.26690800
_cell_angle_alpha   90.00000000
_cell_angle_beta   90.00000000
_cell_angle_gamma   90.00000000
_symmetry_Int_Tables_number   1
_chemical_formula_structural   Hf2ZrAsP
_chemical_formula_sum   'Hf8 Zr4 As4 P4'
_cell_volume   380.83402054
_cell_formula_units_Z   4
loop_
 _symmetry_equiv_pos_site_id
 _symmetry_equiv_pos_as_xyz
  1  'x, y, z'
loop_
 _atom_site_type_symbol
 _atom_site_label
 _atom_site_symmetry_multiplicity
 _atom_site_fract_x
 _atom_site_fract_y
 _atom_site_fract_z
 _atom_site_occupancy
  Hf  Hf0  1  0.750000  0.067187  0.615678  1
  Hf  Hf1  1  0.750000  0.432813  0.115678  1
  Hf  Hf2  1  0.250000  0.932813  0.384322  1
  Hf  Hf3  1  0.250000  0.567187  0.884322  1
  Hf  Hf4  1  0.250000  0.292660  0.717038  1
  Hf  Hf5  1  0.250000  0.207340  0.217038  1
  Hf  Hf6  1  0.750000  0.707340  0.282962  1
  Hf  Hf7  1  0.750000  0.792660  0.782962  1
  Zr  Zr8  1  0.250000  0.631935  0.545238  1
  Zr  Zr9  1  0.250000  0.868065  0.045238  1
  Zr  Zr10  1  0.750000  0.368065  0.454762  1
  Zr  Zr11  1  0.750000  0.131935  0.954762  1
  As  As12  1  0.750000  0.498888  0.697785  1
  As  As13  1  0.750000  0.001112  0.197785  1
  As  As14  1  0.250000  0.501112  0.302215  1
  As  As15  1  0.250000  0.998888  0.802215  1
  P  P16  1  0.250000  0.178214  0.474353  1
  P  P17  1  0.250000  0.321786  0.974353  1
  P  P18  1  0.750000  0.821786  0.525647  1
  P  P19  1  0.750000  0.678214  0.025647  1
