# generated using pymatgen
data_Er5Tm3(Si4W3)4
_symmetry_space_group_name_H-M   'P 1'
_cell_length_a   6.73834206
_cell_length_b   6.92155310
_cell_length_c   12.85863002
_cell_angle_alpha   89.99375681
_cell_angle_beta   90.00488114
_cell_angle_gamma   90.00618003
_symmetry_Int_Tables_number   1
_chemical_formula_structural   Er5Tm3(Si4W3)4
_chemical_formula_sum   'Er5 Tm3 Si16 W12'
_cell_volume   599.72382514
_cell_formula_units_Z   1
loop_
 _symmetry_equiv_pos_site_id
 _symmetry_equiv_pos_as_xyz
  1  'x, y, z'
loop_
 _atom_site_type_symbol
 _atom_site_label
 _atom_site_symmetry_multiplicity
 _atom_site_fract_x
 _atom_site_fract_y
 _atom_site_fract_z
 _atom_site_occupancy
  Er  Er0  1  0.997709  0.168242  0.093542  1
  Er  Er1  1  0.002366  0.831781  0.906453  1
  Er  Er2  1  0.502308  0.668219  0.906585  1
  Er  Er3  1  0.002157  0.831640  0.593176  1
  Er  Er4  1  0.497763  0.331781  0.093540  1
  Tm  Tm5  1  0.997159  0.168341  0.406680  1
  Tm  Tm6  1  0.497155  0.331731  0.406723  1
  Tm  Tm7  1  0.502754  0.668357  0.593163  1
  Si  Si8  1  0.033671  0.128566  0.749832  1
  Si  Si9  1  0.966489  0.871704  0.250307  1
  Si  Si10  1  0.466561  0.628181  0.250235  1
  Si  Si11  1  0.533553  0.371834  0.749742  1
  Si  Si12  1  0.300387  0.865741  0.749627  1
  Si  Si13  1  0.699840  0.134305  0.250478  1
  Si  Si14  1  0.199928  0.365572  0.250425  1
  Si  Si15  1  0.799859  0.634079  0.749703  1
  Si  Si16  1  0.161859  0.458954  0.546553  1
  Si  Si17  1  0.838264  0.540476  0.453205  1
  Si  Si18  1  0.338358  0.959381  0.453215  1
  Si  Si19  1  0.838752  0.541221  0.046872  1
  Si  Si20  1  0.661230  0.040979  0.546558  1
  Si  Si21  1  0.161346  0.458823  0.953195  1
  Si  Si22  1  0.661384  0.041195  0.953217  1
  Si  Si23  1  0.338751  0.958846  0.046897  1
  W  W24  1  0.164378  0.501244  0.749747  1
  W  W25  1  0.835694  0.498554  0.250289  1
  W  W26  1  0.335569  0.001399  0.250298  1
  W  W27  1  0.664267  0.998876  0.749762  1
  W  W28  1  0.329864  0.164121  0.624888  1
  W  W29  1  0.670215  0.835983  0.375078  1
  W  W30  1  0.170499  0.663721  0.375014  1
  W  W31  1  0.670206  0.836075  0.125408  1
  W  W32  1  0.829655  0.336114  0.624816  1
  W  W33  1  0.329997  0.163935  0.874693  1
  W  W34  1  0.829856  0.336166  0.874688  1
  W  W35  1  0.170195  0.663864  0.125399  1
