# generated using pymatgen
data_ErFe5Tc7
_symmetry_space_group_name_H-M   'P 1'
_cell_length_a   6.64447165
_cell_length_b   6.64447203
_cell_length_c   6.64447183
_cell_angle_alpha   138.08284317
_cell_angle_beta   96.11625217
_cell_angle_gamma   98.58882035
_symmetry_Int_Tables_number   1
_chemical_formula_structural   ErFe5Tc7
_chemical_formula_sum   'Er1 Fe5 Tc7'
_cell_volume   182.95117711
_cell_formula_units_Z   1
loop_
 _symmetry_equiv_pos_site_id
 _symmetry_equiv_pos_as_xyz
  1  'x, y, z'
loop_
 _atom_site_type_symbol
 _atom_site_label
 _atom_site_symmetry_multiplicity
 _atom_site_fract_x
 _atom_site_fract_y
 _atom_site_fract_z
 _atom_site_occupancy
  Er  Er0  1  0.006652  0.000000  0.006652  1
  Fe  Fe1  1  0.491479  0.495483  0.499438  1
  Fe  Fe2  1  0.491479  0.992041  0.995996  1
  Fe  Fe3  1  0.003954  0.007959  0.499438  1
  Fe  Fe4  1  0.003954  0.504517  0.995996  1
  Fe  Fe5  1  0.227731  0.500000  0.727731  1
  Tc  Tc6  1  0.640192  0.000000  0.640192  1
  Tc  Tc7  1  0.362420  0.000000  0.362420  1
  Tc  Tc8  1  0.350578  0.354822  0.995755  1
  Tc  Tc9  1  0.640933  0.645178  0.995755  1
  Tc  Tc10  1  0.779465  0.500000  0.279465  1
  Tc  Tc11  1  0.797253  0.296673  0.500580  1
  Tc  Tc12  1  0.203907  0.703327  0.500580  1
