# generated using pymatgen
data_Na12MgCr7N16
_symmetry_space_group_name_H-M   'P 1'
_cell_length_a   5.59122100
_cell_length_b   9.86601984
_cell_length_c   9.43862222
_cell_angle_alpha   89.37732304
_cell_angle_beta   90.00000000
_cell_angle_gamma   90.00000000
_symmetry_Int_Tables_number   1
_chemical_formula_structural   Na12MgCr7N16
_chemical_formula_sum   'Na12 Mg1 Cr7 N16'
_cell_volume   520.63288900
_cell_formula_units_Z   1
loop_
 _symmetry_equiv_pos_site_id
 _symmetry_equiv_pos_as_xyz
  1  'x, y, z'
loop_
 _atom_site_type_symbol
 _atom_site_label
 _atom_site_symmetry_multiplicity
 _atom_site_fract_x
 _atom_site_fract_y
 _atom_site_fract_z
 _atom_site_occupancy
  Na  Na0  1  0.637260  0.149854  0.413093  1
  Na  Na1  1  0.856686  0.840142  0.417987  1
  Na  Na2  1  0.637260  0.350146  0.086907  1
  Na  Na3  1  0.856686  0.659858  0.082013  1
  Na  Na4  1  0.361065  0.847889  0.583122  1
  Na  Na5  1  0.135075  0.155716  0.583886  1
  Na  Na6  1  0.361065  0.652111  0.916878  1
  Na  Na7  1  0.135075  0.344284  0.916114  1
  Na  Na8  1  0.752944  0.501787  0.411686  1
  Na  Na9  1  0.752944  0.998213  0.088314  1
  Na  Na10  1  0.254126  0.510920  0.590053  1
  Na  Na11  1  0.254126  0.989080  0.909947  1
  Mg  Mg12  1  0.666435  0.250000  0.750000  1
  Cr  Cr13  1  0.749939  0.501597  0.738253  1
  Cr  Cr14  1  0.749939  0.998403  0.761747  1
  Cr  Cr15  1  0.250369  0.499827  0.262610  1
  Cr  Cr16  1  0.250369  0.000173  0.237390  1
  Cr  Cr17  1  0.804054  0.750000  0.750000  1
  Cr  Cr18  1  0.301524  0.750000  0.250000  1
  Cr  Cr19  1  0.201791  0.250000  0.250000  1
  N  N20  1  0.894627  0.383035  0.639477  1
  N  N21  1  0.623577  0.647468  0.635732  1
  N  N22  1  0.894627  0.116965  0.860523  1
  N  N23  1  0.623577  0.852532  0.864268  1
  N  N24  1  0.114933  0.638897  0.359154  1
  N  N25  1  0.386294  0.358839  0.360657  1
  N  N26  1  0.114933  0.861103  0.140846  1
  N  N27  1  0.386294  0.141161  0.139343  1
  N  N28  1  0.532861  0.422789  0.839538  1
  N  N29  1  0.959666  0.612958  0.837472  1
  N  N30  1  0.532861  0.077211  0.660462  1
  N  N31  1  0.959666  0.887042  0.662528  1
  N  N32  1  0.457095  0.607067  0.165894  1
  N  N33  1  0.046583  0.392581  0.163484  1
  N  N34  1  0.457095  0.892933  0.334106  1
  N  N35  1  0.046583  0.107419  0.336516  1
