# generated using pymatgen
data_Y4Ni13Rh
_symmetry_space_group_name_H-M   'P 1'
_cell_length_a   4.95753315
_cell_length_b   4.95753252
_cell_length_c   12.56645817
_cell_angle_alpha   101.37634681
_cell_angle_beta   78.62365260
_cell_angle_gamma   120.00000057
_symmetry_Int_Tables_number   1
_chemical_formula_structural   Y4Ni13Rh
_chemical_formula_sum   'Y4 Ni13 Rh1'
_cell_volume   260.43946680
_cell_formula_units_Z   1
loop_
 _symmetry_equiv_pos_site_id
 _symmetry_equiv_pos_as_xyz
  1  'x, y, z'
loop_
 _atom_site_type_symbol
 _atom_site_label
 _atom_site_symmetry_multiplicity
 _atom_site_fract_x
 _atom_site_fract_y
 _atom_site_fract_z
 _atom_site_occupancy
  Y  Y0  1  0.949776  0.050225  0.150675  1
  Y  Y1  1  0.853535  0.146466  0.439398  1
  Y  Y2  1  0.146465  0.853534  0.560602  1
  Y  Y3  1  0.050224  0.949775  0.849325  1
  Ni  Ni4  1  0.500000  0.000000  0.000000  1
  Ni  Ni5  1  0.000000  0.500000  0.000000  1
  Ni  Ni6  1  0.500000  0.500000  0.000000  1
  Ni  Ni7  1  0.612714  0.387285  0.161855  1
  Ni  Ni8  1  0.279287  0.720712  0.162138  1
  Ni  Ni9  1  0.391147  0.105300  0.323006  1
  Ni  Ni10  1  0.894699  0.608852  0.323006  1
  Ni  Ni11  1  0.391147  0.608853  0.323006  1
  Ni  Ni12  1  0.608853  0.391148  0.676993  1
  Ni  Ni13  1  0.105301  0.391148  0.676993  1
  Ni  Ni14  1  0.608853  0.894700  0.676993  1
  Ni  Ni15  1  0.720713  0.279288  0.837862  1
  Ni  Ni16  1  0.387284  0.612714  0.838145  1
  Rh  Rh17  1  0.499999  0.500000  0.500000  1
