# generated using pymatgen
data_Ca8YbPrIr4
_symmetry_space_group_name_H-M   'P 1'
_cell_length_a   8.61971825
_cell_length_b   8.61971685
_cell_length_c   7.57954047
_cell_angle_alpha   82.89599169
_cell_angle_beta   82.89600516
_cell_angle_gamma   44.88982220
_symmetry_Int_Tables_number   1
_chemical_formula_structural   Ca8YbPrIr4
_chemical_formula_sum   'Ca8 Yb1 Pr1 Ir4'
_cell_volume   393.87109030
_cell_formula_units_Z   1
loop_
 _symmetry_equiv_pos_site_id
 _symmetry_equiv_pos_as_xyz
  1  'x, y, z'
loop_
 _atom_site_type_symbol
 _atom_site_label
 _atom_site_symmetry_multiplicity
 _atom_site_fract_x
 _atom_site_fract_y
 _atom_site_fract_z
 _atom_site_occupancy
  Ca  Ca0  1  0.026506  0.799960  0.915171  1
  Ca  Ca1  1  0.200040  0.973494  0.584829  1
  Ca  Ca2  1  0.975112  0.199457  0.078631  1
  Ca  Ca3  1  0.800543  0.024888  0.421369  1
  Ca  Ca4  1  0.362569  0.203341  0.821547  1
  Ca  Ca5  1  0.796659  0.637431  0.678453  1
  Ca  Ca6  1  0.643113  0.798510  0.177968  1
  Ca  Ca7  1  0.201490  0.356887  0.322032  1
  Yb  Yb8  1  0.567703  0.432297  0.750000  1
  Pr  Pr9  1  0.431644  0.568356  0.250000  1
  Ir  Ir10  1  0.178526  0.603363  0.575794  1
  Ir  Ir11  1  0.396637  0.821474  0.924206  1
  Ir  Ir12  1  0.817046  0.397586  0.417976  1
  Ir  Ir13  1  0.602414  0.182954  0.082024  1
