# generated using pymatgen
data_ZnS23
_symmetry_space_group_name_H-M   'P 1'
_cell_length_a   5.45283827
_cell_length_b   9.65123575
_cell_length_c   15.55398100
_cell_angle_alpha   90.01422416
_cell_angle_beta   86.54388469
_cell_angle_gamma   90.73422264
_symmetry_Int_Tables_number   1
_chemical_formula_structural   ZnS23
_chemical_formula_sum   'Zn1 S23'
_cell_volume   816.99763607
_cell_formula_units_Z   1
loop_
 _symmetry_equiv_pos_site_id
 _symmetry_equiv_pos_as_xyz
  1  'x, y, z'
loop_
 _atom_site_type_symbol
 _atom_site_label
 _atom_site_symmetry_multiplicity
 _atom_site_fract_x
 _atom_site_fract_y
 _atom_site_fract_z
 _atom_site_occupancy
  Zn  Zn0  1  0.500483  0.264033  0.413893  1
  S  S1  1  0.507043  0.796804  0.392734  1
  S  S2  1  0.999396  0.301595  0.111744  1
  S  S3  1  0.765178  0.200441  0.504779  1
  S  S4  1  0.296085  0.765620  0.505739  1
  S  S5  1  0.196238  0.257442  0.997801  1
  S  S6  1  0.794743  0.741657  0.003811  1
  S  S7  1  0.232340  0.368204  0.339574  1
  S  S8  1  0.680897  0.611215  0.360501  1
  S  S9  1  0.795540  0.127905  0.150603  1
  S  S10  1  0.206367  0.872394  0.133543  1
  S  S11  1  0.709706  0.633422  0.634132  1
  S  S12  1  0.317456  0.365486  0.626808  1
  S  S13  1  0.207403  0.877176  0.859066  1
  S  S14  1  0.789249  0.126999  0.865946  1
  S  S15  1  0.998774  0.698309  0.107945  1
  S  S16  1  0.507267  0.806696  0.609010  1
  S  S17  1  0.501861  0.183782  0.608632  1
  S  S18  1  0.004165  0.700927  0.891742  1
  S  S19  1  0.989083  0.302368  0.894621  1
  S  S20  1  0.492089  0.498314  0.274285  1
  S  S21  1  0.010246  0.998038  0.219450  1
  S  S22  1  0.495050  0.498013  0.709552  1
  S  S23  1  0.003339  0.003159  0.784093  1
