# generated using pymatgen
data_Tb19Dy(SnSb)8
_symmetry_space_group_name_H-M   'P 1'
_cell_length_a   8.12115000
_cell_length_b   8.17610901
_cell_length_c   15.49668700
_cell_angle_alpha   90.00000000
_cell_angle_beta   90.00000000
_cell_angle_gamma   89.99663630
_symmetry_Int_Tables_number   1
_chemical_formula_structural   Tb19Dy(SnSb)8
_chemical_formula_sum   'Tb19 Dy1 Sn8 Sb8'
_cell_volume   1028.97083665
_cell_formula_units_Z   1
loop_
 _symmetry_equiv_pos_site_id
 _symmetry_equiv_pos_as_xyz
  1  'x, y, z'
loop_
 _atom_site_type_symbol
 _atom_site_label
 _atom_site_symmetry_multiplicity
 _atom_site_fract_x
 _atom_site_fract_y
 _atom_site_fract_z
 _atom_site_occupancy
  Tb  Tb0  1  0.391703  0.838123  0.881257  1
  Tb  Tb1  1  0.891667  0.661877  0.618781  1
  Tb  Tb2  1  0.608350  0.161825  0.381207  1
  Tb  Tb3  1  0.108357  0.338140  0.118825  1
  Tb  Tb4  1  0.608350  0.161825  0.118793  1
  Tb  Tb5  1  0.108357  0.338140  0.381175  1
  Tb  Tb6  1  0.391703  0.838123  0.618743  1
  Tb  Tb7  1  0.891667  0.661877  0.881219  1
  Tb  Tb8  1  0.556657  0.329391  0.892069  1
  Tb  Tb9  1  0.056602  0.170629  0.607913  1
  Tb  Tb10  1  0.443309  0.670557  0.392057  1
  Tb  Tb11  1  0.943345  0.829461  0.107924  1
  Tb  Tb12  1  0.443309  0.670557  0.107943  1
  Tb  Tb13  1  0.943345  0.829461  0.392076  1
  Tb  Tb14  1  0.556657  0.329391  0.607931  1
  Tb  Tb15  1  0.056602  0.170629  0.892087  1
  Tb  Tb16  1  0.222472  0.498783  0.750000  1
  Tb  Tb17  1  0.722455  0.001201  0.750000  1
  Tb  Tb18  1  0.777464  0.501189  0.250000  1
  Dy  Dy19  1  0.277381  0.998858  0.250000  1
  Sn  Sn20  1  0.588989  0.627227  0.750000  1
  Sn  Sn21  1  0.089119  0.872778  0.750000  1
  Sn  Sn22  1  0.410855  0.372500  0.250000  1
  Sn  Sn23  1  0.911246  0.127156  0.250000  1
  Sn  Sn24  1  0.359338  0.141519  0.750000  1
  Sn  Sn25  1  0.859410  0.358451  0.750000  1
  Sn  Sn26  1  0.640315  0.858556  0.250000  1
  Sn  Sn27  1  0.140721  0.641839  0.250000  1
  Sb  Sb28  1  0.266833  0.017304  0.047061  1
  Sb  Sb29  1  0.766754  0.482654  0.453178  1
  Sb  Sb30  1  0.733298  0.982657  0.546860  1
  Sb  Sb31  1  0.233240  0.517356  0.953159  1
  Sb  Sb32  1  0.733298  0.982657  0.953140  1
  Sb  Sb33  1  0.233240  0.517356  0.546841  1
  Sb  Sb34  1  0.266833  0.017304  0.452939  1
  Sb  Sb35  1  0.766754  0.482654  0.046822  1
