# generated using pymatgen
data_LiHf4MnSb2
_symmetry_space_group_name_H-M   'P 1'
_cell_length_a   5.33299049
_cell_length_b   8.20478907
_cell_length_c   8.20478926
_cell_angle_alpha   83.93709976
_cell_angle_beta   71.03487877
_cell_angle_gamma   71.03487573
_symmetry_Int_Tables_number   1
_chemical_formula_structural   LiHf4MnSb2
_chemical_formula_sum   'Li2 Hf8 Mn2 Sb4'
_cell_volume   321.09065622
_cell_formula_units_Z   2
loop_
 _symmetry_equiv_pos_site_id
 _symmetry_equiv_pos_as_xyz
  1  'x, y, z'
loop_
 _atom_site_type_symbol
 _atom_site_label
 _atom_site_symmetry_multiplicity
 _atom_site_fract_x
 _atom_site_fract_y
 _atom_site_fract_z
 _atom_site_occupancy
  Li  Li0  1  0.250000  0.500000  0.500000  1
  Li  Li1  1  0.750000  0.500000  0.500000  1
  Hf  Hf2  1  0.078732  0.118585  0.723950  1
  Hf  Hf3  1  0.921268  0.881415  0.276050  1
  Hf  Hf4  1  0.802683  0.276050  0.118585  1
  Hf  Hf5  1  0.421268  0.276050  0.881415  1
  Hf  Hf6  1  0.197317  0.723950  0.881415  1
  Hf  Hf7  1  0.578732  0.723950  0.118585  1
  Hf  Hf8  1  0.697317  0.881415  0.723950  1
  Hf  Hf9  1  0.302683  0.118585  0.276050  1
  Mn  Mn10  1  0.250000  0.000000  0.000000  1
  Mn  Mn11  1  0.750000  0.000000  0.000000  1
  Sb  Sb12  1  0.153326  0.500000  0.193350  1
  Sb  Sb13  1  0.846674  0.500000  0.806650  1
  Sb  Sb14  1  0.346674  0.806650  0.500000  1
  Sb  Sb15  1  0.653326  0.193350  0.500000  1
