# generated using pymatgen
data_Fe7(ReMo)3
_symmetry_space_group_name_H-M   'P 1'
_cell_length_a   8.98500667
_cell_length_b   8.98500635
_cell_length_c   8.98500582
_cell_angle_alpha   30.46369329
_cell_angle_beta   30.46369603
_cell_angle_gamma   30.46369660
_symmetry_Int_Tables_number   1
_chemical_formula_structural   Fe7(ReMo)3
_chemical_formula_sum   'Fe7 Re3 Mo3'
_cell_volume   165.26671949
_cell_formula_units_Z   1
loop_
 _symmetry_equiv_pos_site_id
 _symmetry_equiv_pos_as_xyz
  1  'x, y, z'
loop_
 _atom_site_type_symbol
 _atom_site_label
 _atom_site_symmetry_multiplicity
 _atom_site_fract_x
 _atom_site_fract_y
 _atom_site_fract_z
 _atom_site_occupancy
  Fe  Fe0  1  0.587584  0.091904  0.091904  1
  Fe  Fe1  1  0.091904  0.091904  0.587584  1
  Fe  Fe2  1  0.909502  0.909502  0.409227  1
  Fe  Fe3  1  0.909502  0.409227  0.909502  1
  Fe  Fe4  1  0.000050  0.000050  0.000050  1
  Fe  Fe5  1  0.091904  0.587584  0.091904  1
  Fe  Fe6  1  0.409227  0.909502  0.909502  1
  Re  Re7  1  0.347117  0.347117  0.347117  1
  Re  Re8  1  0.165989  0.165989  0.165989  1
  Re  Re9  1  0.548908  0.548908  0.548908  1
  Mo  Mo10  1  0.652691  0.652691  0.652691  1
  Mo  Mo11  1  0.451298  0.451298  0.451298  1
  Mo  Mo12  1  0.834325  0.834325  0.834325  1
