# generated using pymatgen
data_Ba2Zr6BBr17
_symmetry_space_group_name_H-M   'P 1'
_cell_length_a   10.29453903
_cell_length_b   10.29454011
_cell_length_c   10.29453914
_cell_angle_alpha   104.96311418
_cell_angle_beta   118.92116559
_cell_angle_gamma   104.96311454
_symmetry_Int_Tables_number   1
_chemical_formula_structural   Ba2Zr6BBr17
_chemical_formula_sum   'Ba2 Zr6 B1 Br17'
_cell_volume   822.46032076
_cell_formula_units_Z   1
loop_
 _symmetry_equiv_pos_site_id
 _symmetry_equiv_pos_as_xyz
  1  'x, y, z'
loop_
 _atom_site_type_symbol
 _atom_site_label
 _atom_site_symmetry_multiplicity
 _atom_site_fract_x
 _atom_site_fract_y
 _atom_site_fract_z
 _atom_site_occupancy
  Ba  Ba0  1  0.750000  0.500001  0.250000  1
  Ba  Ba1  1  0.250000  0.500001  0.750000  1
  Zr  Zr2  1  0.177330  0.236118  0.058787  1
  Zr  Zr3  1  0.941212  0.118542  0.177329  1
  Zr  Zr4  1  0.225752  0.000000  0.225752  1
  Zr  Zr5  1  0.774248  0.000000  0.774248  1
  Zr  Zr6  1  0.058787  0.881458  0.822670  1
  Zr  Zr7  1  0.822670  0.763882  0.941212  1
  B  B8  1  0.000000  0.000000  0.000000  1
  Br  Br9  1  0.327148  0.866788  0.052234  1
  Br  Br10  1  0.401731  0.526547  0.124816  1
  Br  Br11  1  0.728163  0.863941  0.135779  1
  Br  Br12  1  0.052234  0.725087  0.185446  1
  Br  Br13  1  0.135779  0.407616  0.271837  1
  Br  Br14  1  0.460361  0.274914  0.327149  1
  Br  Br15  1  0.875183  0.276914  0.401731  1
  Br  Br16  1  0.185447  0.133212  0.460361  1
  Br  Br17  1  0.500000  0.000000  0.500000  1
  Br  Br18  1  0.814554  0.866788  0.539640  1
  Br  Br19  1  0.124816  0.723086  0.598269  1
  Br  Br20  1  0.539640  0.725087  0.672853  1
  Br  Br21  1  0.864220  0.592382  0.728162  1
  Br  Br22  1  0.947766  0.274914  0.814554  1
  Br  Br23  1  0.271838  0.136058  0.864220  1
  Br  Br24  1  0.598268  0.473452  0.875183  1
  Br  Br25  1  0.672852  0.133212  0.947766  1
