# generated using pymatgen
data_Sr2Zn9Ir
_symmetry_space_group_name_H-M   'P 1'
_cell_length_a   5.24557174
_cell_length_b   6.85253406
_cell_length_c   13.17617900
_cell_angle_alpha   90.00000000
_cell_angle_beta   90.00000000
_cell_angle_gamma   90.60765126
_symmetry_Int_Tables_number   1
_chemical_formula_structural   Sr2Zn9Ir
_chemical_formula_sum   'Sr4 Zn18 Ir2'
_cell_volume   473.59716655
_cell_formula_units_Z   2
loop_
 _symmetry_equiv_pos_site_id
 _symmetry_equiv_pos_as_xyz
  1  'x, y, z'
loop_
 _atom_site_type_symbol
 _atom_site_label
 _atom_site_symmetry_multiplicity
 _atom_site_fract_x
 _atom_site_fract_y
 _atom_site_fract_z
 _atom_site_occupancy
  Sr  Sr0  1  0.251916  0.647023  0.910884  1
  Sr  Sr1  1  0.248084  0.852977  0.410884  1
  Sr  Sr2  1  0.759224  0.357080  0.085289  1
  Sr  Sr3  1  0.740776  0.142920  0.585289  1
  Zn  Zn4  1  0.238847  0.349855  0.715418  1
  Zn  Zn5  1  0.261153  0.150145  0.215418  1
  Zn  Zn6  1  0.736713  0.649378  0.285742  1
  Zn  Zn7  1  0.763287  0.850622  0.785742  1
  Zn  Zn8  1  0.234355  0.957286  0.714505  1
  Zn  Zn9  1  0.265645  0.542714  0.214505  1
  Zn  Zn10  1  0.738295  0.041573  0.290974  1
  Zn  Zn11  1  0.761705  0.458427  0.790974  1
  Zn  Zn12  1  0.500609  0.835782  0.132671  1
  Zn  Zn13  1  0.999391  0.664218  0.632671  1
  Zn  Zn14  1  0.003307  0.837939  0.151870  1
  Zn  Zn15  1  0.496693  0.662061  0.651870  1
  Zn  Zn16  1  0.499628  0.157688  0.856786  1
  Zn  Zn17  1  0.000372  0.342312  0.356786  1
  Zn  Zn18  1  0.260464  0.408773  0.519686  1
  Zn  Zn19  1  0.239536  0.091227  0.019686  1
  Zn  Zn20  1  0.731957  0.577443  0.480607  1
  Zn  Zn21  1  0.768043  0.922557  0.980607  1
  Ir  Ir22  1  0.998871  0.160257  0.855569  1
  Ir  Ir23  1  0.501129  0.339743  0.355569  1
