# generated using pymatgen
data_Hf6Zr8CuPd19
_symmetry_space_group_name_H-M   'P 1'
_cell_length_a   8.16667599
_cell_length_b   8.16390042
_cell_length_c   9.64979832
_cell_angle_alpha   90.24951711
_cell_angle_beta   90.29709162
_cell_angle_gamma   107.47855879
_symmetry_Int_Tables_number   1
_chemical_formula_structural   Hf6Zr8CuPd19
_chemical_formula_sum   'Hf6 Zr8 Cu1 Pd19'
_cell_volume   613.64583404
_cell_formula_units_Z   1
loop_
 _symmetry_equiv_pos_site_id
 _symmetry_equiv_pos_as_xyz
  1  'x, y, z'
loop_
 _atom_site_type_symbol
 _atom_site_label
 _atom_site_symmetry_multiplicity
 _atom_site_fract_x
 _atom_site_fract_y
 _atom_site_fract_z
 _atom_site_occupancy
  Hf  Hf0  1  0.690069  0.308997  0.499621  1
  Hf  Hf1  1  0.194340  0.810404  0.998494  1
  Hf  Hf2  1  0.503746  0.001039  0.749706  1
  Hf  Hf3  1  0.998942  0.496091  0.250667  1
  Hf  Hf4  1  0.000947  0.503940  0.749742  1
  Hf  Hf5  1  0.495823  0.999031  0.250607  1
  Zr  Zr6  1  0.816161  0.815407  0.812440  1
  Zr  Zr7  1  0.187046  0.186311  0.185385  1
  Zr  Zr8  1  0.312475  0.311737  0.687573  1
  Zr  Zr9  1  0.686029  0.685407  0.313523  1
  Zr  Zr10  1  0.999165  0.998949  0.500533  1
  Zr  Zr11  1  0.498475  0.498125  0.002241  1
  Zr  Zr12  1  0.308839  0.690067  0.499554  1
  Zr  Zr13  1  0.810455  0.194160  0.998622  1
  Cu  Cu14  1  0.896388  0.895629  0.103436  1
  Pd  Pd15  1  0.356944  0.651094  0.793684  1
  Pd  Pd16  1  0.348417  0.647836  0.207829  1
  Pd  Pd17  1  0.857644  0.152971  0.707058  1
  Pd  Pd18  1  0.849158  0.133949  0.287456  1
  Pd  Pd19  1  0.152163  0.857994  0.708738  1
  Pd  Pd20  1  0.133657  0.849724  0.285673  1
  Pd  Pd21  1  0.650085  0.357157  0.791959  1
  Pd  Pd22  1  0.647552  0.349291  0.209663  1
  Pd  Pd23  1  0.643871  0.939293  0.502494  1
  Pd  Pd24  1  0.060502  0.353806  0.495753  1
  Pd  Pd25  1  0.143001  0.440797  0.995677  1
  Pd  Pd26  1  0.571283  0.855564  0.007627  1
  Pd  Pd27  1  0.937084  0.642644  0.502271  1
  Pd  Pd28  1  0.355072  0.062671  0.496082  1
  Pd  Pd29  1  0.438646  0.141690  0.995900  1
  Pd  Pd30  1  0.856943  0.573298  0.007541  1
  Pd  Pd31  1  0.605304  0.604012  0.604217  1
  Pd  Pd32  1  0.396005  0.394676  0.394136  1
  Pd  Pd33  1  0.097772  0.096239  0.904100  1
