# generated using pymatgen
data_Hf9Sn6MoN2
_symmetry_space_group_name_H-M   'P 1'
_cell_length_a   8.34179700
_cell_length_b   8.34179752
_cell_length_c   5.65396200
_cell_angle_alpha   90.00000000
_cell_angle_beta   90.00000000
_cell_angle_gamma   119.99999399
_symmetry_Int_Tables_number   1
_chemical_formula_structural   Hf9Sn6MoN2
_chemical_formula_sum   'Hf9 Sn6 Mo1 N2'
_cell_volume   340.72406159
_cell_formula_units_Z   1
loop_
 _symmetry_equiv_pos_site_id
 _symmetry_equiv_pos_as_xyz
  1  'x, y, z'
loop_
 _atom_site_type_symbol
 _atom_site_label
 _atom_site_symmetry_multiplicity
 _atom_site_fract_x
 _atom_site_fract_y
 _atom_site_fract_z
 _atom_site_occupancy
  Hf  Hf0  1  0.333333  0.666667  0.000000  1
  Hf  Hf1  1  0.333333  0.666667  0.500000  1
  Hf  Hf2  1  0.666667  0.333333  0.500000  1
  Hf  Hf3  1  0.778168  0.778865  0.749163  1
  Hf  Hf4  1  0.221135  0.999303  0.749163  1
  Hf  Hf5  1  0.000697  0.221832  0.749163  1
  Hf  Hf6  1  0.221135  0.221832  0.250837  1
  Hf  Hf7  1  0.778168  0.999303  0.250837  1
  Hf  Hf8  1  0.000697  0.778865  0.250837  1
  Sn  Sn9  1  0.408739  0.404353  0.756170  1
  Sn  Sn10  1  0.595647  0.004386  0.756170  1
  Sn  Sn11  1  0.995614  0.591261  0.756170  1
  Sn  Sn12  1  0.595647  0.591261  0.243830  1
  Sn  Sn13  1  0.408739  0.004386  0.243830  1
  Sn  Sn14  1  0.995614  0.404353  0.243830  1
  Mo  Mo15  1  0.666667  0.333333  0.000000  1
  N  N16  1  0.000000  0.000000  0.000000  1
  N  N17  1  0.000000  0.000000  0.500000  1
