# generated using pymatgen
data_Y3ThAlCo
_symmetry_space_group_name_H-M   'P 1'
_cell_length_a   9.54031599
_cell_length_b   9.54031486
_cell_length_c   9.54031600
_cell_angle_alpha   59.99999605
_cell_angle_beta   59.99999995
_cell_angle_gamma   59.99999606
_symmetry_Int_Tables_number   1
_chemical_formula_structural   Y3ThAlCo
_chemical_formula_sum   'Y12 Th4 Al4 Co4'
_cell_volume   614.00683161
_cell_formula_units_Z   4
loop_
 _symmetry_equiv_pos_site_id
 _symmetry_equiv_pos_as_xyz
  1  'x, y, z'
loop_
 _atom_site_type_symbol
 _atom_site_label
 _atom_site_symmetry_multiplicity
 _atom_site_fract_x
 _atom_site_fract_y
 _atom_site_fract_z
 _atom_site_occupancy
  Y  Y0  1  0.808705  0.191295  0.191295  1
  Y  Y1  1  0.191295  0.808705  0.808705  1
  Y  Y2  1  0.191295  0.808705  0.191295  1
  Y  Y3  1  0.808705  0.191295  0.808705  1
  Y  Y4  1  0.191295  0.191295  0.808705  1
  Y  Y5  1  0.808705  0.808705  0.191295  1
  Y  Y6  1  0.936831  0.563169  0.563169  1
  Y  Y7  1  0.563169  0.936831  0.936831  1
  Y  Y8  1  0.563169  0.936831  0.563169  1
  Y  Y9  1  0.936831  0.563169  0.936831  1
  Y  Y10  1  0.563169  0.563169  0.936831  1
  Y  Y11  1  0.936831  0.936831  0.563169  1
  Th  Th12  1  0.346686  0.346686  0.346686  1
  Th  Th13  1  0.346686  0.346686  0.959943  1
  Th  Th14  1  0.346686  0.959943  0.346686  1
  Th  Th15  1  0.959943  0.346686  0.346686  1
  Al  Al16  1  0.578507  0.578507  0.578507  1
  Al  Al17  1  0.578507  0.578507  0.264478  1
  Al  Al18  1  0.578507  0.264478  0.578507  1
  Al  Al19  1  0.264478  0.578507  0.578507  1
  Co  Co20  1  0.144830  0.144830  0.144830  1
  Co  Co21  1  0.144830  0.144830  0.565510  1
  Co  Co22  1  0.144830  0.565510  0.144830  1
  Co  Co23  1  0.565510  0.144830  0.144830  1
