# generated using pymatgen
data_Y2Mn2FeRe14C3
_symmetry_space_group_name_H-M   'P 1'
_cell_length_a   6.93707596
_cell_length_b   6.93707645
_cell_length_c   6.93480696
_cell_angle_alpha   82.52909374
_cell_angle_beta   82.52909564
_cell_angle_gamma   82.48788576
_symmetry_Int_Tables_number   1
_chemical_formula_structural   Y2Mn2FeRe14C3
_chemical_formula_sum   'Y2 Mn2 Fe1 Re14 C3'
_cell_volume   325.87531899
_cell_formula_units_Z   1
loop_
 _symmetry_equiv_pos_site_id
 _symmetry_equiv_pos_as_xyz
  1  'x, y, z'
loop_
 _atom_site_type_symbol
 _atom_site_label
 _atom_site_symmetry_multiplicity
 _atom_site_fract_x
 _atom_site_fract_y
 _atom_site_fract_z
 _atom_site_occupancy
  Y  Y0  1  0.648484  0.648484  0.647871  1
  Y  Y1  1  0.351516  0.351516  0.352129  1
  Mn  Mn2  1  0.500000  0.000000  0.000000  1
  Mn  Mn3  1  0.000000  0.500000  0.000000  1
  Fe  Fe4  1  0.000000  0.000000  0.500000  1
  Re  Re5  1  0.721350  0.278650  0.000000  1
  Re  Re6  1  0.000322  0.722209  0.278248  1
  Re  Re7  1  0.277791  0.999678  0.721752  1
  Re  Re8  1  0.999678  0.277791  0.721752  1
  Re  Re9  1  0.722209  0.000322  0.278248  1
  Re  Re10  1  0.278650  0.721350  0.000000  1
  Re  Re11  1  0.346321  0.346321  0.859105  1
  Re  Re12  1  0.860249  0.346473  0.347069  1
  Re  Re13  1  0.346473  0.860249  0.347069  1
  Re  Re14  1  0.653679  0.653679  0.140895  1
  Re  Re15  1  0.139751  0.653527  0.652931  1
  Re  Re16  1  0.653527  0.139751  0.652931  1
  Re  Re17  1  0.899337  0.899337  0.897881  1
  Re  Re18  1  0.100663  0.100663  0.102119  1
  C  C19  1  0.500000  0.500000  0.000000  1
  C  C20  1  0.000000  0.500000  0.500000  1
  C  C21  1  0.500000  0.000000  0.500000  1
