# generated using pymatgen
data_Dy5Si12Ir4Rh15
_symmetry_space_group_name_H-M   'P 1'
_cell_length_a   12.81757900
_cell_length_b   12.81757922
_cell_length_c   3.98539300
_cell_angle_alpha   90.00000000
_cell_angle_beta   90.00000000
_cell_angle_gamma   120.00000200
_symmetry_Int_Tables_number   1
_chemical_formula_structural   Dy5Si12Ir4Rh15
_chemical_formula_sum   'Dy5 Si12 Ir4 Rh15'
_cell_volume   567.04012282
_cell_formula_units_Z   1
loop_
 _symmetry_equiv_pos_site_id
 _symmetry_equiv_pos_as_xyz
  1  'x, y, z'
loop_
 _atom_site_type_symbol
 _atom_site_label
 _atom_site_symmetry_multiplicity
 _atom_site_fract_x
 _atom_site_fract_y
 _atom_site_fract_z
 _atom_site_occupancy
  Dy  Dy0  1  0.333333  0.666667  0.500000  1
  Dy  Dy1  1  0.666667  0.333333  0.500000  1
  Dy  Dy2  1  0.000000  0.815165  0.000000  1
  Dy  Dy3  1  0.184835  0.184835  0.000000  1
  Dy  Dy4  1  0.815165  0.000000  0.000000  1
  Si  Si5  1  0.000000  0.629250  0.500000  1
  Si  Si6  1  0.370750  0.370750  0.500000  1
  Si  Si7  1  0.629250  0.000000  0.500000  1
  Si  Si8  1  0.520180  0.686687  0.000000  1
  Si  Si9  1  0.313313  0.833494  0.000000  1
  Si  Si10  1  0.166506  0.479820  0.000000  1
  Si  Si11  1  0.479820  0.166506  0.000000  1
  Si  Si12  1  0.686687  0.520180  0.000000  1
  Si  Si13  1  0.833494  0.313313  0.000000  1
  Si  Si14  1  0.000000  0.182685  0.500000  1
  Si  Si15  1  0.817315  0.817315  0.500000  1
  Si  Si16  1  0.182685  0.000000  0.500000  1
  Ir  Ir17  1  0.000000  0.281134  0.000000  1
  Ir  Ir18  1  0.718866  0.718866  0.000000  1
  Ir  Ir19  1  0.281134  0.000000  0.000000  1
  Ir  Ir20  1  0.000000  0.000000  0.500000  1
  Rh  Rh21  1  0.513411  0.873544  0.000000  1
  Rh  Rh22  1  0.126456  0.639867  0.000000  1
  Rh  Rh23  1  0.360133  0.486589  0.000000  1
  Rh  Rh24  1  0.486589  0.360133  0.000000  1
  Rh  Rh25  1  0.873544  0.513411  0.000000  1
  Rh  Rh26  1  0.639867  0.126456  0.000000  1
  Rh  Rh27  1  0.000000  0.446144  0.500000  1
  Rh  Rh28  1  0.553856  0.553856  0.500000  1
  Rh  Rh29  1  0.446144  0.000000  0.500000  1
  Rh  Rh30  1  0.622812  0.806129  0.500000  1
  Rh  Rh31  1  0.193871  0.816683  0.500000  1
  Rh  Rh32  1  0.183317  0.377188  0.500000  1
  Rh  Rh33  1  0.377188  0.183317  0.500000  1
  Rh  Rh34  1  0.806129  0.622812  0.500000  1
  Rh  Rh35  1  0.816683  0.193871  0.500000  1
