# generated using pymatgen
data_KPr(ErSe2)2
_symmetry_space_group_name_H-M   'P 1'
_cell_length_a   4.08059300
_cell_length_b   4.08059431
_cell_length_c   14.95289200
_cell_angle_alpha   90.00000000
_cell_angle_beta   90.00000000
_cell_angle_gamma   119.99998129
_symmetry_Int_Tables_number   1
_chemical_formula_structural   KPr(ErSe2)2
_chemical_formula_sum   'K1 Pr1 Er2 Se4'
_cell_volume   215.62673646
_cell_formula_units_Z   1
loop_
 _symmetry_equiv_pos_site_id
 _symmetry_equiv_pos_as_xyz
  1  'x, y, z'
loop_
 _atom_site_type_symbol
 _atom_site_label
 _atom_site_symmetry_multiplicity
 _atom_site_fract_x
 _atom_site_fract_y
 _atom_site_fract_z
 _atom_site_occupancy
  K  K0  1  0.666667  0.333333  0.750000  1
  Pr  Pr1  1  0.333333  0.666667  0.250000  1
  Er  Er2  1  0.000000  0.000000  0.013110  1
  Er  Er3  1  0.000000  0.000000  0.486890  1
  Se  Se4  1  0.333333  0.666667  0.593799  1
  Se  Se5  1  0.666667  0.333333  0.121848  1
  Se  Se6  1  0.666667  0.333333  0.378152  1
  Se  Se7  1  0.333333  0.666667  0.906201  1
