# generated using pymatgen
data_Pr16MgCd3Ir4
_symmetry_space_group_name_H-M   'P 1'
_cell_length_a   10.05039591
_cell_length_b   10.05040963
_cell_length_c   10.05041520
_cell_angle_alpha   60.06186954
_cell_angle_beta   60.06189185
_cell_angle_gamma   60.06194439
_symmetry_Int_Tables_number   1
_chemical_formula_structural   Pr16MgCd3Ir4
_chemical_formula_sum   'Pr16 Mg1 Cd3 Ir4'
_cell_volume   718.86078560
_cell_formula_units_Z   1
loop_
 _symmetry_equiv_pos_site_id
 _symmetry_equiv_pos_as_xyz
  1  'x, y, z'
loop_
 _atom_site_type_symbol
 _atom_site_label
 _atom_site_symmetry_multiplicity
 _atom_site_fract_x
 _atom_site_fract_y
 _atom_site_fract_z
 _atom_site_occupancy
  Pr  Pr0  1  0.347925  0.347925  0.347925  1
  Pr  Pr1  1  0.348196  0.348196  0.955479  1
  Pr  Pr2  1  0.348196  0.955479  0.348196  1
  Pr  Pr3  1  0.955479  0.348196  0.348196  1
  Pr  Pr4  1  0.809041  0.190753  0.190753  1
  Pr  Pr5  1  0.188293  0.809873  0.809875  1
  Pr  Pr6  1  0.190753  0.809041  0.190752  1
  Pr  Pr7  1  0.809875  0.188292  0.809874  1
  Pr  Pr8  1  0.190752  0.190752  0.809041  1
  Pr  Pr9  1  0.809875  0.809875  0.188291  1
  Pr  Pr10  1  0.940910  0.561474  0.561475  1
  Pr  Pr11  1  0.558995  0.940210  0.940211  1
  Pr  Pr12  1  0.561474  0.940910  0.561475  1
  Pr  Pr13  1  0.940210  0.558995  0.940211  1
  Pr  Pr14  1  0.561474  0.561475  0.940910  1
  Pr  Pr15  1  0.940211  0.940211  0.558995  1
  Mg  Mg16  1  0.575644  0.575644  0.575644  1
  Cd  Cd17  1  0.580606  0.580606  0.258733  1
  Cd  Cd18  1  0.580606  0.258733  0.580606  1
  Cd  Cd19  1  0.258733  0.580606  0.580606  1
  Ir  Ir20  1  0.141813  0.141813  0.141813  1
  Ir  Ir21  1  0.142690  0.142690  0.575557  1
  Ir  Ir22  1  0.142690  0.575557  0.142690  1
  Ir  Ir23  1  0.575557  0.142690  0.142690  1
