# generated using pymatgen
data_Zr10GaBi5S
_symmetry_space_group_name_H-M   'P 1'
_cell_length_a   8.62382041
_cell_length_b   8.68450752
_cell_length_c   5.88668734
_cell_angle_alpha   90.01838481
_cell_angle_beta   89.96296499
_cell_angle_gamma   119.76911525
_symmetry_Int_Tables_number   1
_chemical_formula_structural   Zr10GaBi5S
_chemical_formula_sum   'Zr10 Ga1 Bi5 S1'
_cell_volume   382.69441364
_cell_formula_units_Z   1
loop_
 _symmetry_equiv_pos_site_id
 _symmetry_equiv_pos_as_xyz
  1  'x, y, z'
loop_
 _atom_site_type_symbol
 _atom_site_label
 _atom_site_symmetry_multiplicity
 _atom_site_fract_x
 _atom_site_fract_y
 _atom_site_fract_z
 _atom_site_occupancy
  Zr  Zr0  1  0.003414  0.758007  0.240367  1
  Zr  Zr1  1  0.245407  0.241993  0.240367  1
  Zr  Zr2  1  0.755834  0.000000  0.232171  1
  Zr  Zr3  1  0.981939  0.235268  0.760960  1
  Zr  Zr4  1  0.746671  0.764732  0.760960  1
  Zr  Zr5  1  0.254494  0.000000  0.758494  1
  Zr  Zr6  1  0.341505  0.676096  0.504680  1
  Zr  Zr7  1  0.665410  0.323904  0.504680  1
  Zr  Zr8  1  0.665400  0.325276  0.995616  1
  Zr  Zr9  1  0.340123  0.674724  0.995616  1
  Ga  Ga10  1  0.603047  0.000000  0.753584  1
  Bi  Bi11  1  0.003268  0.396800  0.250178  1
  Bi  Bi12  1  0.606468  0.603200  0.250178  1
  Bi  Bi13  1  0.400515  0.000000  0.249048  1
  Bi  Bi14  1  0.997475  0.608911  0.750712  1
  Bi  Bi15  1  0.388564  0.391089  0.750712  1
  S  S16  1  0.000467  0.000000  0.501676  1
