# generated using pymatgen
data_K4PrNpO6
_symmetry_space_group_name_H-M   'P 1'
_cell_length_a   6.33357829
_cell_length_b   6.33358378
_cell_length_c   6.62822500
_cell_angle_alpha   99.28525692
_cell_angle_beta   99.28537503
_cell_angle_gamma   119.91525563
_symmetry_Int_Tables_number   1
_chemical_formula_structural   K4PrNpO6
_chemical_formula_sum   'K4 Pr1 Np1 O6'
_cell_volume   218.16356212
_cell_formula_units_Z   1
loop_
 _symmetry_equiv_pos_site_id
 _symmetry_equiv_pos_as_xyz
  1  'x, y, z'
loop_
 _atom_site_type_symbol
 _atom_site_label
 _atom_site_symmetry_multiplicity
 _atom_site_fract_x
 _atom_site_fract_y
 _atom_site_fract_z
 _atom_site_occupancy
  K  K0  1  0.499768  0.500214  0.999993  1
  K  K1  1  0.006924  0.993053  0.500006  1
  K  K2  1  0.657296  0.342706  0.500007  1
  K  K3  1  0.340080  0.659908  0.499994  1
  Pr  Pr4  1  0.836581  0.163430  0.000004  1
  Np  Np5  1  0.168367  0.831670  0.999999  1
  O  O6  1  0.970029  0.602955  0.190200  1
  O  O7  1  0.539010  0.937163  0.197701  1
  O  O8  1  0.194726  0.172689  0.195008  1
  O  O9  1  0.827306  0.805263  0.805020  1
  O  O10  1  0.062865  0.461012  0.802303  1
  O  O11  1  0.397055  0.029946  0.809772  1
