# generated using pymatgen
data_Hf6BeNb4Sn7
_symmetry_space_group_name_H-M   'P 1'
_cell_length_a   5.73959801
_cell_length_b   8.52679303
_cell_length_c   8.52674202
_cell_angle_alpha   120.00021296
_cell_angle_beta   90.00109562
_cell_angle_gamma   89.99781298
_symmetry_Int_Tables_number   1
_chemical_formula_structural   Hf6BeNb4Sn7
_chemical_formula_sum   'Hf6 Be1 Nb4 Sn7'
_cell_volume   361.39323665
_cell_formula_units_Z   1
loop_
 _symmetry_equiv_pos_site_id
 _symmetry_equiv_pos_as_xyz
  1  'x, y, z'
loop_
 _atom_site_type_symbol
 _atom_site_label
 _atom_site_symmetry_multiplicity
 _atom_site_fract_x
 _atom_site_fract_y
 _atom_site_fract_z
 _atom_site_occupancy
  Hf  Hf0  1  0.724396  0.270526  0.000000  1
  Hf  Hf1  1  0.724384  0.729481  0.729473  1
  Hf  Hf2  1  0.724384  0.000009  0.270527  1
  Hf  Hf3  1  0.275600  0.729478  0.000000  1
  Hf  Hf4  1  0.275607  0.270513  0.270527  1
  Hf  Hf5  1  0.275607  0.999986  0.729473  1
  Be  Be6  1  0.500002  0.000001  0.000000  1
  Nb  Nb7  1  0.500001  0.333339  0.666675  1
  Nb  Nb8  1  0.500001  0.666664  0.333325  1
  Nb  Nb9  1  0.000010  0.666666  0.333337  1
  Nb  Nb10  1  0.000010  0.333329  0.666663  1
  Sn  Sn11  1  0.760388  0.609856  0.000000  1
  Sn  Sn12  1  0.760403  0.390154  0.390151  1
  Sn  Sn13  1  0.760403  0.000004  0.609849  1
  Sn  Sn14  1  0.239630  0.390154  0.000000  1
  Sn  Sn15  1  0.239594  0.609842  0.609844  1
  Sn  Sn16  1  0.239594  0.999999  0.390156  1
  Sn  Sn17  1  0.999986  0.000000  0.000000  1
