# generated using pymatgen
data_Cs12Mn3ZnBr20
_symmetry_space_group_name_H-M   'P 1'
_cell_length_a   9.65798485
_cell_length_b   11.19655500
_cell_length_c   14.31725403
_cell_angle_alpha   90.00000000
_cell_angle_beta   89.87643496
_cell_angle_gamma   90.00000000
_symmetry_Int_Tables_number   1
_chemical_formula_structural   Cs12Mn3ZnBr20
_chemical_formula_sum   'Cs12 Mn3 Zn1 Br20'
_cell_volume   1548.20925185
_cell_formula_units_Z   1
loop_
 _symmetry_equiv_pos_site_id
 _symmetry_equiv_pos_as_xyz
  1  'x, y, z'
loop_
 _atom_site_type_symbol
 _atom_site_label
 _atom_site_symmetry_multiplicity
 _atom_site_fract_x
 _atom_site_fract_y
 _atom_site_fract_z
 _atom_site_occupancy
  Cs  Cs0  1  0.910086  0.021958  0.670856  1
  Cs  Cs1  1  0.589790  0.979122  0.171601  1
  Cs  Cs2  1  0.589790  0.520878  0.171601  1
  Cs  Cs3  1  0.088503  0.520355  0.328806  1
  Cs  Cs4  1  0.088503  0.979645  0.328806  1
  Cs  Cs5  1  0.410216  0.021420  0.828771  1
  Cs  Cs6  1  0.588864  0.750000  0.454310  1
  Cs  Cs7  1  0.912894  0.250000  0.955160  1
  Cs  Cs8  1  0.086931  0.750000  0.045016  1
  Cs  Cs9  1  0.413516  0.250000  0.544213  1
  Cs  Cs10  1  0.410216  0.478580  0.828771  1
  Cs  Cs11  1  0.910086  0.478042  0.670856  1
  Mn  Mn12  1  0.690664  0.750000  0.891086  1
  Mn  Mn13  1  0.308897  0.250000  0.108703  1
  Mn  Mn14  1  0.190960  0.750000  0.608476  1
  Zn  Zn15  1  0.811011  0.250000  0.392054  1
  Br  Br16  1  0.659174  0.250000  0.736357  1
  Br  Br17  1  0.311254  0.561048  0.565235  1
  Br  Br18  1  0.863185  0.250000  0.225672  1
  Br  Br19  1  0.839784  0.750000  0.236321  1
  Br  Br20  1  0.636126  0.750000  0.721196  1
  Br  Br21  1  0.692193  0.434681  0.433342  1
  Br  Br22  1  0.810350  0.560891  0.934339  1
  Br  Br23  1  0.530558  0.250000  0.016389  1
  Br  Br24  1  0.969605  0.750000  0.516380  1
  Br  Br25  1  0.159768  0.250000  0.763505  1
  Br  Br26  1  0.810350  0.939109  0.934339  1
  Br  Br27  1  0.311254  0.938952  0.565235  1
  Br  Br28  1  0.340485  0.750000  0.264548  1
  Br  Br29  1  0.188855  0.060904  0.065455  1
  Br  Br30  1  0.692193  0.065319  0.433342  1
  Br  Br31  1  0.136182  0.750000  0.778444  1
  Br  Br32  1  0.362793  0.250000  0.278305  1
  Br  Br33  1  0.026717  0.250000  0.483303  1
  Br  Br34  1  0.188855  0.439096  0.065455  1
  Br  Br35  1  0.469385  0.750000  0.983754  1
