# generated using pymatgen
data_Tb10Sn5BiS2
_symmetry_space_group_name_H-M   'P 1'
_cell_length_a   9.12340902
_cell_length_b   9.12340884
_cell_length_c   6.66826700
_cell_angle_alpha   90.00000000
_cell_angle_beta   90.00000000
_cell_angle_gamma   120.00778482
_symmetry_Int_Tables_number   1
_chemical_formula_structural   Tb10Sn5BiS2
_chemical_formula_sum   'Tb10 Sn5 Bi1 S2'
_cell_volume   480.64432763
_cell_formula_units_Z   1
loop_
 _symmetry_equiv_pos_site_id
 _symmetry_equiv_pos_as_xyz
  1  'x, y, z'
loop_
 _atom_site_type_symbol
 _atom_site_label
 _atom_site_symmetry_multiplicity
 _atom_site_fract_x
 _atom_site_fract_y
 _atom_site_fract_z
 _atom_site_occupancy
  Tb  Tb0  1  0.669795  0.332340  0.001753  1
  Tb  Tb1  1  0.332340  0.669795  0.001753  1
  Tb  Tb2  1  0.332340  0.669795  0.498247  1
  Tb  Tb3  1  0.669795  0.332340  0.498247  1
  Tb  Tb4  1  0.757242  0.757242  0.750000  1
  Tb  Tb5  1  0.243235  0.994602  0.750000  1
  Tb  Tb6  1  0.994602  0.243235  0.750000  1
  Tb  Tb7  1  0.244261  0.244261  0.250000  1
  Tb  Tb8  1  0.754309  0.999729  0.250000  1
  Tb  Tb9  1  0.999729  0.754309  0.250000  1
  Sn  Sn10  1  0.602181  0.000002  0.750000  1
  Sn  Sn11  1  0.000002  0.602181  0.750000  1
  Sn  Sn12  1  0.603737  0.603737  0.250000  1
  Sn  Sn13  1  0.397200  0.000876  0.250000  1
  Sn  Sn14  1  0.000876  0.397200  0.250000  1
  Bi  Bi15  1  0.396236  0.396236  0.750000  1
  S  S16  1  0.001058  0.001058  0.999711  1
  S  S17  1  0.001058  0.001058  0.500289  1
