# generated using pymatgen
data_Y5AsRhO12
_symmetry_space_group_name_H-M   'P 1'
_cell_length_a   6.85924266
_cell_length_b   6.85924215
_cell_length_c   7.25332230
_cell_angle_alpha   74.53192699
_cell_angle_beta   74.53192723
_cell_angle_gamma   50.79355182
_symmetry_Int_Tables_number   1
_chemical_formula_structural   Y5AsRhO12
_chemical_formula_sum   'Y5 As1 Rh1 O12'
_cell_volume   252.64851981
_cell_formula_units_Z   1
loop_
 _symmetry_equiv_pos_site_id
 _symmetry_equiv_pos_as_xyz
  1  'x, y, z'
loop_
 _atom_site_type_symbol
 _atom_site_label
 _atom_site_symmetry_multiplicity
 _atom_site_fract_x
 _atom_site_fract_y
 _atom_site_fract_z
 _atom_site_occupancy
  Y  Y0  1  0.489752  0.510248  0.500000  1
  Y  Y1  1  0.191641  0.196226  0.167206  1
  Y  Y2  1  0.803774  0.808359  0.832794  1
  Y  Y3  1  0.797467  0.806361  0.359624  1
  Y  Y4  1  0.193639  0.202533  0.640376  1
  As  As5  1  0.261124  0.738876  0.000000  1
  Rh  Rh6  1  0.752095  0.247905  0.000000  1
  O  O7  1  0.022069  0.978304  0.179051  1
  O  O8  1  0.021696  0.977931  0.820949  1
  O  O9  1  0.488222  0.511521  0.823158  1
  O  O10  1  0.488479  0.511778  0.176842  1
  O  O11  1  0.591579  0.103846  0.576334  1
  O  O12  1  0.896154  0.408421  0.423666  1
  O  O13  1  0.396758  0.907684  0.427440  1
  O  O14  1  0.398353  0.914009  0.919653  1
  O  O15  1  0.085991  0.601647  0.080347  1
  O  O16  1  0.596746  0.067854  0.082024  1
  O  O17  1  0.932146  0.403254  0.917976  1
  O  O18  1  0.092316  0.603242  0.572560  1
