# generated using pymatgen
data_Ti6Ga2CO
_symmetry_space_group_name_H-M   'P 1'
_cell_length_a   5.54966736
_cell_length_b   5.54966678
_cell_length_c   8.36247400
_cell_angle_alpha   90.11070629
_cell_angle_beta   89.88929372
_cell_angle_gamma   147.14124080
_symmetry_Int_Tables_number   1
_chemical_formula_structural   Ti6Ga2CO
_chemical_formula_sum   'Ti6 Ga2 C1 O1'
_cell_volume   139.74089013
_cell_formula_units_Z   1
loop_
 _symmetry_equiv_pos_site_id
 _symmetry_equiv_pos_as_xyz
  1  'x, y, z'
loop_
 _atom_site_type_symbol
 _atom_site_label
 _atom_site_symmetry_multiplicity
 _atom_site_fract_x
 _atom_site_fract_y
 _atom_site_fract_z
 _atom_site_occupancy
  Ti  Ti0  1  0.627478  0.372519  0.042261  1
  Ti  Ti1  1  0.960086  0.039911  0.247446  1
  Ti  Ti2  1  0.627927  0.372070  0.460745  1
  Ti  Ti3  1  0.372070  0.627927  0.539254  1
  Ti  Ti4  1  0.039911  0.960086  0.752554  1
  Ti  Ti5  1  0.372519  0.627478  0.957738  1
  Ga  Ga6  1  0.251875  0.748121  0.251891  1
  Ga  Ga7  1  0.748121  0.251875  0.748109  1
  C  C8  1  0.000000  0.000000  0.000000  1
  O  O9  1  0.000000  0.000000  0.500000  1
