# generated using pymatgen
data_Th4InRh4Pb
_symmetry_space_group_name_H-M   'P 1'
_cell_length_a   7.88123800
_cell_length_b   7.88123800
_cell_length_c   3.77809800
_cell_angle_alpha   90.00000000
_cell_angle_beta   90.00000000
_cell_angle_gamma   90.00000000
_symmetry_Int_Tables_number   1
_chemical_formula_structural   Th4InRh4Pb
_chemical_formula_sum   'Th4 In1 Rh4 Pb1'
_cell_volume   234.67244826
_cell_formula_units_Z   1
loop_
 _symmetry_equiv_pos_site_id
 _symmetry_equiv_pos_as_xyz
  1  'x, y, z'
loop_
 _atom_site_type_symbol
 _atom_site_label
 _atom_site_symmetry_multiplicity
 _atom_site_fract_x
 _atom_site_fract_y
 _atom_site_fract_z
 _atom_site_occupancy
  Th  Th0  1  0.667137  0.172115  0.500000  1
  Th  Th1  1  0.332863  0.827885  0.500000  1
  Th  Th2  1  0.172115  0.332863  0.500000  1
  Th  Th3  1  0.827885  0.667137  0.500000  1
  In  In4  1  0.500000  0.500000  0.000000  1
  Rh  Rh5  1  0.135462  0.628964  0.000000  1
  Rh  Rh6  1  0.864538  0.371036  0.000000  1
  Rh  Rh7  1  0.628964  0.864538  0.000000  1
  Rh  Rh8  1  0.371036  0.135462  0.000000  1
  Pb  Pb9  1  0.000000  0.000000  0.000000  1
