# generated using pymatgen
data_Rb2TbInBr6
_symmetry_space_group_name_H-M   'P 1'
_cell_length_a   8.21399713
_cell_length_b   8.21399764
_cell_length_c   8.42656055
_cell_angle_alpha   119.18605920
_cell_angle_beta   119.18605243
_cell_angle_gamma   60.49109423
_symmetry_Int_Tables_number   1
_chemical_formula_structural   Rb2TbInBr6
_chemical_formula_sum   'Rb2 Tb1 In1 Br6'
_cell_volume   408.41726193
_cell_formula_units_Z   1
loop_
 _symmetry_equiv_pos_site_id
 _symmetry_equiv_pos_as_xyz
  1  'x, y, z'
loop_
 _atom_site_type_symbol
 _atom_site_label
 _atom_site_symmetry_multiplicity
 _atom_site_fract_x
 _atom_site_fract_y
 _atom_site_fract_z
 _atom_site_occupancy
  Rb  Rb0  1  0.748714  0.748714  0.230497  1
  Rb  Rb1  1  0.251286  0.251286  0.769505  1
  Tb  Tb2  1  0.000000  0.000000  0.000000  1
  In  In3  1  0.500000  0.500000  0.500001  1
  Br  Br4  1  0.700900  0.180574  0.167184  1
  Br  Br5  1  0.180574  0.700900  0.167184  1
  Br  Br6  1  0.227154  0.227154  0.330171  1
  Br  Br7  1  0.772846  0.772846  0.669829  1
  Br  Br8  1  0.819426  0.299101  0.832815  1
  Br  Br9  1  0.299101  0.819426  0.832815  1
