# generated using pymatgen
data_Yb8Al3Si12Pd
_symmetry_space_group_name_H-M   'P 1'
_cell_length_a   8.19860600
_cell_length_b   8.19860767
_cell_length_c   8.61569200
_cell_angle_alpha   90.00000000
_cell_angle_beta   90.00000000
_cell_angle_gamma   119.99999326
_symmetry_Int_Tables_number   1
_chemical_formula_structural   Yb8Al3Si12Pd
_chemical_formula_sum   'Yb8 Al3 Si12 Pd1'
_cell_volume   501.53465453
_cell_formula_units_Z   1
loop_
 _symmetry_equiv_pos_site_id
 _symmetry_equiv_pos_as_xyz
  1  'x, y, z'
loop_
 _atom_site_type_symbol
 _atom_site_label
 _atom_site_symmetry_multiplicity
 _atom_site_fract_x
 _atom_site_fract_y
 _atom_site_fract_z
 _atom_site_occupancy
  Yb  Yb0  1  0.502502  0.497498  0.744435  1
  Yb  Yb1  1  0.503913  0.496087  0.255529  1
  Yb  Yb2  1  0.994995  0.497498  0.744435  1
  Yb  Yb3  1  0.992175  0.496087  0.255529  1
  Yb  Yb4  1  0.502502  0.005005  0.744435  1
  Yb  Yb5  1  0.503913  0.007825  0.255529  1
  Yb  Yb6  1  0.000000  0.000000  0.747688  1
  Yb  Yb7  1  0.000000  0.000000  0.252463  1
  Al  Al8  1  0.666667  0.333333  0.997141  1
  Al  Al9  1  0.333333  0.666667  0.003298  1
  Al  Al10  1  0.333333  0.666667  0.497114  1
  Si  Si11  1  0.835677  0.164323  0.000375  1
  Si  Si12  1  0.164194  0.835806  0.999501  1
  Si  Si13  1  0.328645  0.164323  0.000375  1
  Si  Si14  1  0.159992  0.840008  0.500112  1
  Si  Si15  1  0.671612  0.835806  0.999501  1
  Si  Si16  1  0.831761  0.168239  0.500226  1
  Si  Si17  1  0.835677  0.671355  0.000375  1
  Si  Si18  1  0.680017  0.840008  0.500112  1
  Si  Si19  1  0.164194  0.328388  0.999501  1
  Si  Si20  1  0.336478  0.168239  0.500226  1
  Si  Si21  1  0.159992  0.319983  0.500112  1
  Si  Si22  1  0.831761  0.663522  0.500226  1
  Pd  Pd23  1  0.666667  0.333333  0.501759  1
