# generated using pymatgen
data_Ho4Lu8Co4CuBi
_symmetry_space_group_name_H-M   'P 1'
_cell_length_a   8.21738020
_cell_length_b   8.21737929
_cell_length_c   8.21737905
_cell_angle_alpha   110.17127129
_cell_angle_beta   111.05075685
_cell_angle_gamma   107.21616137
_symmetry_Int_Tables_number   1
_chemical_formula_structural   Ho4Lu8Co4CuBi
_chemical_formula_sum   'Ho4 Lu8 Co4 Cu1 Bi1'
_cell_volume   426.62775478
_cell_formula_units_Z   1
loop_
 _symmetry_equiv_pos_site_id
 _symmetry_equiv_pos_as_xyz
  1  'x, y, z'
loop_
 _atom_site_type_symbol
 _atom_site_label
 _atom_site_symmetry_multiplicity
 _atom_site_fract_x
 _atom_site_fract_y
 _atom_site_fract_z
 _atom_site_occupancy
  Ho  Ho0  1  0.287029  0.183233  0.470262  1
  Ho  Ho1  1  0.712971  0.816767  0.529738  1
  Ho  Ho2  1  0.287029  0.816767  0.103796  1
  Ho  Ho3  1  0.712971  0.183233  0.896204  1
  Lu  Lu4  1  0.622705  0.313167  0.309536  1
  Lu  Lu5  1  0.377295  0.686833  0.690464  1
  Lu  Lu6  1  0.003631  0.313167  0.690464  1
  Lu  Lu7  1  0.996369  0.686833  0.309536  1
  Lu  Lu8  1  0.212962  0.415009  0.202050  1
  Lu  Lu9  1  0.787038  0.584991  0.797950  1
  Lu  Lu10  1  0.212962  0.010912  0.797950  1
  Lu  Lu11  1  0.787038  0.989088  0.202050  1
  Co  Co12  1  0.000000  0.377293  0.377293  1
  Co  Co13  1  0.000000  0.622707  0.622707  1
  Co  Co14  1  0.385885  0.885885  0.500000  1
  Co  Co15  1  0.614115  0.114115  0.500000  1
  Cu  Cu16  1  0.000000  0.000000  0.000000  1
  Bi  Bi17  1  0.500000  0.500000  0.000000  1
