# generated using pymatgen
data_Ca9Er11Pb16
_symmetry_space_group_name_H-M   'P 1'
_cell_length_a   7.98335200
_cell_length_b   8.48830355
_cell_length_c   15.96474500
_cell_angle_alpha   90.00000000
_cell_angle_beta   90.00000000
_cell_angle_gamma   89.86793000
_symmetry_Int_Tables_number   1
_chemical_formula_structural   Ca9Er11Pb16
_chemical_formula_sum   'Ca9 Er11 Pb16'
_cell_volume   1081.84990878
_cell_formula_units_Z   1
loop_
 _symmetry_equiv_pos_site_id
 _symmetry_equiv_pos_as_xyz
  1  'x, y, z'
loop_
 _atom_site_type_symbol
 _atom_site_label
 _atom_site_symmetry_multiplicity
 _atom_site_fract_x
 _atom_site_fract_y
 _atom_site_fract_z
 _atom_site_occupancy
  Ca  Ca0  1  0.495838  0.681846  0.592595  1
  Ca  Ca1  1  0.995417  0.817901  0.907298  1
  Ca  Ca2  1  0.502401  0.315445  0.091200  1
  Ca  Ca3  1  0.002097  0.183629  0.410813  1
  Ca  Ca4  1  0.502401  0.315445  0.408800  1
  Ca  Ca5  1  0.002097  0.183629  0.089187  1
  Ca  Ca6  1  0.495838  0.681846  0.907405  1
  Ca  Ca7  1  0.995417  0.817901  0.592702  1
  Ca  Ca8  1  0.670529  0.010231  0.250000  1
  Er  Er9  1  0.671657  0.156939  0.624472  1
  Er  Er10  1  0.170743  0.344929  0.876131  1
  Er  Er11  1  0.329917  0.842335  0.121791  1
  Er  Er12  1  0.831303  0.659624  0.378104  1
  Er  Er13  1  0.329917  0.842335  0.378209  1
  Er  Er14  1  0.831303  0.659624  0.121896  1
  Er  Er15  1  0.671657  0.156939  0.875528  1
  Er  Er16  1  0.170743  0.344929  0.623869  1
  Er  Er17  1  0.832260  0.505378  0.750000  1
  Er  Er18  1  0.333145  0.994997  0.750000  1
  Er  Er19  1  0.170876  0.493031  0.250000  1
  Pb  Pb20  1  0.678166  0.958204  0.459332  1
  Pb  Pb21  1  0.180291  0.538908  0.043551  1
  Pb  Pb22  1  0.320481  0.039140  0.954787  1
  Pb  Pb23  1  0.820064  0.460587  0.544593  1
  Pb  Pb24  1  0.320481  0.039140  0.545213  1
  Pb  Pb25  1  0.820064  0.460587  0.955407  1
  Pb  Pb26  1  0.678166  0.958204  0.040668  1
  Pb  Pb27  1  0.180291  0.538908  0.456449  1
  Pb  Pb28  1  0.474339  0.366051  0.750000  1
  Pb  Pb29  1  0.975692  0.132272  0.750000  1
  Pb  Pb30  1  0.528106  0.629771  0.250000  1
  Pb  Pb31  1  0.030154  0.860729  0.250000  1
  Pb  Pb32  1  0.697257  0.853218  0.750000  1
  Pb  Pb33  1  0.197075  0.648137  0.750000  1
  Pb  Pb34  1  0.289764  0.143023  0.250000  1
  Pb  Pb35  1  0.804052  0.364184  0.250000  1
