# generated using pymatgen
data_Li4Ca2NdHoSi8
_symmetry_space_group_name_H-M   'P 1'
_cell_length_a   3.81110000
_cell_length_b   7.81207236
_cell_length_c   10.45658185
_cell_angle_alpha   90.02999531
_cell_angle_beta   90.00000000
_cell_angle_gamma   90.00000000
_symmetry_Int_Tables_number   1
_chemical_formula_structural   Li4Ca2NdHoSi8
_chemical_formula_sum   'Li4 Ca2 Nd1 Ho1 Si8'
_cell_volume   311.31947077
_cell_formula_units_Z   1
loop_
 _symmetry_equiv_pos_site_id
 _symmetry_equiv_pos_as_xyz
  1  'x, y, z'
loop_
 _atom_site_type_symbol
 _atom_site_label
 _atom_site_symmetry_multiplicity
 _atom_site_fract_x
 _atom_site_fract_y
 _atom_site_fract_z
 _atom_site_occupancy
  Li  Li0  1  0.250000  0.996261  0.387939  1
  Li  Li1  1  0.750000  0.003627  0.609903  1
  Li  Li2  1  0.250000  0.496421  0.108657  1
  Li  Li3  1  0.750000  0.508977  0.891496  1
  Ca  Ca4  1  0.750000  0.866643  0.134377  1
  Ca  Ca5  1  0.750000  0.362095  0.364793  1
  Nd  Nd6  1  0.250000  0.633069  0.636716  1
  Ho  Ho7  1  0.250000  0.129974  0.865667  1
  Si  Si8  1  0.750000  0.267280  0.061348  1
  Si  Si9  1  0.250000  0.739148  0.931526  1
  Si  Si10  1  0.750000  0.768499  0.431562  1
  Si  Si11  1  0.250000  0.229858  0.573915  1
  Si  Si12  1  0.750000  0.842772  0.820504  1
  Si  Si13  1  0.250000  0.162843  0.170005  1
  Si  Si14  1  0.750000  0.331881  0.686260  1
  Si  Si15  1  0.250000  0.660657  0.325328  1
