# generated using pymatgen
data_ZrCrN2
_symmetry_space_group_name_H-M   'P 1'
_cell_length_a   3.01734800
_cell_length_b   5.36206000
_cell_length_c   10.15234700
_cell_angle_alpha   90.00000000
_cell_angle_beta   90.00000000
_cell_angle_gamma   90.00000000
_symmetry_Int_Tables_number   1
_chemical_formula_structural   ZrCrN2
_chemical_formula_sum   'Zr4 Cr4 N8'
_cell_volume   164.25686291
_cell_formula_units_Z   4
loop_
 _symmetry_equiv_pos_site_id
 _symmetry_equiv_pos_as_xyz
  1  'x, y, z'
loop_
 _atom_site_type_symbol
 _atom_site_label
 _atom_site_symmetry_multiplicity
 _atom_site_fract_x
 _atom_site_fract_y
 _atom_site_fract_z
 _atom_site_occupancy
  Zr  Zr0  1  0.750000  0.094610  0.849304  1
  Zr  Zr1  1  0.750000  0.594610  0.650696  1
  Zr  Zr2  1  0.250000  0.905390  0.150696  1
  Zr  Zr3  1  0.250000  0.405390  0.349304  1
  Cr  Cr4  1  0.250000  0.074783  0.588494  1
  Cr  Cr5  1  0.750000  0.425217  0.088494  1
  Cr  Cr6  1  0.250000  0.574783  0.911506  1
  Cr  Cr7  1  0.750000  0.925217  0.411506  1
  N  N8  1  0.250000  0.342171  0.745129  1
  N  N9  1  0.750000  0.157829  0.245129  1
  N  N10  1  0.250000  0.245860  0.003959  1
  N  N11  1  0.750000  0.657829  0.254871  1
  N  N12  1  0.250000  0.842171  0.754871  1
  N  N13  1  0.750000  0.754140  0.996041  1
  N  N14  1  0.750000  0.254140  0.503959  1
  N  N15  1  0.250000  0.745860  0.496041  1
