# generated using pymatgen
data_SrLa5PrOsBr12
_symmetry_space_group_name_H-M   'P 1'
_cell_length_a   9.67927309
_cell_length_b   9.81654303
_cell_length_c   9.65933379
_cell_angle_alpha   106.44634505
_cell_angle_beta   106.28819674
_cell_angle_gamma   106.20823892
_symmetry_Int_Tables_number   1
_chemical_formula_structural   SrLa5PrOsBr12
_chemical_formula_sum   'Sr1 La5 Pr1 Os1 Br12'
_cell_volume   778.20630567
_cell_formula_units_Z   1
loop_
 _symmetry_equiv_pos_site_id
 _symmetry_equiv_pos_as_xyz
  1  'x, y, z'
loop_
 _atom_site_type_symbol
 _atom_site_label
 _atom_site_symmetry_multiplicity
 _atom_site_fract_x
 _atom_site_fract_y
 _atom_site_fract_z
 _atom_site_occupancy
  Sr  Sr0  1  0.500367  0.499757  0.500744  1
  La  La1  1  0.109351  0.322757  0.019388  1
  La  La2  1  0.306431  0.019807  0.103987  1
  La  La3  1  0.019466  0.103323  0.307186  1
  La  La4  1  0.980123  0.895283  0.692170  1
  La  La5  1  0.693759  0.980793  0.896053  1
  Pr  Pr6  1  0.891225  0.681571  0.980051  1
  Os  Os7  1  0.000175  0.000759  0.999641  1
  Br  Br8  1  0.214818  0.680864  0.072132  1
  Br  Br9  1  0.450668  0.366099  0.154744  1
  Br  Br10  1  0.678760  0.072167  0.217157  1
  Br  Br11  1  0.927623  0.782720  0.318015  1
  Br  Br12  1  0.154243  0.449178  0.367276  1
  Br  Br13  1  0.369189  0.157934  0.452900  1
  Br  Br14  1  0.630698  0.841460  0.547000  1
  Br  Br15  1  0.846283  0.550357  0.635544  1
  Br  Br16  1  0.071337  0.214661  0.678761  1
  Br  Br17  1  0.321069  0.927378  0.782800  1
  Br  Br18  1  0.551691  0.633319  0.846925  1
  Br  Br19  1  0.782724  0.319816  0.927526  1
