# generated using pymatgen
data_Li2MgPd3O8
_symmetry_space_group_name_H-M   'P 1'
_cell_length_a   6.07789669
_cell_length_b   6.07798058
_cell_length_c   6.07791097
_cell_angle_alpha   60.27072737
_cell_angle_beta   60.27063298
_cell_angle_gamma   60.27065312
_symmetry_Int_Tables_number   1
_chemical_formula_structural   Li2MgPd3O8
_chemical_formula_sum   'Li2 Mg1 Pd3 O8'
_cell_volume   159.73659815
_cell_formula_units_Z   1
loop_
 _symmetry_equiv_pos_site_id
 _symmetry_equiv_pos_as_xyz
  1  'x, y, z'
loop_
 _atom_site_type_symbol
 _atom_site_label
 _atom_site_symmetry_multiplicity
 _atom_site_fract_x
 _atom_site_fract_y
 _atom_site_fract_z
 _atom_site_occupancy
  Li  Li0  1  0.108787  0.108814  0.108799  1
  Li  Li1  1  0.891205  0.891238  0.891220  1
  Mg  Mg2  1  0.499991  0.499939  0.499974  1
  Pd  Pd3  1  0.499992  0.499971  0.000014  1
  Pd  Pd4  1  0.499976  0.000022  0.499972  1
  Pd  Pd5  1  0.000009  0.499981  0.499997  1
  O  O6  1  0.263499  0.263512  0.263500  1
  O  O7  1  0.714793  0.258038  0.258038  1
  O  O8  1  0.258041  0.714786  0.258038  1
  O  O9  1  0.258040  0.258037  0.714790  1
  O  O10  1  0.741991  0.741984  0.285227  1
  O  O11  1  0.741990  0.285226  0.741986  1
  O  O12  1  0.285228  0.741984  0.741988  1
  O  O13  1  0.736456  0.736468  0.736457  1
