# generated using pymatgen
data_Li3Ni3Sn2
_symmetry_space_group_name_H-M   'P 1'
_cell_length_a   4.28897200
_cell_length_b   4.28897219
_cell_length_c   7.44437119
_cell_angle_alpha   73.25767391
_cell_angle_beta   90.00000000
_cell_angle_gamma   119.99999852
_symmetry_Int_Tables_number   1
_chemical_formula_structural   Li3Ni3Sn2
_chemical_formula_sum   'Li3 Ni3 Sn2'
_cell_volume   111.84146862
_cell_formula_units_Z   1
loop_
 _symmetry_equiv_pos_site_id
 _symmetry_equiv_pos_as_xyz
  1  'x, y, z'
loop_
 _atom_site_type_symbol
 _atom_site_label
 _atom_site_symmetry_multiplicity
 _atom_site_fract_x
 _atom_site_fract_y
 _atom_site_fract_z
 _atom_site_occupancy
  Li  Li0  1  0.249652  0.499304  0.251044  1
  Li  Li1  1  0.751165  0.502330  0.746505  1
  Li  Li2  1  0.623710  0.247422  0.128868  1
  Ni  Ni3  1  0.126513  0.253025  0.620462  1
  Ni  Ni4  1  0.873597  0.747194  0.379209  1
  Ni  Ni5  1  0.375565  0.751131  0.873304  1
  Sn  Sn6  1  0.002430  0.004859  0.992711  1
  Sn  Sn7  1  0.497367  0.994734  0.507899  1
