# generated using pymatgen
data_Nd8Zn3CoSi12
_symmetry_space_group_name_H-M   'P 1'
_cell_length_a   8.16302900
_cell_length_b   8.16302920
_cell_length_c   8.55196600
_cell_angle_alpha   90.00000000
_cell_angle_beta   90.00000000
_cell_angle_gamma   119.99999516
_symmetry_Int_Tables_number   1
_chemical_formula_structural   Nd8Zn3CoSi12
_chemical_formula_sum   'Nd8 Zn3 Co1 Si12'
_cell_volume   493.51380725
_cell_formula_units_Z   1
loop_
 _symmetry_equiv_pos_site_id
 _symmetry_equiv_pos_as_xyz
  1  'x, y, z'
loop_
 _atom_site_type_symbol
 _atom_site_label
 _atom_site_symmetry_multiplicity
 _atom_site_fract_x
 _atom_site_fract_y
 _atom_site_fract_z
 _atom_site_occupancy
  Nd  Nd0  1  0.501510  0.498490  0.752548  1
  Nd  Nd1  1  0.502388  0.497612  0.247831  1
  Nd  Nd2  1  0.996980  0.498490  0.752548  1
  Nd  Nd3  1  0.995223  0.497612  0.247831  1
  Nd  Nd4  1  0.501510  0.003020  0.752548  1
  Nd  Nd5  1  0.502388  0.004777  0.247831  1
  Nd  Nd6  1  0.000000  0.000000  0.750476  1
  Nd  Nd7  1  0.000000  0.000000  0.249216  1
  Zn  Zn8  1  0.333333  0.666667  0.002548  1
  Zn  Zn9  1  0.333333  0.666667  0.497622  1
  Zn  Zn10  1  0.666667  0.333333  0.502271  1
  Co  Co11  1  0.666667  0.333333  0.996682  1
  Si  Si12  1  0.824244  0.175756  0.999899  1
  Si  Si13  1  0.162579  0.837421  0.000090  1
  Si  Si14  1  0.351512  0.175756  0.999899  1
  Si  Si15  1  0.166227  0.833773  0.500197  1
  Si  Si16  1  0.674842  0.837421  0.000090  1
  Si  Si17  1  0.833493  0.166507  0.499831  1
  Si  Si18  1  0.824244  0.648488  0.999899  1
  Si  Si19  1  0.667545  0.833773  0.500197  1
  Si  Si20  1  0.162579  0.325158  0.000090  1
  Si  Si21  1  0.333012  0.166507  0.499831  1
  Si  Si22  1  0.166227  0.332455  0.500197  1
  Si  Si23  1  0.833493  0.666988  0.499831  1
