# generated using pymatgen
data_Sc6Nb2V12Si15P
_symmetry_space_group_name_H-M   'P 1'
_cell_length_a   6.59303661
_cell_length_b   6.58392877
_cell_length_c   12.19315809
_cell_angle_alpha   90.03244215
_cell_angle_beta   89.86628063
_cell_angle_gamma   89.96863962
_symmetry_Int_Tables_number   1
_chemical_formula_structural   Sc6Nb2V12Si15P
_chemical_formula_sum   'Sc6 Nb2 V12 Si15 P1'
_cell_volume   529.28001826
_cell_formula_units_Z   1
loop_
 _symmetry_equiv_pos_site_id
 _symmetry_equiv_pos_as_xyz
  1  'x, y, z'
loop_
 _atom_site_type_symbol
 _atom_site_label
 _atom_site_symmetry_multiplicity
 _atom_site_fract_x
 _atom_site_fract_y
 _atom_site_fract_z
 _atom_site_occupancy
  Sc  Sc0  1  0.162222  0.497672  0.779609  1
  Sc  Sc1  1  0.502052  0.836840  0.720686  1
  Sc  Sc2  1  0.498625  0.163392  0.218700  1
  Sc  Sc3  1  0.998693  0.336990  0.529817  1
  Sc  Sc4  1  0.660470  0.001144  0.972044  1
  Sc  Sc5  1  0.338488  0.999201  0.469040  1
  Nb  Nb6  1  0.008264  0.660271  0.031547  1
  Nb  Nb7  1  0.840528  0.507536  0.281634  1
  V  V8  1  0.330667  0.332809  0.000988  1
  V  V9  1  0.165602  0.830951  0.246454  1
  V  V10  1  0.833306  0.166966  0.751255  1
  V  V11  1  0.669004  0.666718  0.498548  1
  V  V12  1  0.006648  0.153598  0.124734  1
  V  V13  1  0.342262  0.504338  0.373806  1
  V  V14  1  0.656228  0.495845  0.879287  1
  V  V15  1  0.508191  0.342491  0.623207  1
  V  V16  1  0.486291  0.662783  0.122781  1
  V  V17  1  0.994599  0.840453  0.626915  1
  V  V18  1  0.156534  0.007379  0.878745  1
  V  V19  1  0.841317  0.990619  0.370929  1
  Si  Si20  1  0.539066  0.792679  0.314077  1
  Si  Si21  1  0.462291  0.206234  0.814498  1
  Si  Si22  1  0.794848  0.538607  0.686117  1
  Si  Si23  1  0.203787  0.457448  0.185467  1
  Si  Si24  1  0.707266  0.038339  0.564050  1
  Si  Si25  1  0.957501  0.296979  0.935313  1
  Si  Si26  1  0.041112  0.706472  0.434992  1
  Si  Si27  1  0.708753  0.376977  0.074501  1
  Si  Si28  1  0.125363  0.205451  0.320541  1
  Si  Si29  1  0.870659  0.795266  0.823352  1
  Si  Si30  1  0.204033  0.128518  0.680333  1
  Si  Si31  1  0.794276  0.866629  0.177294  1
  Si  Si32  1  0.298222  0.629067  0.569316  1
  Si  Si33  1  0.368284  0.704245  0.927874  1
  Si  Si34  1  0.631402  0.296149  0.427174  1
  P  P35  1  0.293143  0.962945  0.064375  1
