# generated using pymatgen
data_Tb2ErMn8CoP6
_symmetry_space_group_name_H-M   'P 1'
_cell_length_a   3.64008700
_cell_length_b   10.85522600
_cell_length_c   12.62817800
_cell_angle_alpha   90.00000000
_cell_angle_beta   90.00000000
_cell_angle_gamma   90.00000000
_symmetry_Int_Tables_number   1
_chemical_formula_structural   Tb2ErMn8CoP6
_chemical_formula_sum   'Tb4 Er2 Mn16 Co2 P12'
_cell_volume   498.98940933
_cell_formula_units_Z   2
loop_
 _symmetry_equiv_pos_site_id
 _symmetry_equiv_pos_as_xyz
  1  'x, y, z'
loop_
 _atom_site_type_symbol
 _atom_site_label
 _atom_site_symmetry_multiplicity
 _atom_site_fract_x
 _atom_site_fract_y
 _atom_site_fract_z
 _atom_site_occupancy
  Tb  Tb0  1  0.000000  0.500000  0.532099  1
  Tb  Tb1  1  0.500000  0.000000  0.467316  1
  Tb  Tb2  1  0.000000  0.677301  0.793675  1
  Tb  Tb3  1  0.000000  0.322699  0.793675  1
  Er  Er4  1  0.500000  0.823446  0.206451  1
  Er  Er5  1  0.500000  0.176554  0.206451  1
  Mn  Mn6  1  0.500000  0.500000  0.166539  1
  Mn  Mn7  1  0.000000  0.000000  0.833882  1
  Mn  Mn8  1  0.000000  0.500000  0.993690  1
  Mn  Mn9  1  0.500000  0.000000  0.008113  1
  Mn  Mn10  1  0.500000  0.331981  0.998119  1
  Mn  Mn11  1  0.500000  0.668019  0.998119  1
  Mn  Mn12  1  0.000000  0.166941  0.003445  1
  Mn  Mn13  1  0.000000  0.833059  0.003445  1
  Mn  Mn14  1  0.500000  0.297680  0.431561  1
  Mn  Mn15  1  0.500000  0.702320  0.431561  1
  Mn  Mn16  1  0.000000  0.201763  0.566922  1
  Mn  Mn17  1  0.000000  0.798237  0.566922  1
  Mn  Mn18  1  0.500000  0.881858  0.702477  1
  Mn  Mn19  1  0.500000  0.118142  0.702477  1
  Mn  Mn20  1  0.000000  0.618897  0.297104  1
  Mn  Mn21  1  0.000000  0.381103  0.297104  1
  Co  Co22  1  0.500000  0.500000  0.705956  1
  Co  Co23  1  0.000000  0.000000  0.293020  1
  P  P24  1  0.500000  0.500000  0.882312  1
  P  P25  1  0.000000  0.000000  0.119340  1
  P  P26  1  0.500000  0.500000  0.358729  1
  P  P27  1  0.000000  0.000000  0.640828  1
  P  P28  1  0.500000  0.317109  0.618438  1
  P  P29  1  0.500000  0.682891  0.618438  1
  P  P30  1  0.000000  0.182206  0.379767  1
  P  P31  1  0.000000  0.817794  0.379767  1
  P  P32  1  0.500000  0.846084  0.885370  1
  P  P33  1  0.500000  0.153916  0.885370  1
  P  P34  1  0.000000  0.655636  0.115760  1
  P  P35  1  0.000000  0.344364  0.115760  1
