# generated using pymatgen
data_La16MgHg3Ru3Pt
_symmetry_space_group_name_H-M   'P 1'
_cell_length_a   10.05308944
_cell_length_b   10.11495936
_cell_length_c   10.11495984
_cell_angle_alpha   60.14678793
_cell_angle_beta   59.98249528
_cell_angle_gamma   59.98250975
_symmetry_Int_Tables_number   1
_chemical_formula_structural   La16MgHg3Ru3Pt
_chemical_formula_sum   'La16 Mg1 Hg3 Ru3 Pt1'
_cell_volume   727.90911381
_cell_formula_units_Z   1
loop_
 _symmetry_equiv_pos_site_id
 _symmetry_equiv_pos_as_xyz
  1  'x, y, z'
loop_
 _atom_site_type_symbol
 _atom_site_label
 _atom_site_symmetry_multiplicity
 _atom_site_fract_x
 _atom_site_fract_y
 _atom_site_fract_z
 _atom_site_occupancy
  La  La0  1  0.593460  0.594255  0.594255  1
  La  La1  1  0.598888  0.598971  0.207966  1
  La  La2  1  0.598888  0.207966  0.598971  1
  La  La3  1  0.196594  0.602014  0.602014  1
  La  La4  1  0.048116  0.444049  0.444049  1
  La  La5  1  0.435916  0.062344  0.062344  1
  La  La6  1  0.439307  0.052898  0.440408  1
  La  La7  1  0.058642  0.440441  0.059316  1
  La  La8  1  0.439307  0.440408  0.052898  1
  La  La9  1  0.058642  0.059316  0.440441  1
  La  La10  1  0.194727  0.810984  0.810984  1
  La  La11  1  0.809832  0.191758  0.191758  1
  La  La12  1  0.809728  0.192911  0.810833  1
  La  La13  1  0.192841  0.810985  0.188920  1
  La  La14  1  0.809728  0.810833  0.192911  1
  La  La15  1  0.192841  0.188920  0.810985  1
  Mg  Mg16  1  0.542038  0.818802  0.818802  1
  Hg  Hg17  1  0.829556  0.835622  0.835622  1
  Hg  Hg18  1  0.830783  0.836953  0.496751  1
  Hg  Hg19  1  0.830783  0.496751  0.836953  1
  Ru  Ru20  1  0.384351  0.387472  0.835974  1
  Ru  Ru21  1  0.384351  0.835974  0.387472  1
  Ru  Ru22  1  0.831674  0.387713  0.387713  1
  Pt  Pt23  1  0.389001  0.391658  0.391658  1
