# generated using pymatgen
data_Mg2Sc4NiB4Ir9
_symmetry_space_group_name_H-M   'P 1'
_cell_length_a   3.05769800
_cell_length_b   9.44755636
_cell_length_c   9.44755806
_cell_angle_alpha   89.16854798
_cell_angle_beta   90.00000000
_cell_angle_gamma   90.00000000
_symmetry_Int_Tables_number   1
_chemical_formula_structural   Mg2Sc4NiB4Ir9
_chemical_formula_sum   'Mg2 Sc4 Ni1 B4 Ir9'
_cell_volume   272.89018795
_cell_formula_units_Z   1
loop_
 _symmetry_equiv_pos_site_id
 _symmetry_equiv_pos_as_xyz
  1  'x, y, z'
loop_
 _atom_site_type_symbol
 _atom_site_label
 _atom_site_symmetry_multiplicity
 _atom_site_fract_x
 _atom_site_fract_y
 _atom_site_fract_z
 _atom_site_occupancy
  Mg  Mg0  1  0.000000  0.000000  0.000000  1
  Mg  Mg1  1  0.000000  0.500000  0.500000  1
  Sc  Sc2  1  0.000000  0.177282  0.677282  1
  Sc  Sc3  1  0.000000  0.822718  0.322718  1
  Sc  Sc4  1  0.000000  0.319660  0.180340  1
  Sc  Sc5  1  0.000000  0.680340  0.819660  1
  Ni  Ni6  1  0.500000  0.000000  0.500000  1
  B  B7  1  0.000000  0.624826  0.124826  1
  B  B8  1  0.000000  0.375174  0.875174  1
  B  B9  1  0.000000  0.882629  0.617371  1
  B  B10  1  0.000000  0.117371  0.382629  1
  Ir  Ir11  1  0.500000  0.062994  0.228310  1
  Ir  Ir12  1  0.500000  0.937006  0.771690  1
  Ir  Ir13  1  0.500000  0.780491  0.067829  1
  Ir  Ir14  1  0.500000  0.432171  0.719509  1
  Ir  Ir15  1  0.500000  0.219509  0.932171  1
  Ir  Ir16  1  0.500000  0.567829  0.280491  1
  Ir  Ir17  1  0.500000  0.728310  0.562994  1
  Ir  Ir18  1  0.500000  0.271690  0.437006  1
  Ir  Ir19  1  0.500000  0.500000  0.000000  1
