# generated using pymatgen
data_La2Yb14MgIn3Ru4
_symmetry_space_group_name_H-M   'P 1'
_cell_length_a   9.93670411
_cell_length_b   9.93670354
_cell_length_c   9.82781213
_cell_angle_alpha   60.24905168
_cell_angle_beta   60.24905165
_cell_angle_gamma   59.61996103
_symmetry_Int_Tables_number   1
_chemical_formula_structural   La2Yb14MgIn3Ru4
_chemical_formula_sum   'La2 Yb14 Mg1 In3 Ru4'
_cell_volume   686.71899535
_cell_formula_units_Z   1
loop_
 _symmetry_equiv_pos_site_id
 _symmetry_equiv_pos_as_xyz
  1  'x, y, z'
loop_
 _atom_site_type_symbol
 _atom_site_label
 _atom_site_symmetry_multiplicity
 _atom_site_fract_x
 _atom_site_fract_y
 _atom_site_fract_z
 _atom_site_occupancy
  La  La0  1  0.063024  0.063024  0.437816  1
  La  La1  1  0.437720  0.437720  0.063566  1
  Yb  Yb2  1  0.795354  0.207153  0.200580  1
  Yb  Yb3  1  0.198890  0.198890  0.799657  1
  Yb  Yb4  1  0.799601  0.799601  0.197740  1
  Yb  Yb5  1  0.205052  0.796110  0.795834  1
  Yb  Yb6  1  0.592905  0.592905  0.222848  1
  Yb  Yb7  1  0.445676  0.054169  0.055282  1
  Yb  Yb8  1  0.054169  0.445676  0.055282  1
  Yb  Yb9  1  0.442515  0.057980  0.443590  1
  Yb  Yb10  1  0.223422  0.589595  0.593408  1
  Yb  Yb11  1  0.057980  0.442515  0.443590  1
  Yb  Yb12  1  0.589595  0.223422  0.593408  1
  Yb  Yb13  1  0.593906  0.593906  0.590551  1
  Yb  Yb14  1  0.207153  0.795354  0.200580  1
  Yb  Yb15  1  0.796110  0.205052  0.795834  1
  Mg  Mg16  1  0.825230  0.825230  0.525169  1
  In  In17  1  0.828289  0.828289  0.829849  1
  In  In18  1  0.510116  0.829895  0.829536  1
  In  In19  1  0.829895  0.510116  0.829536  1
  Ru  Ru20  1  0.857375  0.357726  0.393241  1
  Ru  Ru21  1  0.394580  0.394580  0.355536  1
  Ru  Ru22  1  0.357726  0.857375  0.393241  1
  Ru  Ru23  1  0.393716  0.393716  0.854329  1
