# generated using pymatgen
data_Y7Er3IrPt5
_symmetry_space_group_name_H-M   'P 1'
_cell_length_a   11.05948259
_cell_length_b   11.04957200
_cell_length_c   6.42020934
_cell_angle_alpha   90.00000000
_cell_angle_beta   89.96269026
_cell_angle_gamma   90.00000000
_symmetry_Int_Tables_number   1
_chemical_formula_structural   Y7Er3IrPt5
_chemical_formula_sum   'Y14 Er6 Ir2 Pt10'
_cell_volume   784.56578092
_cell_formula_units_Z   2
loop_
 _symmetry_equiv_pos_site_id
 _symmetry_equiv_pos_as_xyz
  1  'x, y, z'
loop_
 _atom_site_type_symbol
 _atom_site_label
 _atom_site_symmetry_multiplicity
 _atom_site_fract_x
 _atom_site_fract_y
 _atom_site_fract_z
 _atom_site_occupancy
  Y  Y0  1  0.291106  0.088461  0.375303  1
  Y  Y1  1  0.291106  0.911539  0.875303  1
  Y  Y2  1  0.708461  0.087954  0.875752  1
  Y  Y3  1  0.708461  0.912046  0.375752  1
  Y  Y4  1  0.587943  0.791503  0.875675  1
  Y  Y5  1  0.587943  0.208497  0.375675  1
  Y  Y6  1  0.411868  0.791537  0.375764  1
  Y  Y7  1  0.411868  0.208463  0.875764  1
  Y  Y8  1  0.205772  0.412895  0.624815  1
  Y  Y9  1  0.205772  0.587105  0.124815  1
  Y  Y10  1  0.794620  0.412466  0.124616  1
  Y  Y11  1  0.794620  0.587534  0.624616  1
  Y  Y12  1  0.913125  0.706007  0.124606  1
  Y  Y13  1  0.913125  0.293993  0.624606  1
  Er  Er14  1  0.086815  0.703859  0.623364  1
  Er  Er15  1  0.086815  0.296141  0.123364  1
  Er  Er16  1  0.000391  0.999368  0.501199  1
  Er  Er17  1  0.000391  0.000632  0.001199  1
  Er  Er18  1  0.499997  0.500075  0.000790  1
  Er  Er19  1  0.499997  0.499925  0.500790  1
  Ir  Ir20  1  0.001197  0.499727  0.879099  1
  Ir  Ir21  1  0.001197  0.500273  0.379099  1
  Pt  Pt22  1  0.849115  0.150927  0.249455  1
  Pt  Pt23  1  0.849115  0.849073  0.749455  1
  Pt  Pt24  1  0.151206  0.151644  0.752936  1
  Pt  Pt25  1  0.151206  0.848356  0.252936  1
  Pt  Pt26  1  0.650461  0.348197  0.750131  1
  Pt  Pt27  1  0.650461  0.651803  0.250131  1
  Pt  Pt28  1  0.347988  0.347957  0.249229  1
  Pt  Pt29  1  0.347988  0.652043  0.749229  1
  Pt  Pt30  1  0.499934  0.999983  0.117260  1
  Pt  Pt31  1  0.499934  0.000017  0.617260  1
