# generated using pymatgen
data_Er2Al9Ir2Pt
_symmetry_space_group_name_H-M   'P 1'
_cell_length_a   7.55864453
_cell_length_b   7.55864991
_cell_length_c   9.42172411
_cell_angle_alpha   89.93524675
_cell_angle_beta   89.93521512
_cell_angle_gamma   119.58768108
_symmetry_Int_Tables_number   1
_chemical_formula_structural   Er2Al9Ir2Pt
_chemical_formula_sum   'Er4 Al18 Ir4 Pt2'
_cell_volume   468.09879669
_cell_formula_units_Z   2
loop_
 _symmetry_equiv_pos_site_id
 _symmetry_equiv_pos_as_xyz
  1  'x, y, z'
loop_
 _atom_site_type_symbol
 _atom_site_label
 _atom_site_symmetry_multiplicity
 _atom_site_fract_x
 _atom_site_fract_y
 _atom_site_fract_z
 _atom_site_occupancy
  Er  Er0  1  0.995394  0.671774  0.251771  1
  Er  Er1  1  0.004606  0.328226  0.748229  1
  Er  Er2  1  0.671775  0.995394  0.251771  1
  Er  Er3  1  0.328225  0.004606  0.748229  1
  Al  Al4  1  0.127956  0.127956  0.250488  1
  Al  Al5  1  0.872044  0.872044  0.749512  1
  Al  Al6  1  0.000493  0.332004  0.078336  1
  Al  Al7  1  0.999507  0.667996  0.921664  1
  Al  Al8  1  0.000252  0.664548  0.575906  1
  Al  Al9  1  0.335452  0.999748  0.424094  1
  Al  Al10  1  0.999748  0.335452  0.424094  1
  Al  Al11  1  0.664548  0.000252  0.575906  1
  Al  Al12  1  0.667996  0.999506  0.921664  1
  Al  Al13  1  0.332004  0.000494  0.078336  1
  Al  Al14  1  0.332060  0.332060  0.552008  1
  Al  Al15  1  0.667940  0.667940  0.447992  1
  Al  Al16  1  0.669681  0.669681  0.059746  1
  Al  Al17  1  0.330319  0.330319  0.940254  1
  Al  Al18  1  0.340736  0.548244  0.252865  1
  Al  Al19  1  0.659264  0.451756  0.747135  1
  Al  Al20  1  0.548244  0.340735  0.252864  1
  Al  Al21  1  0.451756  0.659265  0.747136  1
  Ir  Ir22  1  0.327878  0.672122  0.500000  1
  Ir  Ir23  1  0.672122  0.327878  0.500000  1
  Ir  Ir24  1  0.000000  0.000000  0.000000  1
  Ir  Ir25  1  0.000000  0.000000  0.500000  1
  Pt  Pt26  1  0.672497  0.327503  0.000000  1
  Pt  Pt27  1  0.327503  0.672497  0.000000  1
