# generated using pymatgen
data_Lu7Th(InOs)2
_symmetry_space_group_name_H-M   'P 1'
_cell_length_a   9.55339271
_cell_length_b   9.55339293
_cell_length_c   9.52895700
_cell_angle_alpha   60.08457968
_cell_angle_beta   60.08457895
_cell_angle_gamma   60.43538206
_symmetry_Int_Tables_number   1
_chemical_formula_structural   Lu7Th(InOs)2
_chemical_formula_sum   'Lu14 Th2 In4 Os4'
_cell_volume   617.74892069
_cell_formula_units_Z   2
loop_
 _symmetry_equiv_pos_site_id
 _symmetry_equiv_pos_as_xyz
  1  'x, y, z'
loop_
 _atom_site_type_symbol
 _atom_site_label
 _atom_site_symmetry_multiplicity
 _atom_site_fract_x
 _atom_site_fract_y
 _atom_site_fract_z
 _atom_site_occupancy
  Lu  Lu0  1  0.607349  0.195733  0.598459  1
  Lu  Lu1  1  0.195733  0.607349  0.598459  1
  Lu  Lu2  1  0.059189  0.441742  0.441662  1
  Lu  Lu3  1  0.441742  0.059189  0.057408  1
  Lu  Lu4  1  0.441742  0.059189  0.441662  1
  Lu  Lu5  1  0.059189  0.441742  0.057408  1
  Lu  Lu6  1  0.437790  0.437790  0.062210  1
  Lu  Lu7  1  0.057225  0.057225  0.442775  1
  Lu  Lu8  1  0.191464  0.811827  0.806450  1
  Lu  Lu9  1  0.811827  0.191464  0.190258  1
  Lu  Lu10  1  0.811827  0.191464  0.806450  1
  Lu  Lu11  1  0.191464  0.811827  0.190258  1
  Lu  Lu12  1  0.812781  0.812781  0.187219  1
  Lu  Lu13  1  0.202804  0.202804  0.797196  1
  Th  Th14  1  0.594551  0.594551  0.599250  1
  Th  Th15  1  0.594551  0.594551  0.211649  1
  In  In16  1  0.834389  0.834389  0.833072  1
  In  In17  1  0.834389  0.834389  0.498149  1
  In  In18  1  0.834353  0.496017  0.834814  1
  In  In19  1  0.496017  0.834353  0.834814  1
  Os  Os20  1  0.385439  0.385439  0.401021  1
  Os  Os21  1  0.385439  0.385439  0.828099  1
  Os  Os22  1  0.388114  0.830625  0.390630  1
  Os  Os23  1  0.830625  0.388114  0.390630  1
