# generated using pymatgen
data_Th3Zn2Ir3Au
_symmetry_space_group_name_H-M   'P 1'
_cell_length_a   7.40249932
_cell_length_b   7.40249946
_cell_length_c   3.96520500
_cell_angle_alpha   90.00000000
_cell_angle_beta   90.00000000
_cell_angle_gamma   118.68218360
_symmetry_Int_Tables_number   1
_chemical_formula_structural   Th3Zn2Ir3Au
_chemical_formula_sum   'Th3 Zn2 Ir3 Au1'
_cell_volume   190.61991991
_cell_formula_units_Z   1
loop_
 _symmetry_equiv_pos_site_id
 _symmetry_equiv_pos_as_xyz
  1  'x, y, z'
loop_
 _atom_site_type_symbol
 _atom_site_label
 _atom_site_symmetry_multiplicity
 _atom_site_fract_x
 _atom_site_fract_y
 _atom_site_fract_z
 _atom_site_occupancy
  Th  Th0  1  0.402925  0.402925  0.500000  1
  Th  Th1  1  0.596335  0.995506  0.500000  1
  Th  Th2  1  0.995506  0.596335  0.500000  1
  Zn  Zn3  1  0.246844  0.999533  0.000000  1
  Zn  Zn4  1  0.999533  0.246844  0.000000  1
  Ir  Ir5  1  0.660036  0.312069  0.000000  1
  Ir  Ir6  1  0.312069  0.660036  0.000000  1
  Ir  Ir7  1  0.031895  0.031895  0.500000  1
  Au  Au8  1  0.754857  0.754857  0.000000  1
