# generated using pymatgen
data_CdAg2PbO4
_symmetry_space_group_name_H-M   'P 1'
_cell_length_a   6.74964816
_cell_length_b   6.74964815
_cell_length_c   6.02389091
_cell_angle_alpha   80.71888115
_cell_angle_beta   80.71887928
_cell_angle_gamma   29.69589159
_symmetry_Int_Tables_number   1
_chemical_formula_structural   CdAg2PbO4
_chemical_formula_sum   'Cd1 Ag2 Pb1 O4'
_cell_volume   134.04830372
_cell_formula_units_Z   1
loop_
 _symmetry_equiv_pos_site_id
 _symmetry_equiv_pos_as_xyz
  1  'x, y, z'
loop_
 _atom_site_type_symbol
 _atom_site_label
 _atom_site_symmetry_multiplicity
 _atom_site_fract_x
 _atom_site_fract_y
 _atom_site_fract_z
 _atom_site_occupancy
  Cd  Cd0  1  0.000000  0.000000  0.500000  1
  Ag  Ag1  1  0.746552  0.746552  0.218679  1
  Ag  Ag2  1  0.253448  0.253448  0.781321  1
  Pb  Pb3  1  0.500000  0.500000  0.000000  1
  O  O4  1  0.909703  0.909703  0.183491  1
  O  O5  1  0.416432  0.416432  0.715270  1
  O  O6  1  0.583568  0.583568  0.284730  1
  O  O7  1  0.090297  0.090297  0.816509  1
