# generated using pymatgen
data_TlAuI4
_symmetry_space_group_name_H-M   'P 1'
_cell_length_a   9.38101219
_cell_length_b   9.38101160
_cell_length_c   14.37752067
_cell_angle_alpha   122.18432062
_cell_angle_beta   122.18431747
_cell_angle_gamma   30.12000482
_symmetry_Int_Tables_number   1
_chemical_formula_structural   TlAuI4
_chemical_formula_sum   'Tl2 Au2 I8'
_cell_volume   529.60419646
_cell_formula_units_Z   2
loop_
 _symmetry_equiv_pos_site_id
 _symmetry_equiv_pos_as_xyz
  1  'x, y, z'
loop_
 _atom_site_type_symbol
 _atom_site_label
 _atom_site_symmetry_multiplicity
 _atom_site_fract_x
 _atom_site_fract_y
 _atom_site_fract_z
 _atom_site_occupancy
  Tl  Tl0  1  0.367657  0.632343  0.250000  1
  Tl  Tl1  1  0.632343  0.367657  0.750000  1
  Au  Au2  1  0.500000  0.000000  0.000000  1
  Au  Au3  1  0.000000  0.499999  0.500000  1
  I  I4  1  0.732803  0.071859  0.015028  1
  I  I5  1  0.751441  0.905728  0.211381  1
  I  I6  1  0.094272  0.248559  0.288619  1
  I  I7  1  0.928141  0.267197  0.484972  1
  I  I8  1  0.071859  0.732803  0.515028  1
  I  I9  1  0.905728  0.751441  0.711381  1
  I  I10  1  0.248559  0.094272  0.788619  1
  I  I11  1  0.267197  0.928141  0.984972  1
