# generated using pymatgen
data_Lu12Os2RuRh
_symmetry_space_group_name_H-M   'P 1'
_cell_length_a   7.23604362
_cell_length_b   8.87108800
_cell_length_c   6.19636523
_cell_angle_alpha   90.00000000
_cell_angle_beta   90.22064546
_cell_angle_gamma   90.00000000
_symmetry_Int_Tables_number   1
_chemical_formula_structural   Lu12Os2RuRh
_chemical_formula_sum   'Lu12 Os2 Ru1 Rh1'
_cell_volume   397.75152335
_cell_formula_units_Z   1
loop_
 _symmetry_equiv_pos_site_id
 _symmetry_equiv_pos_as_xyz
  1  'x, y, z'
loop_
 _atom_site_type_symbol
 _atom_site_label
 _atom_site_symmetry_multiplicity
 _atom_site_fract_x
 _atom_site_fract_y
 _atom_site_fract_z
 _atom_site_occupancy
  Lu  Lu0  1  0.672030  0.059487  0.334478  1
  Lu  Lu1  1  0.179343  0.438051  0.168924  1
  Lu  Lu2  1  0.325183  0.561071  0.668217  1
  Lu  Lu3  1  0.822563  0.934097  0.828531  1
  Lu  Lu4  1  0.325183  0.938929  0.668217  1
  Lu  Lu5  1  0.822563  0.565903  0.828531  1
  Lu  Lu6  1  0.672030  0.440513  0.334478  1
  Lu  Lu7  1  0.179343  0.061949  0.168924  1
  Lu  Lu8  1  0.539248  0.250000  0.874312  1
  Lu  Lu9  1  0.037850  0.250000  0.627889  1
  Lu  Lu10  1  0.461115  0.750000  0.123069  1
  Lu  Lu11  1  0.962739  0.750000  0.371299  1
  Os  Os12  1  0.383239  0.250000  0.464681  1
  Os  Os13  1  0.616538  0.750000  0.533835  1
  Ru  Ru14  1  0.115085  0.750000  0.964015  1
  Rh  Rh15  1  0.885949  0.250000  0.040599  1
