# generated using pymatgen
data_Sc10FeAg3
_symmetry_space_group_name_H-M   'P 1'
_cell_length_a   8.79937200
_cell_length_b   8.79937177
_cell_length_c   8.97010400
_cell_angle_alpha   90.00000000
_cell_angle_beta   90.00000000
_cell_angle_gamma   119.99999335
_symmetry_Int_Tables_number   1
_chemical_formula_structural   Sc10FeAg3
_chemical_formula_sum   'Sc20 Fe2 Ag6'
_cell_volume   601.49425566
_cell_formula_units_Z   2
loop_
 _symmetry_equiv_pos_site_id
 _symmetry_equiv_pos_as_xyz
  1  'x, y, z'
loop_
 _atom_site_type_symbol
 _atom_site_label
 _atom_site_symmetry_multiplicity
 _atom_site_fract_x
 _atom_site_fract_y
 _atom_site_fract_z
 _atom_site_occupancy
  Sc  Sc0  1  0.000000  0.000000  0.500000  1
  Sc  Sc1  1  0.000000  0.000000  0.000000  1
  Sc  Sc2  1  0.540439  0.459561  0.250000  1
  Sc  Sc3  1  0.540439  0.080877  0.250000  1
  Sc  Sc4  1  0.919123  0.459561  0.250000  1
  Sc  Sc5  1  0.459561  0.540439  0.750000  1
  Sc  Sc6  1  0.459561  0.919123  0.750000  1
  Sc  Sc7  1  0.080877  0.540439  0.750000  1
  Sc  Sc8  1  0.210893  0.789107  0.438655  1
  Sc  Sc9  1  0.210893  0.421788  0.438655  1
  Sc  Sc10  1  0.578212  0.789107  0.438655  1
  Sc  Sc11  1  0.789107  0.210893  0.561345  1
  Sc  Sc12  1  0.789107  0.578212  0.561345  1
  Sc  Sc13  1  0.421788  0.210893  0.561345  1
  Sc  Sc14  1  0.789107  0.210893  0.938655  1
  Sc  Sc15  1  0.789107  0.578212  0.938655  1
  Sc  Sc16  1  0.421788  0.210893  0.938655  1
  Sc  Sc17  1  0.210893  0.789107  0.061345  1
  Sc  Sc18  1  0.210893  0.421788  0.061345  1
  Sc  Sc19  1  0.578212  0.789107  0.061345  1
  Fe  Fe20  1  0.333333  0.666667  0.250000  1
  Fe  Fe21  1  0.666667  0.333333  0.750000  1
  Ag  Ag22  1  0.884117  0.115883  0.250000  1
  Ag  Ag23  1  0.884117  0.768233  0.250000  1
  Ag  Ag24  1  0.231767  0.115883  0.250000  1
  Ag  Ag25  1  0.115883  0.884117  0.750000  1
  Ag  Ag26  1  0.115883  0.231767  0.750000  1
  Ag  Ag27  1  0.768233  0.884117  0.750000  1
