# generated using pymatgen
data_Ho8Hf11Si16Hg
_symmetry_space_group_name_H-M   'P 1'
_cell_length_a   7.28994741
_cell_length_b   7.28994772
_cell_length_c   13.26614902
_cell_angle_alpha   89.77691787
_cell_angle_beta   90.22308233
_cell_angle_gamma   89.92687813
_symmetry_Int_Tables_number   1
_chemical_formula_structural   Ho8Hf11Si16Hg
_chemical_formula_sum   'Ho8 Hf11 Si16 Hg1'
_cell_volume   704.99613201
_cell_formula_units_Z   1
loop_
 _symmetry_equiv_pos_site_id
 _symmetry_equiv_pos_as_xyz
  1  'x, y, z'
loop_
 _atom_site_type_symbol
 _atom_site_label
 _atom_site_symmetry_multiplicity
 _atom_site_fract_x
 _atom_site_fract_y
 _atom_site_fract_z
 _atom_site_occupancy
  Ho  Ho0  1  0.997490  0.346499  0.211738  1
  Ho  Ho1  1  0.004343  0.656326  0.716034  1
  Ho  Ho2  1  0.155010  0.496178  0.465055  1
  Ho  Ho3  1  0.499200  0.847074  0.032979  1
  Ho  Ho4  1  0.847074  0.499200  0.967021  1
  Ho  Ho5  1  0.496178  0.155010  0.534945  1
  Ho  Ho6  1  0.346499  0.997490  0.788262  1
  Ho  Ho7  1  0.656326  0.004343  0.283966  1
  Hf  Hf8  1  0.824626  0.824626  0.500000  1
  Hf  Hf9  1  0.323186  0.676616  0.249991  1
  Hf  Hf10  1  0.676616  0.323186  0.750009  1
  Hf  Hf11  1  0.144842  0.997428  0.375185  1
  Hf  Hf12  1  0.856040  0.002095  0.878079  1
  Hf  Hf13  1  0.504382  0.646992  0.626212  1
  Hf  Hf14  1  0.355942  0.491703  0.877486  1
  Hf  Hf15  1  0.491703  0.355942  0.122514  1
  Hf  Hf16  1  0.646992  0.504382  0.373788  1
  Hf  Hf17  1  0.997428  0.144842  0.624815  1
  Hf  Hf18  1  0.002095  0.856040  0.121921  1
  Si  Si19  1  0.359388  0.295968  0.317327  1
  Si  Si20  1  0.640651  0.703859  0.819630  1
  Si  Si21  1  0.206970  0.859975  0.568974  1
  Si  Si22  1  0.131389  0.772829  0.925914  1
  Si  Si23  1  0.772829  0.131389  0.074086  1
  Si  Si24  1  0.859975  0.206970  0.431026  1
  Si  Si25  1  0.295968  0.359388  0.682673  1
  Si  Si26  1  0.703859  0.640651  0.180370  1
  Si  Si27  1  0.298862  0.048570  0.192490  1
  Si  Si28  1  0.704511  0.950724  0.686455  1
  Si  Si29  1  0.450215  0.795719  0.436141  1
  Si  Si30  1  0.210529  0.569431  0.065003  1
  Si  Si31  1  0.569431  0.210529  0.934997  1
  Si  Si32  1  0.795719  0.450215  0.563859  1
  Si  Si33  1  0.048570  0.298862  0.807510  1
  Si  Si34  1  0.950724  0.704511  0.313545  1
  Hg  Hg35  1  0.174433  0.174433  0.000000  1
