# generated using pymatgen
data_Dy3Ho(Er3Sn4)2
_symmetry_space_group_name_H-M   'P 1'
_cell_length_a   7.99880000
_cell_length_b   8.13637502
_cell_length_c   15.37888103
_cell_angle_alpha   90.00737833
_cell_angle_beta   90.00000000
_cell_angle_gamma   90.00000000
_symmetry_Int_Tables_number   1
_chemical_formula_structural   Dy3Ho(Er3Sn4)2
_chemical_formula_sum   'Dy6 Ho2 Er12 Sn16'
_cell_volume   1000.87658501
_cell_formula_units_Z   2
loop_
 _symmetry_equiv_pos_site_id
 _symmetry_equiv_pos_as_xyz
  1  'x, y, z'
loop_
 _atom_site_type_symbol
 _atom_site_label
 _atom_site_symmetry_multiplicity
 _atom_site_fract_x
 _atom_site_fract_y
 _atom_site_fract_z
 _atom_site_occupancy
  Dy  Dy0  1  0.478526  0.679664  0.402517  1
  Dy  Dy1  1  0.978526  0.820336  0.097483  1
  Dy  Dy2  1  0.478512  0.679670  0.097465  1
  Dy  Dy3  1  0.978512  0.820330  0.402535  1
  Dy  Dy4  1  0.521438  0.320310  0.597454  1
  Dy  Dy5  1  0.021438  0.179690  0.902546  1
  Ho  Ho6  1  0.521511  0.320309  0.902459  1
  Ho  Ho7  1  0.021511  0.179691  0.597541  1
  Er  Er8  1  0.367671  0.836261  0.877771  1
  Er  Er9  1  0.867671  0.663739  0.622229  1
  Er  Er10  1  0.632319  0.163811  0.377810  1
  Er  Er11  1  0.132319  0.336189  0.122190  1
  Er  Er12  1  0.632294  0.163830  0.122159  1
  Er  Er13  1  0.132294  0.336170  0.377841  1
  Er  Er14  1  0.367647  0.836287  0.622237  1
  Er  Er15  1  0.867647  0.663713  0.877763  1
  Er  Er16  1  0.198271  0.503334  0.750008  1
  Er  Er17  1  0.698271  0.996666  0.749992  1
  Er  Er18  1  0.801772  0.496550  0.250021  1
  Er  Er19  1  0.301772  0.003450  0.249979  1
  Sn  Sn20  1  0.293070  0.035969  0.041746  1
  Sn  Sn21  1  0.793070  0.464031  0.458254  1
  Sn  Sn22  1  0.707144  0.964205  0.541801  1
  Sn  Sn23  1  0.207144  0.535795  0.958199  1
  Sn  Sn24  1  0.706833  0.964137  0.958227  1
  Sn  Sn25  1  0.206833  0.535863  0.541773  1
  Sn  Sn26  1  0.292927  0.036048  0.458330  1
  Sn  Sn27  1  0.792927  0.463952  0.041670  1
  Sn  Sn28  1  0.564892  0.619953  0.750002  1
  Sn  Sn29  1  0.064892  0.880047  0.749998  1
  Sn  Sn30  1  0.435081  0.380001  0.249991  1
  Sn  Sn31  1  0.935081  0.119999  0.250009  1
  Sn  Sn32  1  0.330048  0.147309  0.750070  1
  Sn  Sn33  1  0.830048  0.352691  0.749930  1
  Sn  Sn34  1  0.670045  0.852877  0.249994  1
  Sn  Sn35  1  0.170045  0.647123  0.250006  1
