# generated using pymatgen
data_Y4Ti(Sn3Ir2)3
_symmetry_space_group_name_H-M   'P 1'
_cell_length_a   13.27211900
_cell_length_b   13.27211956
_cell_length_c   7.29163245
_cell_angle_alpha   91.09576011
_cell_angle_beta   88.90424052
_cell_angle_gamma   160.73555227
_symmetry_Int_Tables_number   1
_chemical_formula_structural   Y4Ti(Sn3Ir2)3
_chemical_formula_sum   'Y4 Ti1 Sn9 Ir6'
_cell_volume   423.68559445
_cell_formula_units_Z   1
loop_
 _symmetry_equiv_pos_site_id
 _symmetry_equiv_pos_as_xyz
  1  'x, y, z'
loop_
 _atom_site_type_symbol
 _atom_site_label
 _atom_site_symmetry_multiplicity
 _atom_site_fract_x
 _atom_site_fract_y
 _atom_site_fract_z
 _atom_site_occupancy
  Y  Y0  1  0.477059  0.522941  0.235466  1
  Y  Y1  1  0.173010  0.826990  0.262275  1
  Y  Y2  1  0.525288  0.474712  0.732448  1
  Y  Y3  1  0.826368  0.173632  0.756331  1
  Ti  Ti4  1  0.704353  0.295647  0.570229  1
  Sn  Sn5  1  0.598891  0.401109  0.104256  1
  Sn  Sn6  1  0.048471  0.951529  0.394458  1
  Sn  Sn7  1  0.952701  0.047299  0.897155  1
  Sn  Sn8  1  0.708419  0.291581  0.976562  1
  Sn  Sn9  1  0.284938  0.715062  0.480592  1
  Sn  Sn10  1  0.294481  0.705519  0.054380  1
  Sn  Sn11  1  0.877856  0.122144  0.234898  1
  Sn  Sn12  1  0.123741  0.876259  0.717631  1
  Sn  Sn13  1  0.401002  0.598998  0.609964  1
  Ir  Ir14  1  0.394582  0.605418  0.982885  1
  Ir  Ir15  1  0.770348  0.229652  0.275298  1
  Ir  Ir16  1  0.224994  0.775006  0.775410  1
  Ir  Ir17  1  0.051860  0.948140  0.011508  1
  Ir  Ir18  1  0.612268  0.387732  0.475308  1
  Ir  Ir19  1  0.949365  0.050635  0.516749  1
