# generated using pymatgen
data_K3Gd(VS4)2
_symmetry_space_group_name_H-M   'P 1'
_cell_length_a   10.72923057
_cell_length_b   10.72923110
_cell_length_c   8.91822500
_cell_angle_alpha   77.09393579
_cell_angle_beta   102.90606486
_cell_angle_gamma   58.48619976
_symmetry_Int_Tables_number   1
_chemical_formula_structural   K3Gd(VS4)2
_chemical_formula_sum   'K6 Gd2 V4 S16'
_cell_volume   778.38573962
_cell_formula_units_Z   2
loop_
 _symmetry_equiv_pos_site_id
 _symmetry_equiv_pos_as_xyz
  1  'x, y, z'
loop_
 _atom_site_type_symbol
 _atom_site_label
 _atom_site_symmetry_multiplicity
 _atom_site_fract_x
 _atom_site_fract_y
 _atom_site_fract_z
 _atom_site_occupancy
  K  K0  1  0.737980  0.737839  0.749985  1
  K  K1  1  0.261995  0.262116  0.249954  1
  K  K2  1  0.500004  0.499999  0.000010  1
  K  K3  1  0.499984  0.500019  0.499961  1
  K  K4  1  0.005397  0.005431  0.249957  1
  K  K5  1  0.994604  0.994564  0.749998  1
  Gd  Gd6  1  0.757703  0.757825  0.249899  1
  Gd  Gd7  1  0.242281  0.242169  0.750053  1
  V  V8  1  0.347324  0.903264  0.101342  1
  V  V9  1  0.903172  0.347350  0.398962  1
  V  V10  1  0.652759  0.096740  0.898745  1
  V  V11  1  0.096766  0.652674  0.601066  1
  S  S12  1  0.522531  0.134966  0.055753  1
  S  S13  1  0.135069  0.522401  0.444148  1
  S  S14  1  0.477478  0.864991  0.944243  1
  S  S15  1  0.864964  0.477568  0.555897  1
  S  S16  1  0.863327  0.846319  0.020059  1
  S  S17  1  0.846379  0.863299  0.479780  1
  S  S18  1  0.136698  0.153646  0.979920  1
  S  S19  1  0.153626  0.136704  0.520233  1
  S  S20  1  0.269228  0.756591  0.125728  1
  S  S21  1  0.756485  0.269264  0.374410  1
  S  S22  1  0.730778  0.243466  0.874297  1
  S  S23  1  0.243480  0.730716  0.625574  1
  S  S24  1  0.851364  0.500041  0.153225  1
  S  S25  1  0.499994  0.851493  0.346937  1
  S  S26  1  0.148604  0.499978  0.846758  1
  S  S27  1  0.500032  0.148565  0.653106  1
