# generated using pymatgen
data_Y2Er6CdInPd2
_symmetry_space_group_name_H-M   'P 1'
_cell_length_a   9.65711653
_cell_length_b   9.65684743
_cell_length_c   9.65407600
_cell_angle_alpha   60.01133791
_cell_angle_beta   60.00857488
_cell_angle_gamma   60.11566660
_symmetry_Int_Tables_number   1
_chemical_formula_structural   Y2Er6CdInPd2
_chemical_formula_sum   'Y4 Er12 Cd2 In2 Pd4'
_cell_volume   637.26815035
_cell_formula_units_Z   2
loop_
 _symmetry_equiv_pos_site_id
 _symmetry_equiv_pos_as_xyz
  1  'x, y, z'
loop_
 _atom_site_type_symbol
 _atom_site_label
 _atom_site_symmetry_multiplicity
 _atom_site_fract_x
 _atom_site_fract_y
 _atom_site_fract_z
 _atom_site_occupancy
  Y  Y0  1  0.565291  0.936936  0.565436  1
  Y  Y1  1  0.936936  0.565291  0.932337  1
  Y  Y2  1  0.566173  0.566173  0.933827  1
  Y  Y3  1  0.937035  0.937035  0.562965  1
  Er  Er4  1  0.351961  0.352336  0.352787  1
  Er  Er5  1  0.352336  0.351961  0.942916  1
  Er  Er6  1  0.354882  0.938984  0.352432  1
  Er  Er7  1  0.938984  0.354882  0.353702  1
  Er  Er8  1  0.809925  0.190111  0.189987  1
  Er  Er9  1  0.190111  0.809925  0.809978  1
  Er  Er10  1  0.190086  0.810692  0.189370  1
  Er  Er11  1  0.810692  0.190086  0.809852  1
  Er  Er12  1  0.188689  0.188689  0.811311  1
  Er  Er13  1  0.809226  0.809226  0.190774  1
  Er  Er14  1  0.938554  0.563622  0.563494  1
  Er  Er15  1  0.563622  0.938554  0.934329  1
  Cd  Cd16  1  0.580404  0.252457  0.583763  1
  Cd  Cd17  1  0.252457  0.580404  0.583377  1
  In  In18  1  0.582735  0.582226  0.584057  1
  In  In19  1  0.582226  0.582735  0.250982  1
  Pd  Pd20  1  0.143322  0.143834  0.145573  1
  Pd  Pd21  1  0.143834  0.143322  0.567270  1
  Pd  Pd22  1  0.141984  0.568535  0.145451  1
  Pd  Pd23  1  0.568535  0.141984  0.144029  1
