# generated using pymatgen
data_Th2Mn5(PRh)7
_symmetry_space_group_name_H-M   'P 1'
_cell_length_a   9.50696589
_cell_length_b   9.49886413
_cell_length_c   3.85036000
_cell_angle_alpha   90.00000000
_cell_angle_beta   90.00000000
_cell_angle_gamma   119.91145347
_symmetry_Int_Tables_number   1
_chemical_formula_structural   Th2Mn5(PRh)7
_chemical_formula_sum   'Th2 Mn5 P7 Rh7'
_cell_volume   301.39246453
_cell_formula_units_Z   1
loop_
 _symmetry_equiv_pos_site_id
 _symmetry_equiv_pos_as_xyz
  1  'x, y, z'
loop_
 _atom_site_type_symbol
 _atom_site_label
 _atom_site_symmetry_multiplicity
 _atom_site_fract_x
 _atom_site_fract_y
 _atom_site_fract_z
 _atom_site_occupancy
  Th  Th0  1  0.333993  0.667817  0.000000  1
  Th  Th1  1  0.999733  0.999496  0.500000  1
  Mn  Mn2  1  0.552984  0.067777  0.000000  1
  Mn  Mn3  1  0.934640  0.485813  0.000000  1
  Mn  Mn4  1  0.510792  0.446071  0.000000  1
  Mn  Mn5  1  0.769581  0.558117  0.500000  1
  Mn  Mn6  1  0.437293  0.210045  0.500000  1
  P  P7  1  0.770107  0.037283  0.000000  1
  P  P8  1  0.960006  0.730715  0.000000  1
  P  P9  1  0.266644  0.226297  0.000000  1
  P  P10  1  0.390094  0.945760  0.500000  1
  P  P11  1  0.059059  0.450493  0.500000  1
  P  P12  1  0.555181  0.608460  0.500000  1
  P  P13  1  0.668686  0.337131  0.000000  1
  Rh  Rh14  1  0.033861  0.268372  0.000000  1
  Rh  Rh15  1  0.730987  0.762486  0.000000  1
  Rh  Rh16  1  0.235595  0.966208  0.000000  1
  Rh  Rh17  1  0.610413  0.890408  0.500000  1
  Rh  Rh18  1  0.105325  0.718324  0.500000  1
  Rh  Rh19  1  0.280170  0.389365  0.500000  1
  Rh  Rh20  1  0.794857  0.233562  0.500000  1
