# generated using pymatgen
data_Rb2Ti6Tl4S27
_symmetry_space_group_name_H-M   'P 1'
_cell_length_a   10.42205051
_cell_length_b   10.51482466
_cell_length_c   10.27038700
_cell_angle_alpha   83.67973230
_cell_angle_beta   82.31581468
_cell_angle_gamma   83.04184088
_symmetry_Int_Tables_number   1
_chemical_formula_structural   Rb2Ti6Tl4S27
_chemical_formula_sum   'Rb2 Ti6 Tl4 S27'
_cell_volume   1102.11516186
_cell_formula_units_Z   1
loop_
 _symmetry_equiv_pos_site_id
 _symmetry_equiv_pos_as_xyz
  1  'x, y, z'
loop_
 _atom_site_type_symbol
 _atom_site_label
 _atom_site_symmetry_multiplicity
 _atom_site_fract_x
 _atom_site_fract_y
 _atom_site_fract_z
 _atom_site_occupancy
  Rb  Rb0  1  0.651505  0.649686  0.657673  1
  Rb  Rb1  1  0.422484  0.782103  0.164010  1
  Ti  Ti2  1  0.873525  0.522232  0.176140  1
  Ti  Ti3  1  0.006382  0.722628  0.330979  1
  Ti  Ti4  1  0.518275  0.178480  0.873442  1
  Ti  Ti5  1  0.722046  0.329427  0.004731  1
  Ti  Ti6  1  0.329232  0.006062  0.721063  1
  Ti  Ti7  1  0.176725  0.870979  0.519682  1
  Tl  Tl8  1  0.769436  0.205620  0.382013  1
  Tl  Tl9  1  0.247441  0.255204  0.250266  1
  Tl  Tl10  1  0.191528  0.376711  0.780694  1
  Tl  Tl11  1  0.984720  0.987956  0.990485  1
  S  S12  1  0.909439  0.302575  0.122122  1
  S  S13  1  0.401806  0.910752  0.492087  1
  S  S14  1  0.826420  0.777615  0.204436  1
  S  S15  1  0.722190  0.498206  0.372979  1
  S  S16  1  0.779128  0.203304  0.822733  1
  S  S17  1  0.392998  0.800069  0.827293  1
  S  S18  1  0.191025  0.548660  0.313725  1
  S  S19  1  0.598375  0.147302  0.099043  1
  S  S20  1  0.310462  0.191012  0.550291  1
  S  S21  1  0.034921  0.703148  0.574253  1
  S  S22  1  0.701422  0.567605  0.035640  1
  S  S23  1  0.299049  0.125505  0.913981  1
  S  S24  1  0.492447  0.369007  0.723103  1
  S  S25  1  0.961305  0.879626  0.642210  1
  S  S26  1  0.124492  0.905445  0.299780  1
  S  S27  1  0.368617  0.719780  0.499797  1
  S  S28  1  0.634978  0.964794  0.877781  1
  S  S29  1  0.878037  0.633801  0.957685  1
  S  S30  1  0.144338  0.094864  0.600225  1
  S  S31  1  0.916545  0.495194  0.401678  1
  S  S32  1  0.794720  0.824040  0.397462  1
  S  S33  1  0.202823  0.829957  0.784014  1
  S  S34  1  0.491473  0.400110  0.919475  1
  S  S35  1  0.826580  0.390280  0.791359  1
  S  S36  1  0.568872  0.037839  0.699424  1
  S  S37  1  0.551226  0.312172  0.198834  1
  S  S38  1  0.099758  0.596992  0.144152  1
