# generated using pymatgen
data_Ta5NbAl3Zn(AuC)2
_symmetry_space_group_name_H-M   'P 1'
_cell_length_a   8.43900998
_cell_length_b   8.43900938
_cell_length_c   8.43195200
_cell_angle_alpha   59.89369668
_cell_angle_beta   59.89369906
_cell_angle_gamma   59.94107986
_symmetry_Int_Tables_number   1
_chemical_formula_structural   Ta5NbAl3Zn(AuC)2
_chemical_formula_sum   'Ta10 Nb2 Al6 Zn2 Au4 C4'
_cell_volume   423.74372920
_cell_formula_units_Z   2
loop_
 _symmetry_equiv_pos_site_id
 _symmetry_equiv_pos_as_xyz
  1  'x, y, z'
loop_
 _atom_site_type_symbol
 _atom_site_label
 _atom_site_symmetry_multiplicity
 _atom_site_fract_x
 _atom_site_fract_y
 _atom_site_fract_z
 _atom_site_occupancy
  Ta  Ta0  1  0.677572  0.322406  0.322714  1
  Ta  Ta1  1  0.321037  0.678542  0.321219  1
  Ta  Ta2  1  0.679680  0.678707  0.322162  1
  Ta  Ta3  1  0.321033  0.320967  0.678987  1
  Ta  Ta4  1  0.571332  0.570615  0.928671  1
  Ta  Ta5  1  0.931737  0.568806  0.569287  1
  Ta  Ta6  1  0.572192  0.927904  0.927519  1
  Ta  Ta7  1  0.930242  0.928139  0.570774  1
  Ta  Ta8  1  0.680431  0.320997  0.680020  1
  Ta  Ta9  1  0.929842  0.570848  0.927689  1
  Nb  Nb10  1  0.568989  0.931038  0.568616  1
  Nb  Nb11  1  0.319126  0.681820  0.682251  1
  Al  Al12  1  0.332659  0.993290  0.337680  1
  Al  Al13  1  0.331773  0.337655  0.993555  1
  Al  Al14  1  0.913112  0.255773  0.914487  1
  Al  Al15  1  0.911712  0.914322  0.256575  1
  Al  Al16  1  0.257256  0.913085  0.911903  1
  Al  Al17  1  0.333900  0.335923  0.336830  1
  Zn  Zn18  1  0.913483  0.912681  0.913882  1
  Zn  Zn19  1  0.990375  0.336179  0.335204  1
  Au  Au20  1  0.126975  0.121732  0.122348  1
  Au  Au21  1  0.621165  0.128229  0.125568  1
  Au  Au22  1  0.128167  0.624907  0.127029  1
  Au  Au23  1  0.126008  0.127496  0.625098  1
  C  C24  1  0.628863  0.622567  0.624394  1
  C  C25  1  0.125360  0.624960  0.625161  1
  C  C26  1  0.628282  0.125480  0.625401  1
  C  C27  1  0.627697  0.624935  0.124978  1
