# generated using pymatgen
data_Li4ZnIn3
_symmetry_space_group_name_H-M   'P 1'
_cell_length_a   8.25851161
_cell_length_b   8.25851135
_cell_length_c   8.25851120
_cell_angle_alpha   33.11003805
_cell_angle_beta   33.11003639
_cell_angle_gamma   33.11003904
_symmetry_Int_Tables_number   1
_chemical_formula_structural   Li4ZnIn3
_chemical_formula_sum   'Li4 Zn1 In3'
_cell_volume   149.59311789
_cell_formula_units_Z   1
loop_
 _symmetry_equiv_pos_site_id
 _symmetry_equiv_pos_as_xyz
  1  'x, y, z'
loop_
 _atom_site_type_symbol
 _atom_site_label
 _atom_site_symmetry_multiplicity
 _atom_site_fract_x
 _atom_site_fract_y
 _atom_site_fract_z
 _atom_site_occupancy
  Li  Li0  1  0.125437  0.125437  0.125437  1
  Li  Li1  1  0.623433  0.623433  0.623433  1
  Li  Li2  1  0.003948  0.003948  0.003948  1
  Li  Li3  1  0.494216  0.494216  0.494216  1
  Zn  Zn4  1  0.377462  0.377462  0.377462  1
  In  In5  1  0.872840  0.872840  0.872840  1
  In  In6  1  0.744768  0.744768  0.744768  1
  In  In7  1  0.257897  0.257897  0.257897  1
