# generated using pymatgen
data_Ce6DyYF30
_symmetry_space_group_name_H-M   'P 1'
_cell_length_a   8.61050541
_cell_length_b   8.61050408
_cell_length_c   8.59753002
_cell_angle_alpha   79.66735726
_cell_angle_beta   79.66735295
_cell_angle_gamma   100.28787272
_symmetry_Int_Tables_number   1
_chemical_formula_structural   Ce6DyYF30
_chemical_formula_sum   'Ce6 Dy1 Y1 F30'
_cell_volume   602.11484597
_cell_formula_units_Z   1
loop_
 _symmetry_equiv_pos_site_id
 _symmetry_equiv_pos_as_xyz
  1  'x, y, z'
loop_
 _atom_site_type_symbol
 _atom_site_label
 _atom_site_symmetry_multiplicity
 _atom_site_fract_x
 _atom_site_fract_y
 _atom_site_fract_z
 _atom_site_occupancy
  Ce  Ce0  1  0.749626  0.250374  0.250000  1
  Ce  Ce1  1  0.250383  0.749617  0.750000  1
  Ce  Ce2  1  0.754511  0.678569  0.673118  1
  Ce  Ce3  1  0.321431  0.245489  0.826882  1
  Ce  Ce4  1  0.245533  0.321438  0.326782  1
  Ce  Ce5  1  0.678562  0.754467  0.173218  1
  Dy  Dy6  1  0.178592  0.821408  0.250000  1
  Y  Y7  1  0.821384  0.178616  0.750000  1
  F  F8  1  0.317761  0.349944  0.053028  1
  F  F9  1  0.944120  0.814699  0.155220  1
  F  F10  1  0.844846  0.451532  0.683049  1
  F  F11  1  0.451052  0.844768  0.183187  1
  F  F12  1  0.814706  0.943720  0.655044  1
  F  F13  1  0.349950  0.317763  0.553029  1
  F  F14  1  0.682237  0.650050  0.946970  1
  F  F15  1  0.056280  0.185294  0.844956  1
  F  F16  1  0.155232  0.548948  0.316813  1
  F  F17  1  0.548468  0.155154  0.816951  1
  F  F18  1  0.185301  0.055880  0.344780  1
  F  F19  1  0.650056  0.682239  0.446972  1
  F  F20  1  0.776323  0.276708  0.990422  1
  F  F21  1  0.010967  0.276069  0.216709  1
  F  F22  1  0.779632  0.510353  0.223480  1
  F  F23  1  0.510335  0.779638  0.723486  1
  F  F24  1  0.276063  0.010945  0.716707  1
  F  F25  1  0.276539  0.776409  0.490121  1
  F  F26  1  0.223591  0.723461  0.009879  1
  F  F27  1  0.989055  0.723937  0.783293  1
  F  F28  1  0.220362  0.489665  0.776514  1
  F  F29  1  0.489647  0.220368  0.276520  1
  F  F30  1  0.723931  0.989033  0.283291  1
  F  F31  1  0.723292  0.223677  0.509578  1
  F  F32  1  0.466160  0.533840  0.250000  1
  F  F33  1  0.749895  0.962976  0.964748  1
  F  F34  1  0.037024  0.250105  0.535252  1
  F  F35  1  0.249985  0.036671  0.035604  1
  F  F36  1  0.963329  0.750015  0.464396  1
  F  F37  1  0.533839  0.466161  0.750000  1
