# generated using pymatgen
data_Er2TmZnSn3Rh2
_symmetry_space_group_name_H-M   'P 1'
_cell_length_a   7.57009984
_cell_length_b   7.56378710
_cell_length_c   3.84910900
_cell_angle_alpha   90.00000000
_cell_angle_beta   90.00000000
_cell_angle_gamma   119.94763892
_symmetry_Int_Tables_number   1
_chemical_formula_structural   Er2TmZnSn3Rh2
_chemical_formula_sum   'Er2 Tm1 Zn1 Sn3 Rh2'
_cell_volume   190.96802124
_cell_formula_units_Z   1
loop_
 _symmetry_equiv_pos_site_id
 _symmetry_equiv_pos_as_xyz
  1  'x, y, z'
loop_
 _atom_site_type_symbol
 _atom_site_label
 _atom_site_symmetry_multiplicity
 _atom_site_fract_x
 _atom_site_fract_y
 _atom_site_fract_z
 _atom_site_occupancy
  Er  Er0  1  0.016188  0.407647  0.000000  1
  Er  Er1  1  0.592336  0.608745  0.000000  1
  Tm  Tm2  1  0.390788  0.982980  0.000000  1
  Zn  Zn3  1  0.666358  0.332957  0.500000  1
  Sn  Sn4  1  0.262931  0.259488  0.500000  1
  Sn  Sn5  1  0.997072  0.737190  0.500000  1
  Sn  Sn6  1  0.739917  0.003037  0.500000  1
  Rh  Rh7  1  0.333762  0.667834  0.500000  1
  Rh  Rh8  1  0.000648  0.000123  0.000000  1
