# generated using pymatgen
data_Yb2Zn12Ir5
_symmetry_space_group_name_H-M   'P 1'
_cell_length_a   6.89460643
_cell_length_b   6.89460513
_cell_length_c   6.69291691
_cell_angle_alpha   82.91570353
_cell_angle_beta   82.91570407
_cell_angle_gamma   85.15906390
_symmetry_Int_Tables_number   1
_chemical_formula_structural   Yb2Zn12Ir5
_chemical_formula_sum   'Yb2 Zn12 Ir5'
_cell_volume   312.53858336
_cell_formula_units_Z   1
loop_
 _symmetry_equiv_pos_site_id
 _symmetry_equiv_pos_as_xyz
  1  'x, y, z'
loop_
 _atom_site_type_symbol
 _atom_site_label
 _atom_site_symmetry_multiplicity
 _atom_site_fract_x
 _atom_site_fract_y
 _atom_site_fract_z
 _atom_site_occupancy
  Yb  Yb0  1  0.645912  0.645912  0.645438  1
  Yb  Yb1  1  0.354088  0.354088  0.354562  1
  Zn  Zn2  1  0.674497  0.325503  0.000000  1
  Zn  Zn3  1  0.995726  0.712260  0.287070  1
  Zn  Zn4  1  0.287740  0.004274  0.712930  1
  Zn  Zn5  1  0.004274  0.287740  0.712930  1
  Zn  Zn6  1  0.712260  0.995726  0.287070  1
  Zn  Zn7  1  0.325503  0.674497  0.000000  1
  Zn  Zn8  1  0.845281  0.342104  0.346919  1
  Zn  Zn9  1  0.342104  0.845281  0.346919  1
  Zn  Zn10  1  0.154719  0.657896  0.653081  1
  Zn  Zn11  1  0.657896  0.154719  0.653081  1
  Zn  Zn12  1  0.869046  0.869046  0.882413  1
  Zn  Zn13  1  0.130954  0.130954  0.117587  1
  Ir  Ir14  1  0.000000  0.000000  0.500000  1
  Ir  Ir15  1  0.500000  0.000000  0.000000  1
  Ir  Ir16  1  0.000000  0.500000  0.000000  1
  Ir  Ir17  1  0.349334  0.349334  0.826119  1
  Ir  Ir18  1  0.650666  0.650666  0.173881  1
