# generated using pymatgen
data_Eu5Nb3(Ni4P3)4
_symmetry_space_group_name_H-M   'P 1'
_cell_length_a   12.32459200
_cell_length_b   12.32459047
_cell_length_c   3.81359300
_cell_angle_alpha   90.00000000
_cell_angle_beta   90.00000000
_cell_angle_gamma   120.00000410
_symmetry_Int_Tables_number   1
_chemical_formula_structural   Eu5Nb3(Ni4P3)4
_chemical_formula_sum   'Eu5 Nb3 Ni16 P12'
_cell_volume   501.66061223
_cell_formula_units_Z   1
loop_
 _symmetry_equiv_pos_site_id
 _symmetry_equiv_pos_as_xyz
  1  'x, y, z'
loop_
 _atom_site_type_symbol
 _atom_site_label
 _atom_site_symmetry_multiplicity
 _atom_site_fract_x
 _atom_site_fract_y
 _atom_site_fract_z
 _atom_site_occupancy
  Eu  Eu0  1  0.185970  0.185970  0.500000  1
  Eu  Eu1  1  0.814030  0.000000  0.500000  1
  Eu  Eu2  1  0.000000  0.814030  0.500000  1
  Eu  Eu3  1  0.333333  0.666667  0.000000  1
  Eu  Eu4  1  0.666667  0.333333  0.000000  1
  Nb  Nb5  1  0.561926  0.561926  0.000000  1
  Nb  Nb6  1  0.438074  0.000000  0.000000  1
  Nb  Nb7  1  0.000000  0.438074  0.000000  1
  Ni  Ni8  1  0.721810  0.721810  0.500000  1
  Ni  Ni9  1  0.278190  0.000000  0.500000  1
  Ni  Ni10  1  0.000000  0.278190  0.500000  1
  Ni  Ni11  1  0.185189  0.379472  0.000000  1
  Ni  Ni12  1  0.620528  0.805716  0.000000  1
  Ni  Ni13  1  0.194284  0.814811  0.000000  1
  Ni  Ni14  1  0.805716  0.620528  0.000000  1
  Ni  Ni15  1  0.814811  0.194284  0.000000  1
  Ni  Ni16  1  0.379472  0.185189  0.000000  1
  Ni  Ni17  1  0.361698  0.483967  0.500000  1
  Ni  Ni18  1  0.516033  0.877733  0.500000  1
  Ni  Ni19  1  0.122267  0.638302  0.500000  1
  Ni  Ni20  1  0.877733  0.516033  0.500000  1
  Ni  Ni21  1  0.638302  0.122267  0.500000  1
  Ni  Ni22  1  0.483967  0.361698  0.500000  1
  Ni  Ni23  1  0.000000  0.000000  0.000000  1
  P  P24  1  0.819071  0.819071  0.000000  1
  P  P25  1  0.180929  0.000000  0.000000  1
  P  P26  1  0.000000  0.180929  0.000000  1
  P  P27  1  0.167141  0.475874  0.500000  1
  P  P28  1  0.524126  0.691266  0.500000  1
  P  P29  1  0.308734  0.832859  0.500000  1
  P  P30  1  0.691266  0.524126  0.500000  1
  P  P31  1  0.832859  0.308734  0.500000  1
  P  P32  1  0.475874  0.167141  0.500000  1
  P  P33  1  0.363763  0.363763  0.000000  1
  P  P34  1  0.636237  0.000000  0.000000  1
  P  P35  1  0.000000  0.636237  0.000000  1
