# generated using pymatgen
data_HoSc15(AlCo)4
_symmetry_space_group_name_H-M   'P 1'
_cell_length_a   8.84324868
_cell_length_b   8.84309410
_cell_length_c   8.84135100
_cell_angle_alpha   60.01371298
_cell_angle_beta   60.01364759
_cell_angle_gamma   59.96245583
_symmetry_Int_Tables_number   1
_chemical_formula_structural   HoSc15(AlCo)4
_chemical_formula_sum   'Ho1 Sc15 Al4 Co4'
_cell_volume   488.86175308
_cell_formula_units_Z   1
loop_
 _symmetry_equiv_pos_site_id
 _symmetry_equiv_pos_as_xyz
  1  'x, y, z'
loop_
 _atom_site_type_symbol
 _atom_site_label
 _atom_site_symmetry_multiplicity
 _atom_site_fract_x
 _atom_site_fract_y
 _atom_site_fract_z
 _atom_site_occupancy
  Ho  Ho0  1  0.938123  0.938115  0.561880  1
  Sc  Sc1  1  0.350758  0.350708  0.349328  1
  Sc  Sc2  1  0.350742  0.350687  0.949243  1
  Sc  Sc3  1  0.354027  0.948947  0.348504  1
  Sc  Sc4  1  0.948892  0.354025  0.348538  1
  Sc  Sc5  1  0.807638  0.193723  0.187911  1
  Sc  Sc6  1  0.193717  0.807665  0.810699  1
  Sc  Sc7  1  0.193718  0.807659  0.187916  1
  Sc  Sc8  1  0.807652  0.193718  0.810726  1
  Sc  Sc9  1  0.191233  0.191233  0.808761  1
  Sc  Sc10  1  0.808942  0.808991  0.191040  1
  Sc  Sc11  1  0.938429  0.558098  0.561921  1
  Sc  Sc12  1  0.558128  0.938398  0.941555  1
  Sc  Sc13  1  0.558117  0.938421  0.561899  1
  Sc  Sc14  1  0.938409  0.558102  0.941552  1
  Sc  Sc15  1  0.562391  0.562351  0.937634  1
  Al  Al16  1  0.580418  0.580434  0.580769  1
  Al  Al17  1  0.580440  0.580453  0.258360  1
  Al  Al18  1  0.575136  0.262168  0.581369  1
  Al  Al19  1  0.262176  0.575135  0.581365  1
  Co  Co20  1  0.141950  0.141971  0.140700  1
  Co  Co21  1  0.141963  0.141975  0.575348  1
  Co  Co22  1  0.142076  0.574924  0.141497  1
  Co  Co23  1  0.574929  0.142097  0.141484  1
