# generated using pymatgen
data_Tb3SmZr4F28
_symmetry_space_group_name_H-M   'P 1'
_cell_length_a   5.79251266
_cell_length_b   9.17425703
_cell_length_c   12.32975277
_cell_angle_alpha   62.29502395
_cell_angle_beta   89.99332948
_cell_angle_gamma   90.04495907
_symmetry_Int_Tables_number   1
_chemical_formula_structural   Tb3SmZr4F28
_chemical_formula_sum   'Tb3 Sm1 Zr4 F28'
_cell_volume   580.10772945
_cell_formula_units_Z   1
loop_
 _symmetry_equiv_pos_site_id
 _symmetry_equiv_pos_as_xyz
  1  'x, y, z'
loop_
 _atom_site_type_symbol
 _atom_site_label
 _atom_site_symmetry_multiplicity
 _atom_site_fract_x
 _atom_site_fract_y
 _atom_site_fract_z
 _atom_site_occupancy
  Tb  Tb0  1  0.743264  0.816112  0.266240  1
  Tb  Tb1  1  0.243303  0.185004  0.233682  1
  Tb  Tb2  1  0.256991  0.186783  0.733489  1
  Sm  Sm3  1  0.756749  0.815631  0.766424  1
  Zr  Zr4  1  0.744399  0.275782  0.454051  1
  Zr  Zr5  1  0.244803  0.725569  0.046764  1
  Zr  Zr6  1  0.255080  0.725861  0.542984  1
  Zr  Zr7  1  0.755191  0.272460  0.956089  1
  F  F8  1  0.463902  0.710605  0.923081  1
  F  F9  1  0.965966  0.288347  0.577976  1
  F  F10  1  0.532768  0.287135  0.078920  1
  F  F11  1  0.032592  0.711703  0.420286  1
  F  F12  1  0.455652  0.281677  0.549332  1
  F  F13  1  0.956276  0.717071  0.953250  1
  F  F14  1  0.545447  0.718913  0.449506  1
  F  F15  1  0.044207  0.279982  0.050526  1
  F  F16  1  0.767159  0.521957  0.859283  1
  F  F17  1  0.266903  0.475617  0.640550  1
  F  F18  1  0.233959  0.475023  0.142300  1
  F  F19  1  0.733267  0.525588  0.357906  1
  F  F20  1  0.759911  0.023157  0.058837  1
  F  F21  1  0.259861  0.975441  0.440860  1
  F  F22  1  0.239748  0.974761  0.942258  1
  F  F23  1  0.739873  0.026244  0.556106  1
  F  F24  1  0.986060  0.732810  0.647092  1
  F  F25  1  0.485757  0.265668  0.851523  1
  F  F26  1  0.013753  0.265654  0.350465  1
  F  F27  1  0.514699  0.734396  0.150134  1
  F  F28  1  0.033278  0.746599  0.172878  1
  F  F29  1  0.532665  0.253721  0.328094  1
  F  F30  1  0.966440  0.252689  0.828965  1
  F  F31  1  0.462974  0.744963  0.670705  1
  F  F32  1  0.428823  0.973662  0.235096  1
  F  F33  1  0.929874  0.027065  0.264880  1
  F  F34  1  0.570972  0.031426  0.765393  1
  F  F35  1  0.077435  0.974921  0.734074  1
