# generated using pymatgen
data_Pr4Al15Ga(SiIr3)2
_symmetry_space_group_name_H-M   'P 1'
_cell_length_a   7.60583791
_cell_length_b   7.58753926
_cell_length_c   9.62586400
_cell_angle_alpha   89.97601631
_cell_angle_beta   89.89044196
_cell_angle_gamma   119.62324024
_symmetry_Int_Tables_number   1
_chemical_formula_structural   Pr4Al15Ga(SiIr3)2
_chemical_formula_sum   'Pr4 Al15 Ga1 Si2 Ir6'
_cell_volume   482.89570704
_cell_formula_units_Z   1
loop_
 _symmetry_equiv_pos_site_id
 _symmetry_equiv_pos_as_xyz
  1  'x, y, z'
loop_
 _atom_site_type_symbol
 _atom_site_label
 _atom_site_symmetry_multiplicity
 _atom_site_fract_x
 _atom_site_fract_y
 _atom_site_fract_z
 _atom_site_occupancy
  Pr  Pr0  1  0.994659  0.667705  0.244159  1
  Pr  Pr1  1  0.004799  0.334586  0.755737  1
  Pr  Pr2  1  0.677025  0.999929  0.246819  1
  Pr  Pr3  1  0.326130  0.000172  0.752915  1
  Al  Al4  1  0.867880  0.869642  0.749769  1
  Al  Al5  1  0.996768  0.665397  0.566650  1
  Al  Al6  1  0.335644  0.000961  0.428477  1
  Al  Al7  1  0.002933  0.334616  0.433636  1
  Al  Al8  1  0.664875  0.998469  0.572296  1
  Al  Al9  1  0.661056  0.993523  0.924452  1
  Al  Al10  1  0.339148  0.006480  0.074868  1
  Al  Al11  1  0.334414  0.333396  0.551902  1
  Al  Al12  1  0.664640  0.665776  0.449777  1
  Al  Al13  1  0.660956  0.664488  0.051608  1
  Al  Al14  1  0.337833  0.334749  0.946997  1
  Al  Al15  1  0.338658  0.546911  0.249787  1
  Al  Al16  1  0.659860  0.453282  0.750106  1
  Al  Al17  1  0.546485  0.340746  0.250301  1
  Al  Al18  1  0.454408  0.658670  0.749748  1
  Ga  Ga19  1  0.137503  0.133091  0.251218  1
  Si  Si20  1  0.003997  0.329862  0.072343  1
  Si  Si21  1  0.994913  0.670980  0.926399  1
  Ir  Ir22  1  0.686760  0.337558  0.001068  1
  Ir  Ir23  1  0.311871  0.661690  0.999107  1
  Ir  Ir24  1  0.327992  0.668953  0.500037  1
  Ir  Ir25  1  0.670814  0.329886  0.499609  1
  Ir  Ir26  1  0.998905  0.999430  0.997737  1
  Ir  Ir27  1  0.999076  0.999053  0.502476  1
