# generated using pymatgen
data_Er4Al15(SiIr2)3
_symmetry_space_group_name_H-M   'P 1'
_cell_length_a   7.52790731
_cell_length_b   7.53144813
_cell_length_c   9.25845300
_cell_angle_alpha   90.00000000
_cell_angle_beta   90.00000000
_cell_angle_gamma   119.72616759
_symmetry_Int_Tables_number   1
_chemical_formula_structural   Er4Al15(SiIr2)3
_chemical_formula_sum   'Er4 Al15 Si3 Ir6'
_cell_volume   455.84118983
_cell_formula_units_Z   1
loop_
 _symmetry_equiv_pos_site_id
 _symmetry_equiv_pos_as_xyz
  1  'x, y, z'
loop_
 _atom_site_type_symbol
 _atom_site_label
 _atom_site_symmetry_multiplicity
 _atom_site_fract_x
 _atom_site_fract_y
 _atom_site_fract_z
 _atom_site_occupancy
  Er  Er0  1  0.999294  0.674173  0.250000  1
  Er  Er1  1  0.003998  0.324689  0.750000  1
  Er  Er2  1  0.668082  0.990174  0.250000  1
  Er  Er3  1  0.326315  0.004842  0.750000  1
  Al  Al4  1  0.999305  0.333910  0.077534  1
  Al  Al5  1  0.001188  0.664364  0.923746  1
  Al  Al6  1  0.001188  0.664364  0.576254  1
  Al  Al7  1  0.336517  0.003855  0.423435  1
  Al  Al8  1  0.999305  0.333910  0.422466  1
  Al  Al9  1  0.663247  0.999141  0.575774  1
  Al  Al10  1  0.663247  0.999141  0.924226  1
  Al  Al11  1  0.336517  0.003855  0.076565  1
  Al  Al12  1  0.335692  0.335346  0.561568  1
  Al  Al13  1  0.667083  0.664382  0.441514  1
  Al  Al14  1  0.667083  0.664382  0.058486  1
  Al  Al15  1  0.335692  0.335346  0.938432  1
  Al  Al16  1  0.666032  0.453116  0.750000  1
  Al  Al17  1  0.549097  0.340229  0.250000  1
  Al  Al18  1  0.448728  0.665521  0.750000  1
  Si  Si19  1  0.122379  0.126072  0.250000  1
  Si  Si20  1  0.870855  0.871407  0.750000  1
  Si  Si21  1  0.334789  0.545737  0.250000  1
  Ir  Ir22  1  0.672273  0.329226  0.000593  1
  Ir  Ir23  1  0.329326  0.670574  0.007794  1
  Ir  Ir24  1  0.329326  0.670574  0.492206  1
  Ir  Ir25  1  0.672273  0.329226  0.499407  1
  Ir  Ir26  1  0.000586  0.001223  0.000613  1
  Ir  Ir27  1  0.000586  0.001223  0.499387  1
