# generated using pymatgen
data_Nb4V4GaP3
_symmetry_space_group_name_H-M   'P 1'
_cell_length_a   3.42682900
_cell_length_b   6.49465942
_cell_length_c   7.83873572
_cell_angle_alpha   89.70608528
_cell_angle_beta   90.00000000
_cell_angle_gamma   90.00000000
_symmetry_Int_Tables_number   1
_chemical_formula_structural   Nb4V4GaP3
_chemical_formula_sum   'Nb4 V4 Ga1 P3'
_cell_volume   174.45729056
_cell_formula_units_Z   1
loop_
 _symmetry_equiv_pos_site_id
 _symmetry_equiv_pos_as_xyz
  1  'x, y, z'
loop_
 _atom_site_type_symbol
 _atom_site_label
 _atom_site_symmetry_multiplicity
 _atom_site_fract_x
 _atom_site_fract_y
 _atom_site_fract_z
 _atom_site_occupancy
  Nb  Nb0  1  0.250000  0.035761  0.829742  1
  Nb  Nb1  1  0.250000  0.537769  0.673307  1
  Nb  Nb2  1  0.750000  0.971307  0.160245  1
  Nb  Nb3  1  0.750000  0.446165  0.329113  1
  V  V4  1  0.250000  0.140403  0.445043  1
  V  V5  1  0.250000  0.628874  0.051316  1
  V  V6  1  0.750000  0.873994  0.567860  1
  V  V7  1  0.750000  0.366293  0.941000  1
  Ga  Ga8  1  0.250000  0.756070  0.359746  1
  P  P9  1  0.250000  0.258682  0.138925  1
  P  P10  1  0.750000  0.244696  0.641070  1
  P  P11  1  0.750000  0.739986  0.862635  1
