# generated using pymatgen
data_DyMn3CrFeP3
_symmetry_space_group_name_H-M   'P 1'
_cell_length_a   3.62298600
_cell_length_b   10.55687200
_cell_length_c   12.21379700
_cell_angle_alpha   90.00000000
_cell_angle_beta   90.00000000
_cell_angle_gamma   90.00000000
_symmetry_Int_Tables_number   1
_chemical_formula_structural   DyMn3CrFeP3
_chemical_formula_sum   'Dy4 Mn12 Cr4 Fe4 P12'
_cell_volume   467.14597278
_cell_formula_units_Z   4
loop_
 _symmetry_equiv_pos_site_id
 _symmetry_equiv_pos_as_xyz
  1  'x, y, z'
loop_
 _atom_site_type_symbol
 _atom_site_label
 _atom_site_symmetry_multiplicity
 _atom_site_fract_x
 _atom_site_fract_y
 _atom_site_fract_z
 _atom_site_occupancy
  Dy  Dy0  1  0.250000  0.583631  0.708281  1
  Dy  Dy1  1  0.250000  0.916369  0.208281  1
  Dy  Dy2  1  0.750000  0.416369  0.291719  1
  Dy  Dy3  1  0.750000  0.083631  0.791719  1
  Mn  Mn4  1  0.250000  0.408704  0.492701  1
  Mn  Mn5  1  0.250000  0.091296  0.992701  1
  Mn  Mn6  1  0.750000  0.591296  0.507299  1
  Mn  Mn7  1  0.750000  0.908704  0.007299  1
  Mn  Mn8  1  0.250000  0.217677  0.176382  1
  Mn  Mn9  1  0.250000  0.282323  0.676382  1
  Mn  Mn10  1  0.750000  0.782323  0.823618  1
  Mn  Mn11  1  0.750000  0.717677  0.323618  1
  Mn  Mn12  1  0.250000  0.878056  0.697735  1
  Mn  Mn13  1  0.250000  0.621944  0.197735  1
  Mn  Mn14  1  0.750000  0.121944  0.302265  1
  Mn  Mn15  1  0.750000  0.378056  0.802265  1
  Cr  Cr16  1  0.250000  0.705657  0.986728  1
  Cr  Cr17  1  0.250000  0.794343  0.486728  1
  Cr  Cr18  1  0.750000  0.294343  0.013272  1
  Cr  Cr19  1  0.750000  0.205657  0.513272  1
  Fe  Fe20  1  0.250000  0.463564  0.933355  1
  Fe  Fe21  1  0.250000  0.036436  0.433355  1
  Fe  Fe22  1  0.750000  0.536436  0.066645  1
  Fe  Fe23  1  0.750000  0.963564  0.566645  1
  P  P24  1  0.250000  0.421353  0.110653  1
  P  P25  1  0.250000  0.078647  0.610653  1
  P  P26  1  0.750000  0.578647  0.889347  1
  P  P27  1  0.750000  0.921353  0.389347  1
  P  P28  1  0.250000  0.264974  0.872595  1
  P  P29  1  0.250000  0.235026  0.372595  1
  P  P30  1  0.750000  0.735026  0.127405  1
  P  P31  1  0.750000  0.764974  0.627405  1
  P  P32  1  0.250000  0.595673  0.387062  1
  P  P33  1  0.250000  0.904327  0.887062  1
  P  P34  1  0.750000  0.404327  0.612938  1
  P  P35  1  0.750000  0.095673  0.112938  1
