# generated using pymatgen
data_Li2LaTbSn2
_symmetry_space_group_name_H-M   'P 1'
_cell_length_a   9.52282500
_cell_length_b   9.52282530
_cell_length_c   7.69679900
_cell_angle_alpha   90.00000000
_cell_angle_beta   90.00000000
_cell_angle_gamma   119.99999549
_symmetry_Int_Tables_number   1
_chemical_formula_structural   Li2LaTbSn2
_chemical_formula_sum   'Li8 La4 Tb4 Sn8'
_cell_volume   604.46675083
_cell_formula_units_Z   4
loop_
 _symmetry_equiv_pos_site_id
 _symmetry_equiv_pos_as_xyz
  1  'x, y, z'
loop_
 _atom_site_type_symbol
 _atom_site_label
 _atom_site_symmetry_multiplicity
 _atom_site_fract_x
 _atom_site_fract_y
 _atom_site_fract_z
 _atom_site_occupancy
  Li  Li0  1  0.166292  0.332586  0.237467  1
  Li  Li1  1  0.166292  0.833708  0.237467  1
  Li  Li2  1  0.667414  0.833708  0.237467  1
  Li  Li3  1  0.666667  0.333333  0.341567  1
  Li  Li4  1  0.832691  0.665382  0.686392  1
  Li  Li5  1  0.334618  0.167309  0.686392  1
  Li  Li6  1  0.832691  0.167309  0.686392  1
  Li  Li7  1  0.333333  0.666667  0.807943  1
  La  La8  1  0.000000  0.000000  0.999664  1
  La  La9  1  0.511221  0.022442  0.004443  1
  La  La10  1  0.511221  0.488779  0.004443  1
  La  La11  1  0.977558  0.488779  0.004443  1
  Tb  Tb12  1  0.000000  0.000000  0.500961  1
  Tb  Tb13  1  0.486892  0.973782  0.505529  1
  Tb  Tb14  1  0.026218  0.513108  0.505529  1
  Tb  Tb15  1  0.486892  0.513108  0.505529  1
  Sn  Sn16  1  0.333333  0.666667  0.243725  1
  Sn  Sn17  1  0.833074  0.666148  0.286608  1
  Sn  Sn18  1  0.333852  0.166926  0.286608  1
  Sn  Sn19  1  0.833074  0.166926  0.286608  1
  Sn  Sn20  1  0.666667  0.333333  0.724806  1
  Sn  Sn21  1  0.166467  0.332932  0.759332  1
  Sn  Sn22  1  0.166467  0.833533  0.759332  1
  Sn  Sn23  1  0.667068  0.833533  0.759332  1
