# generated using pymatgen
data_Ti18VSi16Mo
_symmetry_space_group_name_H-M   'P 1'
_cell_length_a   6.67961743
_cell_length_b   6.67961802
_cell_length_c   12.16989402
_cell_angle_alpha   90.01806387
_cell_angle_beta   89.98193312
_cell_angle_gamma   90.06573516
_symmetry_Int_Tables_number   1
_chemical_formula_structural   Ti18VSi16Mo
_chemical_formula_sum   'Ti18 V1 Si16 Mo1'
_cell_volume   542.98731592
_cell_formula_units_Z   1
loop_
 _symmetry_equiv_pos_site_id
 _symmetry_equiv_pos_as_xyz
  1  'x, y, z'
loop_
 _atom_site_type_symbol
 _atom_site_label
 _atom_site_symmetry_multiplicity
 _atom_site_fract_x
 _atom_site_fract_y
 _atom_site_fract_z
 _atom_site_occupancy
  Ti  Ti0  1  0.994783  0.147101  0.621156  1
  Ti  Ti1  1  0.350557  0.495718  0.871543  1
  Ti  Ti2  1  0.650069  0.504874  0.372239  1
  Ti  Ti3  1  0.495718  0.350557  0.128457  1
  Ti  Ti4  1  0.504874  0.650069  0.627761  1
  Ti  Ti5  1  0.004925  0.851801  0.121740  1
  Ti  Ti6  1  0.147101  0.994783  0.378844  1
  Ti  Ti7  1  0.851801  0.004925  0.878260  1
  Ti  Ti8  1  0.002610  0.345455  0.219327  1
  Ti  Ti9  1  0.154557  0.502777  0.468828  1
  Ti  Ti10  1  0.843756  0.497803  0.969406  1
  Ti  Ti11  1  0.502777  0.154557  0.531172  1
  Ti  Ti12  1  0.497803  0.843756  0.030594  1
  Ti  Ti13  1  0.996817  0.656460  0.718524  1
  Ti  Ti14  1  0.345455  0.002610  0.780673  1
  Ti  Ti15  1  0.656460  0.996817  0.281476  1
  Ti  Ti16  1  0.328831  0.671038  0.250202  1
  Ti  Ti17  1  0.671038  0.328831  0.749798  1
  V  V18  1  0.828505  0.828505  0.500000  1
  Si  Si19  1  0.044704  0.301470  0.812773  1
  Si  Si20  1  0.199256  0.544502  0.063994  1
  Si  Si21  1  0.801832  0.458032  0.563303  1
  Si  Si22  1  0.544502  0.199256  0.936006  1
  Si  Si23  1  0.458032  0.801832  0.436697  1
  Si  Si24  1  0.953468  0.700193  0.315163  1
  Si  Si25  1  0.301470  0.044704  0.187227  1
  Si  Si26  1  0.700193  0.953468  0.684837  1
  Si  Si27  1  0.295231  0.356870  0.673038  1
  Si  Si28  1  0.142160  0.794003  0.922264  1
  Si  Si29  1  0.856498  0.203654  0.423841  1
  Si  Si30  1  0.794003  0.142160  0.077736  1
  Si  Si31  1  0.203654  0.856498  0.576159  1
  Si  Si32  1  0.705223  0.642946  0.173489  1
  Si  Si33  1  0.356870  0.295231  0.326962  1
  Si  Si34  1  0.642946  0.705223  0.826511  1
  Mo  Mo35  1  0.171522  0.171522  0.000000  1
