# generated using pymatgen
data_Rb4Li2MgZrAs4
_symmetry_space_group_name_H-M   'P 1'
_cell_length_a   9.28986457
_cell_length_b   9.28986481
_cell_length_c   9.28986471
_cell_angle_alpha   138.38947986
_cell_angle_beta   137.99639615
_cell_angle_gamma   60.60820767
_symmetry_Int_Tables_number   1
_chemical_formula_structural   Rb4Li2MgZrAs4
_chemical_formula_sum   'Rb4 Li2 Mg1 Zr1 As4'
_cell_volume   352.45904460
_cell_formula_units_Z   1
loop_
 _symmetry_equiv_pos_site_id
 _symmetry_equiv_pos_as_xyz
  1  'x, y, z'
loop_
 _atom_site_type_symbol
 _atom_site_label
 _atom_site_symmetry_multiplicity
 _atom_site_fract_x
 _atom_site_fract_y
 _atom_site_fract_z
 _atom_site_occupancy
  Rb  Rb0  1  0.099243  0.312004  0.764268  1
  Rb  Rb1  1  0.452263  0.187996  0.287238  1
  Rb  Rb2  1  0.900757  0.665025  0.212762  1
  Rb  Rb3  1  0.547737  0.834975  0.735732  1
  Li  Li4  1  0.500000  0.750000  0.250000  1
  Li  Li5  1  0.500000  0.250000  0.750000  1
  Mg  Mg6  1  0.000000  0.250000  0.250000  1
  Zr  Zr7  1  0.000000  0.750000  0.750000  1
  As  As8  1  0.147226  0.901615  0.225977  1
  As  As9  1  0.852774  0.078751  0.754391  1
  As  As10  1  0.324361  0.598385  0.745609  1
  As  As11  1  0.675639  0.421249  0.274023  1
