# generated using pymatgen
data_Sr3Ca7
_symmetry_space_group_name_H-M   'P 1'
_cell_length_a   15.21258665
_cell_length_b   15.21258593
_cell_length_c   5.94943100
_cell_angle_alpha   90.00000000
_cell_angle_beta   90.00000000
_cell_angle_gamma   160.74123860
_symmetry_Int_Tables_number   1
_chemical_formula_structural   Sr3Ca7
_chemical_formula_sum   'Sr3 Ca7'
_cell_volume   454.12800956
_cell_formula_units_Z   1
loop_
 _symmetry_equiv_pos_site_id
 _symmetry_equiv_pos_as_xyz
  1  'x, y, z'
loop_
 _atom_site_type_symbol
 _atom_site_label
 _atom_site_symmetry_multiplicity
 _atom_site_fract_x
 _atom_site_fract_y
 _atom_site_fract_z
 _atom_site_occupancy
  Sr  Sr0  1  0.801619  0.198381  0.000000  1
  Sr  Sr1  1  0.198381  0.801619  0.000000  1
  Sr  Sr2  1  0.500000  0.500000  0.500000  1
  Ca  Ca3  1  0.000000  0.000000  0.000000  1
  Ca  Ca4  1  0.598730  0.401270  0.000000  1
  Ca  Ca5  1  0.401270  0.598730  0.000000  1
  Ca  Ca6  1  0.899422  0.100577  0.500000  1
  Ca  Ca7  1  0.699433  0.300567  0.500000  1
  Ca  Ca8  1  0.300567  0.699433  0.500000  1
  Ca  Ca9  1  0.100577  0.899422  0.500000  1
