# generated using pymatgen
data_TbHo15In4IrPt3
_symmetry_space_group_name_H-M   'P 1'
_cell_length_a   9.66549670
_cell_length_b   9.66546670
_cell_length_c   9.66621400
_cell_angle_alpha   60.11616428
_cell_angle_beta   60.11515448
_cell_angle_gamma   60.05225826
_symmetry_Int_Tables_number   1
_chemical_formula_structural   TbHo15In4IrPt3
_chemical_formula_sum   'Tb1 Ho15 In4 Ir1 Pt3'
_cell_volume   639.90758813
_cell_formula_units_Z   1
loop_
 _symmetry_equiv_pos_site_id
 _symmetry_equiv_pos_as_xyz
  1  'x, y, z'
loop_
 _atom_site_type_symbol
 _atom_site_label
 _atom_site_symmetry_multiplicity
 _atom_site_fract_x
 _atom_site_fract_y
 _atom_site_fract_z
 _atom_site_occupancy
  Tb  Tb0  1  0.436560  0.436565  0.064389  1
  Ho  Ho1  1  0.648271  0.648269  0.055850  1
  Ho  Ho2  1  0.187078  0.809175  0.193713  1
  Ho  Ho3  1  0.060828  0.438499  0.061297  1
  Ho  Ho4  1  0.190348  0.809836  0.808714  1
  Ho  Ho5  1  0.062556  0.439543  0.436305  1
  Ho  Ho6  1  0.809171  0.187069  0.193720  1
  Ho  Ho7  1  0.652355  0.652351  0.647776  1
  Ho  Ho8  1  0.809826  0.190351  0.808719  1
  Ho  Ho9  1  0.191244  0.191232  0.807380  1
  Ho  Ho10  1  0.051593  0.650821  0.646629  1
  Ho  Ho11  1  0.438507  0.060820  0.061308  1
  Ho  Ho12  1  0.060967  0.060960  0.436834  1
  Ho  Ho13  1  0.650828  0.051596  0.646618  1
  Ho  Ho14  1  0.810194  0.810179  0.192381  1
  Ho  Ho15  1  0.439541  0.062559  0.436300  1
  In  In16  1  0.416576  0.416574  0.416884  1
  In  In17  1  0.416913  0.416933  0.748889  1
  In  In18  1  0.416791  0.749278  0.417035  1
  In  In19  1  0.749279  0.416793  0.417027  1
  Ir  Ir20  1  0.858430  0.858441  0.426731  1
  Pt  Pt21  1  0.427302  0.858030  0.858774  1
  Pt  Pt22  1  0.856820  0.856831  0.857946  1
  Pt  Pt23  1  0.858023  0.427295  0.858780  1
