# generated using pymatgen
data_LaPr15Mg2(HgRu2)2
_symmetry_space_group_name_H-M   'P 1'
_cell_length_a   10.07154792
_cell_length_b   10.04507588
_cell_length_c   9.98886411
_cell_angle_alpha   60.18393993
_cell_angle_beta   59.91577085
_cell_angle_gamma   59.64387802
_symmetry_Int_Tables_number   1
_chemical_formula_structural   LaPr15Mg2(HgRu2)2
_chemical_formula_sum   'La1 Pr15 Mg2 Hg2 Ru4'
_cell_volume   713.16225986
_cell_formula_units_Z   1
loop_
 _symmetry_equiv_pos_site_id
 _symmetry_equiv_pos_as_xyz
  1  'x, y, z'
loop_
 _atom_site_type_symbol
 _atom_site_label
 _atom_site_symmetry_multiplicity
 _atom_site_fract_x
 _atom_site_fract_y
 _atom_site_fract_z
 _atom_site_occupancy
  La  La0  1  0.437037  0.436641  0.063566  1
  Pr  Pr1  1  0.812015  0.189829  0.190434  1
  Pr  Pr2  1  0.190364  0.187704  0.812830  1
  Pr  Pr3  1  0.814794  0.814691  0.183051  1
  Pr  Pr4  1  0.190169  0.810911  0.811228  1
  Pr  Pr5  1  0.596335  0.597166  0.208812  1
  Pr  Pr6  1  0.445544  0.055759  0.057659  1
  Pr  Pr7  1  0.059322  0.441841  0.061026  1
  Pr  Pr8  1  0.439109  0.057305  0.441272  1
  Pr  Pr9  1  0.215990  0.593264  0.594855  1
  Pr  Pr10  1  0.058727  0.438445  0.440353  1
  Pr  Pr11  1  0.594301  0.213092  0.595551  1
  Pr  Pr12  1  0.596145  0.593447  0.593402  1
  Pr  Pr13  1  0.191639  0.811779  0.189106  1
  Pr  Pr14  1  0.813275  0.184547  0.813026  1
  Pr  Pr15  1  0.061354  0.060967  0.441536  1
  Mg  Mg16  1  0.822780  0.525882  0.828405  1
  Mg  Mg17  1  0.821452  0.829650  0.526189  1
  Hg  Hg18  1  0.837883  0.830225  0.829716  1
  Hg  Hg19  1  0.501065  0.831068  0.828304  1
  Ru  Ru20  1  0.835128  0.384083  0.386662  1
  Ru  Ru21  1  0.390562  0.390244  0.375609  1
  Ru  Ru22  1  0.385683  0.833527  0.387526  1
  Ru  Ru23  1  0.389324  0.387935  0.839883  1
