# generated using pymatgen
data_Tb7Dy3(GaSb)3
_symmetry_space_group_name_H-M   'P 1'
_cell_length_a   8.82504005
_cell_length_b   8.82180525
_cell_length_c   6.49592801
_cell_angle_alpha   89.99389455
_cell_angle_beta   90.00243098
_cell_angle_gamma   120.00022816
_symmetry_Int_Tables_number   1
_chemical_formula_structural   Tb7Dy3(GaSb)3
_chemical_formula_sum   'Tb7 Dy3 Ga3 Sb3'
_cell_volume   437.97062676
_cell_formula_units_Z   1
loop_
 _symmetry_equiv_pos_site_id
 _symmetry_equiv_pos_as_xyz
  1  'x, y, z'
loop_
 _atom_site_type_symbol
 _atom_site_label
 _atom_site_symmetry_multiplicity
 _atom_site_fract_x
 _atom_site_fract_y
 _atom_site_fract_z
 _atom_site_occupancy
  Tb  Tb0  1  0.010334  0.767693  0.749948  1
  Tb  Tb1  1  0.011962  0.248859  0.250040  1
  Tb  Tb2  1  0.763151  0.751088  0.250024  1
  Tb  Tb3  1  0.754639  0.000026  0.749968  1
  Tb  Tb4  1  0.242693  0.232270  0.749971  1
  Tb  Tb5  1  0.235877  0.000059  0.250035  1
  Tb  Tb6  1  0.327338  0.666741  0.002469  1
  Dy  Dy7  1  0.327347  0.666743  0.497553  1
  Dy  Dy8  1  0.660584  0.333259  0.002448  1
  Dy  Dy9  1  0.660615  0.333260  0.497561  1
  Ga  Ga10  1  0.397980  0.000119  0.749917  1
  Ga  Ga11  1  0.395772  0.396296  0.250078  1
  Ga  Ga12  1  0.999263  0.603593  0.250109  1
  Sb  Sb13  1  0.997415  0.392580  0.749874  1
  Sb  Sb14  1  0.605005  0.607262  0.749883  1
  Sb  Sb15  1  0.610025  0.000150  0.250123  1
