# generated using pymatgen
data_Cs2Lu10Co2Br17
_symmetry_space_group_name_H-M   'P 1'
_cell_length_a   9.11033394
_cell_length_b   10.68317045
_cell_length_c   10.68332800
_cell_angle_alpha   108.14877255
_cell_angle_beta   93.38439539
_cell_angle_gamma   93.38903482
_symmetry_Int_Tables_number   1
_chemical_formula_structural   Cs2Lu10Co2Br17
_chemical_formula_sum   'Cs2 Lu10 Co2 Br17'
_cell_volume   983.03004850
_cell_formula_units_Z   1
loop_
 _symmetry_equiv_pos_site_id
 _symmetry_equiv_pos_as_xyz
  1  'x, y, z'
loop_
 _atom_site_type_symbol
 _atom_site_label
 _atom_site_symmetry_multiplicity
 _atom_site_fract_x
 _atom_site_fract_y
 _atom_site_fract_z
 _atom_site_occupancy
  Cs  Cs0  1  0.999311  0.821230  0.177824  1
  Cs  Cs1  1  0.999314  0.177852  0.821279  1
  Lu  Lu2  1  0.442306  0.177619  0.177608  1
  Lu  Lu3  1  0.573062  0.505833  0.208251  1
  Lu  Lu4  1  0.814137  0.295296  0.295313  1
  Lu  Lu5  1  0.318864  0.439170  0.439140  1
  Lu  Lu6  1  0.427078  0.792074  0.494257  1
  Lu  Lu7  1  0.573049  0.208249  0.505831  1
  Lu  Lu8  1  0.681526  0.561050  0.561085  1
  Lu  Lu9  1  0.185780  0.704654  0.704656  1
  Lu  Lu10  1  0.427131  0.494298  0.792124  1
  Lu  Lu11  1  0.557699  0.822674  0.822674  1
  Co  Co12  1  0.568027  0.362602  0.362602  1
  Co  Co13  1  0.432206  0.637693  0.637699  1
  Br  Br14  1  0.578743  0.684200  0.021994  1
  Br  Br15  1  0.707663  0.066251  0.066247  1
  Br  Br16  1  0.855213  0.447623  0.121729  1
  Br  Br17  1  0.132529  0.212110  0.212077  1
  Br  Br18  1  0.286446  0.605607  0.255426  1
  Br  Br19  1  0.421383  0.978288  0.315557  1
  Br  Br20  1  0.713783  0.744998  0.394646  1
  Br  Br21  1  0.855145  0.121736  0.447608  1
  Br  Br22  1  0.999967  0.499986  0.500045  1
  Br  Br23  1  0.144734  0.877995  0.551938  1
  Br  Br24  1  0.286395  0.255373  0.605654  1
  Br  Br25  1  0.578680  0.022034  0.684164  1
  Br  Br26  1  0.713761  0.394649  0.744900  1
  Br  Br27  1  0.867682  0.787950  0.787822  1
  Br  Br28  1  0.144696  0.551908  0.878050  1
  Br  Br29  1  0.292275  0.933426  0.933455  1
  Br  Br30  1  0.421418  0.315573  0.978344  1
