# generated using pymatgen
data_BaNa3(Si2Au5)4
_symmetry_space_group_name_H-M   'P 1'
_cell_length_a   7.13035300
_cell_length_b   9.01170643
_cell_length_c   9.95001883
_cell_angle_alpha   88.74776685
_cell_angle_beta   90.00000000
_cell_angle_gamma   90.00000000
_symmetry_Int_Tables_number   1
_chemical_formula_structural   BaNa3(Si2Au5)4
_chemical_formula_sum   'Ba1 Na3 Si8 Au20'
_cell_volume   639.20216423
_cell_formula_units_Z   1
loop_
 _symmetry_equiv_pos_site_id
 _symmetry_equiv_pos_as_xyz
  1  'x, y, z'
loop_
 _atom_site_type_symbol
 _atom_site_label
 _atom_site_symmetry_multiplicity
 _atom_site_fract_x
 _atom_site_fract_y
 _atom_site_fract_z
 _atom_site_occupancy
  Ba  Ba0  1  0.750000  0.252071  0.616415  1
  Na  Na1  1  0.250000  0.240234  0.119279  1
  Na  Na2  1  0.250000  0.741932  0.377407  1
  Na  Na3  1  0.750000  0.759410  0.879856  1
  Si  Si4  1  0.250000  0.042104  0.631556  1
  Si  Si5  1  0.250000  0.535270  0.872894  1
  Si  Si6  1  0.750000  0.955656  0.368805  1
  Si  Si7  1  0.750000  0.469021  0.129800  1
  Si  Si8  1  0.250000  0.315856  0.454062  1
  Si  Si9  1  0.250000  0.840955  0.043185  1
  Si  Si10  1  0.750000  0.675604  0.545605  1
  Si  Si11  1  0.750000  0.165560  0.963226  1
  Au  Au12  1  0.053831  0.089845  0.384102  1
  Au  Au13  1  0.451286  0.608983  0.100187  1
  Au  Au14  1  0.547902  0.899745  0.609295  1
  Au  Au15  1  0.952544  0.396669  0.901411  1
  Au  Au16  1  0.952098  0.899745  0.609295  1
  Au  Au17  1  0.547456  0.396669  0.901411  1
  Au  Au18  1  0.446169  0.089845  0.384102  1
  Au  Au19  1  0.048714  0.608983  0.100187  1
  Au  Au20  1  0.035875  0.062686  0.869180  1
  Au  Au21  1  0.463280  0.571918  0.639017  1
  Au  Au22  1  0.539253  0.934461  0.135159  1
  Au  Au23  1  0.978335  0.436955  0.357497  1
  Au  Au24  1  0.960747  0.934461  0.135159  1
  Au  Au25  1  0.521665  0.436955  0.357497  1
  Au  Au26  1  0.464125  0.062686  0.869180  1
  Au  Au27  1  0.036720  0.571918  0.639017  1
  Au  Au28  1  0.250000  0.301983  0.702710  1
  Au  Au29  1  0.250000  0.797479  0.799287  1
  Au  Au30  1  0.750000  0.696891  0.299551  1
  Au  Au31  1  0.750000  0.207451  0.204666  1
