# generated using pymatgen
data_Y5Er11(AlCo)4
_symmetry_space_group_name_H-M   'P 1'
_cell_length_a   9.35987739
_cell_length_b   9.35918741
_cell_length_c   9.35918717
_cell_angle_alpha   60.01827341
_cell_angle_beta   59.99756285
_cell_angle_gamma   59.99755915
_symmetry_Int_Tables_number   1
_chemical_formula_structural   Y5Er11(AlCo)4
_chemical_formula_sum   'Y5 Er11 Al4 Co4'
_cell_volume   579.79619778
_cell_formula_units_Z   1
loop_
 _symmetry_equiv_pos_site_id
 _symmetry_equiv_pos_as_xyz
  1  'x, y, z'
loop_
 _atom_site_type_symbol
 _atom_site_label
 _atom_site_symmetry_multiplicity
 _atom_site_fract_x
 _atom_site_fract_y
 _atom_site_fract_z
 _atom_site_occupancy
  Y  Y0  1  0.560487  0.939513  0.939513  1
  Y  Y1  1  0.561438  0.938617  0.560598  1
  Y  Y2  1  0.939346  0.560598  0.938617  1
  Y  Y3  1  0.561438  0.560598  0.938617  1
  Y  Y4  1  0.939346  0.938617  0.560598  1
  Er  Er5  1  0.348388  0.349341  0.349341  1
  Er  Er6  1  0.349007  0.349220  0.952766  1
  Er  Er7  1  0.349007  0.952766  0.349220  1
  Er  Er8  1  0.952931  0.349341  0.349341  1
  Er  Er9  1  0.807727  0.192273  0.192273  1
  Er  Er10  1  0.192124  0.807876  0.807876  1
  Er  Er11  1  0.191680  0.807460  0.192739  1
  Er  Er12  1  0.808121  0.192739  0.807460  1
  Er  Er13  1  0.191680  0.192739  0.807460  1
  Er  Er14  1  0.808121  0.807460  0.192739  1
  Er  Er15  1  0.939815  0.560185  0.560185  1
  Al  Al16  1  0.577671  0.577423  0.577423  1
  Al  Al17  1  0.577319  0.577420  0.267941  1
  Al  Al18  1  0.577319  0.267941  0.577420  1
  Al  Al19  1  0.267481  0.577423  0.577423  1
  Co  Co20  1  0.140387  0.140354  0.140354  1
  Co  Co21  1  0.140130  0.141058  0.578684  1
  Co  Co22  1  0.140130  0.578684  0.141058  1
  Co  Co23  1  0.578906  0.140354  0.140354  1
