# generated using pymatgen
data_Lu2Tc2Ni10P7
_symmetry_space_group_name_H-M   'P 1'
_cell_length_a   9.03742497
_cell_length_b   9.09461701
_cell_length_c   3.66609900
_cell_angle_alpha   90.00000000
_cell_angle_beta   90.00000000
_cell_angle_gamma   119.70076980
_symmetry_Int_Tables_number   1
_chemical_formula_structural   Lu2Tc2Ni10P7
_chemical_formula_sum   'Lu2 Tc2 Ni10 P7'
_cell_volume   261.73726596
_cell_formula_units_Z   1
loop_
 _symmetry_equiv_pos_site_id
 _symmetry_equiv_pos_as_xyz
  1  'x, y, z'
loop_
 _atom_site_type_symbol
 _atom_site_label
 _atom_site_symmetry_multiplicity
 _atom_site_fract_x
 _atom_site_fract_y
 _atom_site_fract_z
 _atom_site_occupancy
  Lu  Lu0  1  0.335496  0.669202  0.000000  1
  Lu  Lu1  1  0.667544  0.331558  0.500001  1
  Tc  Tc2  1  0.217758  0.099859  0.500001  1
  Tc  Tc3  1  0.908725  0.119214  0.500001  1
  Ni  Ni4  1  0.435464  0.063427  0.000000  1
  Ni  Ni5  1  0.160317  0.287912  0.000000  1
  Ni  Ni6  1  0.936089  0.374281  0.000000  1
  Ni  Ni7  1  0.625912  0.560694  0.000000  1
  Ni  Ni8  1  0.119794  0.841554  0.000000  1
  Ni  Ni9  1  0.719604  0.872144  0.000000  1
  Ni  Ni10  1  0.385646  0.442444  0.500001  1
  Ni  Ni11  1  0.052755  0.617317  0.500001  1
  Ni  Ni12  1  0.871083  0.768231  0.500001  1
  Ni  Ni13  1  0.560209  0.945321  0.500001  1
  P  P14  1  0.000263  0.001726  0.000000  1
  P  P15  1  0.706178  0.114135  0.000000  1
  P  P16  1  0.411621  0.296901  0.000000  1
  P  P17  1  0.884191  0.590263  0.000000  1
  P  P18  1  0.117080  0.411193  0.500001  1
  P  P19  1  0.594309  0.709996  0.500001  1
  P  P20  1  0.289961  0.882623  0.500001  1
