# generated using pymatgen
data_PaAl10TcOs
_symmetry_space_group_name_H-M   'P 1'
_cell_length_a   6.86145942
_cell_length_b   6.87037410
_cell_length_c   9.15773400
_cell_angle_alpha   90.00000000
_cell_angle_beta   90.00000000
_cell_angle_gamma   97.42067851
_symmetry_Int_Tables_number   1
_chemical_formula_structural   PaAl10TcOs
_chemical_formula_sum   'Pa2 Al20 Tc2 Os2'
_cell_volume   428.08716594
_cell_formula_units_Z   2
loop_
 _symmetry_equiv_pos_site_id
 _symmetry_equiv_pos_as_xyz
  1  'x, y, z'
loop_
 _atom_site_type_symbol
 _atom_site_label
 _atom_site_symmetry_multiplicity
 _atom_site_fract_x
 _atom_site_fract_y
 _atom_site_fract_z
 _atom_site_occupancy
  Pa  Pa0  1  0.875274  0.134493  0.750000  1
  Pa  Pa1  1  0.124726  0.865507  0.250000  1
  Al  Al2  1  0.519482  0.784040  0.750000  1
  Al  Al3  1  0.780656  0.516960  0.250000  1
  Al  Al4  1  0.480518  0.215960  0.250000  1
  Al  Al5  1  0.219344  0.483040  0.750000  1
  Al  Al6  1  0.623612  0.376780  0.954337  1
  Al  Al7  1  0.376388  0.623220  0.045663  1
  Al  Al8  1  0.623612  0.376780  0.545663  1
  Al  Al9  1  0.376388  0.623220  0.454337  1
  Al  Al10  1  0.409984  0.145046  0.750000  1
  Al  Al11  1  0.145296  0.409548  0.250000  1
  Al  Al12  1  0.590016  0.854954  0.250000  1
  Al  Al13  1  0.854704  0.590452  0.750000  1
  Al  Al14  1  0.844299  0.154950  0.397760  1
  Al  Al15  1  0.155701  0.845050  0.602240  1
  Al  Al16  1  0.844299  0.154950  0.102240  1
  Al  Al17  1  0.155701  0.845050  0.897760  1
  Al  Al18  1  0.778148  0.777833  0.000560  1
  Al  Al19  1  0.778148  0.777833  0.499440  1
  Al  Al20  1  0.221852  0.222167  0.999440  1
  Al  Al21  1  0.221852  0.222167  0.500560  1
  Tc  Tc22  1  0.000000  0.500000  0.000000  1
  Tc  Tc23  1  0.000000  0.500000  0.500000  1
  Os  Os24  1  0.500000  0.000000  0.000000  1
  Os  Os25  1  0.500000  0.000000  0.500000  1
