# generated using pymatgen
data_Zr(Cu2Si)2
_symmetry_space_group_name_H-M   'P 1'
_cell_length_a   7.11354100
_cell_length_b   7.11354100
_cell_length_c   3.80364300
_cell_angle_alpha   90.00000000
_cell_angle_beta   90.00000000
_cell_angle_gamma   90.00000000
_symmetry_Int_Tables_number   1
_chemical_formula_structural   Zr(Cu2Si)2
_chemical_formula_sum   'Zr2 Cu8 Si4'
_cell_volume   192.47371391
_cell_formula_units_Z   2
loop_
 _symmetry_equiv_pos_site_id
 _symmetry_equiv_pos_as_xyz
  1  'x, y, z'
loop_
 _atom_site_type_symbol
 _atom_site_label
 _atom_site_symmetry_multiplicity
 _atom_site_fract_x
 _atom_site_fract_y
 _atom_site_fract_z
 _atom_site_occupancy
  Zr  Zr0  1  0.500000  0.500000  0.000000  1
  Zr  Zr1  1  0.000000  0.000000  0.500000  1
  Cu  Cu2  1  0.591704  0.157463  0.500000  1
  Cu  Cu3  1  0.408296  0.842537  0.500000  1
  Cu  Cu4  1  0.091704  0.342537  0.000000  1
  Cu  Cu5  1  0.908296  0.657463  0.000000  1
  Cu  Cu6  1  0.157463  0.591704  0.500000  1
  Cu  Cu7  1  0.842537  0.408296  0.500000  1
  Cu  Cu8  1  0.342537  0.091704  0.000000  1
  Cu  Cu9  1  0.657463  0.908296  0.000000  1
  Si  Si10  1  0.715821  0.715821  0.500000  1
  Si  Si11  1  0.284179  0.284179  0.500000  1
  Si  Si12  1  0.215821  0.784179  0.000000  1
  Si  Si13  1  0.784179  0.215821  0.000000  1
