# generated using pymatgen
data_Yb3Sm(ReB4)4
_symmetry_space_group_name_H-M   'P 1'
_cell_length_a   3.59023500
_cell_length_b   6.00123214
_cell_length_c   11.60771298
_cell_angle_alpha   89.94021937
_cell_angle_beta   90.00000000
_cell_angle_gamma   90.00000000
_symmetry_Int_Tables_number   1
_chemical_formula_structural   Yb3Sm(ReB4)4
_chemical_formula_sum   'Yb3 Sm1 Re4 B16'
_cell_volume   250.09771694
_cell_formula_units_Z   1
loop_
 _symmetry_equiv_pos_site_id
 _symmetry_equiv_pos_as_xyz
  1  'x, y, z'
loop_
 _atom_site_type_symbol
 _atom_site_label
 _atom_site_symmetry_multiplicity
 _atom_site_fract_x
 _atom_site_fract_y
 _atom_site_fract_z
 _atom_site_occupancy
  Yb  Yb0  1  0.500000  0.628405  0.848286  1
  Yb  Yb1  1  0.500000  0.127827  0.649849  1
  Yb  Yb2  1  0.500000  0.872646  0.351747  1
  Sm  Sm3  1  0.500000  0.372348  0.151101  1
  Re  Re4  1  0.500000  0.370202  0.417107  1
  Re  Re5  1  0.500000  0.631073  0.584124  1
  Re  Re6  1  0.500000  0.130895  0.915225  1
  Re  Re7  1  0.500000  0.870581  0.084308  1
  B  B8  1  0.000000  0.110872  0.046072  1
  B  B9  1  0.000000  0.884696  0.951258  1
  B  B10  1  0.000000  0.385298  0.547698  1
  B  B11  1  0.000000  0.614784  0.453036  1
  B  B12  1  0.000000  0.134476  0.468803  1
  B  B13  1  0.000000  0.864762  0.532449  1
  B  B14  1  0.000000  0.363535  0.966347  1
  B  B15  1  0.000000  0.636694  0.030484  1
  B  B16  1  0.000000  0.022530  0.192493  1
  B  B17  1  0.000000  0.976254  0.806998  1
  B  B18  1  0.000000  0.476256  0.692294  1
  B  B19  1  0.000000  0.525903  0.309461  1
  B  B20  1  0.000000  0.214107  0.316951  1
  B  B21  1  0.000000  0.784390  0.684674  1
  B  B22  1  0.000000  0.283649  0.814033  1
  B  B23  1  0.000000  0.717817  0.185202  1
