# generated using pymatgen
data_Sc2Mn2Ga2C
_symmetry_space_group_name_H-M   'P 1'
_cell_length_a   5.47076900
_cell_length_b   5.47076946
_cell_length_c   7.02218534
_cell_angle_alpha   120.94042193
_cell_angle_beta   120.94042631
_cell_angle_gamma   35.63313977
_symmetry_Int_Tables_number   1
_chemical_formula_structural   Sc2Mn2Ga2C
_chemical_formula_sum   'Sc2 Mn2 Ga2 C1'
_cell_volume   103.05244489
_cell_formula_units_Z   1
loop_
 _symmetry_equiv_pos_site_id
 _symmetry_equiv_pos_as_xyz
  1  'x, y, z'
loop_
 _atom_site_type_symbol
 _atom_site_label
 _atom_site_symmetry_multiplicity
 _atom_site_fract_x
 _atom_site_fract_y
 _atom_site_fract_z
 _atom_site_occupancy
  Sc  Sc0  1  0.562564  0.562564  0.266995  1
  Sc  Sc1  1  0.437435  0.437435  0.733005  1
  Mn  Mn2  1  0.195570  0.195570  0.056720  1
  Mn  Mn3  1  0.804430  0.804430  0.943280  1
  Ga  Ga4  1  0.860328  0.860328  0.344578  1
  Ga  Ga5  1  0.139673  0.139673  0.655422  1
  C  C6  1  0.000000  0.000000  0.000000  1
