# generated using pymatgen
data_Er9LuPt5Rh
_symmetry_space_group_name_H-M   'P 1'
_cell_length_a   10.94011800
_cell_length_b   10.94611800
_cell_length_c   6.35988100
_cell_angle_alpha   90.00000000
_cell_angle_beta   90.00000000
_cell_angle_gamma   90.00000000
_symmetry_Int_Tables_number   1
_chemical_formula_structural   Er9LuPt5Rh
_chemical_formula_sum   'Er18 Lu2 Pt10 Rh2'
_cell_volume   761.60734103
_cell_formula_units_Z   2
loop_
 _symmetry_equiv_pos_site_id
 _symmetry_equiv_pos_as_xyz
  1  'x, y, z'
loop_
 _atom_site_type_symbol
 _atom_site_label
 _atom_site_symmetry_multiplicity
 _atom_site_fract_x
 _atom_site_fract_y
 _atom_site_fract_z
 _atom_site_occupancy
  Er  Er0  1  0.291326  0.087957  0.376742  1
  Er  Er1  1  0.291326  0.912043  0.876742  1
  Er  Er2  1  0.708674  0.087957  0.876742  1
  Er  Er3  1  0.708674  0.912043  0.376742  1
  Er  Er4  1  0.588146  0.791999  0.876336  1
  Er  Er5  1  0.588146  0.208001  0.376336  1
  Er  Er6  1  0.411854  0.791999  0.376336  1
  Er  Er7  1  0.411854  0.208001  0.876336  1
  Er  Er8  1  0.206114  0.412355  0.623759  1
  Er  Er9  1  0.206114  0.587645  0.123759  1
  Er  Er10  1  0.793886  0.412355  0.123759  1
  Er  Er11  1  0.793886  0.587645  0.623759  1
  Er  Er12  1  0.912450  0.707025  0.123395  1
  Er  Er13  1  0.912450  0.292975  0.623395  1
  Er  Er14  1  0.087550  0.707025  0.623395  1
  Er  Er15  1  0.087550  0.292975  0.123395  1
  Er  Er16  1  0.500000  0.500000  0.000608  1
  Er  Er17  1  0.500000  0.500000  0.500608  1
  Lu  Lu18  1  0.000000  0.000000  0.500739  1
  Lu  Lu19  1  0.000000  0.000000  0.000739  1
  Pt  Pt20  1  0.848077  0.151977  0.250694  1
  Pt  Pt21  1  0.848077  0.848023  0.750694  1
  Pt  Pt22  1  0.151923  0.151977  0.750694  1
  Pt  Pt23  1  0.151923  0.848023  0.250694  1
  Pt  Pt24  1  0.653993  0.346114  0.750521  1
  Pt  Pt25  1  0.653993  0.653886  0.250521  1
  Pt  Pt26  1  0.346007  0.346114  0.250521  1
  Pt  Pt27  1  0.346007  0.653886  0.750521  1
  Pt  Pt28  1  0.500000  0.000000  0.115821  1
  Pt  Pt29  1  0.500000  0.000000  0.615821  1
  Rh  Rh30  1  0.000000  0.500000  0.879934  1
  Rh  Rh31  1  0.000000  0.500000  0.379934  1
