# generated using pymatgen
data_Zr3MnAs2Ir2Ru
_symmetry_space_group_name_H-M   'P 1'
_cell_length_a   6.56027307
_cell_length_b   6.56027409
_cell_length_c   4.00909700
_cell_angle_alpha   90.00000000
_cell_angle_beta   90.00000000
_cell_angle_gamma   119.98382438
_symmetry_Int_Tables_number   1
_chemical_formula_structural   Zr3MnAs2Ir2Ru
_chemical_formula_sum   'Zr3 Mn1 As2 Ir2 Ru1'
_cell_volume   149.44860395
_cell_formula_units_Z   1
loop_
 _symmetry_equiv_pos_site_id
 _symmetry_equiv_pos_as_xyz
  1  'x, y, z'
loop_
 _atom_site_type_symbol
 _atom_site_label
 _atom_site_symmetry_multiplicity
 _atom_site_fract_x
 _atom_site_fract_y
 _atom_site_fract_z
 _atom_site_occupancy
  Zr  Zr0  1  0.392897  0.392897  0.500000  1
  Zr  Zr1  1  0.605864  0.000995  0.500000  1
  Zr  Zr2  1  0.000995  0.605864  0.500000  1
  Mn  Mn3  1  0.995593  0.995593  0.500000  1
  As  As4  1  0.668133  0.336605  0.000000  1
  As  As5  1  0.336605  0.668133  0.000000  1
  Ir  Ir6  1  0.999759  0.235419  0.000000  1
  Ir  Ir7  1  0.235419  0.999759  0.000000  1
  Ru  Ru8  1  0.764736  0.764736  0.000000  1
