# generated using pymatgen
data_DyErPu3(SiB4)2
_symmetry_space_group_name_H-M   'P 1'
_cell_length_a   7.20806312
_cell_length_b   7.20806257
_cell_length_c   8.07422800
_cell_angle_alpha   90.00000000
_cell_angle_beta   90.00000000
_cell_angle_gamma   89.91230831
_symmetry_Int_Tables_number   1
_chemical_formula_structural   DyErPu3(SiB4)2
_chemical_formula_sum   'Dy2 Er2 Pu6 Si4 B16'
_cell_volume   419.50547076
_cell_formula_units_Z   2
loop_
 _symmetry_equiv_pos_site_id
 _symmetry_equiv_pos_as_xyz
  1  'x, y, z'
loop_
 _atom_site_type_symbol
 _atom_site_label
 _atom_site_symmetry_multiplicity
 _atom_site_fract_x
 _atom_site_fract_y
 _atom_site_fract_z
 _atom_site_occupancy
  Dy  Dy0  1  0.181839  0.318161  0.777175  1
  Dy  Dy1  1  0.181839  0.318161  0.222825  1
  Er  Er2  1  0.998934  0.997487  0.500000  1
  Er  Er3  1  0.502513  0.501066  0.500000  1
  Pu  Pu4  1  0.683286  0.183155  0.229558  1
  Pu  Pu5  1  0.316845  0.816714  0.770442  1
  Pu  Pu6  1  0.316845  0.816714  0.229558  1
  Pu  Pu7  1  0.816457  0.683543  0.229460  1
  Pu  Pu8  1  0.816457  0.683543  0.770540  1
  Pu  Pu9  1  0.683286  0.183155  0.770442  1
  Si  Si10  1  0.116977  0.614072  0.500000  1
  Si  Si11  1  0.885928  0.383023  0.500000  1
  Si  Si12  1  0.382466  0.117534  0.500000  1
  Si  Si13  1  0.612975  0.887025  0.500000  1
  B  B14  1  0.173163  0.037944  0.000000  1
  B  B15  1  0.825940  0.959668  0.000000  1
  B  B16  1  0.958307  0.171935  0.000000  1
  B  B17  1  0.328065  0.541693  0.000000  1
  B  B18  1  0.039797  0.825433  0.000000  1
  B  B19  1  0.674567  0.460203  0.000000  1
  B  B20  1  0.540332  0.674060  0.000000  1
  B  B21  1  0.462056  0.326837  0.000000  1
  B  B22  1  0.090369  0.589179  0.000000  1
  B  B23  1  0.910821  0.409631  0.000000  1
  B  B24  1  0.409637  0.090363  0.000000  1
  B  B25  1  0.588733  0.911267  0.000000  1
  B  B26  1  0.999216  0.998435  0.161672  1
  B  B27  1  0.999216  0.998435  0.838328  1
  B  B28  1  0.501565  0.500784  0.838328  1
  B  B29  1  0.501565  0.500784  0.161672  1
