# generated using pymatgen
data_Yb12DyEr7Si16
_symmetry_space_group_name_H-M   'P 1'
_cell_length_a   7.37959418
_cell_length_b   7.78153008
_cell_length_c   15.05361224
_cell_angle_alpha   89.99521542
_cell_angle_beta   90.01971505
_cell_angle_gamma   90.01569195
_symmetry_Int_Tables_number   1
_chemical_formula_structural   Yb12DyEr7Si16
_chemical_formula_sum   'Yb12 Dy1 Er7 Si16'
_cell_volume   864.44658220
_cell_formula_units_Z   1
loop_
 _symmetry_equiv_pos_site_id
 _symmetry_equiv_pos_as_xyz
  1  'x, y, z'
loop_
 _atom_site_type_symbol
 _atom_site_label
 _atom_site_symmetry_multiplicity
 _atom_site_fract_x
 _atom_site_fract_y
 _atom_site_fract_z
 _atom_site_occupancy
  Yb  Yb0  1  0.972277  0.816165  0.403713  1
  Yb  Yb1  1  0.472502  0.683706  0.096339  1
  Yb  Yb2  1  0.527645  0.316253  0.596340  1
  Yb  Yb3  1  0.027561  0.183801  0.903592  1
  Yb  Yb4  1  0.027678  0.183762  0.596348  1
  Yb  Yb5  1  0.527792  0.316273  0.903568  1
  Yb  Yb6  1  0.472334  0.683750  0.403701  1
  Yb  Yb7  1  0.972162  0.816130  0.096329  1
  Yb  Yb8  1  0.353463  0.019326  0.749979  1
  Yb  Yb9  1  0.853453  0.480642  0.750013  1
  Yb  Yb10  1  0.146474  0.519504  0.250107  1
  Yb  Yb11  1  0.646670  0.980520  0.250066  1
  Dy  Dy12  1  0.314166  0.177123  0.121049  1
  Er  Er13  1  0.814353  0.323471  0.378947  1
  Er  Er14  1  0.185717  0.676560  0.878795  1
  Er  Er15  1  0.685711  0.823393  0.621120  1
  Er  Er16  1  0.314251  0.176483  0.379017  1
  Er  Er17  1  0.814276  0.323633  0.121099  1
  Er  Er18  1  0.185708  0.676593  0.621133  1
  Er  Er19  1  0.685865  0.823338  0.878747  1
  Si  Si20  1  0.857451  0.533602  0.538453  1
  Si  Si21  1  0.357846  0.965929  0.961149  1
  Si  Si22  1  0.642527  0.033553  0.461539  1
  Si  Si23  1  0.141787  0.466931  0.038196  1
  Si  Si24  1  0.142588  0.466373  0.461560  1
  Si  Si25  1  0.643326  0.033207  0.038192  1
  Si  Si26  1  0.357406  0.966405  0.538464  1
  Si  Si27  1  0.857220  0.533793  0.961489  1
  Si  Si28  1  0.977926  0.881855  0.749989  1
  Si  Si29  1  0.477911  0.618112  0.749980  1
  Si  Si30  1  0.522531  0.382392  0.250190  1
  Si  Si31  1  0.021650  0.117807  0.250368  1
  Si  Si32  1  0.248995  0.395264  0.749989  1
  Si  Si33  1  0.749054  0.104668  0.749985  1
  Si  Si34  1  0.250551  0.894848  0.250374  1
  Si  Si35  1  0.751176  0.604835  0.250079  1
