# generated using pymatgen
data_Tm6Al24FeRu4Au3
_symmetry_space_group_name_H-M   'P 1'
_cell_length_a   8.84442007
_cell_length_b   8.80334877
_cell_length_c   9.47303702
_cell_angle_alpha   89.99834602
_cell_angle_beta   90.02203423
_cell_angle_gamma   119.20300844
_symmetry_Int_Tables_number   1
_chemical_formula_structural   Tm6Al24FeRu4Au3
_chemical_formula_sum   'Tm6 Al24 Fe1 Ru4 Au3'
_cell_volume   643.82701630
_cell_formula_units_Z   1
loop_
 _symmetry_equiv_pos_site_id
 _symmetry_equiv_pos_as_xyz
  1  'x, y, z'
loop_
 _atom_site_type_symbol
 _atom_site_label
 _atom_site_symmetry_multiplicity
 _atom_site_fract_x
 _atom_site_fract_y
 _atom_site_fract_z
 _atom_site_occupancy
  Tm  Tm0  1  0.807196  0.195361  0.749598  1
  Tm  Tm1  1  0.192804  0.804639  0.250402  1
  Tm  Tm2  1  0.384874  0.191802  0.750804  1
  Tm  Tm3  1  0.615126  0.808198  0.249196  1
  Tm  Tm4  1  0.809065  0.614113  0.745094  1
  Tm  Tm5  1  0.190935  0.385887  0.254906  1
  Al  Al6  1  0.678569  0.339496  0.966908  1
  Al  Al7  1  0.321431  0.660504  0.033092  1
  Al  Al8  1  0.327777  0.672768  0.470741  1
  Al  Al9  1  0.672223  0.327232  0.529259  1
  Al  Al10  1  0.838768  0.161138  0.422518  1
  Al  Al11  1  0.161232  0.838862  0.577482  1
  Al  Al12  1  0.315084  0.147600  0.424190  1
  Al  Al13  1  0.152074  0.829354  0.916312  1
  Al  Al14  1  0.684916  0.852400  0.575810  1
  Al  Al15  1  0.847926  0.170646  0.083688  1
  Al  Al16  1  0.850905  0.683585  0.421874  1
  Al  Al17  1  0.684436  0.841528  0.915232  1
  Al  Al18  1  0.149095  0.316415  0.578126  1
  Al  Al19  1  0.315564  0.158472  0.084768  1
  Al  Al20  1  0.150838  0.320995  0.919075  1
  Al  Al21  1  0.849162  0.679005  0.080925  1
  Al  Al22  1  0.432687  0.565580  0.749484  1
  Al  Al23  1  0.567313  0.434420  0.250516  1
  Al  Al24  1  0.119845  0.560539  0.749281  1
  Al  Al25  1  0.880155  0.439461  0.250719  1
  Al  Al26  1  0.435214  0.873303  0.742006  1
  Al  Al27  1  0.564786  0.126697  0.257994  1
  Al  Al28  1  0.002835  0.000354  0.743579  1
  Al  Al29  1  0.997165  0.999646  0.256421  1
  Fe  Fe30  1  0.000000  0.000000  0.500000  1
  Ru  Ru31  1  0.000000  0.500000  0.000000  1
  Ru  Ru32  1  0.000000  0.500000  0.500000  1
  Ru  Ru33  1  0.500000  0.000000  0.500000  1
  Ru  Ru34  1  0.000000  0.000000  0.000000  1
  Au  Au35  1  0.500000  0.500000  0.000000  1
  Au  Au36  1  0.500000  0.500000  0.500000  1
  Au  Au37  1  0.500000  0.000000  0.000000  1
