# generated using pymatgen
data_PrY7(Si3Pt)4
_symmetry_space_group_name_H-M   'P 1'
_cell_length_a   8.16353200
_cell_length_b   8.16353192
_cell_length_c   8.25901100
_cell_angle_alpha   90.00000000
_cell_angle_beta   90.00000000
_cell_angle_gamma   120.00000034
_symmetry_Int_Tables_number   1
_chemical_formula_structural   PrY7(Si3Pt)4
_chemical_formula_sum   'Pr1 Y7 Si12 Pt4'
_cell_volume   476.66676160
_cell_formula_units_Z   1
loop_
 _symmetry_equiv_pos_site_id
 _symmetry_equiv_pos_as_xyz
  1  'x, y, z'
loop_
 _atom_site_type_symbol
 _atom_site_label
 _atom_site_symmetry_multiplicity
 _atom_site_fract_x
 _atom_site_fract_y
 _atom_site_fract_z
 _atom_site_occupancy
  Pr  Pr0  1  0.000000  0.000000  0.250000  1
  Y  Y1  1  0.499503  0.500497  0.750000  1
  Y  Y2  1  0.500507  0.499493  0.250000  1
  Y  Y3  1  0.000995  0.500497  0.750000  1
  Y  Y4  1  0.998986  0.499493  0.250000  1
  Y  Y5  1  0.499503  0.999005  0.750000  1
  Y  Y6  1  0.500507  0.001014  0.250000  1
  Y  Y7  1  0.000000  0.000000  0.750000  1
  Si  Si8  1  0.833862  0.166138  0.995982  1
  Si  Si9  1  0.166132  0.833868  0.996424  1
  Si  Si10  1  0.332274  0.166138  0.995982  1
  Si  Si11  1  0.166132  0.833868  0.503576  1
  Si  Si12  1  0.667737  0.833868  0.996424  1
  Si  Si13  1  0.833862  0.166138  0.504018  1
  Si  Si14  1  0.833862  0.667726  0.995982  1
  Si  Si15  1  0.667737  0.833868  0.503576  1
  Si  Si16  1  0.166132  0.332263  0.996424  1
  Si  Si17  1  0.332274  0.166138  0.504018  1
  Si  Si18  1  0.166132  0.332263  0.503576  1
  Si  Si19  1  0.833862  0.667726  0.504018  1
  Pt  Pt20  1  0.666667  0.333333  0.999212  1
  Pt  Pt21  1  0.333333  0.666667  0.001361  1
  Pt  Pt22  1  0.333333  0.666667  0.498639  1
  Pt  Pt23  1  0.666667  0.333333  0.500788  1
