# generated using pymatgen
data_SmZr7(Si4W3)4
_symmetry_space_group_name_H-M   'P 1'
_cell_length_a   6.65246353
_cell_length_b   6.79897934
_cell_length_c   12.74773624
_cell_angle_alpha   89.86311501
_cell_angle_beta   90.02444828
_cell_angle_gamma   90.00591329
_symmetry_Int_Tables_number   1
_chemical_formula_structural   SmZr7(Si4W3)4
_chemical_formula_sum   'Sm1 Zr7 Si16 W12'
_cell_volume   576.57792659
_cell_formula_units_Z   1
loop_
 _symmetry_equiv_pos_site_id
 _symmetry_equiv_pos_as_xyz
  1  'x, y, z'
loop_
 _atom_site_type_symbol
 _atom_site_label
 _atom_site_symmetry_multiplicity
 _atom_site_fract_x
 _atom_site_fract_y
 _atom_site_fract_z
 _atom_site_occupancy
  Sm  Sm0  1  0.997676  0.831937  0.591007  1
  Zr  Zr1  1  0.496777  0.670371  0.591558  1
  Zr  Zr2  1  0.995168  0.827802  0.907738  1
  Zr  Zr3  1  0.505824  0.327362  0.092432  1
  Zr  Zr4  1  0.005815  0.174372  0.403766  1
  Zr  Zr5  1  0.507092  0.329377  0.405909  1
  Zr  Zr6  1  0.005878  0.171469  0.092917  1
  Zr  Zr7  1  0.494188  0.671194  0.910393  1
  Si  Si8  1  0.665073  0.960172  0.454463  1
  Si  Si9  1  0.166855  0.541642  0.043812  1
  Si  Si10  1  0.331743  0.041743  0.958413  1
  Si  Si11  1  0.831732  0.453472  0.541712  1
  Si  Si12  1  0.339506  0.045569  0.541399  1
  Si  Si13  1  0.832982  0.458565  0.958149  1
  Si  Si14  1  0.667274  0.958208  0.043210  1
  Si  Si15  1  0.168345  0.537804  0.454260  1
  Si  Si16  1  0.465347  0.379690  0.750946  1
  Si  Si17  1  0.964012  0.125699  0.752667  1
  Si  Si18  1  0.533074  0.619308  0.248561  1
  Si  Si19  1  0.033929  0.878105  0.250451  1
  Si  Si20  1  0.694669  0.858088  0.752298  1
  Si  Si21  1  0.202926  0.639039  0.752632  1
  Si  Si22  1  0.301200  0.139648  0.249168  1
  Si  Si23  1  0.799268  0.359654  0.248529  1
  W  W24  1  0.663536  0.165628  0.625671  1
  W  W25  1  0.168801  0.337958  0.877339  1
  W  W26  1  0.331424  0.836359  0.124297  1
  W  W27  1  0.829430  0.660988  0.373380  1
  W  W28  1  0.335403  0.835430  0.374539  1
  W  W29  1  0.832105  0.663842  0.124158  1
  W  W30  1  0.664654  0.164678  0.877270  1
  W  W31  1  0.167415  0.336922  0.624851  1
  W  W32  1  0.833886  0.504470  0.752266  1
  W  W33  1  0.334526  0.995584  0.752443  1
  W  W34  1  0.165965  0.490091  0.249287  1
  W  W35  1  0.666502  0.007759  0.248107  1
