# generated using pymatgen
data_Mn5SiRh6
_symmetry_space_group_name_H-M   'P 1'
_cell_length_a   3.09132100
_cell_length_b   4.26556044
_cell_length_c   12.66072100
_cell_angle_alpha   90.06129105
_cell_angle_beta   90.00000000
_cell_angle_gamma   90.00000000
_symmetry_Int_Tables_number   1
_chemical_formula_structural   Mn5SiRh6
_chemical_formula_sum   'Mn5 Si1 Rh6'
_cell_volume   166.94691348
_cell_formula_units_Z   1
loop_
 _symmetry_equiv_pos_site_id
 _symmetry_equiv_pos_as_xyz
  1  'x, y, z'
loop_
 _atom_site_type_symbol
 _atom_site_label
 _atom_site_symmetry_multiplicity
 _atom_site_fract_x
 _atom_site_fract_y
 _atom_site_fract_z
 _atom_site_occupancy
  Mn  Mn0  1  0.000000  0.248899  0.250440  1
  Mn  Mn1  1  0.000000  0.751274  0.751845  1
  Mn  Mn2  1  0.000000  0.254678  0.583262  1
  Mn  Mn3  1  0.000000  0.752658  0.414843  1
  Mn  Mn4  1  0.000000  0.246747  0.916197  1
  Si  Si5  1  0.000000  0.745690  0.083404  1
  Rh  Rh6  1  0.500000  0.748380  0.238818  1
  Rh  Rh7  1  0.500000  0.251438  0.752076  1
  Rh  Rh8  1  0.500000  0.754706  0.583299  1
  Rh  Rh9  1  0.500000  0.252698  0.414398  1
  Rh  Rh10  1  0.500000  0.746245  0.928024  1
  Rh  Rh11  1  0.500000  0.246588  0.083394  1
