# generated using pymatgen
data_Dy2YEr3FeBi2
_symmetry_space_group_name_H-M   'P 1'
_cell_length_a   8.29115409
_cell_length_b   8.29115380
_cell_length_c   4.18681400
_cell_angle_alpha   90.00000000
_cell_angle_beta   90.00000000
_cell_angle_gamma   119.84976616
_symmetry_Int_Tables_number   1
_chemical_formula_structural   Dy2YEr3FeBi2
_chemical_formula_sum   'Dy2 Y1 Er3 Fe1 Bi2'
_cell_volume   249.63169636
_cell_formula_units_Z   1
loop_
 _symmetry_equiv_pos_site_id
 _symmetry_equiv_pos_as_xyz
  1  'x, y, z'
loop_
 _atom_site_type_symbol
 _atom_site_label
 _atom_site_symmetry_multiplicity
 _atom_site_fract_x
 _atom_site_fract_y
 _atom_site_fract_z
 _atom_site_occupancy
  Dy  Dy0  1  0.607222  0.999809  0.000000  1
  Dy  Dy1  1  0.999809  0.607222  0.000000  1
  Y  Y2  1  0.393639  0.393639  0.000000  1
  Er  Er3  1  0.229098  0.999588  0.500000  1
  Er  Er4  1  0.999588  0.229098  0.500000  1
  Er  Er5  1  0.771287  0.771287  0.500000  1
  Fe  Fe6  1  0.999603  0.999603  0.000000  1
  Bi  Bi7  1  0.333423  0.666331  0.500000  1
  Bi  Bi8  1  0.666331  0.333423  0.500000  1
