# generated using pymatgen
data_Tm8Sc11Si16Os
_symmetry_space_group_name_H-M   'P 1'
_cell_length_a   6.96191231
_cell_length_b   7.31095334
_cell_length_c   13.81415300
_cell_angle_alpha   90.00000000
_cell_angle_beta   90.00000000
_cell_angle_gamma   90.06984496
_symmetry_Int_Tables_number   1
_chemical_formula_structural   Tm8Sc11Si16Os
_chemical_formula_sum   'Tm8 Sc11 Si16 Os1'
_cell_volume   703.11522165
_cell_formula_units_Z   1
loop_
 _symmetry_equiv_pos_site_id
 _symmetry_equiv_pos_as_xyz
  1  'x, y, z'
loop_
 _atom_site_type_symbol
 _atom_site_label
 _atom_site_symmetry_multiplicity
 _atom_site_fract_x
 _atom_site_fract_y
 _atom_site_fract_z
 _atom_site_occupancy
  Tm  Tm0  1  0.011498  0.178845  0.092171  1
  Tm  Tm1  1  0.994040  0.818163  0.901434  1
  Tm  Tm2  1  0.490451  0.673235  0.903243  1
  Tm  Tm3  1  0.994040  0.818163  0.598566  1
  Tm  Tm4  1  0.510468  0.322834  0.093799  1
  Tm  Tm5  1  0.011498  0.178845  0.407829  1
  Tm  Tm6  1  0.510468  0.322834  0.406201  1
  Tm  Tm7  1  0.490451  0.673235  0.596757  1
  Sc  Sc8  1  0.841377  0.495742  0.250000  1
  Sc  Sc9  1  0.341883  0.004326  0.250000  1
  Sc  Sc10  1  0.656971  0.994204  0.750000  1
  Sc  Sc11  1  0.325765  0.176067  0.627551  1
  Sc  Sc12  1  0.671743  0.824817  0.374445  1
  Sc  Sc13  1  0.172181  0.673910  0.376997  1
  Sc  Sc14  1  0.671743  0.824817  0.125555  1
  Sc  Sc15  1  0.825063  0.331682  0.628751  1
  Sc  Sc16  1  0.325765  0.176067  0.872449  1
  Sc  Sc17  1  0.825063  0.331682  0.871249  1
  Sc  Sc18  1  0.172181  0.673910  0.123003  1
  Si  Si19  1  0.027505  0.115060  0.750000  1
  Si  Si20  1  0.972816  0.888554  0.250000  1
  Si  Si21  1  0.469088  0.612885  0.250000  1
  Si  Si22  1  0.513302  0.397781  0.750000  1
  Si  Si23  1  0.285539  0.855375  0.750000  1
  Si  Si24  1  0.717084  0.131885  0.250000  1
  Si  Si25  1  0.214766  0.368869  0.250000  1
  Si  Si26  1  0.796815  0.632561  0.750000  1
  Si  Si27  1  0.158392  0.466480  0.549046  1
  Si  Si28  1  0.841546  0.536010  0.464130  1
  Si  Si29  1  0.343866  0.965032  0.463397  1
  Si  Si30  1  0.841546  0.536010  0.035870  1
  Si  Si31  1  0.660641  0.034256  0.539758  1
  Si  Si32  1  0.158392  0.466480  0.950954  1
  Si  Si33  1  0.660641  0.034256  0.960242  1
  Si  Si34  1  0.343866  0.965032  0.036603  1
  Os  Os35  1  0.151545  0.500100  0.750000  1
