# generated using pymatgen
data_Tb8Lu4ZnInCo4
_symmetry_space_group_name_H-M   'P 1'
_cell_length_a   8.28186450
_cell_length_b   8.28186398
_cell_length_c   8.28186421
_cell_angle_alpha   111.46992869
_cell_angle_beta   110.07684377
_cell_angle_gamma   106.90028927
_symmetry_Int_Tables_number   1
_chemical_formula_structural   Tb8Lu4ZnInCo4
_chemical_formula_sum   'Tb8 Lu4 Zn1 In1 Co4'
_cell_volume   436.55850357
_cell_formula_units_Z   1
loop_
 _symmetry_equiv_pos_site_id
 _symmetry_equiv_pos_as_xyz
  1  'x, y, z'
loop_
 _atom_site_type_symbol
 _atom_site_label
 _atom_site_symmetry_multiplicity
 _atom_site_fract_x
 _atom_site_fract_y
 _atom_site_fract_z
 _atom_site_occupancy
  Tb  Tb0  1  0.430627  0.226508  0.204118  1
  Tb  Tb1  1  0.569373  0.773492  0.795882  1
  Tb  Tb2  1  0.022390  0.226508  0.795882  1
  Tb  Tb3  1  0.977610  0.773492  0.204118  1
  Tb  Tb4  1  0.184984  0.285398  0.470383  1
  Tb  Tb5  1  0.815016  0.714602  0.529617  1
  Tb  Tb6  1  0.184984  0.714602  0.899587  1
  Tb  Tb7  1  0.815016  0.285398  0.100413  1
  Lu  Lu8  1  0.317927  0.625090  0.307161  1
  Lu  Lu9  1  0.682073  0.374910  0.692839  1
  Lu  Lu10  1  0.317927  0.010767  0.692839  1
  Lu  Lu11  1  0.682073  0.989233  0.307161  1
  Zn  Zn12  1  0.000000  0.000000  0.000000  1
  In  In13  1  0.500000  0.500000  0.000000  1
  Co  Co14  1  0.375420  0.000000  0.375420  1
  Co  Co15  1  0.624580  0.000000  0.624580  1
  Co  Co16  1  0.113607  0.613607  0.500000  1
  Co  Co17  1  0.886393  0.386393  0.500000  1
