# generated using pymatgen
data_Rb10Zn4Sn4S17
_symmetry_space_group_name_H-M   'P 1'
_cell_length_a   10.32823509
_cell_length_b   10.32823465
_cell_length_c   10.32823492
_cell_angle_alpha   90.39046202
_cell_angle_beta   90.39046409
_cell_angle_gamma   90.39045763
_symmetry_Int_Tables_number   1
_chemical_formula_structural   Rb10Zn4Sn4S17
_chemical_formula_sum   'Rb10 Zn4 Sn4 S17'
_cell_volume   1101.66087278
_cell_formula_units_Z   1
loop_
 _symmetry_equiv_pos_site_id
 _symmetry_equiv_pos_as_xyz
  1  'x, y, z'
loop_
 _atom_site_type_symbol
 _atom_site_label
 _atom_site_symmetry_multiplicity
 _atom_site_fract_x
 _atom_site_fract_y
 _atom_site_fract_z
 _atom_site_occupancy
  Rb  Rb0  1  0.999555  0.500791  0.999555  1
  Rb  Rb1  1  0.999555  0.999555  0.500791  1
  Rb  Rb2  1  0.500791  0.999555  0.999555  1
  Rb  Rb3  1  0.039441  0.501383  0.501383  1
  Rb  Rb4  1  0.501383  0.039441  0.501383  1
  Rb  Rb5  1  0.501383  0.501383  0.039441  1
  Rb  Rb6  1  0.331855  0.681866  0.331855  1
  Rb  Rb7  1  0.331855  0.331855  0.681866  1
  Rb  Rb8  1  0.681866  0.331855  0.331855  1
  Rb  Rb9  1  0.667620  0.667620  0.667620  1
  Zn  Zn10  1  0.869205  0.869205  0.869205  1
  Zn  Zn11  1  0.130085  0.869599  0.130085  1
  Zn  Zn12  1  0.869599  0.130085  0.130085  1
  Zn  Zn13  1  0.130085  0.130085  0.869599  1
  Sn  Sn14  1  0.219977  0.779418  0.779418  1
  Sn  Sn15  1  0.779418  0.219977  0.779418  1
  Sn  Sn16  1  0.779418  0.779418  0.219977  1
  Sn  Sn17  1  0.221323  0.221323  0.221323  1
  S  S18  1  0.000385  0.000385  0.000385  1
  S  S19  1  0.346062  0.644636  0.644636  1
  S  S20  1  0.644636  0.346062  0.644636  1
  S  S21  1  0.644636  0.644636  0.346062  1
  S  S22  1  0.355321  0.355321  0.355321  1
  S  S23  1  0.992766  0.732695  0.732695  1
  S  S24  1  0.732695  0.992766  0.732695  1
  S  S25  1  0.732695  0.732695  0.992766  1
  S  S26  1  0.006094  0.733640  0.267336  1
  S  S27  1  0.267910  0.995827  0.267910  1
  S  S28  1  0.267336  0.733640  0.006094  1
  S  S29  1  0.995827  0.267910  0.267910  1
  S  S30  1  0.733640  0.006094  0.267336  1
  S  S31  1  0.733640  0.267336  0.006094  1
  S  S32  1  0.006094  0.267336  0.733640  1
  S  S33  1  0.267336  0.006094  0.733640  1
  S  S34  1  0.267910  0.267910  0.995827  1
