# generated using pymatgen
data_La6Y2CdPt6
_symmetry_space_group_name_H-M   'P 1'
_cell_length_a   7.81067070
_cell_length_b   7.81067029
_cell_length_c   7.81067096
_cell_angle_alpha   69.67829794
_cell_angle_beta   69.67828771
_cell_angle_gamma   69.67829685
_symmetry_Int_Tables_number   1
_chemical_formula_structural   La6Y2CdPt6
_chemical_formula_sum   'La6 Y2 Cd1 Pt6'
_cell_volume   404.87028013
_cell_formula_units_Z   1
loop_
 _symmetry_equiv_pos_site_id
 _symmetry_equiv_pos_as_xyz
  1  'x, y, z'
loop_
 _atom_site_type_symbol
 _atom_site_label
 _atom_site_symmetry_multiplicity
 _atom_site_fract_x
 _atom_site_fract_y
 _atom_site_fract_z
 _atom_site_occupancy
  La  La0  1  0.316639  0.614369  0.856675  1
  La  La1  1  0.856675  0.316639  0.614369  1
  La  La2  1  0.614369  0.856675  0.316639  1
  La  La3  1  0.683361  0.385631  0.143325  1
  La  La4  1  0.143325  0.683361  0.385631  1
  La  La5  1  0.385631  0.143325  0.683361  1
  Y  Y6  1  0.816846  0.816846  0.816846  1
  Y  Y7  1  0.183154  0.183154  0.183154  1
  Cd  Cd8  1  0.000000  0.000000  0.000000  1
  Pt  Pt9  1  0.177859  0.957470  0.571301  1
  Pt  Pt10  1  0.571301  0.177859  0.957470  1
  Pt  Pt11  1  0.957470  0.571301  0.177859  1
  Pt  Pt12  1  0.822141  0.042530  0.428699  1
  Pt  Pt13  1  0.428699  0.822141  0.042530  1
  Pt  Pt14  1  0.042530  0.428699  0.822141  1
