# generated using pymatgen
data_K2VAs2
_symmetry_space_group_name_H-M   'P 1'
_cell_length_a   8.33082106
_cell_length_b   8.33082021
_cell_length_c   8.33082033
_cell_angle_alpha   135.88847954
_cell_angle_beta   128.81665156
_cell_angle_gamma   69.82939980
_symmetry_Int_Tables_number   1
_chemical_formula_structural   K2VAs2
_chemical_formula_sum   'K4 V2 As4'
_cell_volume   307.60835130
_cell_formula_units_Z   2
loop_
 _symmetry_equiv_pos_site_id
 _symmetry_equiv_pos_as_xyz
  1  'x, y, z'
loop_
 _atom_site_type_symbol
 _atom_site_label
 _atom_site_symmetry_multiplicity
 _atom_site_fract_x
 _atom_site_fract_y
 _atom_site_fract_z
 _atom_site_occupancy
  K  K0  1  0.689228  0.348193  0.341034  1
  K  K1  1  0.007159  0.848193  0.158966  1
  K  K2  1  0.992841  0.151807  0.841034  1
  K  K3  1  0.310772  0.651807  0.658966  1
  V  V4  1  0.500000  0.750000  0.250000  1
  V  V5  1  0.500000  0.250000  0.750000  1
  As  As6  1  0.223809  0.401613  0.822196  1
  As  As7  1  0.776191  0.598387  0.177804  1
  As  As8  1  0.420583  0.098387  0.322196  1
  As  As9  1  0.579417  0.901613  0.677804  1
