# generated using pymatgen
data_Tm8Hf11Si16Tc
_symmetry_space_group_name_H-M   'P 1'
_cell_length_a   7.20861567
_cell_length_b   7.20861608
_cell_length_c   13.19726200
_cell_angle_alpha   89.95352882
_cell_angle_beta   90.04647104
_cell_angle_gamma   90.05734390
_symmetry_Int_Tables_number   1
_chemical_formula_structural   Tm8Hf11Si16Tc
_chemical_formula_sum   'Tm8 Hf11 Si16 Tc1'
_cell_volume   685.78361368
_cell_formula_units_Z   1
loop_
 _symmetry_equiv_pos_site_id
 _symmetry_equiv_pos_as_xyz
  1  'x, y, z'
loop_
 _atom_site_type_symbol
 _atom_site_label
 _atom_site_symmetry_multiplicity
 _atom_site_fract_x
 _atom_site_fract_y
 _atom_site_fract_z
 _atom_site_occupancy
  Tm  Tm0  1  0.998982  0.343238  0.212143  1
  Tm  Tm1  1  0.004398  0.655860  0.717080  1
  Tm  Tm2  1  0.156055  0.495464  0.465425  1
  Tm  Tm3  1  0.500967  0.845999  0.033640  1
  Tm  Tm4  1  0.845999  0.500967  0.966360  1
  Tm  Tm5  1  0.495464  0.156055  0.534575  1
  Tm  Tm6  1  0.343238  0.998982  0.787857  1
  Tm  Tm7  1  0.655860  0.004398  0.282920  1
  Hf  Hf8  1  0.825072  0.825072  0.500000  1
  Hf  Hf9  1  0.324604  0.674790  0.248393  1
  Hf  Hf10  1  0.674790  0.324604  0.751607  1
  Hf  Hf11  1  0.147027  0.998352  0.372956  1
  Hf  Hf12  1  0.854008  0.004042  0.877725  1
  Hf  Hf13  1  0.502460  0.647134  0.625258  1
  Hf  Hf14  1  0.351291  0.495501  0.876729  1
  Hf  Hf15  1  0.495501  0.351291  0.123271  1
  Hf  Hf16  1  0.647134  0.502460  0.374742  1
  Hf  Hf17  1  0.998352  0.147027  0.627044  1
  Hf  Hf18  1  0.004042  0.854008  0.122275  1
  Si  Si19  1  0.359786  0.294795  0.316835  1
  Si  Si20  1  0.639370  0.705315  0.818970  1
  Si  Si21  1  0.205515  0.860639  0.567996  1
  Si  Si22  1  0.138596  0.794937  0.931582  1
  Si  Si23  1  0.794937  0.138596  0.068418  1
  Si  Si24  1  0.860639  0.205515  0.432004  1
  Si  Si25  1  0.294795  0.359786  0.683165  1
  Si  Si26  1  0.705315  0.639370  0.181030  1
  Si  Si27  1  0.295355  0.052622  0.181383  1
  Si  Si28  1  0.701873  0.951910  0.685832  1
  Si  Si29  1  0.450416  0.798306  0.434786  1
  Si  Si30  1  0.203078  0.547261  0.064397  1
  Si  Si31  1  0.547261  0.203078  0.935603  1
  Si  Si32  1  0.798306  0.450416  0.565214  1
  Si  Si33  1  0.052622  0.295355  0.818617  1
  Si  Si34  1  0.951910  0.701873  0.314168  1
  Tc  Tc35  1  0.174982  0.174982  0.000000  1
