# generated using pymatgen
data_KEu(PO3)3
_symmetry_space_group_name_H-M   'P 1'
_cell_length_a   7.08820400
_cell_length_b   7.08820510
_cell_length_c   10.81504900
_cell_angle_alpha   90.00000000
_cell_angle_beta   90.00000000
_cell_angle_gamma   119.99999487
_symmetry_Int_Tables_number   1
_chemical_formula_structural   KEu(PO3)3
_chemical_formula_sum   'K2 Eu2 P6 O18'
_cell_volume   470.57801040
_cell_formula_units_Z   2
loop_
 _symmetry_equiv_pos_site_id
 _symmetry_equiv_pos_as_xyz
  1  'x, y, z'
loop_
 _atom_site_type_symbol
 _atom_site_label
 _atom_site_symmetry_multiplicity
 _atom_site_fract_x
 _atom_site_fract_y
 _atom_site_fract_z
 _atom_site_occupancy
  K  K0  1  0.666667  0.333333  0.500000  1
  K  K1  1  0.666667  0.333333  0.000000  1
  Eu  Eu2  1  0.333333  0.666667  0.500000  1
  Eu  Eu3  1  0.333333  0.666667  0.000000  1
  P  P4  1  0.742058  0.769124  0.250000  1
  P  P5  1  0.230876  0.972934  0.250000  1
  P  P6  1  0.027066  0.257942  0.250000  1
  P  P7  1  0.027066  0.769124  0.750000  1
  P  P8  1  0.230876  0.257942  0.750000  1
  P  P9  1  0.742058  0.972934  0.750000  1
  O  O10  1  0.038077  0.372165  0.369284  1
  O  O11  1  0.627835  0.961923  0.630716  1
  O  O12  1  0.627835  0.665912  0.369284  1
  O  O13  1  0.334088  0.961923  0.369284  1
  O  O14  1  0.627835  0.665912  0.130716  1
  O  O15  1  0.334088  0.961923  0.130716  1
  O  O16  1  0.038077  0.372165  0.130716  1
  O  O17  1  0.334088  0.372165  0.869284  1
  O  O18  1  0.038077  0.665912  0.869284  1
  O  O19  1  0.038077  0.665912  0.630716  1
  O  O20  1  0.805914  0.782821  0.750000  1
  O  O21  1  0.976905  0.194086  0.750000  1
  O  O22  1  0.217179  0.023095  0.750000  1
  O  O23  1  0.217179  0.194086  0.250000  1
  O  O24  1  0.976905  0.782821  0.250000  1
  O  O25  1  0.805914  0.023095  0.250000  1
  O  O26  1  0.627835  0.961923  0.869284  1
  O  O27  1  0.334088  0.372165  0.630716  1
