# generated using pymatgen
data_HoTmGa9Ir2Pt
_symmetry_space_group_name_H-M   'P 1'
_cell_length_a   7.61569228
_cell_length_b   7.61552585
_cell_length_c   9.43719500
_cell_angle_alpha   90.00000000
_cell_angle_beta   90.00000000
_cell_angle_gamma   119.96480080
_symmetry_Int_Tables_number   1
_chemical_formula_structural   HoTmGa9Ir2Pt
_chemical_formula_sum   'Ho2 Tm2 Ga18 Ir4 Pt2'
_cell_volume   474.17295071
_cell_formula_units_Z   2
loop_
 _symmetry_equiv_pos_site_id
 _symmetry_equiv_pos_as_xyz
  1  'x, y, z'
loop_
 _atom_site_type_symbol
 _atom_site_label
 _atom_site_symmetry_multiplicity
 _atom_site_fract_x
 _atom_site_fract_y
 _atom_site_fract_z
 _atom_site_occupancy
  Ho  Ho0  1  0.996811  0.669047  0.750000  1
  Ho  Ho1  1  0.003189  0.330953  0.250000  1
  Tm  Tm2  1  0.668836  0.996769  0.750000  1
  Tm  Tm3  1  0.331164  0.003231  0.250000  1
  Ga  Ga4  1  0.130716  0.130814  0.750000  1
  Ga  Ga5  1  0.869284  0.869186  0.250000  1
  Ga  Ga6  1  0.997767  0.336927  0.582353  1
  Ga  Ga7  1  0.002233  0.663073  0.417647  1
  Ga  Ga8  1  0.002233  0.663073  0.082353  1
  Ga  Ga9  1  0.337923  0.998262  0.917978  1
  Ga  Ga10  1  0.997767  0.336927  0.917647  1
  Ga  Ga11  1  0.662077  0.001738  0.082022  1
  Ga  Ga12  1  0.662077  0.001738  0.417978  1
  Ga  Ga13  1  0.337923  0.998262  0.582022  1
  Ga  Ga14  1  0.335321  0.334858  0.069002  1
  Ga  Ga15  1  0.664679  0.665142  0.930998  1
  Ga  Ga16  1  0.664679  0.665142  0.569002  1
  Ga  Ga17  1  0.335321  0.334858  0.430998  1
  Ga  Ga18  1  0.338029  0.547009  0.750000  1
  Ga  Ga19  1  0.661971  0.452991  0.250000  1
  Ga  Ga20  1  0.546512  0.337459  0.750000  1
  Ga  Ga21  1  0.453488  0.662541  0.250000  1
  Ir  Ir22  1  0.671298  0.328685  0.500002  1
  Ir  Ir23  1  0.328702  0.671315  0.499998  1
  Ir  Ir24  1  0.328702  0.671315  0.000002  1
  Ir  Ir25  1  0.671298  0.328685  0.999998  1
  Pt  Pt26  1  0.000000  0.000000  0.500000  1
  Pt  Pt27  1  0.000000  0.000000  0.000000  1
