# generated using pymatgen
data_Tb3ZrAl18NiIr5
_symmetry_space_group_name_H-M   'P 1'
_cell_length_a   7.53245578
_cell_length_b   7.51828323
_cell_length_c   9.39345803
_cell_angle_alpha   90.10489908
_cell_angle_beta   90.17539311
_cell_angle_gamma   119.75631476
_symmetry_Int_Tables_number   1
_chemical_formula_structural   Tb3ZrAl18NiIr5
_chemical_formula_sum   'Tb3 Zr1 Al18 Ni1 Ir5'
_cell_volume   461.81425216
_cell_formula_units_Z   1
loop_
 _symmetry_equiv_pos_site_id
 _symmetry_equiv_pos_as_xyz
  1  'x, y, z'
loop_
 _atom_site_type_symbol
 _atom_site_label
 _atom_site_symmetry_multiplicity
 _atom_site_fract_x
 _atom_site_fract_y
 _atom_site_fract_z
 _atom_site_occupancy
  Tb  Tb0  1  0.005853  0.330585  0.750047  1
  Tb  Tb1  1  0.668466  0.994203  0.249717  1
  Tb  Tb2  1  0.331470  0.006046  0.750003  1
  Zr  Zr3  1  0.994188  0.669420  0.248614  1
  Al  Al4  1  0.121301  0.118411  0.246491  1
  Al  Al5  1  0.875070  0.873325  0.753530  1
  Al  Al6  1  0.000055  0.336139  0.078095  1
  Al  Al7  1  0.000285  0.667350  0.930361  1
  Al  Al8  1  0.999905  0.666775  0.569232  1
  Al  Al9  1  0.330784  0.998137  0.422064  1
  Al  Al10  1  0.000165  0.336850  0.421901  1
  Al  Al11  1  0.666159  0.998655  0.574180  1
  Al  Al12  1  0.667523  0.998811  0.925982  1
  Al  Al13  1  0.329488  0.997586  0.077548  1
  Al  Al14  1  0.333729  0.333893  0.550965  1
  Al  Al15  1  0.668870  0.666686  0.443882  1
  Al  Al16  1  0.672150  0.669391  0.055517  1
  Al  Al17  1  0.331603  0.331368  0.950425  1
  Al  Al18  1  0.334156  0.547020  0.249621  1
  Al  Al19  1  0.662255  0.454625  0.750559  1
  Al  Al20  1  0.552312  0.343739  0.249651  1
  Al  Al21  1  0.453269  0.660593  0.750392  1
  Ni  Ni22  1  0.999372  0.998953  0.001604  1
  Ir  Ir23  1  0.672241  0.327873  0.001081  1
  Ir  Ir24  1  0.328949  0.672677  0.001444  1
  Ir  Ir25  1  0.328398  0.672569  0.498504  1
  Ir  Ir26  1  0.672469  0.328391  0.499236  1
  Ir  Ir27  1  0.999514  0.999930  0.499355  1
