# generated using pymatgen
data_Pr8Ho5Er7Si16
_symmetry_space_group_name_H-M   'P 1'
_cell_length_a   7.50196258
_cell_length_b   7.79000137
_cell_length_c   14.78581262
_cell_angle_alpha   90.01255197
_cell_angle_beta   89.96928259
_cell_angle_gamma   90.03297384
_symmetry_Int_Tables_number   1
_chemical_formula_structural   Pr8Ho5Er7Si16
_chemical_formula_sum   'Pr8 Ho5 Er7 Si16'
_cell_volume   864.08701911
_cell_formula_units_Z   1
loop_
 _symmetry_equiv_pos_site_id
 _symmetry_equiv_pos_as_xyz
  1  'x, y, z'
loop_
 _atom_site_type_symbol
 _atom_site_label
 _atom_site_symmetry_multiplicity
 _atom_site_fract_x
 _atom_site_fract_y
 _atom_site_fract_z
 _atom_site_occupancy
  Pr  Pr0  1  0.975746  0.821375  0.098074  1
  Pr  Pr1  1  0.475836  0.678651  0.401895  1
  Pr  Pr2  1  0.524188  0.321438  0.901877  1
  Pr  Pr3  1  0.024111  0.178587  0.598178  1
  Pr  Pr4  1  0.023909  0.178706  0.901877  1
  Pr  Pr5  1  0.524020  0.321273  0.598207  1
  Pr  Pr6  1  0.476145  0.678675  0.098057  1
  Pr  Pr7  1  0.975985  0.821244  0.401903  1
  Ho  Ho8  1  0.319144  0.178054  0.376762  1
  Ho  Ho9  1  0.319171  0.178139  0.123153  1
  Ho  Ho10  1  0.819139  0.321990  0.376727  1
  Ho  Ho11  1  0.180843  0.678140  0.876707  1
  Ho  Ho12  1  0.680899  0.821793  0.623333  1
  Er  Er13  1  0.649749  0.990339  0.249957  1
  Er  Er14  1  0.149412  0.509990  0.249947  1
  Er  Er15  1  0.850365  0.490205  0.750039  1
  Er  Er16  1  0.350482  0.009721  0.749954  1
  Er  Er17  1  0.680826  0.822135  0.876717  1
  Er  Er18  1  0.180766  0.677874  0.623391  1
  Er  Er19  1  0.819230  0.322066  0.123290  1
  Si  Si20  1  0.769525  0.620349  0.249775  1
  Si  Si21  1  0.269466  0.879129  0.249988  1
  Si  Si22  1  0.730389  0.120472  0.750188  1
  Si  Si23  1  0.230429  0.379586  0.749810  1
  Si  Si24  1  0.023092  0.113601  0.249785  1
  Si  Si25  1  0.524153  0.386722  0.249720  1
  Si  Si26  1  0.476358  0.613719  0.749981  1
  Si  Si27  1  0.976369  0.886251  0.750063  1
  Si  Si28  1  0.855374  0.531077  0.959898  1
  Si  Si29  1  0.355620  0.968509  0.540389  1
  Si  Si30  1  0.644609  0.031076  0.040063  1
  Si  Si31  1  0.144098  0.469385  0.460094  1
  Si  Si32  1  0.143314  0.468727  0.040389  1
  Si  Si33  1  0.643800  0.030966  0.459792  1
  Si  Si34  1  0.356708  0.968700  0.959608  1
  Si  Si35  1  0.856729  0.531334  0.540410  1
