# generated using pymatgen
data_Tb2Y6Ti3Si16W9
_symmetry_space_group_name_H-M   'P 1'
_cell_length_a   6.91162160
_cell_length_b   6.91063592
_cell_length_c   12.83772284
_cell_angle_alpha   89.95320599
_cell_angle_beta   90.02155987
_cell_angle_gamma   89.86099764
_symmetry_Int_Tables_number   1
_chemical_formula_structural   Tb2Y6Ti3Si16W9
_chemical_formula_sum   'Tb2 Y6 Ti3 Si16 W9'
_cell_volume   613.17509609
_cell_formula_units_Z   1
loop_
 _symmetry_equiv_pos_site_id
 _symmetry_equiv_pos_as_xyz
  1  'x, y, z'
loop_
 _atom_site_type_symbol
 _atom_site_label
 _atom_site_symmetry_multiplicity
 _atom_site_fract_x
 _atom_site_fract_y
 _atom_site_fract_z
 _atom_site_occupancy
  Tb  Tb0  1  0.001778  0.338638  0.531438  1
  Tb  Tb1  1  0.999303  0.660938  0.031364  1
  Y  Y2  1  0.338662  0.001417  0.468406  1
  Y  Y3  1  0.497468  0.837491  0.719072  1
  Y  Y4  1  0.499129  0.162239  0.217510  1
  Y  Y5  1  0.837613  0.497641  0.280920  1
  Y  Y6  1  0.162339  0.499278  0.782442  1
  Y  Y7  1  0.660585  0.999319  0.968768  1
  Ti  Ti8  1  0.170261  0.831930  0.248524  1
  Ti  Ti9  1  0.831929  0.170296  0.751480  1
  Ti  Ti10  1  0.668760  0.668604  0.499943  1
  Si  Si11  1  0.200677  0.127911  0.683574  1
  Si  Si12  1  0.374470  0.698182  0.933745  1
  Si  Si13  1  0.627624  0.299087  0.433734  1
  Si  Si14  1  0.698157  0.374292  0.066322  1
  Si  Si15  1  0.299153  0.628082  0.566268  1
  Si  Si16  1  0.797213  0.873098  0.184329  1
  Si  Si17  1  0.128034  0.200133  0.316385  1
  Si  Si18  1  0.873045  0.797050  0.815688  1
  Si  Si19  1  0.289229  0.963405  0.062308  1
  Si  Si20  1  0.539035  0.791411  0.313712  1
  Si  Si21  1  0.459549  0.209394  0.814099  1
  Si  Si22  1  0.791428  0.539369  0.686284  1
  Si  Si23  1  0.209502  0.460001  0.186052  1
  Si  Si24  1  0.709452  0.040189  0.563778  1
  Si  Si25  1  0.963553  0.288798  0.937618  1
  Si  Si26  1  0.040405  0.709937  0.435966  1
  W  W27  1  0.331909  0.332283  0.000029  1
  W  W28  1  0.159154  0.002826  0.873587  1
  W  W29  1  0.493937  0.666096  0.125431  1
  W  W30  1  0.505920  0.339490  0.624998  1
  W  W31  1  0.665487  0.493705  0.874835  1
  W  W32  1  0.339611  0.506155  0.375036  1
  W  W33  1  0.838922  0.993452  0.374408  1
  W  W34  1  0.003337  0.159027  0.126446  1
  W  W35  1  0.993370  0.838841  0.625502  1
