# generated using pymatgen
data_Ca3Cd(Sb2O7)2
_symmetry_space_group_name_H-M   'P 1'
_cell_length_a   7.37012526
_cell_length_b   7.43413183
_cell_length_c   7.43413283
_cell_angle_alpha   120.24105937
_cell_angle_beta   119.27564220
_cell_angle_gamma   90.66809165
_symmetry_Int_Tables_number   1
_chemical_formula_structural   Ca3Cd(Sb2O7)2
_chemical_formula_sum   'Ca3 Cd1 Sb4 O14'
_cell_volume   288.40300965
_cell_formula_units_Z   1
loop_
 _symmetry_equiv_pos_site_id
 _symmetry_equiv_pos_as_xyz
  1  'x, y, z'
loop_
 _atom_site_type_symbol
 _atom_site_label
 _atom_site_symmetry_multiplicity
 _atom_site_fract_x
 _atom_site_fract_y
 _atom_site_fract_z
 _atom_site_occupancy
  Ca  Ca0  1  0.000000  0.000000  0.500000  1
  Ca  Ca1  1  0.000000  0.500000  0.000000  1
  Ca  Ca2  1  0.000000  0.000000  0.000000  1
  Cd  Cd3  1  0.500000  0.500000  0.000000  1
  Sb  Sb4  1  0.500000  0.000000  0.000000  1
  Sb  Sb5  1  0.500000  0.500000  0.500000  1
  Sb  Sb6  1  0.500000  0.000000  0.500000  1
  Sb  Sb7  1  0.000000  0.500000  0.500000  1
  O  O8  1  0.441524  0.089837  0.770508  1
  O  O9  1  0.558476  0.328984  0.648312  1
  O  O10  1  0.177732  0.411968  0.352147  1
  O  O11  1  0.822268  0.174415  0.234237  1
  O  O12  1  0.558476  0.910163  0.229492  1
  O  O13  1  0.441524  0.671016  0.351688  1
  O  O14  1  0.822268  0.588032  0.647853  1
  O  O15  1  0.177732  0.825585  0.765763  1
  O  O16  1  0.607929  0.759461  0.848468  1
  O  O17  1  0.392071  0.240539  0.151532  1
  O  O18  1  0.173541  0.904542  0.268999  1
  O  O19  1  0.826459  0.095458  0.731001  1
  O  O20  1  0.857140  0.592079  0.265061  1
  O  O21  1  0.142860  0.407921  0.734939  1
