# generated using pymatgen
data_La4Zn(Ga3Pt2)3
_symmetry_space_group_name_H-M   'P 1'
_cell_length_a   8.71143741
_cell_length_b   8.71143762
_cell_length_c   8.71143700
_cell_angle_alpha   138.80149236
_cell_angle_beta   106.76323089
_cell_angle_gamma   87.65884501
_symmetry_Int_Tables_number   1
_chemical_formula_structural   La4Zn(Ga3Pt2)3
_chemical_formula_sum   'La4 Zn1 Ga9 Pt6'
_cell_volume   400.34856745
_cell_formula_units_Z   1
loop_
 _symmetry_equiv_pos_site_id
 _symmetry_equiv_pos_as_xyz
  1  'x, y, z'
loop_
 _atom_site_type_symbol
 _atom_site_label
 _atom_site_symmetry_multiplicity
 _atom_site_fract_x
 _atom_site_fract_y
 _atom_site_fract_z
 _atom_site_occupancy
  La  La0  1  0.097037  0.867617  0.227517  1
  La  La1  1  0.640100  0.369518  0.272483  1
  La  La2  1  0.902963  0.130482  0.770582  1
  La  La3  1  0.359900  0.632383  0.729418  1
  Zn  Zn4  1  0.000000  0.750000  0.750000  1
  Ga  Ga5  1  0.277043  0.027043  0.750000  1
  Ga  Ga6  1  0.280203  0.530203  0.250000  1
  Ga  Ga7  1  0.000000  0.250000  0.250000  1
  Ga  Ga8  1  0.244065  0.396064  0.846243  1
  Ga  Ga9  1  0.755935  0.602177  0.151999  1
  Ga  Ga10  1  0.722957  0.472957  0.750000  1
  Ga  Ga11  1  0.549822  0.897823  0.653757  1
  Ga  Ga12  1  0.719797  0.969797  0.250000  1
  Ga  Ga13  1  0.450178  0.103936  0.348001  1
  Pt  Pt14  1  0.032077  0.638003  0.386003  1
  Pt  Pt15  1  0.748000  0.861997  0.894074  1
  Pt  Pt16  1  0.967923  0.353926  0.605926  1
  Pt  Pt17  1  0.252000  0.146074  0.113997  1
  Pt  Pt18  1  0.500000  0.750000  0.250000  1
  Pt  Pt19  1  0.500000  0.250000  0.750000  1
