# generated using pymatgen
data_Hf8InCu8Hg3
_symmetry_space_group_name_H-M   'P 1'
_cell_length_a   7.16469200
_cell_length_b   7.16469200
_cell_length_c   6.79218600
_cell_angle_alpha   90.00000000
_cell_angle_beta   90.00000000
_cell_angle_gamma   90.00000000
_symmetry_Int_Tables_number   1
_chemical_formula_structural   Hf8InCu8Hg3
_chemical_formula_sum   'Hf8 In1 Cu8 Hg3'
_cell_volume   348.66200330
_cell_formula_units_Z   1
loop_
 _symmetry_equiv_pos_site_id
 _symmetry_equiv_pos_as_xyz
  1  'x, y, z'
loop_
 _atom_site_type_symbol
 _atom_site_label
 _atom_site_symmetry_multiplicity
 _atom_site_fract_x
 _atom_site_fract_y
 _atom_site_fract_z
 _atom_site_occupancy
  Hf  Hf0  1  0.148998  0.148866  0.000780  1
  Hf  Hf1  1  0.851002  0.851134  0.000780  1
  Hf  Hf2  1  0.648866  0.351002  0.499220  1
  Hf  Hf3  1  0.351134  0.648998  0.499220  1
  Hf  Hf4  1  0.690611  0.304764  0.001343  1
  Hf  Hf5  1  0.309389  0.695236  0.001343  1
  Hf  Hf6  1  0.804764  0.809389  0.498657  1
  Hf  Hf7  1  0.195236  0.190611  0.498657  1
  In  In8  1  0.000000  0.500000  0.750000  1
  Cu  Cu9  1  0.375611  0.377604  0.202918  1
  Cu  Cu10  1  0.625068  0.622530  0.795322  1
  Cu  Cu11  1  0.624389  0.622396  0.202918  1
  Cu  Cu12  1  0.877470  0.125068  0.704678  1
  Cu  Cu13  1  0.877604  0.124389  0.297082  1
  Cu  Cu14  1  0.374932  0.377470  0.795322  1
  Cu  Cu15  1  0.122396  0.875611  0.297082  1
  Cu  Cu16  1  0.122530  0.874932  0.704678  1
  Hg  Hg17  1  0.500000  0.000000  0.250000  1
  Hg  Hg18  1  0.500000  0.000000  0.750000  1
  Hg  Hg19  1  0.000000  0.500000  0.250000  1
