# generated using pymatgen
data_Th4Rh12W
_symmetry_space_group_name_H-M   'P 1'
_cell_length_a   7.37307405
_cell_length_b   7.37307393
_cell_length_c   7.37307400
_cell_angle_alpha   109.47121808
_cell_angle_beta   109.47121776
_cell_angle_gamma   109.47121996
_symmetry_Int_Tables_number   1
_chemical_formula_structural   Th4Rh12W
_chemical_formula_sum   'Th4 Rh12 W1'
_cell_volume   308.54884053
_cell_formula_units_Z   1
loop_
 _symmetry_equiv_pos_site_id
 _symmetry_equiv_pos_as_xyz
  1  'x, y, z'
loop_
 _atom_site_type_symbol
 _atom_site_label
 _atom_site_symmetry_multiplicity
 _atom_site_fract_x
 _atom_site_fract_y
 _atom_site_fract_z
 _atom_site_occupancy
  Th  Th0  1  0.000000  0.000000  0.500000  1
  Th  Th1  1  0.000000  0.500000  0.000000  1
  Th  Th2  1  0.500000  0.000000  0.000000  1
  Th  Th3  1  0.500000  0.500000  0.500000  1
  Rh  Rh4  1  0.750000  0.250000  0.500000  1
  Rh  Rh5  1  0.750000  0.500000  0.250000  1
  Rh  Rh6  1  0.500000  0.250000  0.750000  1
  Rh  Rh7  1  0.250000  0.500000  0.750000  1
  Rh  Rh8  1  0.250000  0.750000  0.500000  1
  Rh  Rh9  1  0.500000  0.750000  0.250000  1
  Rh  Rh10  1  0.707090  0.707090  0.000000  1
  Rh  Rh11  1  0.292910  0.000000  0.292910  1
  Rh  Rh12  1  0.000000  0.292910  0.292910  1
  Rh  Rh13  1  0.292910  0.292910  0.000000  1
  Rh  Rh14  1  0.707090  0.000000  0.707090  1
  Rh  Rh15  1  0.000000  0.707090  0.707090  1
  W  W16  1  0.000000  0.000000  0.000000  1
