# generated using pymatgen
data_RbUS3
_symmetry_space_group_name_H-M   'P 1'
_cell_length_a   5.22158040
_cell_length_b   5.21624980
_cell_length_c   7.37818913
_cell_angle_alpha   89.83779893
_cell_angle_beta   45.04503826
_cell_angle_gamma   89.80638873
_symmetry_Int_Tables_number   1
_chemical_formula_structural   RbUS3
_chemical_formula_sum   'Rb1 U1 S3'
_cell_volume   142.21116286
_cell_formula_units_Z   1
loop_
 _symmetry_equiv_pos_site_id
 _symmetry_equiv_pos_as_xyz
  1  'x, y, z'
loop_
 _atom_site_type_symbol
 _atom_site_label
 _atom_site_symmetry_multiplicity
 _atom_site_fract_x
 _atom_site_fract_y
 _atom_site_fract_z
 _atom_site_occupancy
  Rb  Rb0  1  0.962855  0.756847  0.244590  1
  U  U1  1  0.970119  0.259325  0.742679  1
  S  S2  1  0.972844  0.759528  0.737412  1
  S  S3  1  0.475321  0.260834  0.242488  1
  S  S4  1  0.469054  0.260132  0.743912  1
