# generated using pymatgen
data_Li12Pr9Tl3(WO6)8
_symmetry_space_group_name_H-M   'P 1'
_cell_length_a   11.06561855
_cell_length_b   10.97796417
_cell_length_c   10.96237703
_cell_angle_alpha   109.29995951
_cell_angle_beta   109.62484981
_cell_angle_gamma   109.70748755
_symmetry_Int_Tables_number   1
_chemical_formula_structural   Li12Pr9Tl3(WO6)8
_chemical_formula_sum   'Li12 Pr9 Tl3 W8 O48'
_cell_volume   1022.34707572
_cell_formula_units_Z   1
loop_
 _symmetry_equiv_pos_site_id
 _symmetry_equiv_pos_as_xyz
  1  'x, y, z'
loop_
 _atom_site_type_symbol
 _atom_site_label
 _atom_site_symmetry_multiplicity
 _atom_site_fract_x
 _atom_site_fract_y
 _atom_site_fract_z
 _atom_site_occupancy
  Li  Li0  1  0.258774  0.885206  0.125701  1
  Li  Li1  1  0.366927  0.240495  0.125701  1
  Li  Li2  1  0.134333  0.379079  0.248640  1
  Li  Li3  1  0.614308  0.869562  0.248640  1
  Li  Li4  1  0.118661  0.754037  0.373408  1
  Li  Li5  1  0.754748  0.619372  0.373409  1
  Li  Li6  1  0.251662  0.374101  0.624914  1
  Li  Li7  1  0.873253  0.250813  0.624915  1
  Li  Li8  1  0.369107  0.117713  0.741927  1
  Li  Li9  1  0.872820  0.624214  0.741927  1
  Li  Li10  1  0.629542  0.749801  0.880262  1
  Li  Li11  1  0.750718  0.130461  0.880262  1
  Pr  Pr12  1  0.873425  0.123425  0.246851  1
  Pr  Pr13  1  0.245741  0.123527  0.371574  1
  Pr  Pr14  1  0.625833  0.248047  0.371574  1
  Pr  Pr15  1  0.746016  0.871898  0.624637  1
  Pr  Pr16  1  0.378622  0.752739  0.624638  1
  Pr  Pr17  1  0.123584  0.873583  0.747167  1
  Pr  Pr18  1  0.627622  0.377621  0.755242  1
  Pr  Pr19  1  0.260835  0.630482  0.882189  1
  Pr  Pr20  1  0.121354  0.251708  0.882190  1
  Tl  Tl21  1  0.782762  0.392276  0.138745  1
  Tl  Tl22  1  0.855985  0.746470  0.138746  1
  Tl  Tl23  1  0.376315  0.626315  0.252631  1
  W  W24  1  0.001857  0.995635  0.000272  1
  W  W25  1  0.498414  0.004637  0.000272  1
  W  W26  1  0.492320  0.482145  0.997708  1
  W  W27  1  0.005386  0.515561  0.997708  1
  W  W28  1  0.993895  0.003202  0.502261  1
  W  W29  1  0.494505  0.000742  0.500597  1
  W  W30  1  0.008366  0.499059  0.502262  1
  W  W31  1  0.506092  0.499856  0.500598  1
  O  O32  1  0.835079  0.901649  0.032034  1
  O  O33  1  0.696955  0.130386  0.032035  1
  O  O34  1  0.189826  0.683443  0.074906  1
  O  O35  1  0.385080  0.391463  0.074906  1
  O  O36  1  0.468110  0.660659  0.098969  1
  O  O37  1  0.130859  0.438310  0.098969  1
  O  O38  1  0.504212  0.181594  0.112297  1
  O  O39  1  0.108087  0.930703  0.112299  1
  O  O40  1  0.976777  0.604561  0.168964  1
  O  O41  1  0.692189  0.564405  0.168966  1
  O  O42  1  0.079663  0.171589  0.192440  1
  O  O43  1  0.612778  0.020852  0.192440  1
  O  O44  1  0.818509  0.924939  0.313293  1
  O  O45  1  0.994785  0.388355  0.313293  1
  O  O46  1  0.410491  0.025725  0.329267  1
  O  O47  1  0.418778  0.303542  0.329267  1
  O  O48  1  0.062178  0.902780  0.369403  1
  O  O49  1  0.807225  0.466624  0.369403  1
  O  O50  1  0.338143  0.532657  0.402851  1
  O  O51  1  0.564707  0.870196  0.402852  1
  O  O52  1  0.606533  0.611067  0.427935  1
  O  O53  1  0.321401  0.816868  0.427935  1
  O  O54  1  0.089792  0.172118  0.477245  1
  O  O55  1  0.887452  0.305125  0.477245  1
  O  O56  1  0.115793  0.693776  0.522675  1
  O  O57  1  0.906883  0.828901  0.522675  1
  O  O58  1  0.407773  0.388841  0.579611  1
  O  O59  1  0.671838  0.190769  0.579612  1
  O  O60  1  0.671878  0.472701  0.591183  1
  O  O61  1  0.419303  0.118483  0.591183  1
  O  O62  1  0.200001  0.524863  0.619465  1
  O  O63  1  0.919465  0.094602  0.619466  1
  O  O64  1  0.581041  0.693869  0.673156  1
  O  O65  1  0.592116  0.979287  0.673157  1
  O  O66  1  0.169648  0.076730  0.687469  1
  O  O67  1  0.017821  0.610738  0.687471  1
  O  O68  1  0.384491  0.975981  0.802293  1
  O  O69  1  0.917802  0.826312  0.802293  1
  O  O70  1  0.308253  0.421535  0.828398  1
  O  O71  1  0.020147  0.406864  0.828399  1
  O  O72  1  0.482503  0.809854  0.888070  1
  O  O73  1  0.905566  0.078215  0.888071  1
  O  O74  1  0.505411  0.318207  0.891071  1
  O  O75  1  0.885660  0.572865  0.891072  1
  O  O76  1  0.622881  0.596971  0.933307  1
  O  O77  1  0.810426  0.336338  0.933307  1
  O  O78  1  0.302879  0.880270  0.969909  1
  O  O79  1  0.167029  0.089640  0.969910  1
