# generated using pymatgen
data_Y5Er(CI5)2
_symmetry_space_group_name_H-M   'P 1'
_cell_length_a   7.67718893
_cell_length_b   9.50434896
_cell_length_c   9.59373662
_cell_angle_alpha   106.93096484
_cell_angle_beta   96.23789222
_cell_angle_gamma   104.22688175
_symmetry_Int_Tables_number   1
_chemical_formula_structural   Y5Er(CI5)2
_chemical_formula_sum   'Y5 Er1 C2 I10'
_cell_volume   636.76434057
_cell_formula_units_Z   1
loop_
 _symmetry_equiv_pos_site_id
 _symmetry_equiv_pos_as_xyz
  1  'x, y, z'
loop_
 _atom_site_type_symbol
 _atom_site_label
 _atom_site_symmetry_multiplicity
 _atom_site_fract_x
 _atom_site_fract_y
 _atom_site_fract_z
 _atom_site_occupancy
  Y  Y0  1  0.029178  0.742940  0.925649  1
  Y  Y1  1  0.103970  0.038192  0.781654  1
  Y  Y2  1  0.970696  0.257117  0.074348  1
  Y  Y3  1  0.895710  0.961448  0.218139  1
  Y  Y4  1  0.372461  0.131637  0.176771  1
  Er  Er5  1  0.629401  0.869338  0.824408  1
  C  C6  1  0.090582  0.029681  0.040916  1
  C  C7  1  0.908013  0.969917  0.958605  1
  I  I8  1  0.199584  0.738006  0.651434  1
  I  I9  1  0.911434  0.634643  0.177789  1
  I  I10  1  0.086793  0.364650  0.821349  1
  I  I11  1  0.744718  0.915110  0.544637  1
  I  I12  1  0.252468  0.083177  0.457763  1
  I  I13  1  0.655163  0.550209  0.728190  1
  I  I14  1  0.457431  0.810248  0.091689  1
  I  I15  1  0.803943  0.262823  0.350444  1
  I  I16  1  0.343915  0.453091  0.271091  1
  I  I17  1  0.544538  0.187774  0.905125  1
