# generated using pymatgen
data_Eu10InHgPd4
_symmetry_space_group_name_H-M   'P 1'
_cell_length_a   9.49585358
_cell_length_b   9.49585452
_cell_length_c   9.49585400
_cell_angle_alpha   128.31293694
_cell_angle_beta   128.31294140
_cell_angle_gamma   76.11862774
_symmetry_Int_Tables_number   1
_chemical_formula_structural   Eu10InHgPd4
_chemical_formula_sum   'Eu10 In1 Hg1 Pd4'
_cell_volume   512.44374820
_cell_formula_units_Z   1
loop_
 _symmetry_equiv_pos_site_id
 _symmetry_equiv_pos_as_xyz
  1  'x, y, z'
loop_
 _atom_site_type_symbol
 _atom_site_label
 _atom_site_symmetry_multiplicity
 _atom_site_fract_x
 _atom_site_fract_y
 _atom_site_fract_z
 _atom_site_occupancy
  Eu  Eu0  1  0.498904  0.498904  0.000000  1
  Eu  Eu1  1  0.001096  0.001096  0.000000  1
  Eu  Eu2  1  0.530110  0.031037  0.830313  1
  Eu  Eu3  1  0.200724  0.699798  0.169687  1
  Eu  Eu4  1  0.031037  0.200724  0.500926  1
  Eu  Eu5  1  0.699798  0.530110  0.499074  1
  Eu  Eu6  1  0.468963  0.969890  0.169687  1
  Eu  Eu7  1  0.800202  0.299276  0.830313  1
  Eu  Eu8  1  0.969890  0.800202  0.500926  1
  Eu  Eu9  1  0.299276  0.468963  0.499074  1
  In  In10  1  0.250000  0.250000  0.000000  1
  Hg  Hg11  1  0.750000  0.750000  0.000000  1
  Pd  Pd12  1  0.128673  0.628673  0.757343  1
  Pd  Pd13  1  0.871327  0.371327  0.242657  1
  Pd  Pd14  1  0.628673  0.871327  0.500000  1
  Pd  Pd15  1  0.371327  0.128673  0.500000  1
