# generated using pymatgen
data_Pr4YErRh18
_symmetry_space_group_name_H-M   'P 1'
_cell_length_a   5.33509200
_cell_length_b   5.33509269
_cell_length_c   17.62770500
_cell_angle_alpha   90.00000000
_cell_angle_beta   90.00000000
_cell_angle_gamma   119.99999572
_symmetry_Int_Tables_number   1
_chemical_formula_structural   Pr4YErRh18
_chemical_formula_sum   'Pr4 Y1 Er1 Rh18'
_cell_volume   434.52053582
_cell_formula_units_Z   1
loop_
 _symmetry_equiv_pos_site_id
 _symmetry_equiv_pos_as_xyz
  1  'x, y, z'
loop_
 _atom_site_type_symbol
 _atom_site_label
 _atom_site_symmetry_multiplicity
 _atom_site_fract_x
 _atom_site_fract_y
 _atom_site_fract_z
 _atom_site_occupancy
  Pr  Pr0  1  0.333333  0.666667  0.956880  1
  Pr  Pr1  1  0.666667  0.333333  0.043032  1
  Pr  Pr2  1  0.333333  0.666667  0.747396  1
  Pr  Pr3  1  0.666667  0.333333  0.252733  1
  Y  Y4  1  0.333333  0.666667  0.540736  1
  Er  Er5  1  0.666667  0.333333  0.458775  1
  Rh  Rh6  1  0.167425  0.832575  0.376411  1
  Rh  Rh7  1  0.167425  0.334850  0.376411  1
  Rh  Rh8  1  0.665150  0.832575  0.376411  1
  Rh  Rh9  1  0.832543  0.167457  0.623771  1
  Rh  Rh10  1  0.832543  0.665086  0.623771  1
  Rh  Rh11  1  0.334914  0.167457  0.623771  1
  Rh  Rh12  1  0.833556  0.166444  0.870831  1
  Rh  Rh13  1  0.833556  0.667113  0.870831  1
  Rh  Rh14  1  0.332887  0.166444  0.870831  1
  Rh  Rh15  1  0.166435  0.833565  0.129178  1
  Rh  Rh16  1  0.166435  0.332870  0.129178  1
  Rh  Rh17  1  0.667130  0.833565  0.129178  1
  Rh  Rh18  1  0.333333  0.666667  0.251951  1
  Rh  Rh19  1  0.666667  0.333333  0.748356  1
  Rh  Rh20  1  0.000000  0.000000  0.252609  1
  Rh  Rh21  1  0.000000  0.000000  0.747535  1
  Rh  Rh22  1  0.000000  0.000000  0.499613  1
  Rh  Rh23  1  0.000000  0.000000  0.999812  1
