# generated using pymatgen
data_TbDyNi5C3
_symmetry_space_group_name_H-M   'P 1'
_cell_length_a   8.22860649
_cell_length_b   8.22860649
_cell_length_c   3.83107000
_cell_angle_alpha   90.00000000
_cell_angle_beta   90.00000000
_cell_angle_gamma   89.96054765
_symmetry_Int_Tables_number   1
_chemical_formula_structural   TbDyNi5C3
_chemical_formula_sum   'Tb2 Dy2 Ni10 C6'
_cell_volume   259.40155308
_cell_formula_units_Z   2
loop_
 _symmetry_equiv_pos_site_id
 _symmetry_equiv_pos_as_xyz
  1  'x, y, z'
loop_
 _atom_site_type_symbol
 _atom_site_label
 _atom_site_symmetry_multiplicity
 _atom_site_fract_x
 _atom_site_fract_y
 _atom_site_fract_z
 _atom_site_occupancy
  Tb  Tb0  1  0.343304  0.843304  0.000000  1
  Tb  Tb1  1  0.656696  0.156696  0.000000  1
  Dy  Dy2  1  0.156408  0.343592  0.000000  1
  Dy  Dy3  1  0.843592  0.656408  0.000000  1
  Ni  Ni4  1  0.577837  0.712245  0.500000  1
  Ni  Ni5  1  0.422163  0.287755  0.500000  1
  Ni  Ni6  1  0.922744  0.212498  0.500000  1
  Ni  Ni7  1  0.077256  0.787502  0.500000  1
  Ni  Ni8  1  0.712498  0.422744  0.500000  1
  Ni  Ni9  1  0.287502  0.577256  0.500000  1
  Ni  Ni10  1  0.212245  0.077837  0.500000  1
  Ni  Ni11  1  0.787755  0.922163  0.500000  1
  Ni  Ni12  1  0.500000  0.500000  0.000000  1
  Ni  Ni13  1  0.000000  0.000000  0.000000  1
  C  C14  1  0.500000  0.500000  0.500000  1
  C  C15  1  0.000000  0.000000  0.500000  1
  C  C16  1  0.058746  0.558746  0.500000  1
  C  C17  1  0.941254  0.441254  0.500000  1
  C  C18  1  0.441241  0.058759  0.500000  1
  C  C19  1  0.558759  0.941241  0.500000  1
