# generated using pymatgen
data_Zr8Si7P5Ir16
_symmetry_space_group_name_H-M   'P 1'
_cell_length_a   12.88186133
_cell_length_b   12.92110721
_cell_length_c   3.91115800
_cell_angle_alpha   90.00000000
_cell_angle_beta   90.00000000
_cell_angle_gamma   119.92544626
_symmetry_Int_Tables_number   1
_chemical_formula_structural   Zr8Si7P5Ir16
_chemical_formula_sum   'Zr8 Si7 P5 Ir16'
_cell_volume   564.20913986
_cell_formula_units_Z   1
loop_
 _symmetry_equiv_pos_site_id
 _symmetry_equiv_pos_as_xyz
  1  'x, y, z'
loop_
 _atom_site_type_symbol
 _atom_site_label
 _atom_site_symmetry_multiplicity
 _atom_site_fract_x
 _atom_site_fract_y
 _atom_site_fract_z
 _atom_site_occupancy
  Zr  Zr0  1  0.441271  0.442390  0.000000  1
  Zr  Zr1  1  0.558187  0.997741  0.000000  1
  Zr  Zr2  1  0.002425  0.561267  0.000000  1
  Zr  Zr3  1  0.665710  0.331471  0.000000  1
  Zr  Zr4  1  0.333330  0.666613  0.000000  1
  Zr  Zr5  1  0.813871  0.811567  0.500000  1
  Zr  Zr6  1  0.190452  0.999174  0.500000  1
  Zr  Zr7  1  0.996808  0.191027  0.500000  1
  Si  Si8  1  0.649608  0.647735  0.000000  1
  Si  Si9  1  0.353554  0.002002  0.000000  1
  Si  Si10  1  0.997496  0.352800  0.000000  1
  Si  Si11  1  0.484009  0.308849  0.500000  1
  Si  Si12  1  0.688888  0.173990  0.500000  1
  Si  Si13  1  0.825843  0.000250  0.000000  1
  Si  Si14  1  0.000188  0.826583  0.000000  1
  P  P15  1  0.826902  0.516674  0.500000  1
  P  P16  1  0.518728  0.826602  0.500000  1
  P  P17  1  0.173103  0.690479  0.500000  1
  P  P18  1  0.310026  0.482967  0.500000  1
  P  P19  1  0.175392  0.176353  0.000000  1
  Ir  Ir20  1  0.191131  0.371667  0.000000  1
  Ir  Ir21  1  0.181322  0.808486  0.000000  1
  Ir  Ir22  1  0.821992  0.626165  0.000000  1
  Ir  Ir23  1  0.805081  0.179324  0.000000  1
  Ir  Ir24  1  0.369591  0.194155  0.000000  1
  Ir  Ir25  1  0.135833  0.495158  0.500000  1
  Ir  Ir26  1  0.359881  0.862916  0.500000  1
  Ir  Ir27  1  0.506247  0.639225  0.500000  1
  Ir  Ir28  1  0.640940  0.512592  0.500000  1
  Ir  Ir29  1  0.873872  0.363015  0.500000  1
  Ir  Ir30  1  0.482760  0.122708  0.500000  1
  Ir  Ir31  1  0.004360  0.004435  0.000000  1
  Ir  Ir32  1  0.723941  0.997969  0.500000  1
  Ir  Ir33  1  0.001145  0.724879  0.500000  1
  Ir  Ir34  1  0.626821  0.818202  0.000000  1
  Ir  Ir35  1  0.269294  0.272569  0.500000  1
