# generated using pymatgen
data_PrTlCd2(Ir2O7)2
_symmetry_space_group_name_H-M   'P 1'
_cell_length_a   7.26891146
_cell_length_b   7.36286620
_cell_length_c   7.26179900
_cell_angle_alpha   60.45304773
_cell_angle_beta   60.03236703
_cell_angle_gamma   60.45628275
_symmetry_Int_Tables_number   1
_chemical_formula_structural   PrTlCd2(Ir2O7)2
_chemical_formula_sum   'Pr1 Tl1 Cd2 Ir4 O14'
_cell_volume   276.76025235
_cell_formula_units_Z   1
loop_
 _symmetry_equiv_pos_site_id
 _symmetry_equiv_pos_as_xyz
  1  'x, y, z'
loop_
 _atom_site_type_symbol
 _atom_site_label
 _atom_site_symmetry_multiplicity
 _atom_site_fract_x
 _atom_site_fract_y
 _atom_site_fract_z
 _atom_site_occupancy
  Pr  Pr0  1  0.125000  0.625000  0.125000  1
  Tl  Tl1  1  0.625000  0.125000  0.125000  1
  Cd  Cd2  1  0.125000  0.125000  0.625000  1
  Cd  Cd3  1  0.125000  0.125000  0.125000  1
  Ir  Ir4  1  0.625000  0.625000  0.625000  1
  Ir  Ir5  1  0.125000  0.625000  0.625000  1
  Ir  Ir6  1  0.625000  0.125000  0.625000  1
  Ir  Ir7  1  0.625000  0.625000  0.125000  1
  O  O8  1  0.951780  0.548005  0.547266  1
  O  O9  1  0.304331  0.303254  0.696207  1
  O  O10  1  0.951780  0.548005  0.952949  1
  O  O11  1  0.691915  0.302110  0.300169  1
  O  O12  1  0.549263  0.544369  0.953184  1
  O  O13  1  0.558085  0.947890  0.544195  1
  O  O14  1  0.558085  0.947890  0.949831  1
  O  O15  1  0.247819  0.234353  0.258914  1
  O  O16  1  0.298220  0.701995  0.702734  1
  O  O17  1  0.691915  0.302110  0.705805  1
  O  O18  1  0.002181  0.015647  0.991086  1
  O  O19  1  0.945669  0.946746  0.553793  1
  O  O20  1  0.298220  0.701995  0.297051  1
  O  O21  1  0.700737  0.705631  0.296816  1
