# generated using pymatgen
data_Y3Er5Tc2(OsC4)2
_symmetry_space_group_name_H-M   'P 1'
_cell_length_a   5.07970800
_cell_length_b   6.52043391
_cell_length_c   9.77047848
_cell_angle_alpha   89.60204877
_cell_angle_beta   90.00000000
_cell_angle_gamma   90.00000000
_symmetry_Int_Tables_number   1
_chemical_formula_structural   Y3Er5Tc2(OsC4)2
_chemical_formula_sum   'Y3 Er5 Tc2 Os2 C8'
_cell_volume   323.60900820
_cell_formula_units_Z   1
loop_
 _symmetry_equiv_pos_site_id
 _symmetry_equiv_pos_as_xyz
  1  'x, y, z'
loop_
 _atom_site_type_symbol
 _atom_site_label
 _atom_site_symmetry_multiplicity
 _atom_site_fract_x
 _atom_site_fract_y
 _atom_site_fract_z
 _atom_site_occupancy
  Y  Y0  1  0.750000  0.468564  0.783901  1
  Y  Y1  1  0.750000  0.970299  0.714144  1
  Y  Y2  1  0.250000  0.029841  0.285699  1
  Er  Er3  1  0.250000  0.677611  0.556048  1
  Er  Er4  1  0.750000  0.322613  0.443427  1
  Er  Er5  1  0.750000  0.823230  0.056833  1
  Er  Er6  1  0.250000  0.176668  0.943490  1
  Er  Er7  1  0.250000  0.531495  0.216728  1
  Tc  Tc8  1  0.250000  0.721901  0.866122  1
  Tc  Tc9  1  0.750000  0.278489  0.134237  1
  Os  Os10  1  0.750000  0.776285  0.365491  1
  Os  Os11  1  0.250000  0.223813  0.633962  1
  C  C12  1  0.250000  0.455831  0.758461  1
  C  C13  1  0.750000  0.544486  0.241108  1
  C  C14  1  0.750000  0.043390  0.259493  1
  C  C15  1  0.250000  0.956872  0.740598  1
  C  C16  1  0.250000  0.823000  0.051774  1
  C  C17  1  0.750000  0.174728  0.949344  1
  C  C18  1  0.750000  0.673095  0.551136  1
  C  C19  1  0.250000  0.327791  0.448007  1
