# generated using pymatgen
data_Li4Sn2HgSe7
_symmetry_space_group_name_H-M   'P 1'
_cell_length_a   10.03947615
_cell_length_b   10.03947529
_cell_length_c   11.02576124
_cell_angle_alpha   86.81456672
_cell_angle_beta   86.81456802
_cell_angle_gamma   42.93992344
_symmetry_Int_Tables_number   1
_chemical_formula_structural   Li4Sn2HgSe7
_chemical_formula_sum   'Li8 Sn4 Hg2 Se14'
_cell_volume   755.70020348
_cell_formula_units_Z   2
loop_
 _symmetry_equiv_pos_site_id
 _symmetry_equiv_pos_as_xyz
  1  'x, y, z'
loop_
 _atom_site_type_symbol
 _atom_site_label
 _atom_site_symmetry_multiplicity
 _atom_site_fract_x
 _atom_site_fract_y
 _atom_site_fract_z
 _atom_site_occupancy
  Li  Li0  1  0.531396  0.179651  0.412925  1
  Li  Li1  1  0.179651  0.531396  0.912925  1
  Li  Li2  1  0.914062  0.218671  0.334855  1
  Li  Li3  1  0.218671  0.914062  0.834855  1
  Li  Li4  1  0.683201  0.310072  0.697146  1
  Li  Li5  1  0.310072  0.683201  0.197146  1
  Li  Li6  1  0.037422  0.384950  0.616236  1
  Li  Li7  1  0.384950  0.037422  0.116236  1
  Sn  Sn8  1  0.467540  0.810433  0.469469  1
  Sn  Sn9  1  0.810433  0.467540  0.969469  1
  Sn  Sn10  1  0.083330  0.767224  0.538154  1
  Sn  Sn11  1  0.767224  0.083330  0.038154  1
  Hg  Hg12  1  0.926811  0.636757  0.259540  1
  Hg  Hg13  1  0.636757  0.926811  0.759540  1
  Se  Se14  1  0.367650  0.693002  0.635731  1
  Se  Se15  1  0.693002  0.367650  0.135731  1
  Se  Se16  1  0.234565  0.546193  0.353827  1
  Se  Se17  1  0.546193  0.234565  0.853827  1
  Se  Se18  1  0.020047  0.627020  0.705286  1
  Se  Se19  1  0.627020  0.020047  0.205286  1
  Se  Se20  1  0.273578  0.940053  0.278757  1
  Se  Se21  1  0.940053  0.273578  0.778757  1
  Se  Se22  1  0.405860  0.081557  0.561845  1
  Se  Se23  1  0.081557  0.405860  0.061845  1
  Se  Se24  1  0.832323  0.505248  0.426486  1
  Se  Se25  1  0.505248  0.832323  0.926486  1
  Se  Se26  1  0.795860  0.130025  0.498075  1
  Se  Se27  1  0.130025  0.795860  0.998075  1
