# generated using pymatgen
data_Tb3Ho2Ni4(P4Ru5)3
_symmetry_space_group_name_H-M   'P 1'
_cell_length_a   12.48311425
_cell_length_b   12.37847121
_cell_length_c   3.88195800
_cell_angle_alpha   90.00000000
_cell_angle_beta   90.00000000
_cell_angle_gamma   119.41601114
_symmetry_Int_Tables_number   1
_chemical_formula_structural   Tb3Ho2Ni4(P4Ru5)3
_chemical_formula_sum   'Tb3 Ho2 Ni4 P12 Ru15'
_cell_volume   522.51304033
_cell_formula_units_Z   1
loop_
 _symmetry_equiv_pos_site_id
 _symmetry_equiv_pos_as_xyz
  1  'x, y, z'
loop_
 _atom_site_type_symbol
 _atom_site_label
 _atom_site_symmetry_multiplicity
 _atom_site_fract_x
 _atom_site_fract_y
 _atom_site_fract_z
 _atom_site_occupancy
  Tb  Tb0  1  0.998462  0.815905  0.500000  1
  Tb  Tb1  1  0.666550  0.333369  0.000000  1
  Tb  Tb2  1  0.338682  0.668623  0.000000  1
  Ho  Ho3  1  0.182992  0.184580  0.500000  1
  Ho  Ho4  1  0.816468  0.001899  0.500000  1
  Ni  Ni5  1  0.282803  0.999520  0.500000  1
  Ni  Ni6  1  0.001949  0.001208  0.000000  1
  Ni  Ni7  1  0.633266  0.808267  0.000000  1
  Ni  Ni8  1  0.715732  0.722590  0.500000  1
  P  P9  1  0.687776  0.523346  0.500000  1
  P  P10  1  0.477424  0.165180  0.500000  1
  P  P11  1  0.829885  0.309448  0.500000  1
  P  P12  1  0.313743  0.832963  0.500000  1
  P  P13  1  0.167666  0.478722  0.500000  1
  P  P14  1  0.826045  0.829617  0.000000  1
  P  P15  1  0.176651  0.001128  0.000000  1
  P  P16  1  0.998663  0.631896  0.000000  1
  P  P17  1  0.369446  0.368790  0.000000  1
  P  P18  1  0.631954  0.998116  0.000000  1
  P  P19  1  0.522638  0.683520  0.500000  1
  P  P20  1  0.001191  0.177637  0.000000  1
  Ru  Ru21  1  0.999336  0.282105  0.500000  1
  Ru  Ru22  1  0.372154  0.175017  0.000000  1
  Ru  Ru23  1  0.801903  0.630927  0.000000  1
  Ru  Ru24  1  0.816897  0.189519  0.000000  1
  Ru  Ru25  1  0.181460  0.374498  0.000000  1
  Ru  Ru26  1  0.193884  0.823089  0.000000  1
  Ru  Ru27  1  0.872121  0.514171  0.500000  1
  Ru  Ru28  1  0.635199  0.122457  0.500000  1
  Ru  Ru29  1  0.487618  0.361528  0.500000  1
  Ru  Ru30  1  0.361448  0.485793  0.500000  1
  Ru  Ru31  1  0.126989  0.640421  0.500000  1
  Ru  Ru32  1  0.517852  0.869298  0.500000  1
  Ru  Ru33  1  0.997173  0.445245  0.000000  1
  Ru  Ru34  1  0.552709  0.559051  0.000000  1
  Ru  Ru35  1  0.443272  0.990562  0.000000  1
