# generated using pymatgen
data_Nb12Al8Co3CuC4
_symmetry_space_group_name_H-M   'P 1'
_cell_length_a   8.26397968
_cell_length_b   8.26397983
_cell_length_c   8.26398092
_cell_angle_alpha   60.09109509
_cell_angle_beta   60.09109247
_cell_angle_gamma   60.09109716
_symmetry_Int_Tables_number   1
_chemical_formula_structural   Nb12Al8Co3CuC4
_chemical_formula_sum   'Nb12 Al8 Co3 Cu1 C4'
_cell_volume   399.89716601
_cell_formula_units_Z   1
loop_
 _symmetry_equiv_pos_site_id
 _symmetry_equiv_pos_as_xyz
  1  'x, y, z'
loop_
 _atom_site_type_symbol
 _atom_site_label
 _atom_site_symmetry_multiplicity
 _atom_site_fract_x
 _atom_site_fract_y
 _atom_site_fract_z
 _atom_site_occupancy
  Nb  Nb0  1  0.688126  0.312552  0.688126  1
  Nb  Nb1  1  0.937448  0.561874  0.561874  1
  Nb  Nb2  1  0.566643  0.936184  0.936184  1
  Nb  Nb3  1  0.936184  0.566643  0.936184  1
  Nb  Nb4  1  0.561874  0.561874  0.937448  1
  Nb  Nb5  1  0.936184  0.936184  0.566643  1
  Nb  Nb6  1  0.688126  0.688126  0.312552  1
  Nb  Nb7  1  0.312552  0.688126  0.688126  1
  Nb  Nb8  1  0.683357  0.313816  0.313816  1
  Nb  Nb9  1  0.313816  0.313816  0.683357  1
  Nb  Nb10  1  0.561874  0.937448  0.561874  1
  Nb  Nb11  1  0.313816  0.683357  0.313816  1
  Al  Al12  1  0.331195  0.331195  0.331195  1
  Al  Al13  1  0.247542  0.915126  0.915126  1
  Al  Al14  1  0.915126  0.247542  0.915126  1
  Al  Al15  1  0.915126  0.915126  0.247542  1
  Al  Al16  1  0.334874  0.002458  0.334874  1
  Al  Al17  1  0.334874  0.334874  0.002458  1
  Al  Al18  1  0.002458  0.334874  0.334874  1
  Al  Al19  1  0.918805  0.918805  0.918805  1
  Co  Co20  1  0.625000  0.125000  0.125000  1
  Co  Co21  1  0.125000  0.625000  0.125000  1
  Co  Co22  1  0.125000  0.125000  0.625000  1
  Cu  Cu23  1  0.125000  0.125000  0.125000  1
  C  C24  1  0.625000  0.625000  0.625000  1
  C  C25  1  0.125000  0.625000  0.625000  1
  C  C26  1  0.625000  0.125000  0.625000  1
  C  C27  1  0.625000  0.625000  0.125000  1
