# generated using pymatgen
data_Pr10Si16Sn
_symmetry_space_group_name_H-M   'P 1'
_cell_length_a   11.58110955
_cell_length_b   11.51431443
_cell_length_c   11.58106087
_cell_angle_alpha   145.05682418
_cell_angle_beta   135.77451242
_cell_angle_gamma   57.67747097
_symmetry_Int_Tables_number   1
_chemical_formula_structural   Pr10Si16Sn
_chemical_formula_sum   'Pr10 Si16 Sn1'
_cell_volume   611.54758263
_cell_formula_units_Z   1
loop_
 _symmetry_equiv_pos_site_id
 _symmetry_equiv_pos_as_xyz
  1  'x, y, z'
loop_
 _atom_site_type_symbol
 _atom_site_label
 _atom_site_symmetry_multiplicity
 _atom_site_fract_x
 _atom_site_fract_y
 _atom_site_fract_z
 _atom_site_occupancy
  Pr  Pr0  1  0.753332  0.761835  0.516274  1
  Pr  Pr1  1  0.439770  0.972236  0.015509  1
  Pr  Pr2  1  0.848428  0.367389  0.017551  1
  Pr  Pr3  1  0.956710  0.972003  0.532201  1
  Pr  Pr4  1  0.149764  0.162237  0.513390  1
  Pr  Pr5  1  0.349821  0.367291  0.518906  1
  Pr  Pr6  1  0.245653  0.761731  0.008480  1
  Pr  Pr7  1  0.546376  0.557036  0.498659  1
  Pr  Pr8  1  0.058232  0.557029  0.010624  1
  Pr  Pr9  1  0.648782  0.162227  0.012445  1
  Si  Si10  1  0.197719  0.599618  0.401905  1
  Si  Si11  1  0.999391  0.089006  0.089807  1
  Si  Si12  1  0.700012  0.283754  0.584075  1
  Si  Si13  1  0.800901  0.192744  0.391800  1
  Si  Si14  1  0.896717  0.498694  0.602207  1
  Si  Si15  1  0.410704  0.855055  0.444218  1
  Si  Si16  1  0.102256  0.707397  0.605577  1
  Si  Si17  1  0.300292  0.892468  0.592148  1
  Si  Si18  1  0.586644  0.038470  0.451728  1
  Si  Si19  1  0.999081  0.433141  0.433801  1
  Si  Si20  1  0.887557  0.832871  0.945184  1
  Si  Si21  1  0.401457  0.500274  0.098938  1
  Si  Si22  1  0.109850  0.062496  0.952503  1
  Si  Si23  1  0.294938  0.235058  0.939969  1
  Si  Si24  1  0.499306  0.406152  0.906815  1
  Si  Si25  1  0.596779  0.705252  0.108820  1
  Sn  Sn26  1  0.719528  0.688033  0.967960  1
