# generated using pymatgen
data_K2Ti(AgTe2)2
_symmetry_space_group_name_H-M   'P 1'
_cell_length_a   7.96617820
_cell_length_b   7.96617907
_cell_length_c   6.45887300
_cell_angle_alpha   90.00000000
_cell_angle_beta   90.00000000
_cell_angle_gamma   131.97441813
_symmetry_Int_Tables_number   1
_chemical_formula_structural   K2Ti(AgTe2)2
_chemical_formula_sum   'K2 Ti1 Ag2 Te4'
_cell_volume   304.72269569
_cell_formula_units_Z   1
loop_
 _symmetry_equiv_pos_site_id
 _symmetry_equiv_pos_as_xyz
  1  'x, y, z'
loop_
 _atom_site_type_symbol
 _atom_site_label
 _atom_site_symmetry_multiplicity
 _atom_site_fract_x
 _atom_site_fract_y
 _atom_site_fract_z
 _atom_site_occupancy
  K  K0  1  0.500000  0.000000  0.253015  1
  K  K1  1  0.000000  0.500000  0.746985  1
  Ti  Ti2  1  0.000000  0.000000  0.000000  1
  Ag  Ag3  1  0.000000  0.000000  0.500000  1
  Ag  Ag4  1  0.500000  0.500000  0.000000  1
  Te  Te5  1  0.879877  0.656981  0.231233  1
  Te  Te6  1  0.120123  0.343019  0.231233  1
  Te  Te7  1  0.656981  0.879877  0.768767  1
  Te  Te8  1  0.343019  0.120123  0.768767  1
