# generated using pymatgen
data_Dy2Er9Tm5(Ga3Co)2
_symmetry_space_group_name_H-M   'P 1'
_cell_length_a   9.89521900
_cell_length_b   9.89521200
_cell_length_c   6.89446707
_cell_angle_alpha   89.98600392
_cell_angle_beta   90.00000000
_cell_angle_gamma   120.00003342
_symmetry_Int_Tables_number   1
_chemical_formula_structural   Dy2Er9Tm5(Ga3Co)2
_chemical_formula_sum   'Dy2 Er9 Tm5 Ga6 Co2'
_cell_volume   584.63078920
_cell_formula_units_Z   1
loop_
 _symmetry_equiv_pos_site_id
 _symmetry_equiv_pos_as_xyz
  1  'x, y, z'
loop_
 _atom_site_type_symbol
 _atom_site_label
 _atom_site_symmetry_multiplicity
 _atom_site_fract_x
 _atom_site_fract_y
 _atom_site_fract_z
 _atom_site_occupancy
  Dy  Dy0  1  0.000079  0.000159  0.269325  1
  Dy  Dy1  1  0.000176  0.000351  0.770273  1
  Er  Er2  1  0.826643  0.653285  0.490042  1
  Er  Er3  1  0.333335  0.666671  0.673004  1
  Er  Er4  1  0.666495  0.332989  0.172715  1
  Er  Er5  1  0.463654  0.536085  0.293214  1
  Er  Er6  1  0.535972  0.463488  0.793457  1
  Er  Er7  1  0.463812  0.927624  0.293233  1
  Er  Er8  1  0.072430  0.536085  0.293214  1
  Er  Er9  1  0.927516  0.463488  0.793457  1
  Er  Er10  1  0.536343  0.072685  0.792950  1
  Tm  Tm11  1  0.173590  0.826395  0.990070  1
  Tm  Tm12  1  0.826361  0.173572  0.490056  1
  Tm  Tm13  1  0.173572  0.347145  0.989996  1
  Tm  Tm14  1  0.652804  0.826395  0.990070  1
  Tm  Tm15  1  0.347212  0.173572  0.490056  1
  Ga  Ga16  1  0.164175  0.836931  0.541469  1
  Ga  Ga17  1  0.836637  0.163338  0.041327  1
  Ga  Ga18  1  0.163434  0.326868  0.541464  1
  Ga  Ga19  1  0.672756  0.836931  0.541469  1
  Ga  Ga20  1  0.326701  0.163338  0.041327  1
  Ga  Ga21  1  0.836591  0.673183  0.040654  1
  Co  Co22  1  0.333326  0.666652  0.056618  1
  Co  Co23  1  0.666386  0.332770  0.556659  1
