# generated using pymatgen
data_LuZr3(Tc3Os)2
_symmetry_space_group_name_H-M   'P 1'
_cell_length_a   5.22149400
_cell_length_b   5.22149361
_cell_length_c   8.83111800
_cell_angle_alpha   90.00000000
_cell_angle_beta   90.00000000
_cell_angle_gamma   120.00000247
_symmetry_Int_Tables_number   1
_chemical_formula_structural   LuZr3(Tc3Os)2
_chemical_formula_sum   'Lu1 Zr3 Tc6 Os2'
_cell_volume   208.51429925
_cell_formula_units_Z   1
loop_
 _symmetry_equiv_pos_site_id
 _symmetry_equiv_pos_as_xyz
  1  'x, y, z'
loop_
 _atom_site_type_symbol
 _atom_site_label
 _atom_site_symmetry_multiplicity
 _atom_site_fract_x
 _atom_site_fract_y
 _atom_site_fract_z
 _atom_site_occupancy
  Lu  Lu0  1  0.333333  0.666667  0.436760  1
  Zr  Zr1  1  0.666667  0.333333  0.564336  1
  Zr  Zr2  1  0.666667  0.333333  0.936108  1
  Zr  Zr3  1  0.333333  0.666667  0.065784  1
  Tc  Tc4  1  0.828303  0.171697  0.248065  1
  Tc  Tc5  1  0.828303  0.656606  0.248065  1
  Tc  Tc6  1  0.343394  0.171697  0.248065  1
  Tc  Tc7  1  0.171408  0.828592  0.751499  1
  Tc  Tc8  1  0.171408  0.342817  0.751499  1
  Tc  Tc9  1  0.657183  0.828592  0.751499  1
  Os  Os10  1  0.000000  0.000000  0.499189  1
  Os  Os11  1  0.000000  0.000000  0.999131  1
