# generated using pymatgen
data_Nd18Bi7Pb3O10
_symmetry_space_group_name_H-M   'P 1'
_cell_length_a   10.35242464
_cell_length_b   10.35346039
_cell_length_c   9.33255700
_cell_angle_alpha   90.01478678
_cell_angle_beta   89.96778351
_cell_angle_gamma   90.00509957
_symmetry_Int_Tables_number   1
_chemical_formula_structural   Nd18Bi7Pb3O10
_chemical_formula_sum   'Nd18 Bi7 Pb3 O10'
_cell_volume   1000.29516600
_cell_formula_units_Z   1
loop_
 _symmetry_equiv_pos_site_id
 _symmetry_equiv_pos_as_xyz
  1  'x, y, z'
loop_
 _atom_site_type_symbol
 _atom_site_label
 _atom_site_symmetry_multiplicity
 _atom_site_fract_x
 _atom_site_fract_y
 _atom_site_fract_z
 _atom_site_occupancy
  Nd  Nd0  1  0.497034  0.999517  0.678087  1
  Nd  Nd1  1  0.000329  0.500220  0.322283  1
  Nd  Nd2  1  0.106960  0.202273  0.663758  1
  Nd  Nd3  1  0.896160  0.796163  0.663876  1
  Nd  Nd4  1  0.298908  0.603786  0.663837  1
  Nd  Nd5  1  0.700343  0.398776  0.663547  1
  Nd  Nd6  1  0.395864  0.295652  0.341489  1
  Nd  Nd7  1  0.604076  0.704579  0.341343  1
  Nd  Nd8  1  0.204540  0.895374  0.341257  1
  Nd  Nd9  1  0.795297  0.104080  0.337495  1
  Nd  Nd10  1  0.724694  0.918238  0.999818  1
  Nd  Nd11  1  0.273619  0.080398  0.998810  1
  Nd  Nd12  1  0.579778  0.226253  0.998793  1
  Nd  Nd13  1  0.418988  0.773319  0.998544  1
  Nd  Nd14  1  0.772273  0.583985  0.995190  1
  Nd  Nd15  1  0.228212  0.415714  0.995285  1
  Nd  Nd16  1  0.916696  0.275054  0.996772  1
  Nd  Nd17  1  0.084153  0.727522  0.995658  1
  Bi  Bi18  1  0.500688  0.000227  0.315323  1
  Bi  Bi19  1  0.000436  0.499161  0.681760  1
  Bi  Bi20  1  0.804168  0.097512  0.697120  1
  Bi  Bi21  1  0.095578  0.196055  0.301737  1
  Bi  Bi22  1  0.903716  0.804429  0.301557  1
  Bi  Bi23  1  0.303776  0.595876  0.300724  1
  Bi  Bi24  1  0.696277  0.403577  0.301075  1
  Pb  Pb25  1  0.403110  0.303922  0.698179  1
  Pb  Pb26  1  0.597277  0.697468  0.697819  1
  Pb  Pb27  1  0.196140  0.901661  0.697404  1
  O  O28  1  0.501981  0.001609  0.935939  1
  O  O29  1  0.998893  0.499176  0.065507  1
  O  O30  1  0.774708  0.121225  0.087348  1
  O  O31  1  0.226405  0.878700  0.089647  1
  O  O32  1  0.378877  0.273887  0.090244  1
  O  O33  1  0.621061  0.725803  0.089860  1
  O  O34  1  0.726201  0.378925  0.912268  1
  O  O35  1  0.274086  0.619849  0.913424  1
  O  O36  1  0.119032  0.224910  0.913574  1
  O  O37  1  0.879669  0.775127  0.913652  1
