# generated using pymatgen
data_La8Y12Ga3Sn13
_symmetry_space_group_name_H-M   'P 1'
_cell_length_a   8.10132900
_cell_length_b   8.47011075
_cell_length_c   15.83862200
_cell_angle_alpha   90.00000000
_cell_angle_beta   90.00000000
_cell_angle_gamma   89.65815566
_symmetry_Int_Tables_number   1
_chemical_formula_structural   La8Y12Ga3Sn13
_chemical_formula_sum   'La8 Y12 Ga3 Sn13'
_cell_volume   1086.81349651
_cell_formula_units_Z   1
loop_
 _symmetry_equiv_pos_site_id
 _symmetry_equiv_pos_as_xyz
  1  'x, y, z'
loop_
 _atom_site_type_symbol
 _atom_site_label
 _atom_site_symmetry_multiplicity
 _atom_site_fract_x
 _atom_site_fract_y
 _atom_site_fract_z
 _atom_site_occupancy
  La  La0  1  0.000601  0.177150  0.097170  1
  La  La1  1  0.999814  0.825065  0.905251  1
  La  La2  1  0.500956  0.678148  0.902716  1
  La  La3  1  0.999814  0.825065  0.594749  1
  La  La4  1  0.500846  0.324197  0.096722  1
  La  La5  1  0.000601  0.177150  0.402830  1
  La  La6  1  0.500846  0.324197  0.403278  1
  La  La7  1  0.500956  0.678148  0.597284  1
  Y  Y8  1  0.175701  0.500273  0.750000  1
  Y  Y9  1  0.816760  0.502822  0.250000  1
  Y  Y10  1  0.316974  0.996374  0.250000  1
  Y  Y11  1  0.679590  0.001406  0.750000  1
  Y  Y12  1  0.324761  0.164338  0.626244  1
  Y  Y13  1  0.666068  0.829215  0.371084  1
  Y  Y14  1  0.164784  0.670697  0.370721  1
  Y  Y15  1  0.666068  0.829215  0.128916  1
  Y  Y16  1  0.844094  0.328317  0.627798  1
  Y  Y17  1  0.324761  0.164338  0.873756  1
  Y  Y18  1  0.844094  0.328317  0.872202  1
  Y  Y19  1  0.164784  0.670697  0.129279  1
  Ga  Ga20  1  0.031952  0.124261  0.750000  1
  Ga  Ga21  1  0.964375  0.873239  0.250000  1
  Ga  Ga22  1  0.464161  0.628250  0.250000  1
  Sn  Sn23  1  0.534713  0.369830  0.750000  1
  Sn  Sn24  1  0.297526  0.863571  0.750000  1
  Sn  Sn25  1  0.700770  0.133710  0.250000  1
  Sn  Sn26  1  0.201889  0.366575  0.250000  1
  Sn  Sn27  1  0.809511  0.642538  0.750000  1
  Sn  Sn28  1  0.176128  0.462398  0.539149  1
  Sn  Sn29  1  0.826101  0.537910  0.459616  1
  Sn  Sn30  1  0.327301  0.960829  0.458463  1
  Sn  Sn31  1  0.826101  0.537910  0.040384  1
  Sn  Sn32  1  0.671587  0.040310  0.539583  1
  Sn  Sn33  1  0.176128  0.462398  0.960851  1
  Sn  Sn34  1  0.671587  0.040310  0.960417  1
  Sn  Sn35  1  0.327301  0.960829  0.041537  1
