# generated using pymatgen
data_CaLaRh4
_symmetry_space_group_name_H-M   'P 1'
_cell_length_a   5.42176146
_cell_length_b   5.42176164
_cell_length_c   5.42176100
_cell_angle_alpha   59.99999778
_cell_angle_beta   59.99999670
_cell_angle_gamma   60.00000593
_symmetry_Int_Tables_number   1
_chemical_formula_structural   CaLaRh4
_chemical_formula_sum   'Ca1 La1 Rh4'
_cell_volume   112.69540250
_cell_formula_units_Z   1
loop_
 _symmetry_equiv_pos_site_id
 _symmetry_equiv_pos_as_xyz
  1  'x, y, z'
loop_
 _atom_site_type_symbol
 _atom_site_label
 _atom_site_symmetry_multiplicity
 _atom_site_fract_x
 _atom_site_fract_y
 _atom_site_fract_z
 _atom_site_occupancy
  Ca  Ca0  1  0.750000  0.750000  0.750000  1
  La  La1  1  0.500000  0.500000  0.500000  1
  Rh  Rh2  1  0.124804  0.124804  0.625589  1
  Rh  Rh3  1  0.124804  0.625589  0.124804  1
  Rh  Rh4  1  0.124804  0.124804  0.124804  1
  Rh  Rh5  1  0.625589  0.124804  0.124804  1
