# generated using pymatgen
data_Nb4Cu4Si4Mo
_symmetry_space_group_name_H-M   'P 1'
_cell_length_a   7.40651465
_cell_length_b   7.40651428
_cell_length_c   7.40651413
_cell_angle_alpha   93.43158802
_cell_angle_beta   93.43158131
_cell_angle_gamma   151.67695538
_symmetry_Int_Tables_number   1
_chemical_formula_structural   Nb4Cu4Si4Mo
_chemical_formula_sum   'Nb4 Cu4 Si4 Mo1'
_cell_volume   186.90549139
_cell_formula_units_Z   1
loop_
 _symmetry_equiv_pos_site_id
 _symmetry_equiv_pos_as_xyz
  1  'x, y, z'
loop_
 _atom_site_type_symbol
 _atom_site_label
 _atom_site_symmetry_multiplicity
 _atom_site_fract_x
 _atom_site_fract_y
 _atom_site_fract_z
 _atom_site_occupancy
  Nb  Nb0  1  0.127379  0.805038  0.932417  1
  Nb  Nb1  1  0.194962  0.127379  0.322341  1
  Nb  Nb2  1  0.805038  0.872621  0.677659  1
  Nb  Nb3  1  0.872621  0.194962  0.067583  1
  Cu  Cu4  1  0.395754  0.917734  0.313487  1
  Cu  Cu5  1  0.604246  0.082266  0.686513  1
  Cu  Cu6  1  0.917734  0.604246  0.521980  1
  Cu  Cu7  1  0.082266  0.395754  0.478020  1
  Si  Si8  1  0.249852  0.558966  0.808818  1
  Si  Si9  1  0.441034  0.249852  0.690885  1
  Si  Si10  1  0.558966  0.750148  0.309115  1
  Si  Si11  1  0.750148  0.441034  0.191182  1
  Mo  Mo12  1  0.500000  0.500000  0.000000  1
