# generated using pymatgen
data_NdEu(SiPt2)2
_symmetry_space_group_name_H-M   'P 1'
_cell_length_a   4.14450265
_cell_length_b   4.19865300
_cell_length_c   9.24744718
_cell_angle_alpha   90.00000000
_cell_angle_beta   102.94931004
_cell_angle_gamma   90.00000000
_symmetry_Int_Tables_number   1
_chemical_formula_structural   NdEu(SiPt2)2
_chemical_formula_sum   'Nd1 Eu1 Si2 Pt4'
_cell_volume   156.82551560
_cell_formula_units_Z   1
loop_
 _symmetry_equiv_pos_site_id
 _symmetry_equiv_pos_as_xyz
  1  'x, y, z'
loop_
 _atom_site_type_symbol
 _atom_site_label
 _atom_site_symmetry_multiplicity
 _atom_site_fract_x
 _atom_site_fract_y
 _atom_site_fract_z
 _atom_site_occupancy
  Nd  Nd0  1  0.600866  0.250000  0.201731  1
  Eu  Eu1  1  0.400272  0.750000  0.800544  1
  Si  Si2  1  0.822336  0.250000  0.644673  1
  Si  Si3  1  0.177694  0.750000  0.355387  1
  Pt  Pt4  1  0.952895  0.250000  0.905790  1
  Pt  Pt5  1  0.047288  0.750000  0.094575  1
  Pt  Pt6  1  0.250658  0.250000  0.501314  1
  Pt  Pt7  1  0.747992  0.750000  0.495986  1
