# generated using pymatgen
data_Nd3Mg3SiGeAu
_symmetry_space_group_name_H-M   'P 1'
_cell_length_a   7.44632100
_cell_length_b   7.44632062
_cell_length_c   4.42629000
_cell_angle_alpha   90.00000000
_cell_angle_beta   90.00000000
_cell_angle_gamma   119.99999725
_symmetry_Int_Tables_number   1
_chemical_formula_structural   Nd3Mg3SiGeAu
_chemical_formula_sum   'Nd3 Mg3 Si1 Ge1 Au1'
_cell_volume   212.54651778
_cell_formula_units_Z   1
loop_
 _symmetry_equiv_pos_site_id
 _symmetry_equiv_pos_as_xyz
  1  'x, y, z'
loop_
 _atom_site_type_symbol
 _atom_site_label
 _atom_site_symmetry_multiplicity
 _atom_site_fract_x
 _atom_site_fract_y
 _atom_site_fract_z
 _atom_site_occupancy
  Nd  Nd0  1  0.584554  0.001210  0.000000  1
  Nd  Nd1  1  0.998790  0.583344  0.000000  1
  Nd  Nd2  1  0.416656  0.415446  0.000000  1
  Mg  Mg3  1  0.245082  0.000767  0.500000  1
  Mg  Mg4  1  0.999233  0.244314  0.500000  1
  Mg  Mg5  1  0.755686  0.754918  0.500000  1
  Si  Si6  1  0.666667  0.333333  0.500000  1
  Ge  Ge7  1  0.333333  0.666667  0.500000  1
  Au  Au8  1  0.000000  0.000000  0.000000  1
