# generated using pymatgen
data_Nd3Lu3ReBi2
_symmetry_space_group_name_H-M   'P 1'
_cell_length_a   8.30823000
_cell_length_b   8.30822806
_cell_length_c   4.40848100
_cell_angle_alpha   90.00000000
_cell_angle_beta   90.00000000
_cell_angle_gamma   120.00000773
_symmetry_Int_Tables_number   1
_chemical_formula_structural   Nd3Lu3ReBi2
_chemical_formula_sum   'Nd3 Lu3 Re1 Bi2'
_cell_volume   263.53390137
_cell_formula_units_Z   1
loop_
 _symmetry_equiv_pos_site_id
 _symmetry_equiv_pos_as_xyz
  1  'x, y, z'
loop_
 _atom_site_type_symbol
 _atom_site_label
 _atom_site_symmetry_multiplicity
 _atom_site_fract_x
 _atom_site_fract_y
 _atom_site_fract_z
 _atom_site_occupancy
  Nd  Nd0  1  0.608171  0.000000  0.000000  1
  Nd  Nd1  1  0.000000  0.608171  0.000000  1
  Nd  Nd2  1  0.391829  0.391829  0.000000  1
  Lu  Lu3  1  0.225650  0.000000  0.500000  1
  Lu  Lu4  1  0.000000  0.225650  0.500000  1
  Lu  Lu5  1  0.774350  0.774350  0.500000  1
  Re  Re6  1  0.000000  0.000000  0.000000  1
  Bi  Bi7  1  0.333333  0.666667  0.500000  1
  Bi  Bi8  1  0.666667  0.333333  0.500000  1
