# generated using pymatgen
data_Yb11Pr(ErSn2)8
_symmetry_space_group_name_H-M   'P 1'
_cell_length_a   7.82911528
_cell_length_b   8.42114820
_cell_length_c   15.99386022
_cell_angle_alpha   90.01796346
_cell_angle_beta   90.13452493
_cell_angle_gamma   89.90160871
_symmetry_Int_Tables_number   1
_chemical_formula_structural   Yb11Pr(ErSn2)8
_chemical_formula_sum   'Yb11 Pr1 Er8 Sn16'
_cell_volume   1054.47293285
_cell_formula_units_Z   1
loop_
 _symmetry_equiv_pos_site_id
 _symmetry_equiv_pos_as_xyz
  1  'x, y, z'
loop_
 _atom_site_type_symbol
 _atom_site_label
 _atom_site_symmetry_multiplicity
 _atom_site_fract_x
 _atom_site_fract_y
 _atom_site_fract_z
 _atom_site_occupancy
  Yb  Yb0  1  0.000214  0.813391  0.907387  1
  Yb  Yb1  1  0.499697  0.313716  0.093108  1
  Yb  Yb2  1  0.000526  0.186750  0.406729  1
  Yb  Yb3  1  0.499620  0.315018  0.406514  1
  Yb  Yb4  1  0.999592  0.186916  0.093148  1
  Yb  Yb5  1  0.500071  0.686265  0.906571  1
  Yb  Yb6  1  0.000586  0.813993  0.592627  1
  Yb  Yb7  1  0.829773  0.509760  0.751037  1
  Yb  Yb8  1  0.328701  0.990135  0.750634  1
  Yb  Yb9  1  0.170786  0.488940  0.249947  1
  Yb  Yb10  1  0.670671  0.010928  0.249778  1
  Pr  Pr11  1  0.501770  0.683744  0.593338  1
  Er  Er12  1  0.667378  0.168758  0.622388  1
  Er  Er13  1  0.167549  0.332352  0.878317  1
  Er  Er14  1  0.331755  0.832780  0.122243  1
  Er  Er15  1  0.832013  0.667389  0.377667  1
  Er  Er16  1  0.331658  0.832593  0.376908  1
  Er  Er17  1  0.831770  0.667140  0.122168  1
  Er  Er18  1  0.668823  0.167473  0.877858  1
  Er  Er19  1  0.166600  0.331684  0.621906  1
  Sn  Sn20  1  0.674005  0.963842  0.460738  1
  Sn  Sn21  1  0.174265  0.536900  0.039654  1
  Sn  Sn22  1  0.326887  0.035435  0.959640  1
  Sn  Sn23  1  0.825560  0.462471  0.539836  1
  Sn  Sn24  1  0.326209  0.034721  0.540313  1
  Sn  Sn25  1  0.826055  0.463912  0.959957  1
  Sn  Sn26  1  0.673622  0.964426  0.040053  1
  Sn  Sn27  1  0.176948  0.538293  0.460607  1
  Sn  Sn28  1  0.464486  0.374315  0.749788  1
  Sn  Sn29  1  0.964206  0.126889  0.749528  1
  Sn  Sn30  1  0.534330  0.625979  0.249689  1
  Sn  Sn31  1  0.034204  0.873746  0.249747  1
  Sn  Sn32  1  0.709823  0.871625  0.750260  1
  Sn  Sn33  1  0.211412  0.627299  0.749583  1
  Sn  Sn34  1  0.289297  0.126983  0.250003  1
  Sn  Sn35  1  0.789140  0.373438  0.250332  1
