# generated using pymatgen
data_HoLu9(Bi3C)2
_symmetry_space_group_name_H-M   'P 1'
_cell_length_a   9.01905500
_cell_length_b   9.01905410
_cell_length_c   6.36052500
_cell_angle_alpha   90.00000000
_cell_angle_beta   90.00000000
_cell_angle_gamma   119.99999963
_symmetry_Int_Tables_number   1
_chemical_formula_structural   HoLu9(Bi3C)2
_chemical_formula_sum   'Ho1 Lu9 Bi6 C2'
_cell_volume   448.06974984
_cell_formula_units_Z   1
loop_
 _symmetry_equiv_pos_site_id
 _symmetry_equiv_pos_as_xyz
  1  'x, y, z'
loop_
 _atom_site_type_symbol
 _atom_site_label
 _atom_site_symmetry_multiplicity
 _atom_site_fract_x
 _atom_site_fract_y
 _atom_site_fract_z
 _atom_site_occupancy
  Ho  Ho0  1  0.666667  0.333333  0.500000  1
  Lu  Lu1  1  0.333333  0.666667  0.500000  1
  Lu  Lu2  1  0.333333  0.666667  0.000000  1
  Lu  Lu3  1  0.666667  0.333333  0.000000  1
  Lu  Lu4  1  0.795997  0.795926  0.249914  1
  Lu  Lu5  1  0.204074  0.000072  0.249914  1
  Lu  Lu6  1  0.999928  0.204003  0.249914  1
  Lu  Lu7  1  0.204074  0.204003  0.750086  1
  Lu  Lu8  1  0.795997  0.000072  0.750086  1
  Lu  Lu9  1  0.999928  0.795926  0.750086  1
  Bi  Bi10  1  0.399529  0.400225  0.249300  1
  Bi  Bi11  1  0.599775  0.999305  0.249300  1
  Bi  Bi12  1  0.000695  0.600471  0.249300  1
  Bi  Bi13  1  0.599775  0.600471  0.750700  1
  Bi  Bi14  1  0.399529  0.999305  0.750700  1
  Bi  Bi15  1  0.000695  0.400225  0.750700  1
  C  C16  1  0.000000  0.000000  0.500000  1
  C  C17  1  0.000000  0.000000  0.000000  1
