# generated using pymatgen
data_NdLu2(SiIr2)3
_symmetry_space_group_name_H-M   'P 1'
_cell_length_a   5.57233200
_cell_length_b   5.57233331
_cell_length_c   15.08220900
_cell_angle_alpha   90.00000000
_cell_angle_beta   90.00000000
_cell_angle_gamma   120.00000413
_symmetry_Int_Tables_number   1
_chemical_formula_structural   NdLu2(SiIr2)3
_chemical_formula_sum   'Nd2 Lu4 Si6 Ir12'
_cell_volume   405.57356262
_cell_formula_units_Z   2
loop_
 _symmetry_equiv_pos_site_id
 _symmetry_equiv_pos_as_xyz
  1  'x, y, z'
loop_
 _atom_site_type_symbol
 _atom_site_label
 _atom_site_symmetry_multiplicity
 _atom_site_fract_x
 _atom_site_fract_y
 _atom_site_fract_z
 _atom_site_occupancy
  Nd  Nd0  1  0.333333  0.666667  0.750000  1
  Nd  Nd1  1  0.666667  0.333333  0.250000  1
  Lu  Lu2  1  0.333333  0.666667  0.537836  1
  Lu  Lu3  1  0.666667  0.333333  0.462164  1
  Lu  Lu4  1  0.666667  0.333333  0.037836  1
  Lu  Lu5  1  0.333333  0.666667  0.962164  1
  Si  Si6  1  0.000000  0.000000  0.250000  1
  Si  Si7  1  0.000000  0.000000  0.750000  1
  Si  Si8  1  0.333333  0.666667  0.250000  1
  Si  Si9  1  0.666667  0.333333  0.750000  1
  Si  Si10  1  0.000000  0.000000  0.000000  1
  Si  Si11  1  0.000000  0.000000  0.500000  1
  Ir  Ir12  1  0.167788  0.335576  0.128184  1
  Ir  Ir13  1  0.832212  0.664424  0.871816  1
  Ir  Ir14  1  0.664424  0.832212  0.128184  1
  Ir  Ir15  1  0.832212  0.664424  0.628184  1
  Ir  Ir16  1  0.335576  0.167788  0.871816  1
  Ir  Ir17  1  0.167788  0.335576  0.371816  1
  Ir  Ir18  1  0.167788  0.832212  0.128184  1
  Ir  Ir19  1  0.335576  0.167788  0.628184  1
  Ir  Ir20  1  0.832212  0.167788  0.871816  1
  Ir  Ir21  1  0.664424  0.832212  0.371816  1
  Ir  Ir22  1  0.832212  0.167788  0.628184  1
  Ir  Ir23  1  0.167788  0.832212  0.371816  1
