# generated using pymatgen
data_Nd9Tm(IrPt)3
_symmetry_space_group_name_H-M   'P 1'
_cell_length_a   11.37610412
_cell_length_b   11.36683700
_cell_length_c   6.48481630
_cell_angle_alpha   90.00000000
_cell_angle_beta   90.10766613
_cell_angle_gamma   90.00000000
_symmetry_Int_Tables_number   1
_chemical_formula_structural   Nd9Tm(IrPt)3
_chemical_formula_sum   'Nd18 Tm2 Ir6 Pt6'
_cell_volume   838.55219811
_cell_formula_units_Z   2
loop_
 _symmetry_equiv_pos_site_id
 _symmetry_equiv_pos_as_xyz
  1  'x, y, z'
loop_
 _atom_site_type_symbol
 _atom_site_label
 _atom_site_symmetry_multiplicity
 _atom_site_fract_x
 _atom_site_fract_y
 _atom_site_fract_z
 _atom_site_occupancy
  Nd  Nd0  1  0.295204  0.091556  0.374412  1
  Nd  Nd1  1  0.295204  0.908444  0.874412  1
  Nd  Nd2  1  0.704159  0.088233  0.873514  1
  Nd  Nd3  1  0.704159  0.911767  0.373514  1
  Nd  Nd4  1  0.584482  0.789052  0.875308  1
  Nd  Nd5  1  0.584482  0.210948  0.375308  1
  Nd  Nd6  1  0.410062  0.790265  0.380791  1
  Nd  Nd7  1  0.410062  0.209735  0.880791  1
  Nd  Nd8  1  0.212715  0.413459  0.620669  1
  Nd  Nd9  1  0.212715  0.586541  0.120669  1
  Nd  Nd10  1  0.792486  0.411656  0.123165  1
  Nd  Nd11  1  0.792486  0.588344  0.623165  1
  Nd  Nd12  1  0.913070  0.704860  0.125697  1
  Nd  Nd13  1  0.913070  0.295140  0.625697  1
  Nd  Nd14  1  0.092925  0.704189  0.626470  1
  Nd  Nd15  1  0.092925  0.295811  0.126470  1
  Nd  Nd16  1  0.999694  0.999026  0.499881  1
  Nd  Nd17  1  0.999694  0.000974  0.999881  1
  Tm  Tm18  1  0.496937  0.498810  0.000103  1
  Tm  Tm19  1  0.496937  0.501190  0.500103  1
  Ir  Ir20  1  0.353943  0.352913  0.250069  1
  Ir  Ir21  1  0.353943  0.647087  0.750069  1
  Ir  Ir22  1  0.500009  0.999262  0.116958  1
  Ir  Ir23  1  0.500009  0.000738  0.616958  1
  Ir  Ir24  1  0.999381  0.500157  0.883036  1
  Ir  Ir25  1  0.999381  0.499843  0.383036  1
  Pt  Pt26  1  0.844553  0.154138  0.250484  1
  Pt  Pt27  1  0.844553  0.845862  0.750484  1
  Pt  Pt28  1  0.153441  0.154580  0.749419  1
  Pt  Pt29  1  0.153441  0.845420  0.249419  1
  Pt  Pt30  1  0.646941  0.353975  0.750023  1
  Pt  Pt31  1  0.646941  0.646025  0.250023  1
