# generated using pymatgen
data_Y2Ga4PdAu
_symmetry_space_group_name_H-M   'P 1'
_cell_length_a   5.61417684
_cell_length_b   5.61417687
_cell_length_c   6.65379500
_cell_angle_alpha   90.00000000
_cell_angle_beta   90.00000000
_cell_angle_gamma   132.83771777
_symmetry_Int_Tables_number   1
_chemical_formula_structural   Y2Ga4PdAu
_chemical_formula_sum   'Y2 Ga4 Pd1 Au1'
_cell_volume   153.78460932
_cell_formula_units_Z   1
loop_
 _symmetry_equiv_pos_site_id
 _symmetry_equiv_pos_as_xyz
  1  'x, y, z'
loop_
 _atom_site_type_symbol
 _atom_site_label
 _atom_site_symmetry_multiplicity
 _atom_site_fract_x
 _atom_site_fract_y
 _atom_site_fract_z
 _atom_site_occupancy
  Y  Y0  1  0.589407  0.410593  0.250000  1
  Y  Y1  1  0.413066  0.586934  0.750000  1
  Ga  Ga2  1  0.874517  0.125483  0.454017  1
  Ga  Ga3  1  0.124574  0.875426  0.555824  1
  Ga  Ga4  1  0.874517  0.125483  0.045983  1
  Ga  Ga5  1  0.124574  0.875426  0.944176  1
  Pd  Pd6  1  0.700995  0.299005  0.750000  1
  Au  Au7  1  0.298351  0.701649  0.250000  1
