# generated using pymatgen
data_La2Sc3As7Pd9
_symmetry_space_group_name_H-M   'P 1'
_cell_length_a   4.16460900
_cell_length_b   10.28788322
_cell_length_c   10.28788300
_cell_angle_alpha   120.00000249
_cell_angle_beta   90.00000000
_cell_angle_gamma   90.00000000
_symmetry_Int_Tables_number   1
_chemical_formula_structural   La2Sc3As7Pd9
_chemical_formula_sum   'La2 Sc3 As7 Pd9'
_cell_volume   381.73053124
_cell_formula_units_Z   1
loop_
 _symmetry_equiv_pos_site_id
 _symmetry_equiv_pos_as_xyz
  1  'x, y, z'
loop_
 _atom_site_type_symbol
 _atom_site_label
 _atom_site_symmetry_multiplicity
 _atom_site_fract_x
 _atom_site_fract_y
 _atom_site_fract_z
 _atom_site_occupancy
  La  La0  1  0.000000  0.666667  0.333333  1
  La  La1  1  0.500000  0.333333  0.666667  1
  Sc  Sc2  1  0.500000  0.774045  0.894341  1
  Sc  Sc3  1  0.500000  0.120296  0.225955  1
  Sc  Sc4  1  0.500000  0.105659  0.879704  1
  As  As5  1  0.000000  0.000000  0.000000  1
  As  As6  1  0.500000  0.709212  0.120755  1
  As  As7  1  0.500000  0.411544  0.290788  1
  As  As8  1  0.500000  0.879245  0.588456  1
  As  As9  1  0.000000  0.583831  0.692661  1
  As  As10  1  0.000000  0.108829  0.416169  1
  As  As11  1  0.000000  0.307339  0.891171  1
  Pd  Pd12  1  0.000000  0.569897  0.928852  1
  Pd  Pd13  1  0.000000  0.358957  0.430103  1
  Pd  Pd14  1  0.000000  0.071148  0.641043  1
  Pd  Pd15  1  0.000000  0.872883  0.153205  1
  Pd  Pd16  1  0.000000  0.280322  0.127117  1
  Pd  Pd17  1  0.000000  0.846795  0.719678  1
  Pd  Pd18  1  0.500000  0.951045  0.386631  1
  Pd  Pd19  1  0.500000  0.435584  0.048955  1
  Pd  Pd20  1  0.500000  0.613369  0.564416  1
