# generated using pymatgen
data_Dy12GaCo4Sn
_symmetry_space_group_name_H-M   'P 1'
_cell_length_a   8.32674880
_cell_length_b   8.32674858
_cell_length_c   8.32674919
_cell_angle_alpha   107.22352964
_cell_angle_beta   109.09578793
_cell_angle_gamma   112.13258437
_symmetry_Int_Tables_number   1
_chemical_formula_structural   Dy12GaCo4Sn
_chemical_formula_sum   'Dy12 Ga1 Co4 Sn1'
_cell_volume   443.59553280
_cell_formula_units_Z   1
loop_
 _symmetry_equiv_pos_site_id
 _symmetry_equiv_pos_as_xyz
  1  'x, y, z'
loop_
 _atom_site_type_symbol
 _atom_site_label
 _atom_site_symmetry_multiplicity
 _atom_site_fract_x
 _atom_site_fract_y
 _atom_site_fract_z
 _atom_site_occupancy
  Dy  Dy0  1  0.298584  0.268529  0.567112  1
  Dy  Dy1  1  0.701416  0.731471  0.432888  1
  Dy  Dy2  1  0.298584  0.731471  0.030055  1
  Dy  Dy3  1  0.701416  0.268529  0.969945  1
  Dy  Dy4  1  0.186879  0.511314  0.324435  1
  Dy  Dy5  1  0.186879  0.862444  0.675565  1
  Dy  Dy6  1  0.813121  0.488686  0.675565  1
  Dy  Dy7  1  0.813121  0.137556  0.324435  1
  Dy  Dy8  1  0.398852  0.217888  0.180964  1
  Dy  Dy9  1  0.036923  0.217888  0.819036  1
  Dy  Dy10  1  0.963077  0.782112  0.180964  1
  Dy  Dy11  1  0.601148  0.782112  0.819036  1
  Ga  Ga12  1  0.500000  0.500000  0.000000  1
  Co  Co13  1  0.156681  0.500000  0.656681  1
  Co  Co14  1  0.843319  0.500000  0.343319  1
  Co  Co15  1  0.000000  0.113818  0.113818  1
  Co  Co16  1  0.000000  0.886182  0.886182  1
  Sn  Sn17  1  0.500000  0.000000  0.500000  1
