# generated using pymatgen
data_Ho8Lu12Si15Pb
_symmetry_space_group_name_H-M   'P 1'
_cell_length_a   7.33023783
_cell_length_b   7.61605322
_cell_length_c   14.40989351
_cell_angle_alpha   90.02722075
_cell_angle_beta   88.40119855
_cell_angle_gamma   89.97804543
_symmetry_Int_Tables_number   1
_chemical_formula_structural   Ho8Lu12Si15Pb
_chemical_formula_sum   'Ho8 Lu12 Si15 Pb1'
_cell_volume   804.15472813
_cell_formula_units_Z   1
loop_
 _symmetry_equiv_pos_site_id
 _symmetry_equiv_pos_as_xyz
  1  'x, y, z'
loop_
 _atom_site_type_symbol
 _atom_site_label
 _atom_site_symmetry_multiplicity
 _atom_site_fract_x
 _atom_site_fract_y
 _atom_site_fract_z
 _atom_site_occupancy
  Ho  Ho0  1  0.016415  0.178166  0.097198  1
  Ho  Ho1  1  0.982810  0.822454  0.903435  1
  Ho  Ho2  1  0.483153  0.679897  0.903293  1
  Ho  Ho3  1  0.992774  0.829563  0.599640  1
  Ho  Ho4  1  0.516926  0.319985  0.098069  1
  Ho  Ho5  1  0.001601  0.170381  0.398945  1
  Ho  Ho6  1  0.514924  0.314299  0.398443  1
  Ho  Ho7  1  0.504009  0.689769  0.601135  1
  Lu  Lu8  1  0.163254  0.507574  0.754240  1
  Lu  Lu9  1  0.834515  0.491200  0.250847  1
  Lu  Lu10  1  0.334502  0.008842  0.250948  1
  Lu  Lu11  1  0.668578  0.991471  0.750298  1
  Lu  Lu12  1  0.347988  0.158376  0.628413  1
  Lu  Lu13  1  0.658143  0.826257  0.375869  1
  Lu  Lu14  1  0.156411  0.684634  0.369010  1
  Lu  Lu15  1  0.670394  0.820287  0.121910  1
  Lu  Lu16  1  0.826497  0.326588  0.625614  1
  Lu  Lu17  1  0.328081  0.177468  0.877643  1
  Lu  Lu18  1  0.826265  0.322528  0.876924  1
  Lu  Lu19  1  0.172146  0.678104  0.123416  1
  Si  Si20  1  0.037590  0.113723  0.752203  1
  Si  Si21  1  0.959897  0.892652  0.245637  1
  Si  Si22  1  0.464194  0.607583  0.247614  1
  Si  Si23  1  0.531961  0.393219  0.753026  1
  Si  Si24  1  0.286374  0.867185  0.753888  1
  Si  Si25  1  0.714647  0.128215  0.246565  1
  Si  Si26  1  0.214837  0.370013  0.248141  1
  Si  Si27  1  0.787085  0.632096  0.752592  1
  Si  Si28  1  0.820030  0.536296  0.458298  1
  Si  Si29  1  0.320256  0.965645  0.458546  1
  Si  Si30  1  0.847490  0.529973  0.039984  1
  Si  Si31  1  0.681539  0.035531  0.539880  1
  Si  Si32  1  0.151528  0.469020  0.961110  1
  Si  Si33  1  0.653864  0.031797  0.960709  1
  Si  Si34  1  0.344732  0.969521  0.040355  1
  Pb  Pb35  1  0.184590  0.459689  0.536165  1
