# generated using pymatgen
data_Ho2HfGa5
_symmetry_space_group_name_H-M   'P 1'
_cell_length_a   5.95691200
_cell_length_b   9.40325800
_cell_length_c   11.27882200
_cell_angle_alpha   90.00000000
_cell_angle_beta   90.00000000
_cell_angle_gamma   90.00000000
_symmetry_Int_Tables_number   1
_chemical_formula_structural   Ho2HfGa5
_chemical_formula_sum   'Ho8 Hf4 Ga20'
_cell_volume   631.77622619
_cell_formula_units_Z   4
loop_
 _symmetry_equiv_pos_site_id
 _symmetry_equiv_pos_as_xyz
  1  'x, y, z'
loop_
 _atom_site_type_symbol
 _atom_site_label
 _atom_site_symmetry_multiplicity
 _atom_site_fract_x
 _atom_site_fract_y
 _atom_site_fract_z
 _atom_site_occupancy
  Ho  Ho0  1  0.888131  0.508827  0.352533  1
  Ho  Ho1  1  0.611869  0.991173  0.852533  1
  Ho  Ho2  1  0.111869  0.008827  0.647467  1
  Ho  Ho3  1  0.388131  0.491173  0.147467  1
  Ho  Ho4  1  0.111869  0.491173  0.647467  1
  Ho  Ho5  1  0.388131  0.008827  0.147467  1
  Ho  Ho6  1  0.888131  0.991173  0.352533  1
  Ho  Ho7  1  0.611869  0.508827  0.852533  1
  Hf  Hf8  1  0.856418  0.750000  0.075009  1
  Hf  Hf9  1  0.643582  0.750000  0.575009  1
  Hf  Hf10  1  0.143582  0.250000  0.924991  1
  Hf  Hf11  1  0.356418  0.250000  0.424991  1
  Ga  Ga12  1  0.875730  0.051871  0.088773  1
  Ga  Ga13  1  0.624270  0.448129  0.588773  1
  Ga  Ga14  1  0.124270  0.551871  0.911227  1
  Ga  Ga15  1  0.375730  0.948129  0.411227  1
  Ga  Ga16  1  0.124270  0.948129  0.911227  1
  Ga  Ga17  1  0.375730  0.551871  0.411227  1
  Ga  Ga18  1  0.875730  0.448129  0.088773  1
  Ga  Ga19  1  0.624270  0.051871  0.588773  1
  Ga  Ga20  1  0.163882  0.750000  0.252610  1
  Ga  Ga21  1  0.336118  0.750000  0.752610  1
  Ga  Ga22  1  0.836118  0.250000  0.747390  1
  Ga  Ga23  1  0.663882  0.250000  0.247390  1
  Ga  Ga24  1  0.387891  0.750000  0.002959  1
  Ga  Ga25  1  0.112109  0.750000  0.502959  1
  Ga  Ga26  1  0.612109  0.250000  0.997041  1
  Ga  Ga27  1  0.887891  0.250000  0.497041  1
  Ga  Ga28  1  0.603852  0.750000  0.293736  1
  Ga  Ga29  1  0.896148  0.750000  0.793736  1
  Ga  Ga30  1  0.396148  0.250000  0.706264  1
  Ga  Ga31  1  0.103852  0.250000  0.206264  1
