# generated using pymatgen
data_LaPr3Ho4(CdIr)2
_symmetry_space_group_name_H-M   'P 1'
_cell_length_a   9.81548143
_cell_length_b   9.81548221
_cell_length_c   9.78329400
_cell_angle_alpha   60.10842022
_cell_angle_beta   60.10841761
_cell_angle_gamma   60.14670773
_symmetry_Int_Tables_number   1
_chemical_formula_structural   LaPr3Ho4(CdIr)2
_chemical_formula_sum   'La2 Pr6 Ho8 Cd4 Ir4'
_cell_volume   668.31913840
_cell_formula_units_Z   2
loop_
 _symmetry_equiv_pos_site_id
 _symmetry_equiv_pos_as_xyz
  1  'x, y, z'
loop_
 _atom_site_type_symbol
 _atom_site_label
 _atom_site_symmetry_multiplicity
 _atom_site_fract_x
 _atom_site_fract_y
 _atom_site_fract_z
 _atom_site_occupancy
  La  La0  1  0.347841  0.347841  0.349754  1
  La  La1  1  0.347841  0.347841  0.954563  1
  Pr  Pr2  1  0.941086  0.559369  0.559078  1
  Pr  Pr3  1  0.559369  0.941086  0.940466  1
  Pr  Pr4  1  0.559369  0.941086  0.559078  1
  Pr  Pr5  1  0.941086  0.559369  0.940466  1
  Pr  Pr6  1  0.562144  0.562144  0.937856  1
  Pr  Pr7  1  0.943558  0.943558  0.556442  1
  Ho  Ho8  1  0.348196  0.952859  0.349472  1
  Ho  Ho9  1  0.952859  0.348196  0.349472  1
  Ho  Ho10  1  0.814647  0.185702  0.186606  1
  Ho  Ho11  1  0.185702  0.814647  0.813045  1
  Ho  Ho12  1  0.185702  0.814647  0.186606  1
  Ho  Ho13  1  0.814647  0.185702  0.813045  1
  Ho  Ho14  1  0.184178  0.184178  0.815822  1
  Ho  Ho15  1  0.812668  0.812668  0.187332  1
  Cd  Cd16  1  0.581452  0.581452  0.575513  1
  Cd  Cd17  1  0.581452  0.581452  0.261582  1
  Cd  Cd18  1  0.583826  0.260698  0.577737  1
  Cd  Cd19  1  0.260698  0.583826  0.577737  1
  Ir  Ir20  1  0.138060  0.138060  0.146139  1
  Ir  Ir21  1  0.138060  0.138060  0.577741  1
  Ir  Ir22  1  0.135452  0.580104  0.142223  1
  Ir  Ir23  1  0.580104  0.135452  0.142223  1
