# generated using pymatgen
data_Pr5HoIn6O18
_symmetry_space_group_name_H-M   'P 1'
_cell_length_a   6.54540700
_cell_length_b   6.54540748
_cell_length_c   12.53608800
_cell_angle_alpha   90.00000000
_cell_angle_beta   90.00000000
_cell_angle_gamma   120.00000265
_symmetry_Int_Tables_number   1
_chemical_formula_structural   Pr5HoIn6O18
_chemical_formula_sum   'Pr5 Ho1 In6 O18'
_cell_volume   465.12105221
_cell_formula_units_Z   1
loop_
 _symmetry_equiv_pos_site_id
 _symmetry_equiv_pos_as_xyz
  1  'x, y, z'
loop_
 _atom_site_type_symbol
 _atom_site_label
 _atom_site_symmetry_multiplicity
 _atom_site_fract_x
 _atom_site_fract_y
 _atom_site_fract_z
 _atom_site_occupancy
  Pr  Pr0  1  0.333333  0.666667  0.231495  1
  Pr  Pr1  1  0.000000  0.000000  0.266467  1
  Pr  Pr2  1  0.000000  0.000000  0.769202  1
  Pr  Pr3  1  0.333333  0.666667  0.729604  1
  Pr  Pr4  1  0.666667  0.333333  0.729863  1
  Ho  Ho5  1  0.666667  0.333333  0.229990  1
  In  In6  1  0.997771  0.664170  0.494285  1
  In  In7  1  0.997875  0.334105  0.998164  1
  In  In8  1  0.335830  0.333601  0.494285  1
  In  In9  1  0.665895  0.663770  0.998164  1
  In  In10  1  0.336230  0.002125  0.998164  1
  In  In11  1  0.666399  0.002229  0.494285  1
  O  O12  1  0.001181  0.694337  0.662924  1
  O  O13  1  0.986400  0.627190  0.327252  1
  O  O14  1  0.999979  0.360245  0.830856  1
  O  O15  1  0.986901  0.308031  0.166674  1
  O  O16  1  0.333333  0.666667  0.023507  1
  O  O17  1  0.000000  0.000000  0.466589  1
  O  O18  1  0.000000  0.000000  0.972438  1
  O  O19  1  0.333333  0.666667  0.516980  1
  O  O20  1  0.305663  0.306844  0.662924  1
  O  O21  1  0.372810  0.359210  0.327252  1
  O  O22  1  0.321130  0.013099  0.166674  1
  O  O23  1  0.639755  0.639734  0.830856  1
  O  O24  1  0.691969  0.678870  0.166674  1
  O  O25  1  0.360266  0.000021  0.830856  1
  O  O26  1  0.666667  0.333333  0.522717  1
  O  O27  1  0.666667  0.333333  0.023427  1
  O  O28  1  0.640790  0.013600  0.327252  1
  O  O29  1  0.693156  0.998819  0.662924  1
