# generated using pymatgen
data_Li2Dy3MgTl2In
_symmetry_space_group_name_H-M   'P 1'
_cell_length_a   7.18544573
_cell_length_b   7.57520708
_cell_length_c   4.78511000
_cell_angle_alpha   90.00000000
_cell_angle_beta   90.00000000
_cell_angle_gamma   121.81117436
_symmetry_Int_Tables_number   1
_chemical_formula_structural   Li2Dy3MgTl2In
_chemical_formula_sum   'Li2 Dy3 Mg1 Tl2 In1'
_cell_volume   221.33582668
_cell_formula_units_Z   1
loop_
 _symmetry_equiv_pos_site_id
 _symmetry_equiv_pos_as_xyz
  1  'x, y, z'
loop_
 _atom_site_type_symbol
 _atom_site_label
 _atom_site_symmetry_multiplicity
 _atom_site_fract_x
 _atom_site_fract_y
 _atom_site_fract_z
 _atom_site_occupancy
  Li  Li0  1  0.772581  0.763260  0.500000  1
  Li  Li1  1  0.227419  0.990679  0.500000  1
  Dy  Dy2  1  0.000000  0.562489  0.000000  1
  Dy  Dy3  1  0.435852  0.446458  0.000000  1
  Dy  Dy4  1  0.564148  0.010607  0.000000  1
  Mg  Mg5  1  0.000000  0.222127  0.500000  1
  Tl  Tl6  1  0.663415  0.343317  0.500000  1
  Tl  Tl7  1  0.336585  0.679903  0.500000  1
  In  In8  1  0.000000  0.981161  0.000000  1
