# generated using pymatgen
data_Tb4TmPd9
_symmetry_space_group_name_H-M   'P 1'
_cell_length_a   9.79028100
_cell_length_b   9.79028100
_cell_length_c   5.78445600
_cell_angle_alpha   90.00000000
_cell_angle_beta   90.00000000
_cell_angle_gamma   90.00000000
_symmetry_Int_Tables_number   1
_chemical_formula_structural   Tb4TmPd9
_chemical_formula_sum   'Tb8 Tm2 Pd18'
_cell_volume   554.43780573
_cell_formula_units_Z   2
loop_
 _symmetry_equiv_pos_site_id
 _symmetry_equiv_pos_as_xyz
  1  'x, y, z'
loop_
 _atom_site_type_symbol
 _atom_site_label
 _atom_site_symmetry_multiplicity
 _atom_site_fract_x
 _atom_site_fract_y
 _atom_site_fract_z
 _atom_site_occupancy
  Tb  Tb0  1  0.453414  0.807974  0.000000  1
  Tb  Tb1  1  0.546586  0.192026  0.000000  1
  Tb  Tb2  1  0.192026  0.546586  0.000000  1
  Tb  Tb3  1  0.807974  0.453414  0.000000  1
  Tb  Tb4  1  0.307974  0.046586  0.500000  1
  Tb  Tb5  1  0.692026  0.953414  0.500000  1
  Tb  Tb6  1  0.953414  0.692026  0.500000  1
  Tb  Tb7  1  0.046586  0.307974  0.500000  1
  Tm  Tm8  1  0.500000  0.500000  0.500000  1
  Tm  Tm9  1  0.000000  0.000000  0.000000  1
  Pd  Pd10  1  0.190794  0.809206  0.249704  1
  Pd  Pd11  1  0.809206  0.190794  0.750296  1
  Pd  Pd12  1  0.809206  0.190794  0.249704  1
  Pd  Pd13  1  0.190794  0.809206  0.750296  1
  Pd  Pd14  1  0.440020  0.778960  0.500000  1
  Pd  Pd15  1  0.559980  0.221040  0.500000  1
  Pd  Pd16  1  0.221040  0.559980  0.500000  1
  Pd  Pd17  1  0.778960  0.440020  0.500000  1
  Pd  Pd18  1  0.309206  0.309206  0.250296  1
  Pd  Pd19  1  0.690794  0.690794  0.749704  1
  Pd  Pd20  1  0.690794  0.690794  0.250296  1
  Pd  Pd21  1  0.309206  0.309206  0.749704  1
  Pd  Pd22  1  0.278960  0.059980  0.000000  1
  Pd  Pd23  1  0.721040  0.940020  0.000000  1
  Pd  Pd24  1  0.940020  0.721040  0.000000  1
  Pd  Pd25  1  0.059980  0.278960  0.000000  1
  Pd  Pd26  1  0.000000  0.000000  0.500000  1
  Pd  Pd27  1  0.500000  0.500000  0.000000  1
