# generated using pymatgen
data_TcTeSCl4
_symmetry_space_group_name_H-M   'P 1'
_cell_length_a   10.61735029
_cell_length_b   10.61734992
_cell_length_c   10.61734979
_cell_angle_alpha   115.16357705
_cell_angle_beta   115.16358279
_cell_angle_gamma   98.60327789
_symmetry_Int_Tables_number   1
_chemical_formula_structural   TcTeSCl4
_chemical_formula_sum   'Tc4 Te4 S4 Cl16'
_cell_volume   897.20314945
_cell_formula_units_Z   4
loop_
 _symmetry_equiv_pos_site_id
 _symmetry_equiv_pos_as_xyz
  1  'x, y, z'
loop_
 _atom_site_type_symbol
 _atom_site_label
 _atom_site_symmetry_multiplicity
 _atom_site_fract_x
 _atom_site_fract_y
 _atom_site_fract_z
 _atom_site_occupancy
  Tc  Tc0  1  0.687230  0.542116  0.087519  1
  Tc  Tc1  1  0.454596  0.599712  0.912481  1
  Tc  Tc2  1  0.400288  0.312770  0.854885  1
  Tc  Tc3  1  0.457884  0.545404  0.145115  1
  Te  Te4  1  0.914195  0.439672  0.096844  1
  Te  Te5  1  0.342828  0.817351  0.903156  1
  Te  Te6  1  0.182649  0.085805  0.525477  1
  Te  Te7  1  0.560328  0.657172  0.474523  1
  S  S8  1  0.552351  0.433435  0.802342  1
  S  S9  1  0.631093  0.750009  0.197658  1
  S  S10  1  0.249991  0.447649  0.881084  1
  S  S11  1  0.566565  0.368907  0.118916  1
  Cl  Cl12  1  0.861312  0.308735  0.821851  1
  Cl  Cl13  1  0.486884  0.039461  0.178149  1
  Cl  Cl14  1  0.960539  0.138688  0.447423  1
  Cl  Cl15  1  0.691265  0.513116  0.552577  1
  Cl  Cl16  1  0.890005  0.697096  0.092616  1
  Cl  Cl17  1  0.604478  0.797389  0.907384  1
  Cl  Cl18  1  0.202611  0.109995  0.807090  1
  Cl  Cl19  1  0.302904  0.395522  0.192910  1
  Cl  Cl20  1  0.901593  0.637568  0.369736  1
  Cl  Cl21  1  0.267831  0.531857  0.630264  1
  Cl  Cl22  1  0.468143  0.098407  0.735974  1
  Cl  Cl23  1  0.362432  0.732169  0.264026  1
  Cl  Cl24  1  0.868787  0.222724  0.114173  1
  Cl  Cl25  1  0.108550  0.754613  0.885827  1
  Cl  Cl26  1  0.245387  0.131213  0.353937  1
  Cl  Cl27  1  0.777276  0.891450  0.646063  1
