# generated using pymatgen
data_Cs6Rb2CaYbI12
_symmetry_space_group_name_H-M   'P 1'
_cell_length_a   10.52669431
_cell_length_b   10.52669414
_cell_length_c   10.52669538
_cell_angle_alpha   90.39908021
_cell_angle_beta   90.39908519
_cell_angle_gamma   90.39908268
_symmetry_Int_Tables_number   1
_chemical_formula_structural   Cs6Rb2CaYbI12
_chemical_formula_sum   'Cs6 Rb2 Ca1 Yb1 I12'
_cell_volume   1166.39142399
_cell_formula_units_Z   1
loop_
 _symmetry_equiv_pos_site_id
 _symmetry_equiv_pos_as_xyz
  1  'x, y, z'
loop_
 _atom_site_type_symbol
 _atom_site_label
 _atom_site_symmetry_multiplicity
 _atom_site_fract_x
 _atom_site_fract_y
 _atom_site_fract_z
 _atom_site_occupancy
  Cs  Cs0  1  0.870344  0.629650  0.250009  1
  Cs  Cs1  1  0.629650  0.250009  0.870344  1
  Cs  Cs2  1  0.250009  0.870344  0.629650  1
  Cs  Cs3  1  0.129656  0.370350  0.749991  1
  Cs  Cs4  1  0.370350  0.749991  0.129656  1
  Cs  Cs5  1  0.749991  0.129656  0.370350  1
  Rb  Rb6  1  0.250011  0.250011  0.250011  1
  Rb  Rb7  1  0.749989  0.749989  0.749989  1
  Ca  Ca8  1  0.000000  0.000000  0.000000  1
  Yb  Yb9  1  0.500000  0.500000  0.500000  1
  I  I10  1  0.212527  0.552809  0.428142  1
  I  I11  1  0.052956  0.711652  0.927932  1
  I  I12  1  0.927932  0.052956  0.711652  1
  I  I13  1  0.787473  0.447191  0.571858  1
  I  I14  1  0.711652  0.927932  0.052956  1
  I  I15  1  0.447191  0.571858  0.787473  1
  I  I16  1  0.571858  0.787473  0.447191  1
  I  I17  1  0.552809  0.428142  0.212527  1
  I  I18  1  0.072068  0.947044  0.288348  1
  I  I19  1  0.947044  0.288348  0.072068  1
  I  I20  1  0.288348  0.072068  0.947044  1
  I  I21  1  0.428142  0.212527  0.552809  1
