# generated using pymatgen
data_Na2NpO4
_symmetry_space_group_name_H-M   'P 1'
_cell_length_a   5.81314700
_cell_length_b   5.97670900
_cell_length_c   11.81876400
_cell_angle_alpha   90.00000000
_cell_angle_beta   90.00000000
_cell_angle_gamma   90.00000000
_symmetry_Int_Tables_number   1
_chemical_formula_structural   Na2NpO4
_chemical_formula_sum   'Na8 Np4 O16'
_cell_volume   410.62508513
_cell_formula_units_Z   4
loop_
 _symmetry_equiv_pos_site_id
 _symmetry_equiv_pos_as_xyz
  1  'x, y, z'
loop_
 _atom_site_type_symbol
 _atom_site_label
 _atom_site_symmetry_multiplicity
 _atom_site_fract_x
 _atom_site_fract_y
 _atom_site_fract_z
 _atom_site_occupancy
  Na  Na0  1  0.001134  0.054212  0.338508  1
  Na  Na1  1  0.501134  0.445788  0.661492  1
  Na  Na2  1  0.998866  0.554212  0.161492  1
  Na  Na3  1  0.498866  0.945788  0.838508  1
  Na  Na4  1  0.501134  0.054212  0.161492  1
  Na  Na5  1  0.001134  0.445788  0.838508  1
  Na  Na6  1  0.498866  0.554212  0.338508  1
  Na  Na7  1  0.998866  0.945788  0.661492  1
  Np  Np8  1  0.000000  0.000000  0.000000  1
  Np  Np9  1  0.500000  0.500000  0.000000  1
  Np  Np10  1  0.000000  0.500000  0.500000  1
  Np  Np11  1  0.500000  0.000000  0.500000  1
  O  O12  1  0.604666  0.966104  0.346965  1
  O  O13  1  0.104666  0.533896  0.653035  1
  O  O14  1  0.395334  0.466104  0.153035  1
  O  O15  1  0.895334  0.033896  0.846965  1
  O  O16  1  0.395334  0.033896  0.653035  1
  O  O17  1  0.895334  0.466104  0.346965  1
  O  O18  1  0.604666  0.533896  0.846965  1
  O  O19  1  0.104666  0.966104  0.153035  1
  O  O20  1  0.795668  0.210408  0.544811  1
  O  O21  1  0.295668  0.289592  0.455189  1
  O  O22  1  0.204332  0.710408  0.955189  1
  O  O23  1  0.704332  0.789592  0.044811  1
  O  O24  1  0.295668  0.210408  0.955189  1
  O  O25  1  0.795668  0.289592  0.044811  1
  O  O26  1  0.704332  0.710408  0.544811  1
  O  O27  1  0.204332  0.789592  0.455189  1
