# generated using pymatgen
data_Pr4AlGaSi2
_symmetry_space_group_name_H-M   'P 1'
_cell_length_a   4.09915000
_cell_length_b   4.48633700
_cell_length_c   11.36896600
_cell_angle_alpha   90.00000000
_cell_angle_beta   90.00000000
_cell_angle_gamma   90.00000000
_symmetry_Int_Tables_number   1
_chemical_formula_structural   Pr4AlGaSi2
_chemical_formula_sum   'Pr4 Al1 Ga1 Si2'
_cell_volume   209.07719829
_cell_formula_units_Z   1
loop_
 _symmetry_equiv_pos_site_id
 _symmetry_equiv_pos_as_xyz
  1  'x, y, z'
loop_
 _atom_site_type_symbol
 _atom_site_label
 _atom_site_symmetry_multiplicity
 _atom_site_fract_x
 _atom_site_fract_y
 _atom_site_fract_z
 _atom_site_occupancy
  Pr  Pr0  1  0.000000  0.000000  0.357796  1
  Pr  Pr1  1  0.000000  0.500000  0.856376  1
  Pr  Pr2  1  0.500000  0.500000  0.138337  1
  Pr  Pr3  1  0.500000  0.000000  0.645157  1
  Al  Al4  1  0.500000  0.500000  0.436185  1
  Ga  Ga5  1  0.000000  0.000000  0.066156  1
  Si  Si6  1  0.000000  0.500000  0.572091  1
  Si  Si7  1  0.500000  0.000000  0.927900  1
