# generated using pymatgen
data_Dy3ZnSn3Ru2
_symmetry_space_group_name_H-M   'P 1'
_cell_length_a   7.61121300
_cell_length_b   7.61121328
_cell_length_c   3.90688700
_cell_angle_alpha   90.00000000
_cell_angle_beta   90.00000000
_cell_angle_gamma   119.99998575
_symmetry_Int_Tables_number   1
_chemical_formula_structural   Dy3ZnSn3Ru2
_chemical_formula_sum   'Dy3 Zn1 Sn3 Ru2'
_cell_volume   196.00597563
_cell_formula_units_Z   1
loop_
 _symmetry_equiv_pos_site_id
 _symmetry_equiv_pos_as_xyz
  1  'x, y, z'
loop_
 _atom_site_type_symbol
 _atom_site_label
 _atom_site_symmetry_multiplicity
 _atom_site_fract_x
 _atom_site_fract_y
 _atom_site_fract_z
 _atom_site_occupancy
  Dy  Dy0  1  0.390408  0.411648  0.500000  1
  Dy  Dy1  1  0.588352  0.978760  0.500000  1
  Dy  Dy2  1  0.021240  0.609592  0.500000  1
  Zn  Zn3  1  0.666667  0.333333  0.000000  1
  Sn  Sn4  1  0.738054  0.740376  0.000000  1
  Sn  Sn5  1  0.259624  0.997678  0.000000  1
  Sn  Sn6  1  0.002322  0.261946  0.000000  1
  Ru  Ru7  1  0.333333  0.666667  0.000000  1
  Ru  Ru8  1  0.000000  0.000000  0.500000  1
