# generated using pymatgen
data_Yb17Mg3(IrPd3)3
_symmetry_space_group_name_H-M   'P 1'
_cell_length_a   6.02478100
_cell_length_b   11.08253808
_cell_length_c   11.06171400
_cell_angle_alpha   90.02530156
_cell_angle_beta   90.00005706
_cell_angle_gamma   90.00003616
_symmetry_Int_Tables_number   1
_chemical_formula_structural   Yb17Mg3(IrPd3)3
_chemical_formula_sum   'Yb17 Mg3 Ir3 Pd9'
_cell_volume   738.58907688
_cell_formula_units_Z   1
loop_
 _symmetry_equiv_pos_site_id
 _symmetry_equiv_pos_as_xyz
  1  'x, y, z'
loop_
 _atom_site_type_symbol
 _atom_site_label
 _atom_site_symmetry_multiplicity
 _atom_site_fract_x
 _atom_site_fract_y
 _atom_site_fract_z
 _atom_site_occupancy
  Yb  Yb0  1  0.343690  0.832126  0.536534  1
  Yb  Yb1  1  0.829702  0.667767  0.533533  1
  Yb  Yb2  1  0.829702  0.832233  0.966468  1
  Yb  Yb3  1  0.343690  0.667874  0.963465  1
  Yb  Yb4  1  0.830755  0.535987  0.833429  1
  Yb  Yb5  1  0.340265  0.957065  0.832672  1
  Yb  Yb6  1  0.340265  0.542935  0.667328  1
  Yb  Yb7  1  0.830754  0.964012  0.666571  1
  Yb  Yb8  1  0.662173  0.170019  0.453829  1
  Yb  Yb9  1  0.160744  0.331698  0.460492  1
  Yb  Yb10  1  0.160744  0.168303  0.039508  1
  Yb  Yb11  1  0.662174  0.329981  0.046172  1
  Yb  Yb12  1  0.161825  0.461078  0.169603  1
  Yb  Yb13  1  0.658938  0.041948  0.170544  1
  Yb  Yb14  1  0.658938  0.458053  0.329456  1
  Yb  Yb15  1  0.161824  0.038922  0.330397  1
  Yb  Yb16  1  0.500881  0.250000  0.750000  1
  Mg  Mg17  1  0.503799  0.750000  0.250000  1
  Mg  Mg18  1  0.004289  0.750000  0.250000  1
  Mg  Mg19  1  0.001071  0.250000  0.750000  1
  Ir  Ir20  1  0.591912  0.750000  0.750000  1
  Ir  Ir21  1  0.918504  0.250000  0.250000  1
  Ir  Ir22  1  0.406073  0.250000  0.250000  1
  Pd  Pd23  1  0.252036  0.899262  0.095892  1
  Pd  Pd24  1  0.753656  0.598333  0.098630  1
  Pd  Pd25  1  0.753657  0.901668  0.401370  1
  Pd  Pd26  1  0.252036  0.600738  0.404109  1
  Pd  Pd27  1  0.750498  0.094848  0.904071  1
  Pd  Pd28  1  0.251883  0.406870  0.902669  1
  Pd  Pd29  1  0.251881  0.093129  0.597332  1
  Pd  Pd30  1  0.750498  0.405152  0.595929  1
  Pd  Pd31  1  0.081145  0.750000  0.750000  1
