# generated using pymatgen
data_YbCeMgCo16
_symmetry_space_group_name_H-M   'P 1'
_cell_length_a   6.29779383
_cell_length_b   6.29779236
_cell_length_c   6.29779418
_cell_angle_alpha   83.36905505
_cell_angle_beta   83.36906999
_cell_angle_gamma   83.36906610
_symmetry_Int_Tables_number   1
_chemical_formula_structural   YbCeMgCo16
_chemical_formula_sum   'Yb1 Ce1 Mg1 Co16'
_cell_volume   245.12960517
_cell_formula_units_Z   1
loop_
 _symmetry_equiv_pos_site_id
 _symmetry_equiv_pos_as_xyz
  1  'x, y, z'
loop_
 _atom_site_type_symbol
 _atom_site_label
 _atom_site_symmetry_multiplicity
 _atom_site_fract_x
 _atom_site_fract_y
 _atom_site_fract_z
 _atom_site_occupancy
  Yb  Yb0  1  0.348355  0.348355  0.348355  1
  Ce  Ce1  1  0.651384  0.651384  0.651384  1
  Mg  Mg2  1  0.098610  0.098610  0.098610  1
  Co  Co3  1  0.352524  0.841387  0.352524  1
  Co  Co4  1  0.352524  0.352524  0.841387  1
  Co  Co5  1  0.841387  0.352524  0.352524  1
  Co  Co6  1  0.654118  0.145609  0.654118  1
  Co  Co7  1  0.654118  0.654118  0.145609  1
  Co  Co8  1  0.145609  0.654118  0.654118  1
  Co  Co9  1  0.710803  0.291764  0.998910  1
  Co  Co10  1  0.998910  0.710803  0.291764  1
  Co  Co11  1  0.291764  0.998910  0.710803  1
  Co  Co12  1  0.998910  0.291764  0.710803  1
  Co  Co13  1  0.710803  0.998910  0.291764  1
  Co  Co14  1  0.291764  0.710803  0.998910  1
  Co  Co15  1  0.998699  0.998699  0.510135  1
  Co  Co16  1  0.510135  0.998699  0.998699  1
  Co  Co17  1  0.998699  0.510135  0.998699  1
  Co  Co18  1  0.890885  0.890885  0.890885  1
