# generated using pymatgen
data_Tm10Ag3Ru
_symmetry_space_group_name_H-M   'P 1'
_cell_length_a   9.34801500
_cell_length_b   9.34801521
_cell_length_c   9.51642300
_cell_angle_alpha   90.00000000
_cell_angle_beta   90.00000000
_cell_angle_gamma   119.99999571
_symmetry_Int_Tables_number   1
_chemical_formula_structural   Tm10Ag3Ru
_chemical_formula_sum   'Tm20 Ag6 Ru2'
_cell_volume   720.18355381
_cell_formula_units_Z   2
loop_
 _symmetry_equiv_pos_site_id
 _symmetry_equiv_pos_as_xyz
  1  'x, y, z'
loop_
 _atom_site_type_symbol
 _atom_site_label
 _atom_site_symmetry_multiplicity
 _atom_site_fract_x
 _atom_site_fract_y
 _atom_site_fract_z
 _atom_site_occupancy
  Tm  Tm0  1  0.000000  0.000000  0.500000  1
  Tm  Tm1  1  0.000000  0.000000  0.000000  1
  Tm  Tm2  1  0.208833  0.791167  0.441603  1
  Tm  Tm3  1  0.208833  0.417665  0.441603  1
  Tm  Tm4  1  0.582335  0.791167  0.441603  1
  Tm  Tm5  1  0.791167  0.208833  0.558397  1
  Tm  Tm6  1  0.791167  0.582335  0.558397  1
  Tm  Tm7  1  0.417665  0.208833  0.558397  1
  Tm  Tm8  1  0.791167  0.208833  0.941603  1
  Tm  Tm9  1  0.791167  0.582335  0.941603  1
  Tm  Tm10  1  0.417665  0.208833  0.941603  1
  Tm  Tm11  1  0.208833  0.791167  0.058397  1
  Tm  Tm12  1  0.208833  0.417665  0.058397  1
  Tm  Tm13  1  0.582335  0.791167  0.058397  1
  Tm  Tm14  1  0.541110  0.458890  0.250000  1
  Tm  Tm15  1  0.541110  0.082220  0.250000  1
  Tm  Tm16  1  0.917780  0.458890  0.250000  1
  Tm  Tm17  1  0.458890  0.541110  0.750000  1
  Tm  Tm18  1  0.458890  0.917780  0.750000  1
  Tm  Tm19  1  0.082220  0.541110  0.750000  1
  Ag  Ag20  1  0.883656  0.116344  0.250000  1
  Ag  Ag21  1  0.883656  0.767314  0.250000  1
  Ag  Ag22  1  0.232686  0.116344  0.250000  1
  Ag  Ag23  1  0.116344  0.883656  0.750000  1
  Ag  Ag24  1  0.116344  0.232686  0.750000  1
  Ag  Ag25  1  0.767314  0.883656  0.750000  1
  Ru  Ru26  1  0.333333  0.666667  0.250000  1
  Ru  Ru27  1  0.666667  0.333333  0.750000  1
