# generated using pymatgen
data_Dy11Er5(AlIr)4
_symmetry_space_group_name_H-M   'P 1'
_cell_length_a   9.51197836
_cell_length_b   9.52820209
_cell_length_c   9.52820132
_cell_angle_alpha   59.99550698
_cell_angle_beta   60.05631214
_cell_angle_gamma   60.05631357
_symmetry_Int_Tables_number   1
_chemical_formula_structural   Dy11Er5(AlIr)4
_chemical_formula_sum   'Dy11 Er5 Al4 Ir4'
_cell_volume   611.12788419
_cell_formula_units_Z   1
loop_
 _symmetry_equiv_pos_site_id
 _symmetry_equiv_pos_as_xyz
  1  'x, y, z'
loop_
 _atom_site_type_symbol
 _atom_site_label
 _atom_site_symmetry_multiplicity
 _atom_site_fract_x
 _atom_site_fract_y
 _atom_site_fract_z
 _atom_site_occupancy
  Dy  Dy0  1  0.444390  0.055610  0.055610  1
  Dy  Dy1  1  0.444563  0.055531  0.443548  1
  Dy  Dy2  1  0.056358  0.443548  0.055531  1
  Dy  Dy3  1  0.444563  0.443548  0.055531  1
  Dy  Dy4  1  0.056358  0.055531  0.443548  1
  Dy  Dy5  1  0.188527  0.811473  0.811473  1
  Dy  Dy6  1  0.811094  0.188906  0.188906  1
  Dy  Dy7  1  0.811075  0.189306  0.811294  1
  Dy  Dy8  1  0.188325  0.811294  0.189306  1
  Dy  Dy9  1  0.811075  0.811294  0.189306  1
  Dy  Dy10  1  0.188325  0.189306  0.811294  1
  Er  Er11  1  0.600292  0.601336  0.601336  1
  Er  Er12  1  0.601388  0.602817  0.194408  1
  Er  Er13  1  0.601388  0.194408  0.602817  1
  Er  Er14  1  0.197038  0.601336  0.601336  1
  Er  Er15  1  0.055692  0.444308  0.444308  1
  Al  Al16  1  0.827302  0.827365  0.827365  1
  Al  Al17  1  0.827253  0.827113  0.518380  1
  Al  Al18  1  0.827253  0.518380  0.827113  1
  Al  Al19  1  0.517967  0.827365  0.827365  1
  Ir  Ir20  1  0.391304  0.392491  0.392491  1
  Ir  Ir21  1  0.392378  0.391762  0.823481  1
  Ir  Ir22  1  0.392378  0.823481  0.391762  1
  Ir  Ir23  1  0.823714  0.392491  0.392491  1
