# generated using pymatgen
data_Tm6Al24ZnFeRu6
_symmetry_space_group_name_H-M   'P 1'
_cell_length_a   8.78140086
_cell_length_b   8.78140074
_cell_length_c   9.48153668
_cell_angle_alpha   90.04954818
_cell_angle_beta   89.95045041
_cell_angle_gamma   119.86414591
_symmetry_Int_Tables_number   1
_chemical_formula_structural   Tm6Al24ZnFeRu6
_chemical_formula_sum   'Tm6 Al24 Zn1 Fe1 Ru6'
_cell_volume   634.05896465
_cell_formula_units_Z   1
loop_
 _symmetry_equiv_pos_site_id
 _symmetry_equiv_pos_as_xyz
  1  'x, y, z'
loop_
 _atom_site_type_symbol
 _atom_site_label
 _atom_site_symmetry_multiplicity
 _atom_site_fract_x
 _atom_site_fract_y
 _atom_site_fract_z
 _atom_site_occupancy
  Tm  Tm0  1  0.804093  0.195907  0.745680  1
  Tm  Tm1  1  0.195907  0.804093  0.254320  1
  Tm  Tm2  1  0.386800  0.192019  0.752611  1
  Tm  Tm3  1  0.613200  0.807981  0.247389  1
  Tm  Tm4  1  0.807981  0.613200  0.752611  1
  Tm  Tm5  1  0.192019  0.386800  0.247389  1
  Al  Al6  1  0.670715  0.329285  0.976774  1
  Al  Al7  1  0.329285  0.670715  0.023226  1
  Al  Al8  1  0.333759  0.666241  0.480700  1
  Al  Al9  1  0.666241  0.333759  0.519300  1
  Al  Al10  1  0.840263  0.159737  0.422049  1
  Al  Al11  1  0.159737  0.840263  0.577951  1
  Al  Al12  1  0.318988  0.159760  0.425437  1
  Al  Al13  1  0.163103  0.836897  0.920869  1
  Al  Al14  1  0.681012  0.840240  0.574563  1
  Al  Al15  1  0.836897  0.163103  0.079131  1
  Al  Al16  1  0.840240  0.681012  0.425437  1
  Al  Al17  1  0.677477  0.848424  0.918360  1
  Al  Al18  1  0.159760  0.318988  0.574563  1
  Al  Al19  1  0.322523  0.151576  0.081640  1
  Al  Al20  1  0.151576  0.322523  0.918360  1
  Al  Al21  1  0.848424  0.677477  0.081640  1
  Al  Al22  1  0.436413  0.563587  0.745080  1
  Al  Al23  1  0.563587  0.436413  0.254920  1
  Al  Al24  1  0.121547  0.562048  0.750569  1
  Al  Al25  1  0.878453  0.437952  0.249431  1
  Al  Al26  1  0.437952  0.878453  0.750569  1
  Al  Al27  1  0.562048  0.121547  0.249431  1
  Al  Al28  1  0.000882  0.999118  0.743524  1
  Al  Al29  1  0.999118  0.000882  0.256476  1
  Zn  Zn30  1  0.500000  0.500000  0.000000  1
  Fe  Fe31  1  0.000000  0.000000  0.500000  1
  Ru  Ru32  1  0.000000  0.500000  0.000000  1
  Ru  Ru33  1  0.500000  0.500000  0.500000  1
  Ru  Ru34  1  0.500000  0.000000  0.000000  1
  Ru  Ru35  1  0.000000  0.500000  0.500000  1
  Ru  Ru36  1  0.500000  0.000000  0.500000  1
  Ru  Ru37  1  0.000000  0.000000  0.000000  1
