# generated using pymatgen
data_TlVNiF6
_symmetry_space_group_name_H-M   'P 1'
_cell_length_a   7.39763542
_cell_length_b   7.39763493
_cell_length_c   7.39763600
_cell_angle_alpha   120.74405579
_cell_angle_beta   118.88384790
_cell_angle_gamma   90.33005284
_symmetry_Int_Tables_number   1
_chemical_formula_structural   TlVNiF6
_chemical_formula_sum   'Tl2 V2 Ni2 F12'
_cell_volume   286.96800367
_cell_formula_units_Z   2
loop_
 _symmetry_equiv_pos_site_id
 _symmetry_equiv_pos_as_xyz
  1  'x, y, z'
loop_
 _atom_site_type_symbol
 _atom_site_label
 _atom_site_symmetry_multiplicity
 _atom_site_fract_x
 _atom_site_fract_y
 _atom_site_fract_z
 _atom_site_occupancy
  Tl  Tl0  1  0.334317  0.084317  0.250000  1
  Tl  Tl1  1  0.665683  0.915683  0.750000  1
  V  V2  1  0.000000  0.500000  0.500000  1
  V  V3  1  0.500000  0.500000  0.000000  1
  Ni  Ni4  1  0.000000  0.500000  0.000000  1
  Ni  Ni5  1  0.000000  0.000000  0.500000  1
  F  F6  1  0.312367  0.562367  0.750000  1
  F  F7  1  0.923282  0.173282  0.750000  1
  F  F8  1  0.324755  0.182166  0.750932  1
  F  F9  1  0.931233  0.573823  0.749068  1
  F  F10  1  0.324755  0.573823  0.142591  1
  F  F11  1  0.931233  0.182166  0.357409  1
  F  F12  1  0.687633  0.437633  0.250000  1
  F  F13  1  0.076718  0.826718  0.250000  1
  F  F14  1  0.675245  0.817834  0.249068  1
  F  F15  1  0.068767  0.426177  0.250932  1
  F  F16  1  0.675245  0.426177  0.857409  1
  F  F17  1  0.068767  0.817834  0.642591  1
