# generated using pymatgen
data_Nd3ZnCu(AgSn2)2
_symmetry_space_group_name_H-M   'P 1'
_cell_length_a   8.86018283
_cell_length_b   8.75518282
_cell_length_c   8.75518359
_cell_angle_alpha   149.05943320
_cell_angle_beta   130.74126802
_cell_angle_gamma   59.20073667
_symmetry_Int_Tables_number   1
_chemical_formula_structural   Nd3ZnCu(AgSn2)2
_chemical_formula_sum   'Nd3 Zn1 Cu1 Ag2 Sn4'
_cell_volume   262.57447012
_cell_formula_units_Z   1
loop_
 _symmetry_equiv_pos_site_id
 _symmetry_equiv_pos_as_xyz
  1  'x, y, z'
loop_
 _atom_site_type_symbol
 _atom_site_label
 _atom_site_symmetry_multiplicity
 _atom_site_fract_x
 _atom_site_fract_y
 _atom_site_fract_z
 _atom_site_occupancy
  Nd  Nd0  1  0.502280  0.000851  0.501428  1
  Nd  Nd1  1  0.112462  0.129854  0.982608  1
  Nd  Nd2  1  0.897380  0.872486  0.024893  1
  Zn  Zn3  1  0.837470  0.655799  0.181671  1
  Cu  Cu4  1  0.152899  0.340185  0.812714  1
  Ag  Ag5  1  0.485884  0.681893  0.803989  1
  Ag  Ag6  1  0.507631  0.318797  0.188834  1
  Sn  Sn7  1  0.799171  0.490638  0.308532  1
  Sn  Sn8  1  0.205628  0.505380  0.700247  1
  Sn  Sn9  1  0.753938  0.220250  0.533687  1
  Sn  Sn10  1  0.245259  0.783865  0.461395  1
