# generated using pymatgen
data_Pr5GaBiPb2
_symmetry_space_group_name_H-M   'P 1'
_cell_length_a   9.68408800
_cell_length_b   9.68408851
_cell_length_c   6.78776900
_cell_angle_alpha   90.00000000
_cell_angle_beta   90.00000000
_cell_angle_gamma   120.29605873
_symmetry_Int_Tables_number   1
_chemical_formula_structural   Pr5GaBiPb2
_chemical_formula_sum   'Pr10 Ga2 Bi2 Pb4'
_cell_volume   549.63172609
_cell_formula_units_Z   2
loop_
 _symmetry_equiv_pos_site_id
 _symmetry_equiv_pos_as_xyz
  1  'x, y, z'
loop_
 _atom_site_type_symbol
 _atom_site_label
 _atom_site_symmetry_multiplicity
 _atom_site_fract_x
 _atom_site_fract_y
 _atom_site_fract_z
 _atom_site_occupancy
  Pr  Pr0  1  0.258643  0.999320  0.750000  1
  Pr  Pr1  1  0.741357  0.000680  0.250000  1
  Pr  Pr2  1  0.999320  0.258643  0.750000  1
  Pr  Pr3  1  0.000680  0.741357  0.250000  1
  Pr  Pr4  1  0.741156  0.741156  0.750000  1
  Pr  Pr5  1  0.258844  0.258844  0.250000  1
  Pr  Pr6  1  0.332494  0.667506  0.500000  1
  Pr  Pr7  1  0.667506  0.332494  0.500000  1
  Pr  Pr8  1  0.667506  0.332494  0.000000  1
  Pr  Pr9  1  0.332494  0.667506  0.000000  1
  Ga  Ga10  1  0.000000  0.000000  0.500000  1
  Ga  Ga11  1  0.000000  0.000000  0.000000  1
  Bi  Bi12  1  0.385184  0.385184  0.750000  1
  Bi  Bi13  1  0.614816  0.614816  0.250000  1
  Pb  Pb14  1  0.614025  0.998841  0.750000  1
  Pb  Pb15  1  0.385975  0.001159  0.250000  1
  Pb  Pb16  1  0.998841  0.614025  0.750000  1
  Pb  Pb17  1  0.001159  0.385975  0.250000  1
