# generated using pymatgen
data_SmDy4Cr3(Co4P3)4
_symmetry_space_group_name_H-M   'P 1'
_cell_length_a   12.01068700
_cell_length_b   12.01068757
_cell_length_c   3.67638300
_cell_angle_alpha   90.00000000
_cell_angle_beta   90.00000000
_cell_angle_gamma   119.99999569
_symmetry_Int_Tables_number   1
_chemical_formula_structural   SmDy4Cr3(Co4P3)4
_chemical_formula_sum   'Sm1 Dy4 Cr3 Co16 P12'
_cell_volume   459.29013659
_cell_formula_units_Z   1
loop_
 _symmetry_equiv_pos_site_id
 _symmetry_equiv_pos_as_xyz
  1  'x, y, z'
loop_
 _atom_site_type_symbol
 _atom_site_label
 _atom_site_symmetry_multiplicity
 _atom_site_fract_x
 _atom_site_fract_y
 _atom_site_fract_z
 _atom_site_occupancy
  Sm  Sm0  1  0.666667  0.333333  0.000000  1
  Dy  Dy1  1  0.333333  0.666667  0.000000  1
  Dy  Dy2  1  0.187248  0.187294  0.500000  1
  Dy  Dy3  1  0.812706  0.999954  0.500000  1
  Dy  Dy4  1  0.000046  0.812752  0.500000  1
  Cr  Cr5  1  0.554503  0.554788  0.000000  1
  Cr  Cr6  1  0.445212  0.999715  0.000000  1
  Cr  Cr7  1  0.000285  0.445497  0.000000  1
  Co  Co8  1  0.823679  0.200001  0.000000  1
  Co  Co9  1  0.799999  0.623678  0.000000  1
  Co  Co10  1  0.376322  0.176321  0.000000  1
  Co  Co11  1  0.200395  0.823096  0.000000  1
  Co  Co12  1  0.622701  0.799605  0.000000  1
  Co  Co13  1  0.176904  0.377299  0.000000  1
  Co  Co14  1  0.643866  0.124646  0.500000  1
  Co  Co15  1  0.875354  0.519220  0.500000  1
  Co  Co16  1  0.480780  0.356134  0.500000  1
  Co  Co17  1  0.126112  0.644007  0.500000  1
  Co  Co18  1  0.517894  0.873888  0.500000  1
  Co  Co19  1  0.355993  0.482106  0.500000  1
  Co  Co20  1  0.717242  0.717724  0.500000  1
  Co  Co21  1  0.282276  0.999518  0.500000  1
  Co  Co22  1  0.000482  0.282758  0.500000  1
  Co  Co23  1  0.000000  0.000000  0.000000  1
  P  P24  1  0.366999  0.366961  0.000000  1
  P  P25  1  0.633039  0.000039  0.000000  1
  P  P26  1  0.999961  0.633001  0.000000  1
  P  P27  1  0.839040  0.317166  0.500000  1
  P  P28  1  0.682834  0.521874  0.500000  1
  P  P29  1  0.478126  0.160960  0.500000  1
  P  P30  1  0.317165  0.837323  0.500000  1
  P  P31  1  0.520158  0.682835  0.500000  1
  P  P32  1  0.162677  0.479842  0.500000  1
  P  P33  1  0.820420  0.820550  0.000000  1
  P  P34  1  0.179450  0.999870  0.000000  1
  P  P35  1  0.000130  0.179580  0.000000  1
