# generated using pymatgen
data_PrSn6Ru3Rh
_symmetry_space_group_name_H-M   'P 1'
_cell_length_a   6.97814611
_cell_length_b   6.97696145
_cell_length_c   6.97696125
_cell_angle_alpha   89.95287810
_cell_angle_beta   120.02899244
_cell_angle_gamma   120.02898973
_symmetry_Int_Tables_number   1
_chemical_formula_structural   PrSn6Ru3Rh
_chemical_formula_sum   'Pr1 Sn6 Ru3 Rh1'
_cell_volume   240.07972361
_cell_formula_units_Z   1
loop_
 _symmetry_equiv_pos_site_id
 _symmetry_equiv_pos_as_xyz
  1  'x, y, z'
loop_
 _atom_site_type_symbol
 _atom_site_label
 _atom_site_symmetry_multiplicity
 _atom_site_fract_x
 _atom_site_fract_y
 _atom_site_fract_z
 _atom_site_occupancy
  Pr  Pr0  1  0.003115  0.001877  0.001877  1
  Sn  Sn1  1  0.649842  0.120965  0.120965  1
  Sn  Sn2  1  0.350020  0.469101  0.469101  1
  Sn  Sn3  1  0.996782  0.880177  0.526440  1
  Sn  Sn4  1  0.996782  0.526440  0.880177  1
  Sn  Sn5  1  0.498697  0.496446  0.999077  1
  Sn  Sn6  1  0.498697  0.999077  0.496446  1
  Ru  Ru7  1  0.655738  0.406471  0.406471  1
  Ru  Ru8  1  0.001147  0.251204  0.594610  1
  Ru  Ru9  1  0.001147  0.594610  0.251204  1
  Rh  Rh10  1  0.348031  0.753631  0.753631  1
