# generated using pymatgen
data_Ce2PaSb4PdPt2
_symmetry_space_group_name_H-M   'P 1'
_cell_length_a   8.51315590
_cell_length_b   8.51315666
_cell_length_c   8.51315561
_cell_angle_alpha   109.45538298
_cell_angle_beta   109.50291634
_cell_angle_gamma   109.45537345
_symmetry_Int_Tables_number   1
_chemical_formula_structural   Ce2PaSb4PdPt2
_chemical_formula_sum   'Ce4 Pa2 Sb8 Pd2 Pt4'
_cell_volume   474.95204295
_cell_formula_units_Z   2
loop_
 _symmetry_equiv_pos_site_id
 _symmetry_equiv_pos_as_xyz
  1  'x, y, z'
loop_
 _atom_site_type_symbol
 _atom_site_label
 _atom_site_symmetry_multiplicity
 _atom_site_fract_x
 _atom_site_fract_y
 _atom_site_fract_z
 _atom_site_occupancy
  Ce  Ce0  1  0.250000  0.124943  0.874943  1
  Ce  Ce1  1  0.750000  0.375057  0.625057  1
  Ce  Ce2  1  0.125057  0.875057  0.250000  1
  Ce  Ce3  1  0.374943  0.624943  0.750000  1
  Pa  Pa4  1  0.875000  0.250000  0.125000  1
  Pa  Pa5  1  0.625000  0.750000  0.375000  1
  Sb  Sb6  1  0.671940  0.500365  0.999050  1
  Sb  Sb7  1  0.498685  0.999635  0.671575  1
  Sb  Sb8  1  0.001315  0.672891  0.500950  1
  Sb  Sb9  1  0.828060  0.827109  0.828425  1
  Sb  Sb10  1  0.499050  0.000365  0.171940  1
  Sb  Sb11  1  0.171575  0.499635  0.998685  1
  Sb  Sb12  1  0.000950  0.172891  0.501315  1
  Sb  Sb13  1  0.328425  0.327109  0.328060  1
  Pd  Pd14  1  0.375000  0.250000  0.625000  1
  Pd  Pd15  1  0.125000  0.750000  0.875000  1
  Pt  Pt16  1  0.250000  0.621521  0.371521  1
  Pt  Pt17  1  0.750000  0.878479  0.128479  1
  Pt  Pt18  1  0.628479  0.378479  0.250000  1
  Pt  Pt19  1  0.871521  0.121521  0.750000  1
