# generated using pymatgen
data_Sr4Ga3RuBr2
_symmetry_space_group_name_H-M   'P 1'
_cell_length_a   4.35476800
_cell_length_b   4.35476825
_cell_length_c   17.76338500
_cell_angle_alpha   90.00000000
_cell_angle_beta   90.00000000
_cell_angle_gamma   119.99999813
_symmetry_Int_Tables_number   1
_chemical_formula_structural   Sr4Ga3RuBr2
_chemical_formula_sum   'Sr4 Ga3 Ru1 Br2'
_cell_volume   291.73359181
_cell_formula_units_Z   1
loop_
 _symmetry_equiv_pos_site_id
 _symmetry_equiv_pos_as_xyz
  1  'x, y, z'
loop_
 _atom_site_type_symbol
 _atom_site_label
 _atom_site_symmetry_multiplicity
 _atom_site_fract_x
 _atom_site_fract_y
 _atom_site_fract_z
 _atom_site_occupancy
  Sr  Sr0  1  0.000000  0.000000  0.117278  1
  Sr  Sr1  1  0.000000  0.000000  0.377300  1
  Sr  Sr2  1  0.000000  0.000000  0.622635  1
  Sr  Sr3  1  0.000000  0.000000  0.883208  1
  Ga  Ga4  1  0.333334  0.666667  0.491293  1
  Ga  Ga5  1  0.666667  0.333332  0.508490  1
  Ga  Ga6  1  0.666667  0.333332  0.999424  1
  Ru  Ru7  1  0.333334  0.666667  0.000729  1
  Br  Br8  1  0.666667  0.333332  0.253192  1
  Br  Br9  1  0.333334  0.666667  0.746452  1
