# generated using pymatgen
data_Dy19Th(Bi2Os)4
_symmetry_space_group_name_H-M   'P 1'
_cell_length_a   8.02516571
_cell_length_b   9.01419333
_cell_length_c   12.50937009
_cell_angle_alpha   90.12609731
_cell_angle_beta   89.94322190
_cell_angle_gamma   90.04937764
_symmetry_Int_Tables_number   1
_chemical_formula_structural   Dy19Th(Bi2Os)4
_chemical_formula_sum   'Dy19 Th1 Bi8 Os4'
_cell_volume   904.92980546
_cell_formula_units_Z   1
loop_
 _symmetry_equiv_pos_site_id
 _symmetry_equiv_pos_as_xyz
  1  'x, y, z'
loop_
 _atom_site_type_symbol
 _atom_site_label
 _atom_site_symmetry_multiplicity
 _atom_site_fract_x
 _atom_site_fract_y
 _atom_site_fract_z
 _atom_site_occupancy
  Dy  Dy0  1  0.838963  0.750324  0.792597  1
  Dy  Dy1  1  0.159490  0.250175  0.206745  1
  Dy  Dy2  1  0.337066  0.252168  0.709574  1
  Dy  Dy3  1  0.661179  0.750207  0.293941  1
  Dy  Dy4  1  0.373140  0.748113  0.695730  1
  Dy  Dy5  1  0.622009  0.253872  0.304253  1
  Dy  Dy6  1  0.876545  0.248313  0.805727  1
  Dy  Dy7  1  0.123328  0.749155  0.193689  1
  Dy  Dy8  1  0.948843  0.748746  0.502474  1
  Dy  Dy9  1  0.059841  0.248954  0.497899  1
  Dy  Dy10  1  0.440596  0.250219  0.996941  1
  Dy  Dy11  1  0.558397  0.749911  0.003724  1
  Dy  Dy12  1  0.318186  0.953045  0.431227  1
  Dy  Dy13  1  0.173703  0.956943  0.937119  1
  Dy  Dy14  1  0.327821  0.543884  0.436158  1
  Dy  Dy15  1  0.825973  0.042868  0.063856  1
  Dy  Dy16  1  0.675268  0.459092  0.564280  1
  Dy  Dy17  1  0.826766  0.457333  0.064293  1
  Dy  Dy18  1  0.173852  0.542704  0.936014  1
  Th  Th19  1  0.672279  0.041602  0.559861  1
  Bi  Bi20  1  0.569290  0.490981  0.828020  1
  Bi  Bi21  1  0.431531  0.509595  0.172200  1
  Bi  Bi22  1  0.066894  0.507855  0.672312  1
  Bi  Bi23  1  0.432019  0.991370  0.172100  1
  Bi  Bi24  1  0.932948  0.490810  0.327874  1
  Bi  Bi25  1  0.566702  0.008639  0.828732  1
  Bi  Bi26  1  0.929886  0.009912  0.325904  1
  Bi  Bi27  1  0.073212  0.989280  0.673525  1
  Os  Os28  1  0.578271  0.757097  0.514563  1
  Os  Os29  1  0.425723  0.246881  0.489889  1
  Os  Os30  1  0.076024  0.249970  0.987938  1
  Os  Os31  1  0.924258  0.749981  0.010839  1
