# generated using pymatgen
data_Pr9NdSn20Pd3Rh5
_symmetry_space_group_name_H-M   'P 1'
_cell_length_a   14.29395662
_cell_length_b   14.26594892
_cell_length_c   4.67000400
_cell_angle_alpha   90.00000000
_cell_angle_beta   90.00000000
_cell_angle_gamma   90.10519684
_symmetry_Int_Tables_number   1
_chemical_formula_structural   Pr9NdSn20Pd3Rh5
_chemical_formula_sum   'Pr9 Nd1 Sn20 Pd3 Rh5'
_cell_volume   952.29092409
_cell_formula_units_Z   1
loop_
 _symmetry_equiv_pos_site_id
 _symmetry_equiv_pos_as_xyz
  1  'x, y, z'
loop_
 _atom_site_type_symbol
 _atom_site_label
 _atom_site_symmetry_multiplicity
 _atom_site_fract_x
 _atom_site_fract_y
 _atom_site_fract_z
 _atom_site_occupancy
  Pr  Pr0  1  0.500449  0.501079  0.000000  1
  Pr  Pr1  1  0.997204  0.001539  0.000000  1
  Pr  Pr2  1  0.322722  0.819257  0.500000  1
  Pr  Pr3  1  0.176720  0.318130  0.500000  1
  Pr  Pr4  1  0.822622  0.681406  0.500000  1
  Pr  Pr5  1  0.891575  0.389318  0.500000  1
  Pr  Pr6  1  0.108154  0.609472  0.500000  1
  Pr  Pr7  1  0.389961  0.109325  0.500000  1
  Pr  Pr8  1  0.609601  0.891029  0.500000  1
  Nd  Nd9  1  0.679213  0.180026  0.500000  1
  Sn  Sn10  1  0.570152  0.071573  0.000000  1
  Sn  Sn11  1  0.434341  0.929425  0.000000  1
  Sn  Sn12  1  0.066939  0.428896  0.000000  1
  Sn  Sn13  1  0.933612  0.571678  0.000000  1
  Sn  Sn14  1  0.652561  0.702725  0.000000  1
  Sn  Sn15  1  0.348028  0.296874  0.000000  1
  Sn  Sn16  1  0.151695  0.797511  0.000000  1
  Sn  Sn17  1  0.847616  0.199901  0.000000  1
  Sn  Sn18  1  0.301125  0.652830  0.000000  1
  Sn  Sn19  1  0.699600  0.346088  0.000000  1
  Sn  Sn20  1  0.198233  0.151719  0.000000  1
  Sn  Sn21  1  0.800052  0.849423  0.000000  1
  Sn  Sn22  1  0.663787  0.502669  0.500000  1
  Sn  Sn23  1  0.336088  0.497187  0.500000  1
  Sn  Sn24  1  0.162450  0.995807  0.500000  1
  Sn  Sn25  1  0.835127  0.006372  0.500000  1
  Sn  Sn26  1  0.497676  0.663222  0.500000  1
  Sn  Sn27  1  0.503742  0.335706  0.500000  1
  Sn  Sn28  1  0.001347  0.163907  0.500000  1
  Sn  Sn29  1  0.996268  0.836793  0.500000  1
  Pd  Pd30  1  0.746440  0.530964  0.000000  1
  Pd  Pd31  1  0.254062  0.468339  0.000000  1
  Pd  Pd32  1  0.246977  0.968243  0.000000  1
  Rh  Rh33  1  0.754231  0.031256  0.000000  1
  Rh  Rh34  1  0.469442  0.743155  0.000000  1
  Rh  Rh35  1  0.530947  0.256437  0.000000  1
  Rh  Rh36  1  0.031093  0.242848  0.000000  1
  Rh  Rh37  1  0.968146  0.757868  0.000000  1
