# generated using pymatgen
data_Tm2HPd6
_symmetry_space_group_name_H-M   'P 1'
_cell_length_a   5.82203903
_cell_length_b   5.82203883
_cell_length_c   5.82203900
_cell_angle_alpha   60.00000473
_cell_angle_beta   60.00000586
_cell_angle_gamma   60.00000278
_symmetry_Int_Tables_number   1
_chemical_formula_structural   Tm2HPd6
_chemical_formula_sum   'Tm2 H1 Pd6'
_cell_volume   139.54374262
_cell_formula_units_Z   1
loop_
 _symmetry_equiv_pos_site_id
 _symmetry_equiv_pos_as_xyz
  1  'x, y, z'
loop_
 _atom_site_type_symbol
 _atom_site_label
 _atom_site_symmetry_multiplicity
 _atom_site_fract_x
 _atom_site_fract_y
 _atom_site_fract_z
 _atom_site_occupancy
  Tm  Tm0  1  0.250000  0.250000  0.250000  1
  Tm  Tm1  1  0.750000  0.750000  0.750000  1
  H  H2  1  0.500000  0.500000  0.500000  1
  Pd  Pd3  1  0.751523  0.248477  0.248477  1
  Pd  Pd4  1  0.248477  0.751523  0.248477  1
  Pd  Pd5  1  0.751523  0.751523  0.248477  1
  Pd  Pd6  1  0.248477  0.248477  0.751523  1
  Pd  Pd7  1  0.751523  0.248477  0.751523  1
  Pd  Pd8  1  0.248477  0.751523  0.751523  1
