# generated using pymatgen
data_TbY3Al4Pt3Rh
_symmetry_space_group_name_H-M   'P 1'
_cell_length_a   4.43623000
_cell_length_b   6.87628006
_cell_length_c   7.78178103
_cell_angle_alpha   89.98746409
_cell_angle_beta   90.00000000
_cell_angle_gamma   90.00000000
_symmetry_Int_Tables_number   1
_chemical_formula_structural   TbY3Al4Pt3Rh
_chemical_formula_sum   'Tb1 Y3 Al4 Pt3 Rh1'
_cell_volume   237.38135617
_cell_formula_units_Z   1
loop_
 _symmetry_equiv_pos_site_id
 _symmetry_equiv_pos_as_xyz
  1  'x, y, z'
loop_
 _atom_site_type_symbol
 _atom_site_label
 _atom_site_symmetry_multiplicity
 _atom_site_fract_x
 _atom_site_fract_y
 _atom_site_fract_z
 _atom_site_occupancy
  Tb  Tb0  1  0.250000  0.031753  0.677963  1
  Y  Y1  1  0.250000  0.529519  0.819288  1
  Y  Y2  1  0.750000  0.973570  0.318233  1
  Y  Y3  1  0.750000  0.470914  0.183152  1
  Al  Al4  1  0.250000  0.147057  0.063826  1
  Al  Al5  1  0.250000  0.640495  0.436062  1
  Al  Al6  1  0.750000  0.853762  0.936735  1
  Al  Al7  1  0.750000  0.354908  0.562458  1
  Pt  Pt8  1  0.250000  0.775646  0.117383  1
  Pt  Pt9  1  0.750000  0.726568  0.617381  1
  Pt  Pt10  1  0.750000  0.226185  0.882501  1
  Rh  Rh11  1  0.250000  0.269623  0.385017  1
