# generated using pymatgen
data_Sc5Cd13
_symmetry_space_group_name_H-M   'P 1'
_cell_length_a   16.51578113
_cell_length_b   16.51578169
_cell_length_c   6.59724904
_cell_angle_alpha   96.23094821
_cell_angle_beta   96.23094755
_cell_angle_gamma   12.94572367
_symmetry_Int_Tables_number   1
_chemical_formula_structural   Sc5Cd13
_chemical_formula_sum   'Sc5 Cd13'
_cell_volume   400.73453322
_cell_formula_units_Z   1
loop_
 _symmetry_equiv_pos_site_id
 _symmetry_equiv_pos_as_xyz
  1  'x, y, z'
loop_
 _atom_site_type_symbol
 _atom_site_label
 _atom_site_symmetry_multiplicity
 _atom_site_fract_x
 _atom_site_fract_y
 _atom_site_fract_z
 _atom_site_occupancy
  Sc  Sc0  1  0.000000  0.000000  0.000000  1
  Sc  Sc1  1  0.666635  0.666635  0.320677  1
  Sc  Sc2  1  0.889334  0.889334  0.428233  1
  Sc  Sc3  1  0.110666  0.110666  0.571768  1
  Sc  Sc4  1  0.333365  0.333365  0.679323  1
  Cd  Cd5  1  0.106781  0.106781  0.068877  1
  Cd  Cd6  1  0.224559  0.224559  0.111801  1
  Cd  Cd7  1  0.331619  0.331619  0.167660  1
  Cd  Cd8  1  0.445700  0.445700  0.211562  1
  Cd  Cd9  1  0.554523  0.554523  0.292746  1
  Cd  Cd10  1  0.778843  0.778843  0.399413  1
  Cd  Cd11  1  0.000000  0.000000  0.500000  1
  Cd  Cd12  1  0.221157  0.221157  0.600588  1
  Cd  Cd13  1  0.445477  0.445477  0.707254  1
  Cd  Cd14  1  0.554300  0.554300  0.788437  1
  Cd  Cd15  1  0.668380  0.668380  0.832340  1
  Cd  Cd16  1  0.775440  0.775440  0.888198  1
  Cd  Cd17  1  0.893220  0.893220  0.931124  1
