# generated using pymatgen
data_Ba(GaI4)2
_symmetry_space_group_name_H-M   'P 1'
_cell_length_a   8.28021600
_cell_length_b   9.05760223
_cell_length_c   14.97861286
_cell_angle_alpha   85.15061558
_cell_angle_beta   90.00000000
_cell_angle_gamma   90.00000000
_symmetry_Int_Tables_number   1
_chemical_formula_structural   Ba(GaI4)2
_chemical_formula_sum   'Ba2 Ga4 I16'
_cell_volume   1119.35824288
_cell_formula_units_Z   2
loop_
 _symmetry_equiv_pos_site_id
 _symmetry_equiv_pos_as_xyz
  1  'x, y, z'
loop_
 _atom_site_type_symbol
 _atom_site_label
 _atom_site_symmetry_multiplicity
 _atom_site_fract_x
 _atom_site_fract_y
 _atom_site_fract_z
 _atom_site_occupancy
  Ba  Ba0  1  0.153471  0.500000  0.250000  1
  Ba  Ba1  1  0.846529  0.500000  0.750000  1
  Ga  Ga2  1  0.259321  0.675723  0.580264  1
  Ga  Ga3  1  0.740679  0.675723  0.080264  1
  Ga  Ga4  1  0.740679  0.324277  0.419736  1
  Ga  Ga5  1  0.259321  0.324277  0.919736  1
  I  I6  1  0.528822  0.747359  0.654988  1
  I  I7  1  0.306147  0.744408  0.410150  1
  I  I8  1  0.819521  0.401050  0.114203  1
  I  I9  1  0.180479  0.598950  0.885797  1
  I  I10  1  0.471178  0.252641  0.345012  1
  I  I11  1  0.306147  0.255592  0.089850  1
  I  I12  1  0.693853  0.255592  0.589850  1
  I  I13  1  0.471178  0.747359  0.154988  1
  I  I14  1  0.180479  0.401050  0.614203  1
  I  I15  1  0.528822  0.252641  0.845012  1
  I  I16  1  0.819521  0.598950  0.385797  1
  I  I17  1  0.975146  0.833283  0.138655  1
  I  I18  1  0.693853  0.744408  0.910150  1
  I  I19  1  0.024854  0.166717  0.861345  1
  I  I20  1  0.975146  0.166717  0.361345  1
  I  I21  1  0.024854  0.833283  0.638655  1
