# generated using pymatgen
data_TbLu5(Si3Ru)8
_symmetry_space_group_name_H-M   'P 1'
_cell_length_a   10.09283606
_cell_length_b   10.09283561
_cell_length_c   8.09391402
_cell_angle_alpha   89.87675819
_cell_angle_beta   90.12324438
_cell_angle_gamma   132.70414779
_symmetry_Int_Tables_number   1
_chemical_formula_structural   TbLu5(Si3Ru)8
_chemical_formula_sum   'Tb1 Lu5 Si24 Ru8'
_cell_volume   605.88704490
_cell_formula_units_Z   1
loop_
 _symmetry_equiv_pos_site_id
 _symmetry_equiv_pos_as_xyz
  1  'x, y, z'
loop_
 _atom_site_type_symbol
 _atom_site_label
 _atom_site_symmetry_multiplicity
 _atom_site_fract_x
 _atom_site_fract_y
 _atom_site_fract_z
 _atom_site_occupancy
  Tb  Tb0  1  0.002584  0.502584  0.750000  1
  Lu  Lu1  1  0.500174  0.500199  0.499804  1
  Lu  Lu2  1  0.000199  0.000174  0.000196  1
  Lu  Lu3  1  0.502487  0.002487  0.750000  1
  Lu  Lu4  1  0.997880  0.497880  0.250000  1
  Lu  Lu5  1  0.497715  0.997715  0.250000  1
  Si  Si6  1  0.795612  0.205585  0.499392  1
  Si  Si7  1  0.294508  0.704416  0.000294  1
  Si  Si8  1  0.204416  0.794508  0.499706  1
  Si  Si9  1  0.705585  0.295612  0.000608  1
  Si  Si10  1  0.331318  0.333000  0.832710  1
  Si  Si11  1  0.667724  0.667909  0.166933  1
  Si  Si12  1  0.167909  0.167724  0.333067  1
  Si  Si13  1  0.833000  0.831318  0.667290  1
  Si  Si14  1  0.121769  0.887133  0.729740  1
  Si  Si15  1  0.111108  0.876837  0.271998  1
  Si  Si16  1  0.614099  0.380497  0.228041  1
  Si  Si17  1  0.621998  0.387453  0.770974  1
  Si  Si18  1  0.880497  0.114099  0.271959  1
  Si  Si19  1  0.887453  0.121998  0.729026  1
  Si  Si20  1  0.387133  0.621769  0.770260  1
  Si  Si21  1  0.376837  0.611108  0.228002  1
  Si  Si22  1  0.343148  0.110712  0.504596  1
  Si  Si23  1  0.886477  0.651605  0.493773  1
  Si  Si24  1  0.389428  0.157067  0.003185  1
  Si  Si25  1  0.847652  0.613336  0.995581  1
  Si  Si26  1  0.657067  0.889428  0.496815  1
  Si  Si27  1  0.113336  0.347652  0.504419  1
  Si  Si28  1  0.610712  0.843148  0.995404  1
  Si  Si29  1  0.151605  0.386477  0.006227  1
  Ru  Ru30  1  0.665294  0.325918  0.498659  1
  Ru  Ru31  1  0.173847  0.834418  0.002177  1
  Ru  Ru32  1  0.334418  0.673847  0.497823  1
  Ru  Ru33  1  0.825918  0.165294  0.001341  1
  Ru  Ru34  1  0.126312  0.126765  0.628072  1
  Ru  Ru35  1  0.873304  0.872708  0.372524  1
  Ru  Ru36  1  0.372708  0.373304  0.127476  1
  Ru  Ru37  1  0.626765  0.626312  0.871928  1
