# generated using pymatgen
data_Tb2Ga9Tc2Ru3
_symmetry_space_group_name_H-M   'P 1'
_cell_length_a   8.02866610
_cell_length_b   8.02866470
_cell_length_c   8.02866584
_cell_angle_alpha   134.38886665
_cell_angle_beta   134.38886044
_cell_angle_gamma   66.48126612
_symmetry_Int_Tables_number   1
_chemical_formula_structural   Tb2Ga9Tc2Ru3
_chemical_formula_sum   'Tb2 Ga9 Tc2 Ru3'
_cell_volume   260.11816014
_cell_formula_units_Z   1
loop_
 _symmetry_equiv_pos_site_id
 _symmetry_equiv_pos_as_xyz
  1  'x, y, z'
loop_
 _atom_site_type_symbol
 _atom_site_label
 _atom_site_symmetry_multiplicity
 _atom_site_fract_x
 _atom_site_fract_y
 _atom_site_fract_z
 _atom_site_occupancy
  Tb  Tb0  1  0.000000  0.500000  0.500000  1
  Tb  Tb1  1  0.500000  0.000000  0.500000  1
  Ga  Ga2  1  0.438515  0.858545  0.000000  1
  Ga  Ga3  1  0.141455  0.141455  0.579970  1
  Ga  Ga4  1  0.858545  0.438515  0.000000  1
  Ga  Ga5  1  0.858545  0.858545  0.420030  1
  Ga  Ga6  1  0.561485  0.141455  0.000000  1
  Ga  Ga7  1  0.141455  0.561485  0.000000  1
  Ga  Ga8  1  0.561485  0.561485  0.420030  1
  Ga  Ga9  1  0.000000  0.000000  0.000000  1
  Ga  Ga10  1  0.438515  0.438515  0.579970  1
  Tc  Tc11  1  0.182219  0.182219  0.000000  1
  Tc  Tc12  1  0.817781  0.817781  0.000000  1
  Ru  Ru13  1  0.250000  0.750000  0.500000  1
  Ru  Ru14  1  0.750000  0.250000  0.500000  1
  Ru  Ru15  1  0.500000  0.500000  0.000000  1
