# generated using pymatgen
data_UTcB4
_symmetry_space_group_name_H-M   'P 1'
_cell_length_a   3.60027600
_cell_length_b   5.92572200
_cell_length_c   11.50606900
_cell_angle_alpha   90.00000000
_cell_angle_beta   90.00000000
_cell_angle_gamma   90.00000000
_symmetry_Int_Tables_number   1
_chemical_formula_structural   UTcB4
_chemical_formula_sum   'U4 Tc4 B16'
_cell_volume   245.47317651
_cell_formula_units_Z   4
loop_
 _symmetry_equiv_pos_site_id
 _symmetry_equiv_pos_as_xyz
  1  'x, y, z'
loop_
 _atom_site_type_symbol
 _atom_site_label
 _atom_site_symmetry_multiplicity
 _atom_site_fract_x
 _atom_site_fract_y
 _atom_site_fract_z
 _atom_site_occupancy
  U  U0  1  0.000000  0.626723  0.349904  1
  U  U1  1  0.000000  0.373277  0.650096  1
  U  U2  1  0.000000  0.126723  0.150096  1
  U  U3  1  0.000000  0.873277  0.849904  1
  Tc  Tc4  1  0.000000  0.638775  0.093642  1
  Tc  Tc5  1  0.000000  0.361225  0.906358  1
  Tc  Tc6  1  0.000000  0.138775  0.406358  1
  Tc  Tc7  1  0.000000  0.861225  0.593642  1
  B  B8  1  0.500000  0.787790  0.189024  1
  B  B9  1  0.500000  0.212210  0.810976  1
  B  B10  1  0.500000  0.287790  0.310976  1
  B  B11  1  0.500000  0.712210  0.689024  1
  B  B12  1  0.500000  0.867427  0.032337  1
  B  B13  1  0.500000  0.132573  0.967663  1
  B  B14  1  0.500000  0.367427  0.467663  1
  B  B15  1  0.500000  0.632573  0.532337  1
  B  B16  1  0.500000  0.884639  0.453371  1
  B  B17  1  0.500000  0.115361  0.546629  1
  B  B18  1  0.500000  0.384639  0.046629  1
  B  B19  1  0.500000  0.615361  0.953371  1
  B  B20  1  0.500000  0.971504  0.307390  1
  B  B21  1  0.500000  0.028496  0.692610  1
  B  B22  1  0.500000  0.471504  0.192610  1
  B  B23  1  0.500000  0.528496  0.807390  1
