# generated using pymatgen
data_Tb3Ta2(MoN4)3
_symmetry_space_group_name_H-M   'P 1'
_cell_length_a   11.01188008
_cell_length_b   11.01187980
_cell_length_c   11.01188000
_cell_angle_alpha   109.47122284
_cell_angle_beta   109.47122232
_cell_angle_gamma   109.47121947
_symmetry_Int_Tables_number   1
_chemical_formula_structural   Tb3Ta2(MoN4)3
_chemical_formula_sum   'Tb12 Ta8 Mo12 N48'
_cell_volume   1027.92753706
_cell_formula_units_Z   4
loop_
 _symmetry_equiv_pos_site_id
 _symmetry_equiv_pos_as_xyz
  1  'x, y, z'
loop_
 _atom_site_type_symbol
 _atom_site_label
 _atom_site_symmetry_multiplicity
 _atom_site_fract_x
 _atom_site_fract_y
 _atom_site_fract_z
 _atom_site_occupancy
  Tb  Tb0  1  0.250000  0.375001  0.125000  1
  Tb  Tb1  1  0.375000  0.750000  0.125000  1
  Tb  Tb2  1  0.375001  0.125000  0.250000  1
  Tb  Tb3  1  0.875000  0.625000  0.250000  1
  Tb  Tb4  1  0.750000  0.125000  0.375000  1
  Tb  Tb5  1  0.125000  0.250000  0.375001  1
  Tb  Tb6  1  0.875000  0.750000  0.625000  1
  Tb  Tb7  1  0.250000  0.875000  0.625000  1
  Tb  Tb8  1  0.125000  0.375000  0.750000  1
  Tb  Tb9  1  0.625000  0.875000  0.750000  1
  Tb  Tb10  1  0.625000  0.250000  0.875000  1
  Tb  Tb11  1  0.750000  0.625000  0.875000  1
  Ta  Ta12  1  0.000000  0.000000  0.000000  1
  Ta  Ta13  1  0.500001  0.000000  0.000000  1
  Ta  Ta14  1  0.000000  0.500001  0.000000  1
  Ta  Ta15  1  0.500000  0.500000  0.000000  1
  Ta  Ta16  1  0.000000  0.000000  0.500001  1
  Ta  Ta17  1  0.500000  0.000000  0.500000  1
  Ta  Ta18  1  0.000000  0.500000  0.500000  1
  Ta  Ta19  1  0.500001  0.500001  0.500001  1
  Mo  Mo20  1  0.875000  0.250000  0.124999  1
  Mo  Mo21  1  0.750000  0.875000  0.125000  1
  Mo  Mo22  1  0.625000  0.375000  0.250000  1
  Mo  Mo23  1  0.124999  0.875000  0.250000  1
  Mo  Mo24  1  0.250000  0.625000  0.375000  1
  Mo  Mo25  1  0.625000  0.750000  0.375001  1
  Mo  Mo26  1  0.375000  0.250000  0.625000  1
  Mo  Mo27  1  0.750000  0.375001  0.625000  1
  Mo  Mo28  1  0.875000  0.125000  0.750000  1
  Mo  Mo29  1  0.375001  0.625000  0.750000  1
  Mo  Mo30  1  0.250000  0.124999  0.875000  1
  Mo  Mo31  1  0.125000  0.750000  0.875000  1
  N  N32  1  0.317369  0.904138  0.022944  1
  N  N33  1  0.205575  0.118805  0.022943  1
  N  N34  1  0.881195  0.404138  0.086769  1
  N  N35  1  0.705575  0.682632  0.086770  1
  N  N36  1  0.618805  0.413230  0.095862  1
  N  N37  1  0.977058  0.682633  0.095863  1
  N  N38  1  0.022943  0.205575  0.118805  1
  N  N39  1  0.595863  0.913231  0.118806  1
  N  N40  1  0.205576  0.586770  0.182632  1
  N  N41  1  0.477057  0.595862  0.182632  1
  N  N42  1  0.586770  0.182632  0.205576  1
  N  N43  1  0.118805  0.022943  0.205575  1
  N  N44  1  0.477057  0.381194  0.294425  1
  N  N45  1  0.317368  0.913230  0.294425  1
  N  N46  1  0.904138  0.022944  0.317369  1
  N  N47  1  0.913230  0.294425  0.317368  1
  N  N48  1  0.294425  0.477057  0.381194  1
  N  N49  1  0.586770  0.904137  0.381195  1
  N  N50  1  0.817368  0.522943  0.404138  1
  N  N51  1  0.086769  0.881195  0.404138  1
  N  N52  1  0.095862  0.618805  0.413230  1
  N  N53  1  0.817369  0.794426  0.413231  1
  N  N54  1  0.595862  0.182632  0.477057  1
  N  N55  1  0.381194  0.294425  0.477057  1
  N  N56  1  0.618806  0.705575  0.522943  1
  N  N57  1  0.404138  0.817368  0.522943  1
  N  N58  1  0.182632  0.205576  0.586770  1
  N  N59  1  0.904137  0.381195  0.586770  1
  N  N60  1  0.913231  0.118806  0.595863  1
  N  N61  1  0.182632  0.477057  0.595862  1
  N  N62  1  0.413230  0.095862  0.618805  1
  N  N63  1  0.705575  0.522943  0.618806  1
  N  N64  1  0.086770  0.705575  0.682632  1
  N  N65  1  0.095863  0.977058  0.682633  1
  N  N66  1  0.682632  0.086770  0.705575  1
  N  N67  1  0.522943  0.618806  0.705575  1
  N  N68  1  0.413231  0.817369  0.794426  1
  N  N69  1  0.881195  0.977057  0.794425  1
  N  N70  1  0.522943  0.404138  0.817368  1
  N  N71  1  0.794426  0.413231  0.817369  1
  N  N72  1  0.404138  0.086769  0.881195  1
  N  N73  1  0.977057  0.794425  0.881195  1
  N  N74  1  0.022944  0.317369  0.904138  1
  N  N75  1  0.381195  0.586770  0.904137  1
  N  N76  1  0.294425  0.317368  0.913230  1
  N  N77  1  0.118806  0.595863  0.913231  1
  N  N78  1  0.682633  0.095863  0.977058  1
  N  N79  1  0.794425  0.881195  0.977057  1
