# generated using pymatgen
data_Er16In6TcNi
_symmetry_space_group_name_H-M   'P 1'
_cell_length_a   10.31826310
_cell_length_b   10.32493967
_cell_length_c   6.97047003
_cell_angle_alpha   90.00978012
_cell_angle_beta   89.99288292
_cell_angle_gamma   119.99254353
_symmetry_Int_Tables_number   1
_chemical_formula_structural   Er16In6TcNi
_chemical_formula_sum   'Er16 In6 Tc1 Ni1'
_cell_volume   643.16060597
_cell_formula_units_Z   1
loop_
 _symmetry_equiv_pos_site_id
 _symmetry_equiv_pos_as_xyz
  1  'x, y, z'
loop_
 _atom_site_type_symbol
 _atom_site_label
 _atom_site_symmetry_multiplicity
 _atom_site_fract_x
 _atom_site_fract_y
 _atom_site_fract_z
 _atom_site_occupancy
  Er  Er0  1  0.533688  0.067504  0.506524  1
  Er  Er1  1  0.932325  0.466192  0.506452  1
  Er  Er2  1  0.533771  0.466053  0.506147  1
  Er  Er3  1  0.468198  0.936936  0.009773  1
  Er  Er4  1  0.063139  0.531636  0.009790  1
  Er  Er5  1  0.468480  0.531737  0.009774  1
  Er  Er6  1  0.178593  0.357246  0.714490  1
  Er  Er7  1  0.642973  0.821498  0.714401  1
  Er  Er8  1  0.178265  0.821376  0.714438  1
  Er  Er9  1  0.824965  0.649817  0.210998  1
  Er  Er10  1  0.350207  0.175080  0.210678  1
  Er  Er11  1  0.824991  0.175032  0.211107  1
  Er  Er12  1  0.666612  0.333171  0.883469  1
  Er  Er13  1  0.333258  0.666784  0.396341  1
  Er  Er14  1  0.999901  0.000211  0.493440  1
  Er  Er15  1  0.999848  0.999927  0.988423  1
  In  In16  1  0.837959  0.675977  0.750053  1
  In  In17  1  0.323799  0.161822  0.749155  1
  In  In18  1  0.838449  0.162266  0.750227  1
  In  In19  1  0.165003  0.329314  0.254821  1
  In  In20  1  0.671212  0.835356  0.254757  1
  In  In21  1  0.164413  0.835603  0.254722  1
  Tc  Tc22  1  0.666645  0.333378  0.273825  1
  Ni  Ni23  1  0.333307  0.666086  0.784237  1
