# generated using pymatgen
data_LaTbSbTe
_symmetry_space_group_name_H-M   'P 1'
_cell_length_a   7.81537160
_cell_length_b   7.81537154
_cell_length_c   7.81537001
_cell_angle_alpha   33.41178834
_cell_angle_beta   33.41178793
_cell_angle_gamma   33.41179237
_symmetry_Int_Tables_number   1
_chemical_formula_structural   LaTbSbTe
_chemical_formula_sum   'La1 Tb1 Sb1 Te1'
_cell_volume   128.89713453
_cell_formula_units_Z   1
loop_
 _symmetry_equiv_pos_site_id
 _symmetry_equiv_pos_as_xyz
  1  'x, y, z'
loop_
 _atom_site_type_symbol
 _atom_site_label
 _atom_site_symmetry_multiplicity
 _atom_site_fract_x
 _atom_site_fract_y
 _atom_site_fract_z
 _atom_site_occupancy
  La  La0  1  0.253479  0.253479  0.253479  1
  Tb  Tb1  1  0.746466  0.746466  0.746466  1
  Sb  Sb2  1  0.004673  0.004673  0.004673  1
  Te  Te3  1  0.495381  0.495381  0.495381  1
