# generated using pymatgen
data_DyEr11In2(CoSi)2
_symmetry_space_group_name_H-M   'P 1'
_cell_length_a   8.40943151
_cell_length_b   8.40527140
_cell_length_c   8.40943127
_cell_angle_alpha   113.23049537
_cell_angle_beta   111.07745525
_cell_angle_gamma   104.25608168
_symmetry_Int_Tables_number   1
_chemical_formula_structural   DyEr11In2(CoSi)2
_chemical_formula_sum   'Dy1 Er11 In2 Co2 Si2'
_cell_volume   454.47420936
_cell_formula_units_Z   1
loop_
 _symmetry_equiv_pos_site_id
 _symmetry_equiv_pos_as_xyz
  1  'x, y, z'
loop_
 _atom_site_type_symbol
 _atom_site_label
 _atom_site_symmetry_multiplicity
 _atom_site_fract_x
 _atom_site_fract_y
 _atom_site_fract_z
 _atom_site_occupancy
  Dy  Dy0  1  0.694566  0.004433  0.309867  1
  Er  Er1  1  0.442011  0.241446  0.201151  1
  Er  Er2  1  0.557228  0.758477  0.797963  1
  Er  Er3  1  0.040295  0.241446  0.799435  1
  Er  Er4  1  0.960514  0.758477  0.201250  1
  Er  Er5  1  0.188409  0.289093  0.476381  1
  Er  Er6  1  0.812690  0.711151  0.524180  1
  Er  Er7  1  0.186971  0.711151  0.898461  1
  Er  Er8  1  0.812712  0.289093  0.100684  1
  Er  Er9  1  0.305236  0.616223  0.310987  1
  Er  Er10  1  0.694320  0.384029  0.689710  1
  Er  Er11  1  0.305478  0.994882  0.689404  1
  In  In12  1  0.499888  0.499566  0.999678  1
  In  In13  1  0.999677  0.999915  0.000238  1
  Co  Co14  1  0.108488  0.608215  0.499727  1
  Co  Co15  1  0.891680  0.391722  0.500042  1
  Si  Si16  1  0.360602  0.000340  0.361105  1
  Si  Si17  1  0.639235  0.000340  0.639737  1
