# generated using pymatgen
data_CsCe2F8
_symmetry_space_group_name_H-M   'P 1'
_cell_length_a   6.72414668
_cell_length_b   6.72414660
_cell_length_c   4.53641337
_cell_angle_alpha   86.40622269
_cell_angle_beta   86.40622411
_cell_angle_gamma   114.56865122
_symmetry_Int_Tables_number   1
_chemical_formula_structural   CsCe2F8
_chemical_formula_sum   'Cs1 Ce2 F8'
_cell_volume   185.28137637
_cell_formula_units_Z   1
loop_
 _symmetry_equiv_pos_site_id
 _symmetry_equiv_pos_as_xyz
  1  'x, y, z'
loop_
 _atom_site_type_symbol
 _atom_site_label
 _atom_site_symmetry_multiplicity
 _atom_site_fract_x
 _atom_site_fract_y
 _atom_site_fract_z
 _atom_site_occupancy
  Cs  Cs0  1  0.000000  0.000000  0.000000  1
  Ce  Ce1  1  0.325612  0.674388  0.500000  1
  Ce  Ce2  1  0.674388  0.325612  0.500000  1
  F  F3  1  0.723807  0.276193  0.000000  1
  F  F4  1  0.276193  0.723807  0.000000  1
  F  F5  1  0.592055  0.592055  0.247626  1
  F  F6  1  0.040721  0.340017  0.442606  1
  F  F7  1  0.659983  0.959279  0.557394  1
  F  F8  1  0.959279  0.659983  0.557394  1
  F  F9  1  0.340017  0.040721  0.442606  1
  F  F10  1  0.407945  0.407945  0.752374  1
