# generated using pymatgen
data_Tm10In3SnBi2
_symmetry_space_group_name_H-M   'P 1'
_cell_length_a   6.51644900
_cell_length_b   8.93042435
_cell_length_c   8.90818082
_cell_angle_alpha   119.98874366
_cell_angle_beta   89.99996792
_cell_angle_gamma   90.00007698
_symmetry_Int_Tables_number   1
_chemical_formula_structural   Tm10In3SnBi2
_chemical_formula_sum   'Tm10 In3 Sn1 Bi2'
_cell_volume   449.00585215
_cell_formula_units_Z   1
loop_
 _symmetry_equiv_pos_site_id
 _symmetry_equiv_pos_as_xyz
  1  'x, y, z'
loop_
 _atom_site_type_symbol
 _atom_site_label
 _atom_site_symmetry_multiplicity
 _atom_site_fract_x
 _atom_site_fract_y
 _atom_site_fract_z
 _atom_site_occupancy
  Tm  Tm0  1  0.494477  0.328103  0.665869  1
  Tm  Tm1  1  0.494360  0.672462  0.339707  1
  Tm  Tm2  1  0.005640  0.672456  0.339701  1
  Tm  Tm3  1  0.005523  0.328106  0.665873  1
  Tm  Tm4  1  0.749997  0.229647  0.990468  1
  Tm  Tm5  1  0.749998  0.771325  0.761021  1
  Tm  Tm6  1  0.750000  0.000840  0.239549  1
  Tm  Tm7  1  0.250000  0.764608  0.001034  1
  Tm  Tm8  1  0.249998  0.234668  0.237889  1
  Tm  Tm9  1  0.249996  0.997750  0.761766  1
  In  In10  1  0.749998  0.000952  0.598307  1
  In  In11  1  0.250002  0.602754  0.606510  1
  In  In12  1  0.249998  0.999891  0.396129  1
  Sn  Sn13  1  0.250012  0.395780  0.003576  1
  Bi  Bi14  1  0.750000  0.605014  0.998914  1
  Bi  Bi15  1  0.749998  0.395646  0.393689  1
