# generated using pymatgen
data_YbDy2Zr3(SnIr)6
_symmetry_space_group_name_H-M   'P 1'
_cell_length_a   7.44582300
_cell_length_b   7.46301446
_cell_length_c   7.67717600
_cell_angle_alpha   90.00000000
_cell_angle_beta   90.00000000
_cell_angle_gamma   119.92243917
_symmetry_Int_Tables_number   1
_chemical_formula_structural   YbDy2Zr3(SnIr)6
_chemical_formula_sum   'Yb1 Dy2 Zr3 Sn6 Ir6'
_cell_volume   369.74134296
_cell_formula_units_Z   1
loop_
 _symmetry_equiv_pos_site_id
 _symmetry_equiv_pos_as_xyz
  1  'x, y, z'
loop_
 _atom_site_type_symbol
 _atom_site_label
 _atom_site_symmetry_multiplicity
 _atom_site_fract_x
 _atom_site_fract_y
 _atom_site_fract_z
 _atom_site_occupancy
  Yb  Yb0  1  0.406864  0.999826  0.250000  1
  Dy  Dy1  1  0.591978  0.592256  0.250000  1
  Dy  Dy2  1  0.000014  0.407873  0.250000  1
  Zr  Zr3  1  0.608123  0.607664  0.750000  1
  Zr  Zr4  1  0.001325  0.392764  0.750000  1
  Zr  Zr5  1  0.392776  0.999558  0.750000  1
  Sn  Sn6  1  0.264801  0.262054  0.504418  1
  Sn  Sn7  1  0.264801  0.262054  0.995582  1
  Sn  Sn8  1  0.732728  0.000387  0.993430  1
  Sn  Sn9  1  0.002038  0.737599  0.504366  1
  Sn  Sn10  1  0.732728  0.000387  0.506570  1
  Sn  Sn11  1  0.002038  0.737599  0.995634  1
  Ir  Ir12  1  0.670362  0.336913  0.535389  1
  Ir  Ir13  1  0.670362  0.336913  0.964611  1
  Ir  Ir14  1  0.333423  0.663067  0.965815  1
  Ir  Ir15  1  0.333423  0.663067  0.534185  1
  Ir  Ir16  1  0.999847  0.999983  0.750000  1
  Ir  Ir17  1  0.992370  0.000033  0.250000  1
