# generated using pymatgen
data_Dy4Cu9(AgTe4)3
_symmetry_space_group_name_H-M   'P 1'
_cell_length_a   7.03406572
_cell_length_b   7.71445645
_cell_length_c   13.30818700
_cell_angle_alpha   90.00000000
_cell_angle_beta   90.00000000
_cell_angle_gamma   90.10451277
_symmetry_Int_Tables_number   1
_chemical_formula_structural   Dy4Cu9(AgTe4)3
_chemical_formula_sum   'Dy4 Cu9 Ag3 Te12'
_cell_volume   722.15417293
_cell_formula_units_Z   1
loop_
 _symmetry_equiv_pos_site_id
 _symmetry_equiv_pos_as_xyz
  1  'x, y, z'
loop_
 _atom_site_type_symbol
 _atom_site_label
 _atom_site_symmetry_multiplicity
 _atom_site_fract_x
 _atom_site_fract_y
 _atom_site_fract_z
 _atom_site_occupancy
  Dy  Dy0  1  0.240476  0.749155  0.842317  1
  Dy  Dy1  1  0.741630  0.250945  0.339159  1
  Dy  Dy2  1  0.741630  0.250945  0.660841  1
  Dy  Dy3  1  0.240476  0.749155  0.157683  1
  Cu  Cu4  1  0.368660  0.120277  0.829641  1
  Cu  Cu5  1  0.617105  0.609570  0.000000  1
  Cu  Cu6  1  0.866224  0.881805  0.674894  1
  Cu  Cu7  1  0.622213  0.617591  0.677925  1
  Cu  Cu8  1  0.622213  0.617591  0.322075  1
  Cu  Cu9  1  0.866224  0.881805  0.325106  1
  Cu  Cu10  1  0.368660  0.120277  0.170359  1
  Cu  Cu11  1  0.126854  0.383575  0.829673  1
  Cu  Cu12  1  0.126854  0.383575  0.170327  1
  Ag  Ag13  1  0.871281  0.883259  0.000000  1
  Ag  Ag14  1  0.115222  0.392681  0.500000  1
  Ag  Ag15  1  0.374135  0.108695  0.500000  1
  Te  Te16  1  0.002786  0.570442  0.325361  1
  Te  Te17  1  0.508533  0.434002  0.164109  1
  Te  Te18  1  0.986961  0.072236  0.172358  1
  Te  Te19  1  0.002786  0.570442  0.674639  1
  Te  Te20  1  0.999083  0.536687  0.000000  1
  Te  Te21  1  0.508533  0.434002  0.835891  1
  Te  Te22  1  0.484524  0.929978  0.324550  1
  Te  Te23  1  0.484524  0.929978  0.675450  1
  Te  Te24  1  0.967457  0.041489  0.500000  1
  Te  Te25  1  0.474268  0.945288  0.000000  1
  Te  Te26  1  0.986961  0.072236  0.827642  1
  Te  Te27  1  0.519720  0.462317  0.500000  1
