# generated using pymatgen
data_Er5CoAsO12
_symmetry_space_group_name_H-M   'P 1'
_cell_length_a   6.71456101
_cell_length_b   6.71456145
_cell_length_c   7.12330326
_cell_angle_alpha   74.53166749
_cell_angle_beta   74.53166878
_cell_angle_gamma   50.58132635
_symmetry_Int_Tables_number   1
_chemical_formula_structural   Er5CoAsO12
_chemical_formula_sum   'Er5 Co1 As1 O12'
_cell_volume   237.06236130
_cell_formula_units_Z   1
loop_
 _symmetry_equiv_pos_site_id
 _symmetry_equiv_pos_as_xyz
  1  'x, y, z'
loop_
 _atom_site_type_symbol
 _atom_site_label
 _atom_site_symmetry_multiplicity
 _atom_site_fract_x
 _atom_site_fract_y
 _atom_site_fract_z
 _atom_site_occupancy
  Er  Er0  1  0.296929  0.309132  0.358714  1
  Er  Er1  1  0.690868  0.703071  0.641286  1
  Er  Er2  1  0.302493  0.308688  0.834739  1
  Er  Er3  1  0.691312  0.697507  0.165261  1
  Er  Er4  1  0.997741  0.002259  0.500000  1
  Co  Co5  1  0.251505  0.748495  0.000000  1
  As  As6  1  0.764037  0.235963  0.000000  1
  O  O7  1  0.899413  0.416312  0.921348  1
  O  O8  1  0.420878  0.900494  0.920760  1
  O  O9  1  0.099506  0.579122  0.079240  1
  O  O10  1  0.583688  0.100587  0.078652  1
  O  O11  1  0.093561  0.600466  0.576879  1
  O  O12  1  0.594144  0.101843  0.575190  1
  O  O13  1  0.898157  0.405856  0.424810  1
  O  O14  1  0.399534  0.906439  0.423121  1
  O  O15  1  0.000131  0.001242  0.823210  1
  O  O16  1  0.998758  0.999869  0.176790  1
  O  O17  1  0.508879  0.491535  0.822796  1
  O  O18  1  0.508465  0.491121  0.177204  1
