# generated using pymatgen
data_SmUBiN2
_symmetry_space_group_name_H-M   'P 1'
_cell_length_a   6.99655357
_cell_length_b   6.99655348
_cell_length_c   6.99655309
_cell_angle_alpha   147.10755048
_cell_angle_beta   147.10754492
_cell_angle_gamma   47.20456750
_symmetry_Int_Tables_number   1
_chemical_formula_structural   SmUBiN2
_chemical_formula_sum   'Sm1 U1 Bi1 N2'
_cell_volume   100.62342536
_cell_formula_units_Z   1
loop_
 _symmetry_equiv_pos_site_id
 _symmetry_equiv_pos_as_xyz
  1  'x, y, z'
loop_
 _atom_site_type_symbol
 _atom_site_label
 _atom_site_symmetry_multiplicity
 _atom_site_fract_x
 _atom_site_fract_y
 _atom_site_fract_z
 _atom_site_occupancy
  Sm  Sm0  1  0.341009  0.341009  0.000000  1
  U  U1  1  0.670527  0.670527  0.000000  1
  Bi  Bi2  1  0.009986  0.009986  0.000000  1
  N  N3  1  0.239240  0.739240  0.500000  1
  N  N4  1  0.739240  0.239240  0.500000  1
