# generated using pymatgen
data_Li2NdHoSi2Sn
_symmetry_space_group_name_H-M   'P 1'
_cell_length_a   9.63041228
_cell_length_b   9.63041268
_cell_length_c   6.84855500
_cell_angle_alpha   90.00000000
_cell_angle_beta   90.00000000
_cell_angle_gamma   153.27445204
_symmetry_Int_Tables_number   1
_chemical_formula_structural   Li2NdHoSi2Sn
_chemical_formula_sum   'Li4 Nd2 Ho2 Si4 Sn2'
_cell_volume   285.64611668
_cell_formula_units_Z   2
loop_
 _symmetry_equiv_pos_site_id
 _symmetry_equiv_pos_as_xyz
  1  'x, y, z'
loop_
 _atom_site_type_symbol
 _atom_site_label
 _atom_site_symmetry_multiplicity
 _atom_site_fract_x
 _atom_site_fract_y
 _atom_site_fract_z
 _atom_site_occupancy
  Li  Li0  1  0.184655  0.815345  0.054605  1
  Li  Li1  1  0.184655  0.815345  0.445395  1
  Li  Li2  1  0.815345  0.184655  0.945395  1
  Li  Li3  1  0.815345  0.184655  0.554605  1
  Nd  Nd4  1  0.549475  0.450525  0.250000  1
  Nd  Nd5  1  0.450525  0.549475  0.750000  1
  Ho  Ho6  1  0.351408  0.648592  0.250000  1
  Ho  Ho7  1  0.648592  0.351408  0.750000  1
  Si  Si8  1  0.058359  0.941641  0.925301  1
  Si  Si9  1  0.941641  0.058359  0.074699  1
  Si  Si10  1  0.941641  0.058359  0.425301  1
  Si  Si11  1  0.058359  0.941641  0.574699  1
  Sn  Sn12  1  0.721587  0.278413  0.250000  1
  Sn  Sn13  1  0.278413  0.721587  0.750000  1
