# generated using pymatgen
data_PrNd5Al24(Ir3Os)2
_symmetry_space_group_name_H-M   'P 1'
_cell_length_a   8.91730500
_cell_length_b   8.91590608
_cell_length_c   9.61914000
_cell_angle_alpha   90.00000000
_cell_angle_beta   90.00000000
_cell_angle_gamma   120.00519411
_symmetry_Int_Tables_number   1
_chemical_formula_structural   PrNd5Al24(Ir3Os)2
_chemical_formula_sum   'Pr1 Nd5 Al24 Ir6 Os2'
_cell_volume   662.28245576
_cell_formula_units_Z   1
loop_
 _symmetry_equiv_pos_site_id
 _symmetry_equiv_pos_as_xyz
  1  'x, y, z'
loop_
 _atom_site_type_symbol
 _atom_site_label
 _atom_site_symmetry_multiplicity
 _atom_site_fract_x
 _atom_site_fract_y
 _atom_site_fract_z
 _atom_site_occupancy
  Pr  Pr0  1  0.190824  0.381649  0.250000  1
  Nd  Nd1  1  0.809142  0.618283  0.750000  1
  Nd  Nd2  1  0.618390  0.809221  0.250000  1
  Nd  Nd3  1  0.381707  0.190860  0.750000  1
  Nd  Nd4  1  0.190829  0.809221  0.250000  1
  Nd  Nd5  1  0.809155  0.190860  0.750000  1
  Al  Al6  1  0.333394  0.666790  0.013499  1
  Al  Al7  1  0.666667  0.333333  0.986384  1
  Al  Al8  1  0.666667  0.333333  0.513616  1
  Al  Al9  1  0.333394  0.666790  0.486501  1
  Al  Al10  1  0.163198  0.326396  0.575235  1
  Al  Al11  1  0.836792  0.673584  0.424878  1
  Al  Al12  1  0.673591  0.836797  0.575129  1
  Al  Al13  1  0.836792  0.673584  0.075122  1
  Al  Al14  1  0.326445  0.163131  0.424921  1
  Al  Al15  1  0.163198  0.326396  0.924765  1
  Al  Al16  1  0.163206  0.836797  0.575129  1
  Al  Al17  1  0.326445  0.163131  0.075079  1
  Al  Al18  1  0.836687  0.163131  0.424921  1
  Al  Al19  1  0.673591  0.836797  0.924871  1
  Al  Al20  1  0.836687  0.163131  0.075079  1
  Al  Al21  1  0.163206  0.836797  0.924871  1
  Al  Al22  1  0.562955  0.125910  0.250000  1
  Al  Al23  1  0.437041  0.874081  0.750000  1
  Al  Al24  1  0.873931  0.437069  0.250000  1
  Al  Al25  1  0.125913  0.562955  0.750000  1
  Al  Al26  1  0.563138  0.437069  0.250000  1
  Al  Al27  1  0.437042  0.562955  0.750000  1
  Al  Al28  1  0.999911  0.999822  0.250000  1
  Al  Al29  1  0.000002  0.000004  0.750000  1
  Ir  Ir30  1  0.500009  0.000018  0.999992  1
  Ir  Ir31  1  0.999946  0.500045  0.999929  1
  Ir  Ir32  1  0.500009  0.000018  0.500008  1
  Ir  Ir33  1  0.500098  0.500045  0.999929  1
  Ir  Ir34  1  0.999946  0.500045  0.500071  1
  Ir  Ir35  1  0.500098  0.500045  0.500071  1
  Os  Os36  1  0.999977  0.999954  0.999964  1
  Os  Os37  1  0.999977  0.999954  0.500036  1
