# generated using pymatgen
data_TmTa5Re5Si6Ru
_symmetry_space_group_name_H-M   'P 1'
_cell_length_a   7.60011217
_cell_length_b   7.58206612
_cell_length_c   7.60627875
_cell_angle_alpha   127.26612245
_cell_angle_beta   123.80934840
_cell_angle_gamma   80.77968714
_symmetry_Int_Tables_number   1
_chemical_formula_structural   TmTa5Re5Si6Ru
_chemical_formula_sum   'Tm1 Ta5 Re5 Si6 Ru1'
_cell_volume   279.29271485
_cell_formula_units_Z   1
loop_
 _symmetry_equiv_pos_site_id
 _symmetry_equiv_pos_as_xyz
  1  'x, y, z'
loop_
 _atom_site_type_symbol
 _atom_site_label
 _atom_site_symmetry_multiplicity
 _atom_site_fract_x
 _atom_site_fract_y
 _atom_site_fract_z
 _atom_site_occupancy
  Tm  Tm0  1  0.534149  0.058835  0.028367  1
  Ta  Ta1  1  0.463392  0.500549  0.528159  1
  Ta  Ta2  1  0.951736  0.487413  0.041952  1
  Ta  Ta3  1  0.048360  0.104709  0.552928  1
  Ta  Ta4  1  0.749264  0.910216  0.669322  1
  Ta  Ta5  1  0.248467  0.904481  0.151690  1
  Re  Re6  1  0.028731  0.246226  0.272914  1
  Re  Re7  1  0.079456  0.749711  0.583765  1
  Re  Re8  1  0.897546  0.498716  0.647025  1
  Re  Re9  1  0.666271  0.749358  0.169780  1
  Re  Re10  1  0.355233  0.498523  0.103539  1
  Si  Si11  1  0.734824  0.453097  0.215231  1
  Si  Si12  1  0.283135  0.551792  0.770406  1
  Si  Si13  1  0.320526  0.830199  0.483755  1
  Si  Si14  1  0.667987  0.163419  0.508539  1
  Si  Si15  1  0.844319  0.824986  0.006928  1
  Si  Si16  1  0.157923  0.161633  0.991899  1
  Ru  Ru17  1  0.468682  0.248337  0.715996  1
