# generated using pymatgen
data_Pr10Dy7Y2In(GaO4)12
_symmetry_space_group_name_H-M   'P 1'
_cell_length_a   11.34942764
_cell_length_b   11.33680351
_cell_length_c   11.32762326
_cell_angle_alpha   109.37465437
_cell_angle_beta   109.39242680
_cell_angle_gamma   109.72046247
_symmetry_Int_Tables_number   1
_chemical_formula_structural   Pr10Dy7Y2In(GaO4)12
_chemical_formula_sum   'Pr10 Dy7 Y2 In1 Ga12 O48'
_cell_volume   1120.93672624
_cell_formula_units_Z   1
loop_
 _symmetry_equiv_pos_site_id
 _symmetry_equiv_pos_as_xyz
  1  'x, y, z'
loop_
 _atom_site_type_symbol
 _atom_site_label
 _atom_site_symmetry_multiplicity
 _atom_site_fract_x
 _atom_site_fract_y
 _atom_site_fract_z
 _atom_site_occupancy
  Pr  Pr0  1  0.250070  0.375640  0.123986  1
  Pr  Pr1  1  0.749930  0.624360  0.876014  1
  Pr  Pr2  1  0.752342  0.127822  0.376118  1
  Pr  Pr3  1  0.124543  0.251970  0.376814  1
  Pr  Pr4  1  0.374247  0.748822  0.124310  1
  Pr  Pr5  1  0.247658  0.872178  0.623882  1
  Pr  Pr6  1  0.875457  0.748030  0.623186  1
  Pr  Pr7  1  0.625753  0.251178  0.875690  1
  Pr  Pr8  1  0.374746  0.124989  0.249835  1
  Pr  Pr9  1  0.625254  0.875011  0.750165  1
  Dy  Dy10  1  0.000000  0.000000  0.000000  1
  Dy  Dy11  1  0.500000  0.000000  0.500000  1
  Dy  Dy12  1  0.500000  0.000000  0.000000  1
  Dy  Dy13  1  0.500000  0.500000  0.000000  1
  Dy  Dy14  1  0.500000  0.500000  0.500000  1
  Dy  Dy15  1  0.000000  0.000000  0.500000  1
  Dy  Dy16  1  0.000000  0.500000  0.000000  1
  Y  Y17  1  0.124398  0.375849  0.749557  1
  Y  Y18  1  0.875602  0.624151  0.250443  1
  In  In19  1  0.000000  0.500000  0.500000  1
  Ga  Ga20  1  0.246840  0.623190  0.374562  1
  Ga  Ga21  1  0.753160  0.376810  0.625438  1
  Ga  Ga22  1  0.750374  0.874073  0.125877  1
  Ga  Ga23  1  0.374204  0.250401  0.625819  1
  Ga  Ga24  1  0.625796  0.749599  0.374181  1
  Ga  Ga25  1  0.249626  0.125927  0.874123  1
  Ga  Ga26  1  0.124118  0.746284  0.872329  1
  Ga  Ga27  1  0.875882  0.253716  0.127671  1
  Ga  Ga28  1  0.629179  0.377313  0.251339  1
  Ga  Ga29  1  0.370821  0.622687  0.748661  1
  Ga  Ga30  1  0.877384  0.127277  0.750099  1
  Ga  Ga31  1  0.122616  0.872723  0.249901  1
  O  O32  1  0.475092  0.374168  0.283290  1
  O  O33  1  0.524908  0.625832  0.716710  1
  O  O34  1  0.590385  0.190420  0.216812  1
  O  O35  1  0.917832  0.135362  0.603229  1
  O  O36  1  0.282579  0.472431  0.373434  1
  O  O37  1  0.309190  0.909383  0.283003  1
  O  O38  1  0.409615  0.809580  0.783188  1
  O  O39  1  0.082168  0.864638  0.396771  1
  O  O40  1  0.717421  0.527569  0.626566  1
  O  O41  1  0.690810  0.090617  0.716997  1
  O  O42  1  0.031555  0.314723  0.896628  1
  O  O43  1  0.216901  0.589655  0.189812  1
  O  O44  1  0.126239  0.026072  0.216941  1
  O  O45  1  0.968445  0.685277  0.103372  1
  O  O46  1  0.783099  0.410345  0.810188  1
  O  O47  1  0.873761  0.973928  0.783059  1
  O  O48  1  0.599280  0.908943  0.126543  1
  O  O49  1  0.181330  0.469148  0.601511  1
  O  O50  1  0.400720  0.091057  0.873457  1
  O  O51  1  0.818670  0.530852  0.398489  1
  O  O52  1  0.900625  0.028886  0.311054  1
  O  O53  1  0.364657  0.581453  0.895494  1
  O  O54  1  0.099375  0.971114  0.688946  1
  O  O55  1  0.635343  0.418547  0.104506  1
  O  O56  1  0.371615  0.282620  0.472175  1
  O  O57  1  0.591195  0.900867  0.373582  1
  O  O58  1  0.628385  0.717380  0.527825  1
  O  O59  1  0.408805  0.099133  0.626418  1
  O  O60  1  0.126974  0.596484  0.907710  1
  O  O61  1  0.026609  0.217681  0.126941  1
  O  O62  1  0.873026  0.403516  0.092290  1
  O  O63  1  0.973391  0.782319  0.873059  1
  O  O64  1  0.309573  0.898811  0.026698  1
  O  O65  1  0.912348  0.287188  0.314708  1
  O  O66  1  0.690427  0.101189  0.973302  1
  O  O67  1  0.087652  0.712812  0.685292  1
  O  O68  1  0.189468  0.220176  0.592687  1
  O  O69  1  0.471572  0.599355  0.188781  1
  O  O70  1  0.810532  0.779824  0.407313  1
  O  O71  1  0.528428  0.400645  0.811219  1
  O  O72  1  0.280658  0.310639  0.907498  1
  O  O73  1  0.719342  0.689361  0.092502  1
  O  O74  1  0.217395  0.128362  0.027928  1
  O  O75  1  0.782605  0.871638  0.972072  1
  O  O76  1  0.905325  0.375847  0.590944  1
  O  O77  1  0.094675  0.624153  0.409056  1
  O  O78  1  0.601589  0.190228  0.472795  1
  O  O79  1  0.398411  0.809772  0.527205  1
