# generated using pymatgen
data_Rb2Nb3OsBr22
_symmetry_space_group_name_H-M   'P 1'
_cell_length_a   7.59394642
_cell_length_b   7.66119368
_cell_length_c   18.89231413
_cell_angle_alpha   79.09674180
_cell_angle_beta   78.96821164
_cell_angle_gamma   88.22722468
_symmetry_Int_Tables_number   1
_chemical_formula_structural   Rb2Nb3OsBr22
_chemical_formula_sum   'Rb2 Nb3 Os1 Br22'
_cell_volume   1059.32886287
_cell_formula_units_Z   1
loop_
 _symmetry_equiv_pos_site_id
 _symmetry_equiv_pos_as_xyz
  1  'x, y, z'
loop_
 _atom_site_type_symbol
 _atom_site_label
 _atom_site_symmetry_multiplicity
 _atom_site_fract_x
 _atom_site_fract_y
 _atom_site_fract_z
 _atom_site_occupancy
  Rb  Rb0  1  0.747885  0.748492  0.502775  1
  Rb  Rb1  1  0.252964  0.252700  0.495126  1
  Nb  Nb2  1  0.675256  0.177770  0.660345  1
  Nb  Nb3  1  0.830205  0.328942  0.087605  1
  Nb  Nb4  1  0.169166  0.670341  0.912836  1
  Os  Os5  1  0.323204  0.820563  0.342961  1
  Br  Br6  1  0.255528  0.773042  0.484329  1
  Br  Br7  1  0.746686  0.228603  0.511851  1
  Br  Br8  1  0.570377  0.023627  0.344636  1
  Br  Br9  1  0.424157  0.972481  0.654434  1
  Br  Br10  1  0.534385  0.565388  0.352984  1
  Br  Br11  1  0.460972  0.440666  0.646786  1
  Br  Br12  1  0.384665  0.861003  0.210300  1
  Br  Br13  1  0.613210  0.137545  0.794689  1
  Br  Br14  1  0.071429  0.609655  0.353592  1
  Br  Br15  1  0.934432  0.395161  0.645352  1
  Br  Br16  1  0.110888  0.072796  0.340926  1
  Br  Br17  1  0.894074  0.921209  0.658997  1
  Br  Br18  1  0.899900  0.031162  0.147904  1
  Br  Br19  1  0.099517  0.968744  0.852233  1
  Br  Br20  1  0.526871  0.380643  0.150593  1
  Br  Br21  1  0.473044  0.618537  0.849554  1
  Br  Br22  1  0.721714  0.217729  0.987257  1
  Br  Br23  1  0.278853  0.782856  0.012566  1
  Br  Br24  1  0.973582  0.478702  0.168794  1
  Br  Br25  1  0.026729  0.521522  0.830854  1
  Br  Br26  1  0.167307  0.340234  0.999470  1
  Br  Br27  1  0.832999  0.659889  0.000250  1
