# generated using pymatgen
data_TbY2Co8P6W
_symmetry_space_group_name_H-M   'P 1'
_cell_length_a   3.73165500
_cell_length_b   10.58220200
_cell_length_c   12.27738600
_cell_angle_alpha   90.00000000
_cell_angle_beta   90.00000000
_cell_angle_gamma   90.00000000
_symmetry_Int_Tables_number   1
_chemical_formula_structural   TbY2Co8P6W
_chemical_formula_sum   'Tb2 Y4 Co16 P12 W2'
_cell_volume   484.82325503
_cell_formula_units_Z   2
loop_
 _symmetry_equiv_pos_site_id
 _symmetry_equiv_pos_as_xyz
  1  'x, y, z'
loop_
 _atom_site_type_symbol
 _atom_site_label
 _atom_site_symmetry_multiplicity
 _atom_site_fract_x
 _atom_site_fract_y
 _atom_site_fract_z
 _atom_site_occupancy
  Tb  Tb0  1  0.000000  0.500000  0.524311  1
  Tb  Tb1  1  0.500000  0.000000  0.475689  1
  Y  Y2  1  0.500000  0.819246  0.204842  1
  Y  Y3  1  0.500000  0.180754  0.204842  1
  Y  Y4  1  0.000000  0.680754  0.795158  1
  Y  Y5  1  0.000000  0.319246  0.795158  1
  Co  Co6  1  0.500000  0.500000  0.701342  1
  Co  Co7  1  0.000000  0.000000  0.298658  1
  Co  Co8  1  0.000000  0.500000  0.987227  1
  Co  Co9  1  0.500000  0.000000  0.012773  1
  Co  Co10  1  0.500000  0.332794  0.990459  1
  Co  Co11  1  0.500000  0.667206  0.990459  1
  Co  Co12  1  0.000000  0.167206  0.009541  1
  Co  Co13  1  0.000000  0.832794  0.009541  1
  Co  Co14  1  0.500000  0.295827  0.431233  1
  Co  Co15  1  0.500000  0.704173  0.431233  1
  Co  Co16  1  0.000000  0.204173  0.568767  1
  Co  Co17  1  0.000000  0.795827  0.568767  1
  Co  Co18  1  0.500000  0.878543  0.707739  1
  Co  Co19  1  0.500000  0.121457  0.707739  1
  Co  Co20  1  0.000000  0.621457  0.292261  1
  Co  Co21  1  0.000000  0.378543  0.292261  1
  P  P22  1  0.500000  0.500000  0.880882  1
  P  P23  1  0.000000  0.000000  0.119118  1
  P  P24  1  0.500000  0.500000  0.349434  1
  P  P25  1  0.000000  0.000000  0.650566  1
  P  P26  1  0.500000  0.310753  0.615742  1
  P  P27  1  0.500000  0.689247  0.615742  1
  P  P28  1  0.000000  0.189247  0.384258  1
  P  P29  1  0.000000  0.810753  0.384258  1
  P  P30  1  0.500000  0.844491  0.893076  1
  P  P31  1  0.500000  0.155509  0.893076  1
  P  P32  1  0.000000  0.655509  0.106924  1
  P  P33  1  0.000000  0.344491  0.106924  1
  W  W34  1  0.500000  0.500000  0.155975  1
  W  W35  1  0.000000  0.000000  0.844025  1
