# generated using pymatgen
data_EuLu3(B6Os)2
_symmetry_space_group_name_H-M   'P 1'
_cell_length_a   3.61040700
_cell_length_b   9.08041273
_cell_length_c   11.47621538
_cell_angle_alpha   89.95415719
_cell_angle_beta   90.00000000
_cell_angle_gamma   90.00000000
_symmetry_Int_Tables_number   1
_chemical_formula_structural   EuLu3(B6Os)2
_chemical_formula_sum   'Eu2 Lu6 B24 Os4'
_cell_volume   376.23596032
_cell_formula_units_Z   2
loop_
 _symmetry_equiv_pos_site_id
 _symmetry_equiv_pos_as_xyz
  1  'x, y, z'
loop_
 _atom_site_type_symbol
 _atom_site_label
 _atom_site_symmetry_multiplicity
 _atom_site_fract_x
 _atom_site_fract_y
 _atom_site_fract_z
 _atom_site_occupancy
  Eu  Eu0  1  0.000000  0.322352  0.413800  1
  Eu  Eu1  1  0.000000  0.677648  0.586200  1
  Lu  Lu2  1  0.000000  0.821019  0.085563  1
  Lu  Lu3  1  0.000000  0.178981  0.914437  1
  Lu  Lu4  1  0.000000  0.943698  0.370722  1
  Lu  Lu5  1  0.000000  0.056302  0.629278  1
  Lu  Lu6  1  0.000000  0.443443  0.126994  1
  Lu  Lu7  1  0.000000  0.556557  0.873006  1
  B  B8  1  0.500000  0.555482  0.430337  1
  B  B9  1  0.500000  0.444518  0.569663  1
  B  B10  1  0.500000  0.053262  0.065545  1
  B  B11  1  0.500000  0.946738  0.934455  1
  B  B12  1  0.500000  0.750683  0.416433  1
  B  B13  1  0.500000  0.249317  0.583567  1
  B  B14  1  0.500000  0.248831  0.079217  1
  B  B15  1  0.500000  0.751169  0.920783  1
  B  B16  1  0.500000  0.792969  0.262803  1
  B  B17  1  0.500000  0.207031  0.737196  1
  B  B18  1  0.500000  0.290500  0.231760  1
  B  B19  1  0.500000  0.709500  0.768241  1
  B  B20  1  0.500000  0.631762  0.182579  1
  B  B21  1  0.500000  0.368238  0.817421  1
  B  B22  1  0.500000  0.129283  0.313291  1
  B  B23  1  0.500000  0.870717  0.686709  1
  B  B24  1  0.500000  0.981445  0.210998  1
  B  B25  1  0.500000  0.018555  0.789002  1
  B  B26  1  0.500000  0.484117  0.284563  1
  B  B27  1  0.500000  0.515883  0.715437  1
  B  B28  1  0.500000  0.605120  0.028618  1
  B  B29  1  0.500000  0.394880  0.971382  1
  B  B30  1  0.500000  0.098880  0.472885  1
  B  B31  1  0.500000  0.901120  0.527115  1
  Os  Os32  1  0.000000  0.641557  0.316323  1
  Os  Os33  1  0.000000  0.358443  0.683677  1
  Os  Os34  1  0.000000  0.136117  0.176671  1
  Os  Os35  1  0.000000  0.863883  0.823329  1
