# generated using pymatgen
data_Gd3Lu2Si3H
_symmetry_space_group_name_H-M   'P 1'
_cell_length_a   8.41570700
_cell_length_b   8.41570857
_cell_length_c   6.15219100
_cell_angle_alpha   90.00000000
_cell_angle_beta   90.00000000
_cell_angle_gamma   120.00000562
_symmetry_Int_Tables_number   1
_chemical_formula_structural   Gd3Lu2Si3H
_chemical_formula_sum   'Gd6 Lu4 Si6 H2'
_cell_volume   377.34770385
_cell_formula_units_Z   2
loop_
 _symmetry_equiv_pos_site_id
 _symmetry_equiv_pos_as_xyz
  1  'x, y, z'
loop_
 _atom_site_type_symbol
 _atom_site_label
 _atom_site_symmetry_multiplicity
 _atom_site_fract_x
 _atom_site_fract_y
 _atom_site_fract_z
 _atom_site_occupancy
  Gd  Gd0  1  0.749229  0.749229  0.750000  1
  Gd  Gd1  1  0.250771  0.000000  0.750000  1
  Gd  Gd2  1  0.000000  0.250771  0.750000  1
  Gd  Gd3  1  0.250771  0.250771  0.250000  1
  Gd  Gd4  1  0.749229  0.000000  0.250000  1
  Gd  Gd5  1  0.000000  0.749229  0.250000  1
  Lu  Lu6  1  0.666667  0.333333  0.000000  1
  Lu  Lu7  1  0.333333  0.666667  0.000000  1
  Lu  Lu8  1  0.333333  0.666667  0.500000  1
  Lu  Lu9  1  0.666667  0.333333  0.500000  1
  Si  Si10  1  0.393026  0.393026  0.750000  1
  Si  Si11  1  0.606974  0.000000  0.750000  1
  Si  Si12  1  0.000000  0.606974  0.750000  1
  Si  Si13  1  0.606974  0.606974  0.250000  1
  Si  Si14  1  0.393026  0.000000  0.250000  1
  Si  Si15  1  0.000000  0.393026  0.250000  1
  H  H16  1  0.000000  0.000000  0.500000  1
  H  H17  1  0.000000  0.000000  0.000000  1
