# generated using pymatgen
data_Dy5Si12Mo3Ir16
_symmetry_space_group_name_H-M   'P 1'
_cell_length_a   12.86033100
_cell_length_b   12.86033095
_cell_length_c   4.01541000
_cell_angle_alpha   90.00000000
_cell_angle_beta   90.00000000
_cell_angle_gamma   120.00000270
_symmetry_Int_Tables_number   1
_chemical_formula_structural   Dy5Si12Mo3Ir16
_chemical_formula_sum   'Dy5 Si12 Mo3 Ir16'
_cell_volume   575.12839197
_cell_formula_units_Z   1
loop_
 _symmetry_equiv_pos_site_id
 _symmetry_equiv_pos_as_xyz
  1  'x, y, z'
loop_
 _atom_site_type_symbol
 _atom_site_label
 _atom_site_symmetry_multiplicity
 _atom_site_fract_x
 _atom_site_fract_y
 _atom_site_fract_z
 _atom_site_occupancy
  Dy  Dy0  1  0.333333  0.666667  0.500000  1
  Dy  Dy1  1  0.666667  0.333333  0.500000  1
  Dy  Dy2  1  0.000000  0.812988  0.000000  1
  Dy  Dy3  1  0.187012  0.187012  0.000000  1
  Dy  Dy4  1  0.812988  0.000000  0.000000  1
  Si  Si5  1  0.000000  0.628238  0.500000  1
  Si  Si6  1  0.371762  0.371762  0.500000  1
  Si  Si7  1  0.628238  0.000000  0.500000  1
  Si  Si8  1  0.520609  0.687468  0.000000  1
  Si  Si9  1  0.312532  0.833141  0.000000  1
  Si  Si10  1  0.166859  0.479391  0.000000  1
  Si  Si11  1  0.479391  0.166859  0.000000  1
  Si  Si12  1  0.687468  0.520609  0.000000  1
  Si  Si13  1  0.833141  0.312532  0.000000  1
  Si  Si14  1  0.000000  0.181139  0.500000  1
  Si  Si15  1  0.818861  0.818861  0.500000  1
  Si  Si16  1  0.181139  0.000000  0.500000  1
  Mo  Mo17  1  0.000000  0.437986  0.500000  1
  Mo  Mo18  1  0.562014  0.562014  0.500000  1
  Mo  Mo19  1  0.437986  0.000000  0.500000  1
  Ir  Ir20  1  0.512168  0.872298  0.000000  1
  Ir  Ir21  1  0.127702  0.639871  0.000000  1
  Ir  Ir22  1  0.360129  0.487832  0.000000  1
  Ir  Ir23  1  0.487832  0.360129  0.000000  1
  Ir  Ir24  1  0.872298  0.512168  0.000000  1
  Ir  Ir25  1  0.639871  0.127702  0.000000  1
  Ir  Ir26  1  0.000000  0.279714  0.000000  1
  Ir  Ir27  1  0.720286  0.720286  0.000000  1
  Ir  Ir28  1  0.279714  0.000000  0.000000  1
  Ir  Ir29  1  0.625467  0.807947  0.500000  1
  Ir  Ir30  1  0.192053  0.817520  0.500000  1
  Ir  Ir31  1  0.182480  0.374533  0.500000  1
  Ir  Ir32  1  0.374533  0.182480  0.500000  1
  Ir  Ir33  1  0.807947  0.625467  0.500000  1
  Ir  Ir34  1  0.817520  0.192053  0.500000  1
  Ir  Ir35  1  0.000000  0.000000  0.500000  1
