# generated using pymatgen
data_Ce4Y3Th(Si3Pd)4
_symmetry_space_group_name_H-M   'P 1'
_cell_length_a   8.24042100
_cell_length_b   8.22759262
_cell_length_c   8.37538400
_cell_angle_alpha   90.00000000
_cell_angle_beta   90.00000000
_cell_angle_gamma   120.05157895
_symmetry_Int_Tables_number   1
_chemical_formula_structural   Ce4Y3Th(Si3Pd)4
_chemical_formula_sum   'Ce4 Y3 Th1 Si12 Pd4'
_cell_volume   491.50912287
_cell_formula_units_Z   1
loop_
 _symmetry_equiv_pos_site_id
 _symmetry_equiv_pos_as_xyz
  1  'x, y, z'
loop_
 _atom_site_type_symbol
 _atom_site_label
 _atom_site_symmetry_multiplicity
 _atom_site_fract_x
 _atom_site_fract_y
 _atom_site_fract_z
 _atom_site_occupancy
  Ce  Ce0  1  0.000221  0.500096  0.750000  1
  Ce  Ce1  1  0.499875  0.500096  0.750000  1
  Ce  Ce2  1  0.000004  0.000009  0.250000  1
  Ce  Ce3  1  0.999998  0.999995  0.750000  1
  Y  Y4  1  0.499891  0.999782  0.750000  1
  Y  Y5  1  0.999763  0.499892  0.250000  1
  Y  Y6  1  0.500129  0.499892  0.250000  1
  Th  Th7  1  0.500119  0.000237  0.250000  1
  Si  Si8  1  0.166090  0.332180  0.001390  1
  Si  Si9  1  0.833912  0.667824  0.001253  1
  Si  Si10  1  0.670246  0.834261  0.999345  1
  Si  Si11  1  0.833912  0.667824  0.498747  1
  Si  Si12  1  0.329745  0.165740  0.999238  1
  Si  Si13  1  0.166090  0.332180  0.498610  1
  Si  Si14  1  0.164016  0.834261  0.999345  1
  Si  Si15  1  0.329745  0.165740  0.500762  1
  Si  Si16  1  0.835995  0.165740  0.999238  1
  Si  Si17  1  0.670246  0.834261  0.500655  1
  Si  Si18  1  0.835995  0.165740  0.500762  1
  Si  Si19  1  0.164016  0.834261  0.500655  1
  Pd  Pd20  1  0.334238  0.668477  0.003935  1
  Pd  Pd21  1  0.665759  0.331517  0.003259  1
  Pd  Pd22  1  0.665759  0.331517  0.496741  1
  Pd  Pd23  1  0.334238  0.668477  0.496065  1
