# generated using pymatgen
data_Cs2MnFeSe4
_symmetry_space_group_name_H-M   'P 1'
_cell_length_a   7.51447713
_cell_length_b   7.51447742
_cell_length_c   5.82443406
_cell_angle_alpha   78.99404506
_cell_angle_beta   78.99403609
_cell_angle_gamma   117.80842955
_symmetry_Int_Tables_number   1
_chemical_formula_structural   Cs2MnFeSe4
_chemical_formula_sum   'Cs2 Mn1 Fe1 Se4'
_cell_volume   270.30348433
_cell_formula_units_Z   1
loop_
 _symmetry_equiv_pos_site_id
 _symmetry_equiv_pos_as_xyz
  1  'x, y, z'
loop_
 _atom_site_type_symbol
 _atom_site_label
 _atom_site_symmetry_multiplicity
 _atom_site_fract_x
 _atom_site_fract_y
 _atom_site_fract_z
 _atom_site_occupancy
  Cs  Cs0  1  0.144864  0.855136  0.000000  1
  Cs  Cs1  1  0.854946  0.145054  0.500000  1
  Mn  Mn2  1  0.501289  0.498711  0.000000  1
  Fe  Fe3  1  0.498067  0.501933  0.500000  1
  Se  Se4  1  0.220055  0.420231  0.850564  1
  Se  Se5  1  0.579769  0.779945  0.149436  1
  Se  Se6  1  0.778658  0.577647  0.668688  1
  Se  Se7  1  0.422353  0.221342  0.331312  1
