# generated using pymatgen
data_Pr12Ir3Pd
_symmetry_space_group_name_H-M   'P 1'
_cell_length_a   6.61800392
_cell_length_b   7.43993654
_cell_length_c   10.05151200
_cell_angle_alpha   90.00000000
_cell_angle_beta   90.00000000
_cell_angle_gamma   90.23462197
_symmetry_Int_Tables_number   1
_chemical_formula_structural   Pr12Ir3Pd
_chemical_formula_sum   'Pr12 Ir3 Pd1'
_cell_volume   494.90746605
_cell_formula_units_Z   1
loop_
 _symmetry_equiv_pos_site_id
 _symmetry_equiv_pos_as_xyz
  1  'x, y, z'
loop_
 _atom_site_type_symbol
 _atom_site_label
 _atom_site_symmetry_multiplicity
 _atom_site_fract_x
 _atom_site_fract_y
 _atom_site_fract_z
 _atom_site_occupancy
  Pr  Pr0  1  0.336304  0.670985  0.062982  1
  Pr  Pr1  1  0.170063  0.181513  0.437592  1
  Pr  Pr2  1  0.672767  0.325050  0.566201  1
  Pr  Pr3  1  0.830141  0.825447  0.932033  1
  Pr  Pr4  1  0.672767  0.325050  0.933799  1
  Pr  Pr5  1  0.830141  0.825447  0.567967  1
  Pr  Pr6  1  0.336304  0.670985  0.437018  1
  Pr  Pr7  1  0.170063  0.181513  0.062408  1
  Pr  Pr8  1  0.853938  0.524084  0.250000  1
  Pr  Pr9  1  0.631613  0.037404  0.250000  1
  Pr  Pr10  1  0.141773  0.464470  0.750000  1
  Pr  Pr11  1  0.359194  0.964361  0.750000  1
  Ir  Ir12  1  0.430292  0.381229  0.250000  1
  Ir  Ir13  1  0.933118  0.119247  0.750000  1
  Ir  Ir14  1  0.562114  0.618902  0.750000  1
  Pd  Pd15  1  0.069408  0.884311  0.250000  1
