# generated using pymatgen
data_Pr3Nd4SiBr12
_symmetry_space_group_name_H-M   'P 1'
_cell_length_a   9.50454710
_cell_length_b   9.54415440
_cell_length_c   9.52993134
_cell_angle_alpha   107.79005212
_cell_angle_beta   107.95685908
_cell_angle_gamma   107.93508084
_symmetry_Int_Tables_number   1
_chemical_formula_structural   Pr3Nd4SiBr12
_chemical_formula_sum   'Pr3 Nd4 Si1 Br12'
_cell_volume   701.65426150
_cell_formula_units_Z   1
loop_
 _symmetry_equiv_pos_site_id
 _symmetry_equiv_pos_as_xyz
  1  'x, y, z'
loop_
 _atom_site_type_symbol
 _atom_site_label
 _atom_site_symmetry_multiplicity
 _atom_site_fract_x
 _atom_site_fract_y
 _atom_site_fract_z
 _atom_site_occupancy
  Pr  Pr0  1  0.325840  0.032956  0.110639  1
  Pr  Pr1  1  0.887236  0.675527  0.966242  1
  Pr  Pr2  1  0.673962  0.965217  0.889012  1
  Nd  Nd3  1  0.962226  0.890345  0.676386  1
  Nd  Nd4  1  0.037252  0.109788  0.324389  1
  Nd  Nd5  1  0.111954  0.322871  0.032900  1
  Nd  Nd6  1  0.501449  0.501546  0.501146  1
  Si  Si7  1  0.000601  0.000849  0.000845  1
  Br  Br8  1  0.522417  0.609184  0.835891  1
  Br  Br9  1  0.473670  0.390028  0.162503  1
  Br  Br10  1  0.305882  0.921202  0.771076  1
  Br  Br11  1  0.393584  0.164326  0.473458  1
  Br  Br12  1  0.926829  0.777600  0.315022  1
  Br  Br13  1  0.694227  0.079285  0.229249  1
  Br  Br14  1  0.074039  0.224253  0.687645  1
  Br  Br15  1  0.776743  0.311996  0.927064  1
  Br  Br16  1  0.225533  0.686784  0.073750  1
  Br  Br17  1  0.841327  0.532010  0.610602  1
  Br  Br18  1  0.158910  0.467475  0.385938  1
  Br  Br19  1  0.606319  0.836758  0.526244  1
