# generated using pymatgen
data_TbSmCo9P6Ru
_symmetry_space_group_name_H-M   'P 1'
_cell_length_a   3.68670800
_cell_length_b   10.37425000
_cell_length_c   11.79330700
_cell_angle_alpha   90.00000000
_cell_angle_beta   90.00000000
_cell_angle_gamma   90.00000000
_symmetry_Int_Tables_number   1
_chemical_formula_structural   TbSmCo9P6Ru
_chemical_formula_sum   'Tb2 Sm2 Co18 P12 Ru2'
_cell_volume   451.05661350
_cell_formula_units_Z   2
loop_
 _symmetry_equiv_pos_site_id
 _symmetry_equiv_pos_as_xyz
  1  'x, y, z'
loop_
 _atom_site_type_symbol
 _atom_site_label
 _atom_site_symmetry_multiplicity
 _atom_site_fract_x
 _atom_site_fract_y
 _atom_site_fract_z
 _atom_site_occupancy
  Tb  Tb0  1  0.750000  0.413789  0.295779  1
  Tb  Tb1  1  0.750000  0.086211  0.795779  1
  Sm  Sm2  1  0.250000  0.582602  0.702141  1
  Sm  Sm3  1  0.250000  0.917398  0.202141  1
  Co  Co4  1  0.750000  0.284590  0.008616  1
  Co  Co5  1  0.750000  0.215410  0.508616  1
  Co  Co6  1  0.250000  0.405466  0.487620  1
  Co  Co7  1  0.250000  0.094534  0.987620  1
  Co  Co8  1  0.750000  0.591095  0.508437  1
  Co  Co9  1  0.750000  0.908905  0.008437  1
  Co  Co10  1  0.250000  0.221034  0.176345  1
  Co  Co11  1  0.250000  0.278966  0.676345  1
  Co  Co12  1  0.750000  0.779069  0.823447  1
  Co  Co13  1  0.750000  0.720931  0.323447  1
  Co  Co14  1  0.250000  0.887313  0.701594  1
  Co  Co15  1  0.250000  0.612687  0.201594  1
  Co  Co16  1  0.750000  0.117679  0.301813  1
  Co  Co17  1  0.750000  0.382321  0.801813  1
  Co  Co18  1  0.250000  0.463960  0.933363  1
  Co  Co19  1  0.250000  0.036040  0.433363  1
  Co  Co20  1  0.750000  0.531709  0.069120  1
  Co  Co21  1  0.750000  0.968291  0.569120  1
  P  P22  1  0.250000  0.416973  0.112159  1
  P  P23  1  0.250000  0.083027  0.612159  1
  P  P24  1  0.750000  0.578446  0.888597  1
  P  P25  1  0.750000  0.921554  0.388597  1
  P  P26  1  0.250000  0.271103  0.868895  1
  P  P27  1  0.250000  0.228897  0.368895  1
  P  P28  1  0.750000  0.726089  0.132486  1
  P  P29  1  0.750000  0.773911  0.632486  1
  P  P30  1  0.250000  0.595348  0.390732  1
  P  P31  1  0.250000  0.904652  0.890732  1
  P  P32  1  0.750000  0.395123  0.607719  1
  P  P33  1  0.750000  0.104877  0.107719  1
  Ru  Ru34  1  0.250000  0.714438  0.991138  1
  Ru  Ru35  1  0.250000  0.785562  0.491138  1
