# generated using pymatgen
data_Ca2Si5Rh3
_symmetry_space_group_name_H-M   'P 1'
_cell_length_a   8.23908589
_cell_length_b   8.23908575
_cell_length_c   5.65552939
_cell_angle_alpha   71.02189269
_cell_angle_beta   71.02189004
_cell_angle_gamma   94.64564265
_symmetry_Int_Tables_number   1
_chemical_formula_structural   Ca2Si5Rh3
_chemical_formula_sum   'Ca4 Si10 Rh6'
_cell_volume   335.73939005
_cell_formula_units_Z   2
loop_
 _symmetry_equiv_pos_site_id
 _symmetry_equiv_pos_as_xyz
  1  'x, y, z'
loop_
 _atom_site_type_symbol
 _atom_site_label
 _atom_site_symmetry_multiplicity
 _atom_site_fract_x
 _atom_site_fract_y
 _atom_site_fract_z
 _atom_site_occupancy
  Ca  Ca0  1  0.867167  0.598601  0.758725  1
  Ca  Ca1  1  0.401399  0.132833  0.741275  1
  Ca  Ca2  1  0.132833  0.401399  0.241275  1
  Ca  Ca3  1  0.598601  0.867167  0.258725  1
  Si  Si4  1  0.059408  0.264470  0.837483  1
  Si  Si5  1  0.735530  0.940592  0.662517  1
  Si  Si6  1  0.940592  0.735530  0.162517  1
  Si  Si7  1  0.264470  0.059408  0.337483  1
  Si  Si8  1  0.210521  0.789479  0.750000  1
  Si  Si9  1  0.789479  0.210521  0.250000  1
  Si  Si10  1  0.507843  0.492157  0.750000  1
  Si  Si11  1  0.492157  0.507843  0.250000  1
  Si  Si12  1  0.779481  0.220519  0.750000  1
  Si  Si13  1  0.220519  0.779481  0.250000  1
  Rh  Rh14  1  0.260846  0.542033  0.621804  1
  Rh  Rh15  1  0.457967  0.739154  0.878196  1
  Rh  Rh16  1  0.739154  0.457967  0.378196  1
  Rh  Rh17  1  0.542033  0.260846  0.121804  1
  Rh  Rh18  1  0.003071  0.996929  0.750000  1
  Rh  Rh19  1  0.996929  0.003071  0.250000  1
