# generated using pymatgen
data_KErCr2O8
_symmetry_space_group_name_H-M   'P 1'
_cell_length_a   5.77449300
_cell_length_b   5.77449357
_cell_length_c   7.65706800
_cell_angle_alpha   90.00000000
_cell_angle_beta   90.00000000
_cell_angle_gamma   120.00000247
_symmetry_Int_Tables_number   1
_chemical_formula_structural   KErCr2O8
_chemical_formula_sum   'K1 Er1 Cr2 O8'
_cell_volume   221.11636489
_cell_formula_units_Z   1
loop_
 _symmetry_equiv_pos_site_id
 _symmetry_equiv_pos_as_xyz
  1  'x, y, z'
loop_
 _atom_site_type_symbol
 _atom_site_label
 _atom_site_symmetry_multiplicity
 _atom_site_fract_x
 _atom_site_fract_y
 _atom_site_fract_z
 _atom_site_occupancy
  K  K0  1  0.000000  0.000000  0.500000  1
  Er  Er1  1  0.000000  0.000000  0.000000  1
  Cr  Cr2  1  0.666666  0.333333  0.251727  1
  Cr  Cr3  1  0.333333  0.666667  0.748273  1
  O  O4  1  0.349298  0.174650  0.180183  1
  O  O5  1  0.825350  0.174650  0.180183  1
  O  O6  1  0.825350  0.650701  0.180183  1
  O  O7  1  0.666666  0.333333  0.463287  1
  O  O8  1  0.333333  0.666667  0.536713  1
  O  O9  1  0.174650  0.349299  0.819817  1
  O  O10  1  0.174649  0.825350  0.819817  1
  O  O11  1  0.650701  0.825350  0.819817  1
