# generated using pymatgen
data_Y5Er2Lu5Os4
_symmetry_space_group_name_H-M   'P 1'
_cell_length_a   6.25925123
_cell_length_b   7.39916355
_cell_length_c   8.91875385
_cell_angle_alpha   89.95004343
_cell_angle_beta   90.03107929
_cell_angle_gamma   90.10980216
_symmetry_Int_Tables_number   1
_chemical_formula_structural   Y5Er2Lu5Os4
_chemical_formula_sum   'Y5 Er2 Lu5 Os4'
_cell_volume   413.05526443
_cell_formula_units_Z   1
loop_
 _symmetry_equiv_pos_site_id
 _symmetry_equiv_pos_as_xyz
  1  'x, y, z'
loop_
 _atom_site_type_symbol
 _atom_site_label
 _atom_site_symmetry_multiplicity
 _atom_site_fract_x
 _atom_site_fract_y
 _atom_site_fract_z
 _atom_site_occupancy
  Y  Y0  1  0.335154  0.674827  0.061302  1
  Y  Y1  1  0.870545  0.538679  0.251047  1
  Y  Y2  1  0.628778  0.039579  0.250859  1
  Y  Y3  1  0.126258  0.460605  0.748501  1
  Y  Y4  1  0.373979  0.961719  0.748500  1
  Er  Er5  1  0.335394  0.673909  0.438675  1
  Er  Er6  1  0.164237  0.174365  0.062609  1
  Lu  Lu7  1  0.164148  0.173974  0.437738  1
  Lu  Lu8  1  0.665462  0.325227  0.563329  1
  Lu  Lu9  1  0.834514  0.826312  0.935579  1
  Lu  Lu10  1  0.666151  0.325411  0.935480  1
  Lu  Lu11  1  0.835970  0.826635  0.563492  1
  Os  Os12  1  0.041472  0.884204  0.252399  1
  Os  Os13  1  0.456378  0.380789  0.252773  1
  Os  Os14  1  0.953187  0.117101  0.749225  1
  Os  Os15  1  0.548375  0.616668  0.748492  1
