# generated using pymatgen
data_Li5Cd(InPd2)6
_symmetry_space_group_name_H-M   'P 1'
_cell_length_a   4.29564584
_cell_length_b   7.08913816
_cell_length_c   12.89278955
_cell_angle_alpha   89.99876003
_cell_angle_beta   89.94401020
_cell_angle_gamma   89.96520012
_symmetry_Int_Tables_number   1
_chemical_formula_structural   Li5Cd(InPd2)6
_chemical_formula_sum   'Li5 Cd1 In6 Pd12'
_cell_volume   392.61647093
_cell_formula_units_Z   1
loop_
 _symmetry_equiv_pos_site_id
 _symmetry_equiv_pos_as_xyz
  1  'x, y, z'
loop_
 _atom_site_type_symbol
 _atom_site_label
 _atom_site_symmetry_multiplicity
 _atom_site_fract_x
 _atom_site_fract_y
 _atom_site_fract_z
 _atom_site_occupancy
  Li  Li0  1  0.500014  0.500024  0.170111  1
  Li  Li1  1  0.999995  0.999982  0.335484  1
  Li  Li2  1  0.500038  0.499997  0.500009  1
  Li  Li3  1  0.999953  0.999978  0.664525  1
  Li  Li4  1  0.500010  0.500029  0.829881  1
  Cd  Cd5  1  0.000001  0.000002  0.999999  1
  In  In6  1  0.000017  0.500008  0.000006  1
  In  In7  1  0.499795  0.000042  0.173014  1
  In  In8  1  0.999994  0.500017  0.336512  1
  In  In9  1  0.500027  0.999989  0.499986  1
  In  In10  1  0.000032  0.499977  0.663498  1
  In  In11  1  0.500103  0.999957  0.826971  1
  Pd  Pd12  1  0.500173  0.260752  0.999986  1
  Pd  Pd13  1  0.499863  0.739252  0.000012  1
  Pd  Pd14  1  0.999581  0.254493  0.170500  1
  Pd  Pd15  1  0.000350  0.745542  0.170502  1
  Pd  Pd16  1  0.500262  0.252763  0.335255  1
  Pd  Pd17  1  0.499727  0.747261  0.335247  1
  Pd  Pd18  1  0.999638  0.246738  0.500006  1
  Pd  Pd19  1  0.000426  0.753259  0.499997  1
  Pd  Pd20  1  0.500294  0.252748  0.664747  1
  Pd  Pd21  1  0.499764  0.747222  0.664739  1
  Pd  Pd22  1  0.999636  0.254465  0.829506  1
  Pd  Pd23  1  0.000412  0.745508  0.829506  1
