# generated using pymatgen
data_HoTmAl20(FeRh)2
_symmetry_space_group_name_H-M   'P 1'
_cell_length_a   6.78310757
_cell_length_b   6.78310751
_cell_length_c   9.05568701
_cell_angle_alpha   90.27280048
_cell_angle_beta   90.27279281
_cell_angle_gamma   97.12493199
_symmetry_Int_Tables_number   1
_chemical_formula_structural   HoTmAl20(FeRh)2
_chemical_formula_sum   'Ho1 Tm1 Al20 Fe2 Rh2'
_cell_volume   413.42902008
_cell_formula_units_Z   1
loop_
 _symmetry_equiv_pos_site_id
 _symmetry_equiv_pos_as_xyz
  1  'x, y, z'
loop_
 _atom_site_type_symbol
 _atom_site_label
 _atom_site_symmetry_multiplicity
 _atom_site_fract_x
 _atom_site_fract_y
 _atom_site_fract_z
 _atom_site_occupancy
  Ho  Ho0  1  0.127193  0.872807  0.250000  1
  Tm  Tm1  1  0.872288  0.127712  0.750000  1
  Al  Al2  1  0.620673  0.372079  0.549955  1
  Al  Al3  1  0.379611  0.627635  0.450236  1
  Al  Al4  1  0.372365  0.620389  0.049764  1
  Al  Al5  1  0.627921  0.379327  0.950045  1
  Al  Al6  1  0.228451  0.221241  0.496787  1
  Al  Al7  1  0.771452  0.778942  0.503613  1
  Al  Al8  1  0.778759  0.771549  0.003213  1
  Al  Al9  1  0.221058  0.228548  0.996387  1
  Al  Al10  1  0.848631  0.159718  0.099492  1
  Al  Al11  1  0.151045  0.840555  0.900138  1
  Al  Al12  1  0.159445  0.848955  0.599862  1
  Al  Al13  1  0.840282  0.151369  0.400508  1
  Al  Al14  1  0.860624  0.585831  0.753672  1
  Al  Al15  1  0.139259  0.413560  0.246320  1
  Al  Al16  1  0.414169  0.139376  0.746328  1
  Al  Al17  1  0.586440  0.860741  0.253680  1
  Al  Al18  1  0.223025  0.479163  0.754863  1
  Al  Al19  1  0.776622  0.520352  0.245124  1
  Al  Al20  1  0.520837  0.776975  0.745137  1
  Al  Al21  1  0.479648  0.223378  0.254876  1
  Fe  Fe22  1  0.999981  0.499859  0.999714  1
  Fe  Fe23  1  0.500141  0.000019  0.500286  1
  Rh  Rh24  1  0.999998  0.499918  0.500267  1
  Rh  Rh25  1  0.500082  0.000002  0.999733  1
