# generated using pymatgen
data_Al2SbRu(SeO3)8
_symmetry_space_group_name_H-M   'P 1'
_cell_length_a   8.10976826
_cell_length_b   8.05315049
_cell_length_c   8.09359280
_cell_angle_alpha   89.76842754
_cell_angle_beta   89.97040353
_cell_angle_gamma   89.94329465
_symmetry_Int_Tables_number   1
_chemical_formula_structural   Al2SbRu(SeO3)8
_chemical_formula_sum   'Al2 Sb1 Ru1 Se8 O24'
_cell_volume   528.58129744
_cell_formula_units_Z   1
loop_
 _symmetry_equiv_pos_site_id
 _symmetry_equiv_pos_as_xyz
  1  'x, y, z'
loop_
 _atom_site_type_symbol
 _atom_site_label
 _atom_site_symmetry_multiplicity
 _atom_site_fract_x
 _atom_site_fract_y
 _atom_site_fract_z
 _atom_site_occupancy
  Al  Al0  1  0.000000  0.500000  0.000000  1
  Al  Al1  1  0.500000  0.500000  0.500000  1
  Sb  Sb2  1  0.500000  0.000000  0.000000  1
  Ru  Ru3  1  0.000000  0.000000  0.500000  1
  Se  Se4  1  0.322172  0.659465  0.179353  1
  Se  Se5  1  0.823741  0.336650  0.320021  1
  Se  Se6  1  0.671065  0.817209  0.661812  1
  Se  Se7  1  0.165389  0.180944  0.831236  1
  Se  Se8  1  0.677828  0.340535  0.820647  1
  Se  Se9  1  0.176259  0.663350  0.679979  1
  Se  Se10  1  0.328935  0.182791  0.338188  1
  Se  Se11  1  0.834611  0.819056  0.168764  1
  O  O12  1  0.231083  0.530992  0.040195  1
  O  O13  1  0.731587  0.464104  0.459732  1
  O  O14  1  0.760085  0.969809  0.530578  1
  O  O15  1  0.255835  0.029894  0.964317  1
  O  O16  1  0.531064  0.958255  0.755362  1
  O  O17  1  0.459382  0.525964  0.268972  1
  O  O18  1  0.961839  0.469497  0.231446  1
  O  O19  1  0.026955  0.038517  0.740291  1
  O  O20  1  0.967738  0.237743  0.461021  1
  O  O21  1  0.540689  0.734286  0.522243  1
  O  O22  1  0.467752  0.756856  0.038372  1
  O  O23  1  0.035183  0.265131  0.970484  1
  O  O24  1  0.768917  0.469008  0.959805  1
  O  O25  1  0.268413  0.535896  0.540268  1
  O  O26  1  0.239915  0.030191  0.469422  1
  O  O27  1  0.744165  0.970106  0.035683  1
  O  O28  1  0.468936  0.041745  0.244638  1
  O  O29  1  0.540618  0.474036  0.731028  1
  O  O30  1  0.038161  0.530503  0.768554  1
  O  O31  1  0.973045  0.961483  0.259709  1
  O  O32  1  0.032262  0.762257  0.538979  1
  O  O33  1  0.459311  0.265714  0.477757  1
  O  O34  1  0.532248  0.243144  0.961628  1
  O  O35  1  0.964817  0.734869  0.029516  1
