# generated using pymatgen
data_CaYb(CoB)8
_symmetry_space_group_name_H-M   'P 1'
_cell_length_a   6.92406600
_cell_length_b   6.92406600
_cell_length_c   3.81970100
_cell_angle_alpha   90.00000000
_cell_angle_beta   90.00000000
_cell_angle_gamma   90.00000000
_symmetry_Int_Tables_number   1
_chemical_formula_structural   CaYb(CoB)8
_chemical_formula_sum   'Ca1 Yb1 Co8 B8'
_cell_volume   183.12674083
_cell_formula_units_Z   1
loop_
 _symmetry_equiv_pos_site_id
 _symmetry_equiv_pos_as_xyz
  1  'x, y, z'
loop_
 _atom_site_type_symbol
 _atom_site_label
 _atom_site_symmetry_multiplicity
 _atom_site_fract_x
 _atom_site_fract_y
 _atom_site_fract_z
 _atom_site_occupancy
  Ca  Ca0  1  0.000000  0.000000  0.000000  1
  Yb  Yb1  1  0.500000  0.500000  0.500000  1
  Co  Co2  1  0.863782  0.379703  0.112120  1
  Co  Co3  1  0.136218  0.620297  0.112120  1
  Co  Co4  1  0.878261  0.634716  0.611300  1
  Co  Co5  1  0.121739  0.365284  0.611300  1
  Co  Co6  1  0.634716  0.121739  0.388700  1
  Co  Co7  1  0.365284  0.878261  0.388700  1
  Co  Co8  1  0.620297  0.863782  0.887880  1
  Co  Co9  1  0.379703  0.136218  0.887880  1
  B  B10  1  0.335400  0.803513  0.892519  1
  B  B11  1  0.664600  0.196487  0.892519  1
  B  B12  1  0.305749  0.165241  0.392059  1
  B  B13  1  0.694251  0.834759  0.392059  1
  B  B14  1  0.165241  0.694251  0.607941  1
  B  B15  1  0.834759  0.305749  0.607941  1
  B  B16  1  0.196487  0.335400  0.107481  1
  B  B17  1  0.803513  0.664600  0.107481  1
