# generated using pymatgen
data_Tm3Lu(ZrGa5)2
_symmetry_space_group_name_H-M   'P 1'
_cell_length_a   5.86952400
_cell_length_b   9.39685900
_cell_length_c   11.37009600
_cell_angle_alpha   90.00000000
_cell_angle_beta   90.00000000
_cell_angle_gamma   89.99811780
_symmetry_Int_Tables_number   1
_chemical_formula_structural   Tm3Lu(ZrGa5)2
_chemical_formula_sum   'Tm6 Lu2 Zr4 Ga20'
_cell_volume   627.11866148
_cell_formula_units_Z   2
loop_
 _symmetry_equiv_pos_site_id
 _symmetry_equiv_pos_as_xyz
  1  'x, y, z'
loop_
 _atom_site_type_symbol
 _atom_site_label
 _atom_site_symmetry_multiplicity
 _atom_site_fract_x
 _atom_site_fract_y
 _atom_site_fract_z
 _atom_site_occupancy
  Tm  Tm0  1  0.885851  0.500861  0.352630  1
  Tm  Tm1  1  0.614149  0.999139  0.852630  1
  Tm  Tm2  1  0.114073  0.000821  0.647217  1
  Tm  Tm3  1  0.385927  0.499179  0.147217  1
  Tm  Tm4  1  0.114072  0.499165  0.647476  1
  Tm  Tm5  1  0.385928  0.000835  0.147476  1
  Lu  Lu6  1  0.885991  0.999199  0.352646  1
  Lu  Lu7  1  0.614009  0.500801  0.852646  1
  Zr  Zr8  1  0.858381  0.749924  0.072868  1
  Zr  Zr9  1  0.641619  0.750076  0.572868  1
  Zr  Zr10  1  0.141770  0.250027  0.927093  1
  Zr  Zr11  1  0.358230  0.249973  0.427093  1
  Ga  Ga12  1  0.875105  0.053176  0.090313  1
  Ga  Ga13  1  0.624895  0.446824  0.590313  1
  Ga  Ga14  1  0.125093  0.553126  0.909796  1
  Ga  Ga15  1  0.374907  0.946874  0.409796  1
  Ga  Ga16  1  0.124964  0.946757  0.909883  1
  Ga  Ga17  1  0.375036  0.553243  0.409883  1
  Ga  Ga18  1  0.875055  0.446813  0.090044  1
  Ga  Ga19  1  0.624945  0.053187  0.590044  1
  Ga  Ga20  1  0.152521  0.750170  0.258195  1
  Ga  Ga21  1  0.347479  0.749830  0.758195  1
  Ga  Ga22  1  0.847134  0.250198  0.741983  1
  Ga  Ga23  1  0.652866  0.249802  0.241983  1
  Ga  Ga24  1  0.395350  0.749928  0.999436  1
  Ga  Ga25  1  0.104650  0.750072  0.499436  1
  Ga  Ga26  1  0.604826  0.250267  0.000308  1
  Ga  Ga27  1  0.895174  0.249733  0.500308  1
  Ga  Ga28  1  0.614649  0.750274  0.294554  1
  Ga  Ga29  1  0.885351  0.749726  0.794554  1
  Ga  Ga30  1  0.385701  0.250073  0.705557  1
  Ga  Ga31  1  0.114299  0.249927  0.205557  1
