# generated using pymatgen
data_DyRe2BC
_symmetry_space_group_name_H-M   'P 1'
_cell_length_a   5.77146102
_cell_length_b   5.77145986
_cell_length_c   7.26276200
_cell_angle_alpha   90.00000000
_cell_angle_beta   90.00000000
_cell_angle_gamma   145.16921373
_symmetry_Int_Tables_number   1
_chemical_formula_structural   DyRe2BC
_chemical_formula_sum   'Dy2 Re4 B2 C2'
_cell_volume   138.17421920
_cell_formula_units_Z   2
loop_
 _symmetry_equiv_pos_site_id
 _symmetry_equiv_pos_as_xyz
  1  'x, y, z'
loop_
 _atom_site_type_symbol
 _atom_site_label
 _atom_site_symmetry_multiplicity
 _atom_site_fract_x
 _atom_site_fract_y
 _atom_site_fract_z
 _atom_site_occupancy
  Dy  Dy0  1  0.544675  0.455325  0.250000  1
  Dy  Dy1  1  0.455325  0.544675  0.750000  1
  Re  Re2  1  0.827111  0.172889  0.066843  1
  Re  Re3  1  0.172889  0.827111  0.933157  1
  Re  Re4  1  0.172889  0.827111  0.566843  1
  Re  Re5  1  0.827111  0.172889  0.433157  1
  B  B6  1  0.261470  0.738530  0.250000  1
  B  B7  1  0.738530  0.261470  0.750000  1
  C  C8  1  0.000000  0.000000  0.000000  1
  C  C9  1  0.000000  0.000000  0.500000  1
