# generated using pymatgen
data_LiTi(SbPt)2
_symmetry_space_group_name_H-M   'P 1'
_cell_length_a   6.21265440
_cell_length_b   6.21265350
_cell_length_c   7.63870122
_cell_angle_alpha   66.00503307
_cell_angle_beta   66.00503892
_cell_angle_gamma   90.00000113
_symmetry_Int_Tables_number   1
_chemical_formula_structural   LiTi(SbPt)2
_chemical_formula_sum   'Li2 Ti2 Sb4 Pt4'
_cell_volume   241.19687887
_cell_formula_units_Z   2
loop_
 _symmetry_equiv_pos_site_id
 _symmetry_equiv_pos_as_xyz
  1  'x, y, z'
loop_
 _atom_site_type_symbol
 _atom_site_label
 _atom_site_symmetry_multiplicity
 _atom_site_fract_x
 _atom_site_fract_y
 _atom_site_fract_z
 _atom_site_occupancy
  Li  Li0  1  0.000000  0.000000  0.000000  1
  Li  Li1  1  0.249998  0.750000  0.500001  1
  Ti  Ti2  1  0.500000  0.500000  0.000000  1
  Ti  Ti3  1  0.750000  0.250002  0.500001  1
  Sb  Sb4  1  0.490805  0.990807  0.018386  1
  Sb  Sb5  1  0.759194  0.759194  0.481614  1
  Sb  Sb6  1  0.240807  0.240807  0.518387  1
  Sb  Sb7  1  0.009192  0.509194  0.981613  1
  Pt  Pt8  1  0.125000  0.146848  0.249999  1
  Pt  Pt9  1  0.625000  0.603153  0.250000  1
  Pt  Pt10  1  0.853154  0.375002  0.749999  1
  Pt  Pt11  1  0.396848  0.875000  0.750001  1
