# generated using pymatgen
data_CeEr4(MnB3)2
_symmetry_space_group_name_H-M   'P 1'
_cell_length_a   5.41386302
_cell_length_b   5.41386262
_cell_length_c   8.00846210
_cell_angle_alpha   70.24438326
_cell_angle_beta   70.24439652
_cell_angle_gamma   59.99998408
_symmetry_Int_Tables_number   1
_chemical_formula_structural   CeEr4(MnB3)2
_chemical_formula_sum   'Ce1 Er4 Mn2 B6'
_cell_volume   187.15728695
_cell_formula_units_Z   1
loop_
 _symmetry_equiv_pos_site_id
 _symmetry_equiv_pos_as_xyz
  1  'x, y, z'
loop_
 _atom_site_type_symbol
 _atom_site_label
 _atom_site_symmetry_multiplicity
 _atom_site_fract_x
 _atom_site_fract_y
 _atom_site_fract_z
 _atom_site_occupancy
  Ce  Ce0  1  0.000000  0.000000  0.000000  1
  Er  Er1  1  0.251804  0.251804  0.244587  1
  Er  Er2  1  0.748196  0.748196  0.755413  1
  Er  Er3  1  0.415374  0.415374  0.753880  1
  Er  Er4  1  0.584626  0.584626  0.246120  1
  Mn  Mn5  1  0.109759  0.109759  0.670722  1
  Mn  Mn6  1  0.890241  0.890241  0.329278  1
  B  B7  1  0.166749  0.833251  0.500000  1
  B  B8  1  0.833251  0.500000  0.500000  1
  B  B9  1  0.500000  0.166749  0.500000  1
  B  B10  1  0.166749  0.500000  0.500000  1
  B  B11  1  0.500000  0.833251  0.500000  1
  B  B12  1  0.833251  0.166749  0.500000  1
