# generated using pymatgen
data_LiCe2Pr14Cd3Ir4
_symmetry_space_group_name_H-M   'P 1'
_cell_length_a   10.01672866
_cell_length_b   10.01672765
_cell_length_c   10.10419973
_cell_angle_alpha   59.61064078
_cell_angle_beta   59.61064210
_cell_angle_gamma   59.47095437
_symmetry_Int_Tables_number   1
_chemical_formula_structural   LiCe2Pr14Cd3Ir4
_chemical_formula_sum   'Li1 Ce2 Pr14 Cd3 Ir4'
_cell_volume   709.76007614
_cell_formula_units_Z   1
loop_
 _symmetry_equiv_pos_site_id
 _symmetry_equiv_pos_as_xyz
  1  'x, y, z'
loop_
 _atom_site_type_symbol
 _atom_site_label
 _atom_site_symmetry_multiplicity
 _atom_site_fract_x
 _atom_site_fract_y
 _atom_site_fract_z
 _atom_site_occupancy
  Li  Li0  1  0.569879  0.569879  0.573256  1
  Ce  Ce1  1  0.343399  0.343399  0.345927  1
  Ce  Ce2  1  0.342482  0.342482  0.971290  1
  Pr  Pr3  1  0.348640  0.954767  0.348874  1
  Pr  Pr4  1  0.954767  0.348640  0.348874  1
  Pr  Pr5  1  0.809649  0.191941  0.191106  1
  Pr  Pr6  1  0.187682  0.811319  0.810337  1
  Pr  Pr7  1  0.191941  0.809649  0.191106  1
  Pr  Pr8  1  0.811319  0.187682  0.810337  1
  Pr  Pr9  1  0.192858  0.192858  0.808609  1
  Pr  Pr10  1  0.811718  0.811718  0.187270  1
  Pr  Pr11  1  0.940360  0.560295  0.562232  1
  Pr  Pr12  1  0.558917  0.940751  0.937611  1
  Pr  Pr13  1  0.560295  0.940360  0.562232  1
  Pr  Pr14  1  0.940751  0.558917  0.937611  1
  Pr  Pr15  1  0.559523  0.559523  0.940984  1
  Pr  Pr16  1  0.937356  0.937356  0.561205  1
  Cd  Cd17  1  0.579198  0.579198  0.260331  1
  Cd  Cd18  1  0.577525  0.260924  0.581644  1
  Cd  Cd19  1  0.260924  0.577525  0.581644  1
  Ir  Ir20  1  0.148434  0.148434  0.135471  1
  Ir  Ir21  1  0.149136  0.149136  0.570928  1
  Ir  Ir22  1  0.155317  0.567927  0.140559  1
  Ir  Ir23  1  0.567927  0.155317  0.140559  1
