# generated using pymatgen
data_Ca3Mn(NO3)8
_symmetry_space_group_name_H-M   'P 1'
_cell_length_a   8.00300684
_cell_length_b   8.00300661
_cell_length_c   8.00300670
_cell_angle_alpha   90.46121848
_cell_angle_beta   90.46122054
_cell_angle_gamma   90.46122154
_symmetry_Int_Tables_number   1
_chemical_formula_structural   Ca3Mn(NO3)8
_chemical_formula_sum   'Ca3 Mn1 N8 O24'
_cell_volume   512.52741581
_cell_formula_units_Z   1
loop_
 _symmetry_equiv_pos_site_id
 _symmetry_equiv_pos_as_xyz
  1  'x, y, z'
loop_
 _atom_site_type_symbol
 _atom_site_label
 _atom_site_symmetry_multiplicity
 _atom_site_fract_x
 _atom_site_fract_y
 _atom_site_fract_z
 _atom_site_occupancy
  Ca  Ca0  1  0.500000  0.500000  0.000000  1
  Ca  Ca1  1  0.000000  0.500000  0.500000  1
  Ca  Ca2  1  0.500000  0.000000  0.500000  1
  Mn  Mn3  1  0.000000  0.000000  0.000000  1
  N  N4  1  0.319743  0.159851  0.831629  1
  N  N5  1  0.831629  0.319743  0.159851  1
  N  N6  1  0.159851  0.831629  0.319743  1
  N  N7  1  0.668744  0.668744  0.668744  1
  N  N8  1  0.680257  0.840149  0.168371  1
  N  N9  1  0.168371  0.680257  0.840149  1
  N  N10  1  0.840149  0.168371  0.680257  1
  N  N11  1  0.331256  0.331256  0.331256  1
  O  O12  1  0.437042  0.266062  0.817857  1
  O  O13  1  0.817857  0.437042  0.266062  1
  O  O14  1  0.266062  0.817857  0.437042  1
  O  O15  1  0.216236  0.173549  0.949968  1
  O  O16  1  0.306616  0.041153  0.727651  1
  O  O17  1  0.727651  0.306616  0.041153  1
  O  O18  1  0.688861  0.548558  0.768584  1
  O  O19  1  0.173549  0.949968  0.216236  1
  O  O20  1  0.768584  0.688861  0.548558  1
  O  O21  1  0.949968  0.216236  0.173549  1
  O  O22  1  0.548558  0.768584  0.688861  1
  O  O23  1  0.041153  0.727651  0.306616  1
  O  O24  1  0.562958  0.733938  0.182143  1
  O  O25  1  0.182143  0.562958  0.733938  1
  O  O26  1  0.733938  0.182143  0.562958  1
  O  O27  1  0.783764  0.826451  0.050032  1
  O  O28  1  0.693384  0.958847  0.272349  1
  O  O29  1  0.272349  0.693384  0.958847  1
  O  O30  1  0.311139  0.451442  0.231416  1
  O  O31  1  0.826451  0.050032  0.783764  1
  O  O32  1  0.231416  0.311139  0.451442  1
  O  O33  1  0.050032  0.783764  0.826451  1
  O  O34  1  0.451442  0.231416  0.311139  1
  O  O35  1  0.958847  0.272349  0.693384  1
