# generated using pymatgen
data_Ta10BeGa2Si3
_symmetry_space_group_name_H-M   'P 1'
_cell_length_a   7.54693148
_cell_length_b   7.54693066
_cell_length_c   7.55689843
_cell_angle_alpha   128.21877296
_cell_angle_beta   128.21876765
_cell_angle_gamma   76.17447771
_symmetry_Int_Tables_number   1
_chemical_formula_structural   Ta10BeGa2Si3
_chemical_formula_sum   'Ta10 Be1 Ga2 Si3'
_cell_volume   258.36470323
_cell_formula_units_Z   1
loop_
 _symmetry_equiv_pos_site_id
 _symmetry_equiv_pos_as_xyz
  1  'x, y, z'
loop_
 _atom_site_type_symbol
 _atom_site_label
 _atom_site_symmetry_multiplicity
 _atom_site_fract_x
 _atom_site_fract_y
 _atom_site_fract_z
 _atom_site_occupancy
  Ta  Ta0  1  0.023506  0.185179  0.500000  1
  Ta  Ta1  1  0.689270  0.514625  0.500000  1
  Ta  Ta2  1  0.510372  0.016918  0.822527  1
  Ta  Ta3  1  0.187846  0.694392  0.177473  1
  Ta  Ta4  1  0.985375  0.810730  0.500000  1
  Ta  Ta5  1  0.314821  0.476494  0.500000  1
  Ta  Ta6  1  0.483082  0.989628  0.177473  1
  Ta  Ta7  1  0.805608  0.312154  0.822527  1
  Ta  Ta8  1  0.003851  0.999921  0.003772  1
  Ta  Ta9  1  0.500079  0.496149  0.996228  1
  Be  Be10  1  0.373592  0.126408  0.500000  1
  Ga  Ga11  1  0.747876  0.752124  0.000000  1
  Ga  Ga12  1  0.247876  0.252124  0.000000  1
  Si  Si13  1  0.623930  0.876070  0.500000  1
  Si  Si14  1  0.870559  0.367642  0.238201  1
  Si  Si15  1  0.132358  0.629441  0.761799  1
