# generated using pymatgen
data_Ho3Lu5In3Os
_symmetry_space_group_name_H-M   'P 1'
_cell_length_a   10.21685100
_cell_length_b   10.21685031
_cell_length_c   6.99923100
_cell_angle_alpha   90.00000000
_cell_angle_beta   90.00000000
_cell_angle_gamma   119.99999901
_symmetry_Int_Tables_number   1
_chemical_formula_structural   Ho3Lu5In3Os
_chemical_formula_sum   'Ho6 Lu10 In6 Os2'
_cell_volume   632.72508546
_cell_formula_units_Z   2
loop_
 _symmetry_equiv_pos_site_id
 _symmetry_equiv_pos_as_xyz
  1  'x, y, z'
loop_
 _atom_site_type_symbol
 _atom_site_label
 _atom_site_symmetry_multiplicity
 _atom_site_fract_x
 _atom_site_fract_y
 _atom_site_fract_z
 _atom_site_occupancy
  Ho  Ho0  1  0.531706  0.063411  0.523559  1
  Ho  Ho1  1  0.936589  0.468294  0.523559  1
  Ho  Ho2  1  0.531706  0.468294  0.523559  1
  Ho  Ho3  1  0.468294  0.936589  0.023559  1
  Ho  Ho4  1  0.063411  0.531706  0.023559  1
  Ho  Ho5  1  0.468294  0.531706  0.023559  1
  Lu  Lu6  1  0.177384  0.354768  0.728650  1
  Lu  Lu7  1  0.645232  0.822616  0.728650  1
  Lu  Lu8  1  0.177384  0.822616  0.728650  1
  Lu  Lu9  1  0.822616  0.645232  0.228650  1
  Lu  Lu10  1  0.354768  0.177384  0.228650  1
  Lu  Lu11  1  0.822616  0.177384  0.228650  1
  Lu  Lu12  1  0.666667  0.333333  0.902508  1
  Lu  Lu13  1  0.333333  0.666667  0.402508  1
  Lu  Lu14  1  0.000000  0.000000  0.506306  1
  Lu  Lu15  1  0.000000  0.000000  0.006306  1
  In  In16  1  0.837014  0.674028  0.771650  1
  In  In17  1  0.325972  0.162986  0.771650  1
  In  In18  1  0.837014  0.162986  0.771650  1
  In  In19  1  0.162986  0.325972  0.271650  1
  In  In20  1  0.674028  0.837014  0.271650  1
  In  In21  1  0.162986  0.837014  0.271650  1
  Os  Os22  1  0.666667  0.333333  0.297446  1
  Os  Os23  1  0.333333  0.666667  0.797446  1
