# generated using pymatgen
data_Tb8Er12Si15Hg
_symmetry_space_group_name_H-M   'P 1'
_cell_length_a   7.39491756
_cell_length_b   7.67716233
_cell_length_c   14.60503745
_cell_angle_alpha   89.86885098
_cell_angle_beta   89.08383731
_cell_angle_gamma   90.03039970
_symmetry_Int_Tables_number   1
_chemical_formula_structural   Tb8Er12Si15Hg
_chemical_formula_sum   'Tb8 Er12 Si15 Hg1'
_cell_volume   829.04862851
_cell_formula_units_Z   1
loop_
 _symmetry_equiv_pos_site_id
 _symmetry_equiv_pos_as_xyz
  1  'x, y, z'
loop_
 _atom_site_type_symbol
 _atom_site_label
 _atom_site_symmetry_multiplicity
 _atom_site_fract_x
 _atom_site_fract_y
 _atom_site_fract_z
 _atom_site_occupancy
  Tb  Tb0  1  0.021504  0.180117  0.099134  1
  Tb  Tb1  1  0.977950  0.821438  0.903167  1
  Tb  Tb2  1  0.478033  0.681802  0.902860  1
  Tb  Tb3  1  0.984111  0.829036  0.598899  1
  Tb  Tb4  1  0.520705  0.317063  0.098255  1
  Tb  Tb5  1  0.012593  0.173517  0.397945  1
  Tb  Tb6  1  0.517288  0.316624  0.398752  1
  Tb  Tb7  1  0.490692  0.688537  0.600188  1
  Er  Er8  1  0.160712  0.510195  0.752512  1
  Er  Er9  1  0.839890  0.490246  0.251223  1
  Er  Er10  1  0.339041  0.007365  0.250285  1
  Er  Er11  1  0.663082  0.989129  0.750217  1
  Er  Er12  1  0.338180  0.169778  0.625594  1
  Er  Er13  1  0.665825  0.823292  0.376374  1
  Er  Er14  1  0.168311  0.678129  0.372357  1
  Er  Er15  1  0.673748  0.821193  0.122336  1
  Er  Er16  1  0.826163  0.326008  0.623808  1
  Er  Er17  1  0.325504  0.178424  0.878332  1
  Er  Er18  1  0.824471  0.320346  0.878197  1
  Er  Er19  1  0.173742  0.678196  0.122924  1
  Si  Si20  1  0.034884  0.112656  0.752737  1
  Si  Si21  1  0.965126  0.891197  0.247245  1
  Si  Si22  1  0.468399  0.606422  0.247717  1
  Si  Si23  1  0.532186  0.393955  0.752186  1
  Si  Si24  1  0.276666  0.874971  0.752361  1
  Si  Si25  1  0.720840  0.126227  0.247668  1
  Si  Si26  1  0.222091  0.370057  0.247692  1
  Si  Si27  1  0.779684  0.627414  0.753234  1
  Si  Si28  1  0.833724  0.532510  0.458272  1
  Si  Si29  1  0.332816  0.966186  0.459015  1
  Si  Si30  1  0.848503  0.530889  0.039135  1
  Si  Si31  1  0.665666  0.035089  0.538573  1
  Si  Si32  1  0.149170  0.468161  0.961720  1
  Si  Si33  1  0.650355  0.029962  0.960251  1
  Si  Si34  1  0.347924  0.969269  0.040375  1
  Hg  Hg35  1  0.170420  0.464598  0.538462  1
