# generated using pymatgen
data_Dy4MnCoC8
_symmetry_space_group_name_H-M   'P 1'
_cell_length_a   6.60755493
_cell_length_b   6.60755455
_cell_length_c   6.60755380
_cell_angle_alpha   134.95311044
_cell_angle_beta   110.88151739
_cell_angle_gamma   86.39001730
_symmetry_Int_Tables_number   1
_chemical_formula_structural   Dy4MnCoC8
_chemical_formula_sum   'Dy4 Mn1 Co1 C8'
_cell_volume   182.79979453
_cell_formula_units_Z   1
loop_
 _symmetry_equiv_pos_site_id
 _symmetry_equiv_pos_as_xyz
  1  'x, y, z'
loop_
 _atom_site_type_symbol
 _atom_site_label
 _atom_site_symmetry_multiplicity
 _atom_site_fract_x
 _atom_site_fract_y
 _atom_site_fract_z
 _atom_site_occupancy
  Dy  Dy0  1  0.512583  0.357124  0.158581  1
  Dy  Dy1  1  0.487417  0.645998  0.844541  1
  Dy  Dy2  1  0.198543  0.854002  0.341419  1
  Dy  Dy3  1  0.801457  0.142876  0.655459  1
  Mn  Mn4  1  0.000000  0.750000  0.750000  1
  Co  Co5  1  0.000000  0.250000  0.250000  1
  C  C6  1  0.246502  0.063733  0.151620  1
  C  C7  1  0.753498  0.905117  0.817230  1
  C  C8  1  0.912113  0.594883  0.348380  1
  C  C9  1  0.087887  0.436267  0.682770  1
  C  C10  1  0.466645  0.133881  0.343829  1
  C  C11  1  0.533355  0.877184  0.667236  1
  C  C12  1  0.790052  0.622816  0.156171  1
  C  C13  1  0.209948  0.366119  0.832764  1
