# generated using pymatgen
data_Tb7Lu(CoAg)2
_symmetry_space_group_name_H-M   'P 1'
_cell_length_a   9.41608988
_cell_length_b   9.41063903
_cell_length_c   9.41064058
_cell_angle_alpha   60.03831611
_cell_angle_beta   59.98083697
_cell_angle_gamma   59.98083563
_symmetry_Int_Tables_number   1
_chemical_formula_structural   Tb7Lu(CoAg)2
_chemical_formula_sum   'Tb14 Lu2 Co4 Ag4'
_cell_volume   589.64900617
_cell_formula_units_Z   2
loop_
 _symmetry_equiv_pos_site_id
 _symmetry_equiv_pos_as_xyz
  1  'x, y, z'
loop_
 _atom_site_type_symbol
 _atom_site_label
 _atom_site_symmetry_multiplicity
 _atom_site_fract_x
 _atom_site_fract_y
 _atom_site_fract_z
 _atom_site_occupancy
  Tb  Tb0  1  0.187202  0.812798  0.187202  1
  Tb  Tb1  1  0.812798  0.187202  0.812798  1
  Tb  Tb2  1  0.187202  0.187202  0.812798  1
  Tb  Tb3  1  0.812798  0.812798  0.187202  1
  Tb  Tb4  1  0.937548  0.562451  0.562452  1
  Tb  Tb5  1  0.562451  0.937548  0.937549  1
  Tb  Tb6  1  0.562261  0.937739  0.562261  1
  Tb  Tb7  1  0.937739  0.562260  0.937740  1
  Tb  Tb8  1  0.562261  0.562260  0.937740  1
  Tb  Tb9  1  0.937739  0.937739  0.562261  1
  Tb  Tb10  1  0.348789  0.347877  0.347877  1
  Tb  Tb11  1  0.347877  0.348789  0.955456  1
  Tb  Tb12  1  0.347877  0.955456  0.348789  1
  Tb  Tb13  1  0.955456  0.347877  0.347877  1
  Lu  Lu14  1  0.812420  0.187580  0.187580  1
  Lu  Lu15  1  0.187580  0.812420  0.812420  1
  Co  Co16  1  0.140943  0.141262  0.141262  1
  Co  Co17  1  0.141262  0.140943  0.576535  1
  Co  Co18  1  0.141262  0.576535  0.140943  1
  Co  Co19  1  0.576535  0.141262  0.141262  1
  Ag  Ag20  1  0.580917  0.581227  0.581227  1
  Ag  Ag21  1  0.581227  0.580917  0.256630  1
  Ag  Ag22  1  0.581227  0.256630  0.580917  1
  Ag  Ag23  1  0.256630  0.581227  0.581227  1
