# generated using pymatgen
data_CuCl30
_symmetry_space_group_name_H-M   'P 1'
_cell_length_a   12.82620322
_cell_length_b   12.82620407
_cell_length_c   16.62612695
_cell_angle_alpha   84.73614542
_cell_angle_beta   84.73614325
_cell_angle_gamma   125.29750926
_symmetry_Int_Tables_number   1
_chemical_formula_structural   CuCl30
_chemical_formula_sum   'Cu1 Cl30'
_cell_volume   2187.40159793
_cell_formula_units_Z   1
loop_
 _symmetry_equiv_pos_site_id
 _symmetry_equiv_pos_as_xyz
  1  'x, y, z'
loop_
 _atom_site_type_symbol
 _atom_site_label
 _atom_site_symmetry_multiplicity
 _atom_site_fract_x
 _atom_site_fract_y
 _atom_site_fract_z
 _atom_site_occupancy
  Cu  Cu0  1  0.000000  0.000000  0.000000  1
  Cl  Cl1  1  0.934092  0.934092  0.189722  1
  Cl  Cl2  1  0.065908  0.065908  0.810278  1
  Cl  Cl3  1  0.060486  0.193394  0.004857  1
  Cl  Cl4  1  0.939514  0.806606  0.995143  1
  Cl  Cl5  1  0.193394  0.060486  0.004857  1
  Cl  Cl6  1  0.806606  0.939514  0.995143  1
  Cl  Cl7  1  0.206146  0.743813  0.061126  1
  Cl  Cl8  1  0.793854  0.256187  0.938874  1
  Cl  Cl9  1  0.697898  0.081425  0.257215  1
  Cl  Cl10  1  0.256187  0.793854  0.938874  1
  Cl  Cl11  1  0.302102  0.918575  0.742785  1
  Cl  Cl12  1  0.743813  0.206146  0.061126  1
  Cl  Cl13  1  0.992823  0.196345  0.767678  1
  Cl  Cl14  1  0.918575  0.302102  0.742785  1
  Cl  Cl15  1  0.007177  0.803655  0.232322  1
  Cl  Cl16  1  0.081425  0.697898  0.257215  1
  Cl  Cl17  1  0.803655  0.007177  0.232322  1
  Cl  Cl18  1  0.196345  0.992823  0.767678  1
  Cl  Cl19  1  0.464483  0.551868  0.260818  1
  Cl  Cl20  1  0.535517  0.448132  0.739182  1
  Cl  Cl21  1  0.504157  0.200811  0.452323  1
  Cl  Cl22  1  0.448132  0.535517  0.739182  1
  Cl  Cl23  1  0.495843  0.799189  0.547677  1
  Cl  Cl24  1  0.551868  0.464483  0.260818  1
  Cl  Cl25  1  0.237032  0.426327  0.544882  1
  Cl  Cl26  1  0.799189  0.495843  0.547677  1
  Cl  Cl27  1  0.762968  0.573673  0.455118  1
  Cl  Cl28  1  0.200811  0.504157  0.452323  1
  Cl  Cl29  1  0.573673  0.762968  0.455118  1
  Cl  Cl30  1  0.426327  0.237032  0.544882  1
