# generated using pymatgen
data_SrCa9(TaN5)2
_symmetry_space_group_name_H-M   'P 1'
_cell_length_a   6.98637821
_cell_length_b   6.99976134
_cell_length_c   8.87174584
_cell_angle_alpha   81.44026244
_cell_angle_beta   81.30112208
_cell_angle_gamma   60.32502702
_symmetry_Int_Tables_number   1
_chemical_formula_structural   SrCa9(TaN5)2
_chemical_formula_sum   'Sr1 Ca9 Ta2 N10'
_cell_volume   371.23332006
_cell_formula_units_Z   1
loop_
 _symmetry_equiv_pos_site_id
 _symmetry_equiv_pos_as_xyz
  1  'x, y, z'
loop_
 _atom_site_type_symbol
 _atom_site_label
 _atom_site_symmetry_multiplicity
 _atom_site_fract_x
 _atom_site_fract_y
 _atom_site_fract_z
 _atom_site_occupancy
  Sr  Sr0  1  0.874608  0.361390  0.849400  1
  Ca  Ca1  1  0.874622  0.875810  0.823802  1
  Ca  Ca2  1  0.734191  0.735308  0.533575  1
  Ca  Ca3  1  0.746996  0.258130  0.505440  1
  Ca  Ca4  1  0.619461  0.132028  0.148407  1
  Ca  Ca5  1  0.359501  0.877323  0.838865  1
  Ca  Ca6  1  0.257556  0.746054  0.506466  1
  Ca  Ca7  1  0.238973  0.237281  0.491816  1
  Ca  Ca8  1  0.152011  0.136077  0.166619  1
  Ca  Ca9  1  0.144674  0.614028  0.148211  1
  Ta  Ta10  1  0.633500  0.634839  0.221902  1
  Ta  Ta11  1  0.369588  0.371211  0.768272  1
  N  N12  1  0.917924  0.468085  0.321374  1
  N  N13  1  0.997160  0.987377  0.036137  1
  N  N14  1  0.669742  0.708359  0.003643  1
  N  N15  1  0.531608  0.540087  0.691071  1
  N  N16  1  0.471013  0.912683  0.328272  1
  N  N17  1  0.537575  0.089120  0.671054  1
  N  N18  1  0.471325  0.466008  0.292784  1
  N  N19  1  0.314341  0.316082  0.988101  1
  N  N20  1  0.056009  0.054873  0.640989  1
  N  N21  1  0.089909  0.540133  0.669603  1
