# generated using pymatgen
data_LaSm4(RuO6)2
_symmetry_space_group_name_H-M   'P 1'
_cell_length_a   7.02791770
_cell_length_b   7.02791842
_cell_length_c   7.64316108
_cell_angle_alpha   74.19740531
_cell_angle_beta   74.19740141
_cell_angle_gamma   50.02976162
_symmetry_Int_Tables_number   1
_chemical_formula_structural   LaSm4(RuO6)2
_chemical_formula_sum   'La1 Sm4 Ru2 O12'
_cell_volume   275.94135322
_cell_formula_units_Z   1
loop_
 _symmetry_equiv_pos_site_id
 _symmetry_equiv_pos_as_xyz
  1  'x, y, z'
loop_
 _atom_site_type_symbol
 _atom_site_label
 _atom_site_symmetry_multiplicity
 _atom_site_fract_x
 _atom_site_fract_y
 _atom_site_fract_z
 _atom_site_occupancy
  La  La0  1  0.000000  0.000000  0.500000  1
  Sm  Sm1  1  0.305565  0.305565  0.358333  1
  Sm  Sm2  1  0.694435  0.694435  0.641667  1
  Sm  Sm3  1  0.691639  0.691639  0.167782  1
  Sm  Sm4  1  0.308361  0.308361  0.832218  1
  Ru  Ru5  1  0.763608  0.236392  0.000000  1
  Ru  Ru6  1  0.236392  0.763608  0.000000  1
  O  O7  1  0.095112  0.587756  0.579751  1
  O  O8  1  0.999062  0.999062  0.185971  1
  O  O9  1  0.412244  0.904888  0.420249  1
  O  O10  1  0.499995  0.499995  0.177490  1
  O  O11  1  0.095706  0.582198  0.079402  1
  O  O12  1  0.904888  0.412244  0.420249  1
  O  O13  1  0.000938  0.000938  0.814029  1
  O  O14  1  0.587756  0.095111  0.579751  1
  O  O15  1  0.500005  0.500005  0.822510  1
  O  O16  1  0.582198  0.095706  0.079402  1
  O  O17  1  0.417802  0.904294  0.920598  1
  O  O18  1  0.904294  0.417802  0.920598  1
