# generated using pymatgen
data_Cs3SnSe3
_symmetry_space_group_name_H-M   'P 1'
_cell_length_a   11.04773097
_cell_length_b   11.04772388
_cell_length_c   9.98241106
_cell_angle_alpha   85.07876847
_cell_angle_beta   85.07881151
_cell_angle_gamma   78.04524093
_symmetry_Int_Tables_number   1
_chemical_formula_structural   Cs3SnSe3
_chemical_formula_sum   'Cs12 Sn4 Se12'
_cell_volume   1184.66236053
_cell_formula_units_Z   4
loop_
 _symmetry_equiv_pos_site_id
 _symmetry_equiv_pos_as_xyz
  1  'x, y, z'
loop_
 _atom_site_type_symbol
 _atom_site_label
 _atom_site_symmetry_multiplicity
 _atom_site_fract_x
 _atom_site_fract_y
 _atom_site_fract_z
 _atom_site_occupancy
  Cs  Cs0  1  0.597560  0.402440  0.250000  1
  Cs  Cs1  1  0.402440  0.597560  0.750000  1
  Cs  Cs2  1  0.918853  0.081147  0.250000  1
  Cs  Cs3  1  0.081147  0.918853  0.750000  1
  Cs  Cs4  1  0.791770  0.402013  0.866626  1
  Cs  Cs5  1  0.597987  0.208231  0.633374  1
  Cs  Cs6  1  0.208230  0.597987  0.133374  1
  Cs  Cs7  1  0.402013  0.791769  0.366626  1
  Cs  Cs8  1  0.752519  0.805071  0.685512  1
  Cs  Cs9  1  0.194929  0.247481  0.814488  1
  Cs  Cs10  1  0.247481  0.194929  0.314488  1
  Cs  Cs11  1  0.805071  0.752519  0.185512  1
  Sn  Sn12  1  0.913425  0.431243  0.454292  1
  Sn  Sn13  1  0.568757  0.086575  0.045708  1
  Sn  Sn14  1  0.086575  0.568757  0.545708  1
  Sn  Sn15  1  0.431243  0.913425  0.954292  1
  Se  Se16  1  0.052851  0.584760  0.803172  1
  Se  Se17  1  0.415240  0.947150  0.696827  1
  Se  Se18  1  0.947149  0.415240  0.196828  1
  Se  Se19  1  0.584760  0.052850  0.303173  1
  Se  Se20  1  0.051103  0.786225  0.426439  1
  Se  Se21  1  0.213775  0.948897  0.073561  1
  Se  Se22  1  0.948897  0.213775  0.573561  1
  Se  Se23  1  0.786225  0.051103  0.926439  1
  Se  Se24  1  0.690321  0.545783  0.521473  1
  Se  Se25  1  0.454217  0.309679  0.978527  1
  Se  Se26  1  0.309679  0.454217  0.478527  1
  Se  Se27  1  0.545783  0.690321  0.021473  1
