# generated using pymatgen
data_Er2Np(GaRu)3
_symmetry_space_group_name_H-M   'P 1'
_cell_length_a   6.83934906
_cell_length_b   6.83934943
_cell_length_c   3.97129400
_cell_angle_alpha   90.00000000
_cell_angle_beta   90.00000000
_cell_angle_gamma   116.39194316
_symmetry_Int_Tables_number   1
_chemical_formula_structural   Er2Np(GaRu)3
_chemical_formula_sum   'Er2 Np1 Ga3 Ru3'
_cell_volume   166.40263083
_cell_formula_units_Z   1
loop_
 _symmetry_equiv_pos_site_id
 _symmetry_equiv_pos_as_xyz
  1  'x, y, z'
loop_
 _atom_site_type_symbol
 _atom_site_label
 _atom_site_symmetry_multiplicity
 _atom_site_fract_x
 _atom_site_fract_y
 _atom_site_fract_z
 _atom_site_occupancy
  Er  Er0  1  0.413048  0.007504  0.500000  1
  Er  Er1  1  0.007504  0.413048  0.500000  1
  Np  Np2  1  0.610664  0.610664  0.500000  1
  Ga  Ga3  1  0.743566  0.033062  0.000000  1
  Ga  Ga4  1  0.033062  0.743566  0.000000  1
  Ga  Ga5  1  0.211944  0.211944  0.000000  1
  Ru  Ru6  1  0.381791  0.640591  0.000000  1
  Ru  Ru7  1  0.640591  0.381791  0.000000  1
  Ru  Ru8  1  0.957831  0.957831  0.500000  1
