# generated using pymatgen
data_SrLi4Nd3Au4
_symmetry_space_group_name_H-M   'P 1'
_cell_length_a   4.26736900
_cell_length_b   7.48506490
_cell_length_c   8.85088500
_cell_angle_alpha   89.27097153
_cell_angle_beta   90.00000000
_cell_angle_gamma   90.00000000
_symmetry_Int_Tables_number   1
_chemical_formula_structural   SrLi4Nd3Au4
_chemical_formula_sum   'Sr1 Li4 Nd3 Au4'
_cell_volume   282.68795859
_cell_formula_units_Z   1
loop_
 _symmetry_equiv_pos_site_id
 _symmetry_equiv_pos_as_xyz
  1  'x, y, z'
loop_
 _atom_site_type_symbol
 _atom_site_label
 _atom_site_symmetry_multiplicity
 _atom_site_fract_x
 _atom_site_fract_y
 _atom_site_fract_z
 _atom_site_occupancy
  Sr  Sr0  1  0.250000  0.041710  0.686099  1
  Li  Li1  1  0.250000  0.131196  0.061576  1
  Li  Li2  1  0.250000  0.621046  0.441309  1
  Li  Li3  1  0.750000  0.875468  0.945694  1
  Li  Li4  1  0.750000  0.369465  0.554197  1
  Nd  Nd5  1  0.250000  0.550169  0.821766  1
  Nd  Nd6  1  0.750000  0.954288  0.312876  1
  Nd  Nd7  1  0.750000  0.462491  0.185396  1
  Au  Au8  1  0.250000  0.252270  0.369827  1
  Au  Au9  1  0.250000  0.756975  0.119692  1
  Au  Au10  1  0.750000  0.726597  0.611808  1
  Au  Au11  1  0.750000  0.258326  0.889760  1
