# generated using pymatgen
data_La10Sn3Bi5
_symmetry_space_group_name_H-M   'P 1'
_cell_length_a   8.63284300
_cell_length_b   8.71954100
_cell_length_c   16.50821900
_cell_angle_alpha   90.00000000
_cell_angle_beta   90.00000000
_cell_angle_gamma   90.00000000
_symmetry_Int_Tables_number   1
_chemical_formula_structural   La10Sn3Bi5
_chemical_formula_sum   'La20 Sn6 Bi10'
_cell_volume   1242.64675053
_cell_formula_units_Z   2
loop_
 _symmetry_equiv_pos_site_id
 _symmetry_equiv_pos_as_xyz
  1  'x, y, z'
loop_
 _atom_site_type_symbol
 _atom_site_label
 _atom_site_symmetry_multiplicity
 _atom_site_fract_x
 _atom_site_fract_y
 _atom_site_fract_z
 _atom_site_occupancy
  La  La0  1  0.066395  0.167487  0.389776  1
  La  La1  1  0.404123  0.835667  0.117194  1
  La  La2  1  0.095877  0.335667  0.617194  1
  La  La3  1  0.433605  0.667487  0.889776  1
  La  La4  1  0.902396  0.666363  0.118257  1
  La  La5  1  0.095877  0.335667  0.882806  1
  La  La6  1  0.235483  0.498195  0.250000  1
  La  La7  1  0.732049  0.998825  0.250000  1
  La  La8  1  0.433605  0.667487  0.610224  1
  La  La9  1  0.264517  0.998195  0.750000  1
  La  La10  1  0.597604  0.166363  0.618257  1
  La  La11  1  0.767951  0.498825  0.750000  1
  La  La12  1  0.902396  0.666363  0.381743  1
  La  La13  1  0.066395  0.167487  0.110224  1
  La  La14  1  0.937173  0.830061  0.887714  1
  La  La15  1  0.597604  0.166363  0.881743  1
  La  La16  1  0.562827  0.330061  0.112286  1
  La  La17  1  0.404123  0.835667  0.382806  1
  La  La18  1  0.937173  0.830061  0.612286  1
  La  La19  1  0.562827  0.330061  0.387714  1
  Sn  Sn20  1  0.597848  0.633662  0.250000  1
  Sn  Sn21  1  0.395398  0.374735  0.750000  1
  Sn  Sn22  1  0.136244  0.632858  0.750000  1
  Sn  Sn23  1  0.902152  0.133662  0.750000  1
  Sn  Sn24  1  0.363756  0.132858  0.250000  1
  Sn  Sn25  1  0.104602  0.874735  0.250000  1
  Bi  Bi26  1  0.759085  0.489911  0.546165  1
  Bi  Bi27  1  0.740915  0.989911  0.453835  1
  Bi  Bi28  1  0.631801  0.862368  0.750000  1
  Bi  Bi29  1  0.239785  0.510190  0.452647  1
  Bi  Bi30  1  0.260215  0.010190  0.952647  1
  Bi  Bi31  1  0.868199  0.362368  0.250000  1
  Bi  Bi32  1  0.759085  0.489911  0.953835  1
  Bi  Bi33  1  0.239785  0.510190  0.047353  1
  Bi  Bi34  1  0.260215  0.010190  0.547353  1
  Bi  Bi35  1  0.740915  0.989911  0.046165  1
