# generated using pymatgen
data_Dy4Cu2(TcRu)3
_symmetry_space_group_name_H-M   'P 1'
_cell_length_a   5.28833194
_cell_length_b   5.18843309
_cell_length_c   8.94857500
_cell_angle_alpha   90.00000000
_cell_angle_beta   90.00000000
_cell_angle_gamma   119.08303653
_symmetry_Int_Tables_number   1
_chemical_formula_structural   Dy4Cu2(TcRu)3
_chemical_formula_sum   'Dy4 Cu2 Tc3 Ru3'
_cell_volume   214.57473620
_cell_formula_units_Z   1
loop_
 _symmetry_equiv_pos_site_id
 _symmetry_equiv_pos_as_xyz
  1  'x, y, z'
loop_
 _atom_site_type_symbol
 _atom_site_label
 _atom_site_symmetry_multiplicity
 _atom_site_fract_x
 _atom_site_fract_y
 _atom_site_fract_z
 _atom_site_occupancy
  Dy  Dy0  1  0.677809  0.338665  0.559139  1
  Dy  Dy1  1  0.340743  0.670237  0.433781  1
  Dy  Dy2  1  0.340743  0.670237  0.066219  1
  Dy  Dy3  1  0.677809  0.338665  0.940861  1
  Cu  Cu4  1  0.812383  0.654028  0.250000  1
  Cu  Cu5  1  0.812237  0.158192  0.250000  1
  Tc  Tc6  1  0.171613  0.337631  0.750000  1
  Tc  Tc7  1  0.171626  0.835596  0.750000  1
  Tc  Tc8  1  0.655910  0.827657  0.750000  1
  Ru  Ru9  1  0.016653  0.008252  0.494512  1
  Ru  Ru10  1  0.016653  0.008252  0.005488  1
  Ru  Ru11  1  0.305821  0.152588  0.250000  1
