# generated using pymatgen
data_Rb16HfSnBi8
_symmetry_space_group_name_H-M   'P 1'
_cell_length_a   12.31928905
_cell_length_b   12.31928966
_cell_length_c   12.31929000
_cell_angle_alpha   59.99999910
_cell_angle_beta   59.99999745
_cell_angle_gamma   60.00000150
_symmetry_Int_Tables_number   1
_chemical_formula_structural   Rb16HfSnBi8
_chemical_formula_sum   'Rb16 Hf1 Sn1 Bi8'
_cell_volume   1322.03205875
_cell_formula_units_Z   1
loop_
 _symmetry_equiv_pos_site_id
 _symmetry_equiv_pos_as_xyz
  1  'x, y, z'
loop_
 _atom_site_type_symbol
 _atom_site_label
 _atom_site_symmetry_multiplicity
 _atom_site_fract_x
 _atom_site_fract_y
 _atom_site_fract_z
 _atom_site_occupancy
  Rb  Rb0  1  0.622040  0.133878  0.622040  1
  Rb  Rb1  1  0.622040  0.622040  0.133878  1
  Rb  Rb2  1  0.133878  0.622040  0.622040  1
  Rb  Rb3  1  0.622040  0.622040  0.622040  1
  Rb  Rb4  1  0.021937  0.021937  0.478063  1
  Rb  Rb5  1  0.779704  0.220296  0.220296  1
  Rb  Rb6  1  0.220296  0.779704  0.779704  1
  Rb  Rb7  1  0.779704  0.779704  0.220296  1
  Rb  Rb8  1  0.779704  0.220296  0.779704  1
  Rb  Rb9  1  0.220296  0.779704  0.220296  1
  Rb  Rb10  1  0.478063  0.021937  0.478063  1
  Rb  Rb11  1  0.478063  0.021937  0.021937  1
  Rb  Rb12  1  0.021937  0.478063  0.478063  1
  Rb  Rb13  1  0.021937  0.478063  0.021937  1
  Rb  Rb14  1  0.220296  0.220296  0.779704  1
  Rb  Rb15  1  0.478063  0.478063  0.021937  1
  Hf  Hf16  1  0.750000  0.750000  0.750000  1
  Sn  Sn17  1  0.500000  0.500000  0.500000  1
  Bi  Bi18  1  0.398068  0.805797  0.398068  1
  Bi  Bi19  1  0.847901  0.847901  0.456296  1
  Bi  Bi20  1  0.456296  0.847901  0.847901  1
  Bi  Bi21  1  0.847901  0.847901  0.847901  1
  Bi  Bi22  1  0.805797  0.398068  0.398068  1
  Bi  Bi23  1  0.398068  0.398068  0.398068  1
  Bi  Bi24  1  0.398068  0.398068  0.805797  1
  Bi  Bi25  1  0.847901  0.456296  0.847901  1
