# generated using pymatgen
data_Th4Mg2IrPd3
_symmetry_space_group_name_H-M   'P 1'
_cell_length_a   3.86714000
_cell_length_b   7.89784268
_cell_length_c   7.89784268
_cell_angle_alpha   89.79462184
_cell_angle_beta   90.00000000
_cell_angle_gamma   90.00000000
_symmetry_Int_Tables_number   1
_chemical_formula_structural   Th4Mg2IrPd3
_chemical_formula_sum   'Th4 Mg2 Ir1 Pd3'
_cell_volume   241.21486201
_cell_formula_units_Z   1
loop_
 _symmetry_equiv_pos_site_id
 _symmetry_equiv_pos_as_xyz
  1  'x, y, z'
loop_
 _atom_site_type_symbol
 _atom_site_label
 _atom_site_symmetry_multiplicity
 _atom_site_fract_x
 _atom_site_fract_y
 _atom_site_fract_z
 _atom_site_occupancy
  Th  Th0  1  0.500000  0.168202  0.668202  1
  Th  Th1  1  0.500000  0.819783  0.319783  1
  Th  Th2  1  0.500000  0.340547  0.174735  1
  Th  Th3  1  0.500000  0.674735  0.840547  1
  Mg  Mg4  1  0.000000  0.001309  0.000784  1
  Mg  Mg5  1  0.000000  0.500784  0.501309  1
  Ir  Ir6  1  0.000000  0.629538  0.129538  1
  Pd  Pd7  1  0.000000  0.364504  0.864504  1
  Pd  Pd8  1  0.000000  0.868724  0.631874  1
  Pd  Pd9  1  0.000000  0.131874  0.368724  1
