# generated using pymatgen
data_Tb5Nb3(ReB6)4
_symmetry_space_group_name_H-M   'P 1'
_cell_length_a   3.60171100
_cell_length_b   9.02065302
_cell_length_c   11.39698106
_cell_angle_alpha   89.93839196
_cell_angle_beta   90.00000000
_cell_angle_gamma   90.00000000
_symmetry_Int_Tables_number   1
_chemical_formula_structural   Tb5Nb3(ReB6)4
_chemical_formula_sum   'Tb5 Nb3 Re4 B24'
_cell_volume   370.28525232
_cell_formula_units_Z   1
loop_
 _symmetry_equiv_pos_site_id
 _symmetry_equiv_pos_as_xyz
  1  'x, y, z'
loop_
 _atom_site_type_symbol
 _atom_site_label
 _atom_site_symmetry_multiplicity
 _atom_site_fract_x
 _atom_site_fract_y
 _atom_site_fract_z
 _atom_site_occupancy
  Tb  Tb0  1  0.000000  0.322135  0.414547  1
  Tb  Tb1  1  0.000000  0.676468  0.587160  1
  Tb  Tb2  1  0.000000  0.822514  0.084991  1
  Tb  Tb3  1  0.000000  0.177527  0.913258  1
  Tb  Tb4  1  0.000000  0.945550  0.373940  1
  Nb  Nb5  1  0.000000  0.056283  0.629685  1
  Nb  Nb6  1  0.000000  0.446043  0.123895  1
  Nb  Nb7  1  0.000000  0.555773  0.875528  1
  Re  Re8  1  0.000000  0.634488  0.313924  1
  Re  Re9  1  0.000000  0.357735  0.685956  1
  Re  Re10  1  0.000000  0.148627  0.177965  1
  Re  Re11  1  0.000000  0.856527  0.818011  1
  B  B12  1  0.500000  0.550880  0.432120  1
  B  B13  1  0.500000  0.443742  0.568275  1
  B  B14  1  0.500000  0.056389  0.065445  1
  B  B15  1  0.500000  0.944819  0.933089  1
  B  B16  1  0.500000  0.746764  0.416529  1
  B  B17  1  0.500000  0.246157  0.584404  1
  B  B18  1  0.500000  0.256048  0.079837  1
  B  B19  1  0.500000  0.745674  0.918193  1
  B  B20  1  0.500000  0.792421  0.262160  1
  B  B21  1  0.500000  0.204072  0.738371  1
  B  B22  1  0.500000  0.297697  0.233524  1
  B  B23  1  0.500000  0.703214  0.764350  1
  B  B24  1  0.500000  0.627798  0.180798  1
  B  B25  1  0.500000  0.371603  0.818880  1
  B  B26  1  0.500000  0.134188  0.314278  1
  B  B27  1  0.500000  0.870737  0.683310  1
  B  B28  1  0.500000  0.985197  0.210955  1
  B  B29  1  0.500000  0.017876  0.787645  1
  B  B30  1  0.500000  0.479959  0.284727  1
  B  B31  1  0.500000  0.518811  0.713890  1
  B  B32  1  0.500000  0.598985  0.025228  1
  B  B33  1  0.500000  0.402837  0.973136  1
  B  B34  1  0.500000  0.102758  0.479539  1
  B  B35  1  0.500000  0.901702  0.532459  1
