# generated using pymatgen
data_Hf15Zr(CoMo)4
_symmetry_space_group_name_H-M   'P 1'
_cell_length_a   8.68466868
_cell_length_b   8.66005734
_cell_length_c   8.68466836
_cell_angle_alpha   60.09369730
_cell_angle_beta   60.08617503
_cell_angle_gamma   60.09369623
_symmetry_Int_Tables_number   1
_chemical_formula_structural   Hf15Zr(CoMo)4
_chemical_formula_sum   'Hf15 Zr1 Co4 Mo4'
_cell_volume   462.81637474
_cell_formula_units_Z   1
loop_
 _symmetry_equiv_pos_site_id
 _symmetry_equiv_pos_as_xyz
  1  'x, y, z'
loop_
 _atom_site_type_symbol
 _atom_site_label
 _atom_site_symmetry_multiplicity
 _atom_site_fract_x
 _atom_site_fract_y
 _atom_site_fract_z
 _atom_site_occupancy
  Hf  Hf0  1  0.196694  0.601034  0.601238  1
  Hf  Hf1  1  0.600857  0.196521  0.600857  1
  Hf  Hf2  1  0.600857  0.601767  0.600857  1
  Hf  Hf3  1  0.601238  0.601034  0.196694  1
  Hf  Hf4  1  0.448849  0.451284  0.050327  1
  Hf  Hf5  1  0.050327  0.049541  0.448849  1
  Hf  Hf6  1  0.448849  0.049541  0.050327  1
  Hf  Hf7  1  0.050327  0.451284  0.448849  1
  Hf  Hf8  1  0.050174  0.449826  0.050174  1
  Hf  Hf9  1  0.449885  0.050115  0.449885  1
  Hf  Hf10  1  0.813646  0.812648  0.187599  1
  Hf  Hf11  1  0.187599  0.186106  0.813646  1
  Hf  Hf12  1  0.813646  0.186106  0.187599  1
  Hf  Hf13  1  0.187599  0.812648  0.813646  1
  Hf  Hf14  1  0.185815  0.814185  0.185815  1
  Zr  Zr15  1  0.815391  0.184609  0.815391  1
  Co  Co16  1  0.825778  0.391786  0.390652  1
  Co  Co17  1  0.391280  0.825538  0.391280  1
  Co  Co18  1  0.391280  0.391903  0.391280  1
  Co  Co19  1  0.390652  0.391786  0.825778  1
  Mo  Mo20  1  0.498755  0.833911  0.833423  1
  Mo  Mo21  1  0.833542  0.499902  0.833542  1
  Mo  Mo22  1  0.833542  0.833015  0.833542  1
  Mo  Mo23  1  0.833423  0.833911  0.498755  1
