# generated using pymatgen
data_TiNb2CrSe10
_symmetry_space_group_name_H-M   'P 1'
_cell_length_a   3.56032600
_cell_length_b   9.65242357
_cell_length_c   10.51349097
_cell_angle_alpha   65.22731437
_cell_angle_beta   90.00000000
_cell_angle_gamma   90.00000000
_symmetry_Int_Tables_number   1
_chemical_formula_structural   TiNb2CrSe10
_chemical_formula_sum   'Ti1 Nb2 Cr1 Se10'
_cell_volume   328.05608158
_cell_formula_units_Z   1
loop_
 _symmetry_equiv_pos_site_id
 _symmetry_equiv_pos_as_xyz
  1  'x, y, z'
loop_
 _atom_site_type_symbol
 _atom_site_label
 _atom_site_symmetry_multiplicity
 _atom_site_fract_x
 _atom_site_fract_y
 _atom_site_fract_z
 _atom_site_occupancy
  Ti  Ti0  1  0.250000  0.436715  0.910854  1
  Nb  Nb1  1  0.750000  0.280106  0.631771  1
  Nb  Nb2  1  0.250000  0.719820  0.362763  1
  Cr  Cr3  1  0.750000  0.565607  0.106759  1
  Se  Se4  1  0.750000  0.514754  0.363585  1
  Se  Se5  1  0.250000  0.356563  0.161804  1
  Se  Se6  1  0.250000  0.485937  0.631385  1
  Se  Se7  1  0.750000  0.826136  0.492028  1
  Se  Se8  1  0.250000  0.171668  0.503563  1
  Se  Se9  1  0.250000  0.052048  0.750616  1
  Se  Se10  1  0.250000  0.755793  0.088474  1
  Se  Se11  1  0.750000  0.947613  0.244694  1
  Se  Se12  1  0.750000  0.243498  0.905881  1
  Se  Se13  1  0.750000  0.643742  0.845824  1
