# generated using pymatgen
data_Nd16Cd4CoNi2Pd
_symmetry_space_group_name_H-M   'P 1'
_cell_length_a   9.89593007
_cell_length_b   9.90035514
_cell_length_c   9.88692900
_cell_angle_alpha   60.04485353
_cell_angle_beta   60.03008720
_cell_angle_gamma   60.12103531
_symmetry_Int_Tables_number   1
_chemical_formula_structural   Nd16Cd4CoNi2Pd
_chemical_formula_sum   'Nd16 Cd4 Co1 Ni2 Pd1'
_cell_volume   685.95506479
_cell_formula_units_Z   1
loop_
 _symmetry_equiv_pos_site_id
 _symmetry_equiv_pos_as_xyz
  1  'x, y, z'
loop_
 _atom_site_type_symbol
 _atom_site_label
 _atom_site_symmetry_multiplicity
 _atom_site_fract_x
 _atom_site_fract_y
 _atom_site_fract_z
 _atom_site_occupancy
  Nd  Nd0  1  0.339986  0.354416  0.350282  1
  Nd  Nd1  1  0.339986  0.354416  0.955317  1
  Nd  Nd2  1  0.343408  0.948858  0.353867  1
  Nd  Nd3  1  0.957079  0.350518  0.346201  1
  Nd  Nd4  1  0.817863  0.189812  0.190979  1
  Nd  Nd5  1  0.189593  0.807283  0.813471  1
  Nd  Nd6  1  0.189593  0.807283  0.189652  1
  Nd  Nd7  1  0.817863  0.189812  0.801346  1
  Nd  Nd8  1  0.190957  0.190022  0.809510  1
  Nd  Nd9  1  0.820588  0.800127  0.189642  1
  Nd  Nd10  1  0.935630  0.564491  0.564191  1
  Nd  Nd11  1  0.560500  0.941046  0.936479  1
  Nd  Nd12  1  0.560500  0.941046  0.561975  1
  Nd  Nd13  1  0.935630  0.564491  0.935688  1
  Nd  Nd14  1  0.560924  0.562415  0.938330  1
  Nd  Nd15  1  0.934019  0.937839  0.564070  1
  Cd  Cd16  1  0.581098  0.579623  0.579595  1
  Cd  Cd17  1  0.581098  0.579623  0.259686  1
  Cd  Cd18  1  0.581155  0.260145  0.579351  1
  Cd  Cd19  1  0.257231  0.580725  0.581022  1
  Co  Co20  1  0.143559  0.572237  0.142101  1
  Ni  Ni21  1  0.144519  0.141444  0.143350  1
  Ni  Ni22  1  0.144519  0.141444  0.570685  1
  Pd  Pd23  1  0.572700  0.140883  0.143208  1
