# generated using pymatgen
data_Er5Si6P6Ir10Rh9
_symmetry_space_group_name_H-M   'P 1'
_cell_length_a   12.78206900
_cell_length_b   12.78206798
_cell_length_c   3.92797600
_cell_angle_alpha   90.00000000
_cell_angle_beta   90.00000000
_cell_angle_gamma   120.00000523
_symmetry_Int_Tables_number   1
_chemical_formula_structural   Er5Si6P6Ir10Rh9
_chemical_formula_sum   'Er5 Si6 P6 Ir10 Rh9'
_cell_volume   555.77846500
_cell_formula_units_Z   1
loop_
 _symmetry_equiv_pos_site_id
 _symmetry_equiv_pos_as_xyz
  1  'x, y, z'
loop_
 _atom_site_type_symbol
 _atom_site_label
 _atom_site_symmetry_multiplicity
 _atom_site_fract_x
 _atom_site_fract_y
 _atom_site_fract_z
 _atom_site_occupancy
  Er  Er0  1  0.666667  0.333333  0.000000  1
  Er  Er1  1  0.333333  0.666667  0.000000  1
  Er  Er2  1  0.817870  0.815562  0.500000  1
  Er  Er3  1  0.184438  0.002309  0.500000  1
  Er  Er4  1  0.997691  0.182130  0.500000  1
  Si  Si5  1  0.681710  0.161839  0.500000  1
  Si  Si6  1  0.838161  0.519871  0.500000  1
  Si  Si7  1  0.480129  0.318290  0.500000  1
  Si  Si8  1  0.634064  0.632943  0.000000  1
  Si  Si9  1  0.367057  0.001122  0.000000  1
  Si  Si10  1  0.998878  0.365936  0.000000  1
  P  P11  1  0.175521  0.692106  0.500000  1
  P  P12  1  0.516585  0.824479  0.500000  1
  P  P13  1  0.307894  0.483415  0.500000  1
  P  P14  1  0.177165  0.181482  0.000000  1
  P  P15  1  0.818518  0.995682  0.000000  1
  P  P16  1  0.004318  0.822835  0.000000  1
  Ir  Ir17  1  0.275817  0.282657  0.500000  1
  Ir  Ir18  1  0.717343  0.993160  0.500000  1
  Ir  Ir19  1  0.006840  0.724183  0.500000  1
  Ir  Ir20  1  0.869861  0.352833  0.500000  1
  Ir  Ir21  1  0.647167  0.517029  0.500000  1
  Ir  Ir22  1  0.482971  0.130139  0.500000  1
  Ir  Ir23  1  0.366076  0.872545  0.500000  1
  Ir  Ir24  1  0.506471  0.633924  0.500000  1
  Ir  Ir25  1  0.127455  0.493529  0.500000  1
  Ir  Ir26  1  0.000000  0.000000  0.000000  1
  Rh  Rh27  1  0.809132  0.175890  0.000000  1
  Rh  Rh28  1  0.824110  0.633242  0.000000  1
  Rh  Rh29  1  0.366758  0.190868  0.000000  1
  Rh  Rh30  1  0.183393  0.802378  0.000000  1
  Rh  Rh31  1  0.618986  0.816607  0.000000  1
  Rh  Rh32  1  0.197622  0.381014  0.000000  1
  Rh  Rh33  1  0.456229  0.442885  0.000000  1
  Rh  Rh34  1  0.557115  0.013344  0.000000  1
  Rh  Rh35  1  0.986656  0.543771  0.000000  1
