# generated using pymatgen
data_Ba2FeRhO6
_symmetry_space_group_name_H-M   'P 1'
_cell_length_a   5.80922700
_cell_length_b   5.80922711
_cell_length_c   14.23491500
_cell_angle_alpha   90.00000000
_cell_angle_beta   90.00000000
_cell_angle_gamma   120.00000505
_symmetry_Int_Tables_number   1
_chemical_formula_structural   Ba2FeRhO6
_chemical_formula_sum   'Ba6 Fe3 Rh3 O18'
_cell_volume   416.02764521
_cell_formula_units_Z   3
loop_
 _symmetry_equiv_pos_site_id
 _symmetry_equiv_pos_as_xyz
  1  'x, y, z'
loop_
 _atom_site_type_symbol
 _atom_site_label
 _atom_site_symmetry_multiplicity
 _atom_site_fract_x
 _atom_site_fract_y
 _atom_site_fract_z
 _atom_site_occupancy
  Ba  Ba0  1  0.000000  0.000000  0.750838  1
  Ba  Ba1  1  0.000000  0.000000  0.249162  1
  Ba  Ba2  1  0.666667  0.333333  0.908229  1
  Ba  Ba3  1  0.333333  0.666667  0.091771  1
  Ba  Ba4  1  0.666667  0.333333  0.593867  1
  Ba  Ba5  1  0.333333  0.666667  0.406133  1
  Fe  Fe6  1  0.000000  0.000000  0.000000  1
  Fe  Fe7  1  0.666667  0.333333  0.346740  1
  Fe  Fe8  1  0.333333  0.666667  0.653260  1
  Rh  Rh9  1  0.000000  0.000000  0.500000  1
  Rh  Rh10  1  0.666667  0.333333  0.157303  1
  Rh  Rh11  1  0.333333  0.666667  0.842697  1
  O  O12  1  0.028008  0.514004  0.752248  1
  O  O13  1  0.485996  0.971992  0.752248  1
  O  O14  1  0.485996  0.514004  0.752248  1
  O  O15  1  0.971992  0.485996  0.247752  1
  O  O16  1  0.514004  0.028008  0.247752  1
  O  O17  1  0.514004  0.485996  0.247752  1
  O  O18  1  0.665129  0.832564  0.919562  1
  O  O19  1  0.167436  0.334871  0.919562  1
  O  O20  1  0.167436  0.832564  0.919562  1
  O  O21  1  0.334871  0.167436  0.080438  1
  O  O22  1  0.832564  0.665129  0.080438  1
  O  O23  1  0.832564  0.167436  0.080438  1
  O  O24  1  0.672001  0.836000  0.580404  1
  O  O25  1  0.164000  0.327999  0.580404  1
  O  O26  1  0.164000  0.836000  0.580404  1
  O  O27  1  0.327999  0.164000  0.419596  1
  O  O28  1  0.836000  0.672001  0.419596  1
  O  O29  1  0.836000  0.164000  0.419596  1
