# generated using pymatgen
data_Pr5Sn15(IrRh3)2
_symmetry_space_group_name_H-M   'P 1'
_cell_length_a   4.54554700
_cell_length_b   7.32383620
_cell_length_c   18.78925430
_cell_angle_alpha   89.91935634
_cell_angle_beta   90.00000000
_cell_angle_gamma   90.00000000
_symmetry_Int_Tables_number   1
_chemical_formula_structural   Pr5Sn15(IrRh3)2
_chemical_formula_sum   'Pr5 Sn15 Ir2 Rh6'
_cell_volume   625.50947031
_cell_formula_units_Z   1
loop_
 _symmetry_equiv_pos_site_id
 _symmetry_equiv_pos_as_xyz
  1  'x, y, z'
loop_
 _atom_site_type_symbol
 _atom_site_label
 _atom_site_symmetry_multiplicity
 _atom_site_fract_x
 _atom_site_fract_y
 _atom_site_fract_z
 _atom_site_occupancy
  Pr  Pr0  1  0.500000  0.001817  0.856310  1
  Pr  Pr1  1  0.500000  0.500827  0.357503  1
  Pr  Pr2  1  0.000000  0.001676  0.143391  1
  Pr  Pr3  1  0.000000  0.499815  0.641379  1
  Pr  Pr4  1  0.500000  0.493500  0.930053  1
  Sn  Sn5  1  0.000000  0.717493  0.806066  1
  Sn  Sn6  1  0.000000  0.780873  0.305321  1
  Sn  Sn7  1  0.500000  0.278502  0.194289  1
  Sn  Sn8  1  0.500000  0.217687  0.693712  1
  Sn  Sn9  1  0.000000  0.853974  0.970129  1
  Sn  Sn10  1  0.000000  0.632525  0.468620  1
  Sn  Sn11  1  0.500000  0.134349  0.032415  1
  Sn  Sn12  1  0.500000  0.365988  0.530254  1
  Sn  Sn13  1  0.000000  0.304184  0.819103  1
  Sn  Sn14  1  0.000000  0.198420  0.317790  1
  Sn  Sn15  1  0.500000  0.697018  0.185916  1
  Sn  Sn16  1  0.500000  0.807251  0.678951  1
  Sn  Sn17  1  0.500000  0.019102  0.433125  1
  Sn  Sn18  1  0.000000  0.511027  0.067741  1
  Sn  Sn19  1  0.000000  0.981549  0.567929  1
  Ir  Ir20  1  0.000000  0.228904  0.965287  1
  Ir  Ir21  1  0.500000  0.764844  0.045242  1
  Rh  Rh22  1  0.000000  0.247919  0.464587  1
  Rh  Rh23  1  0.500000  0.750506  0.533272  1
  Rh  Rh24  1  0.000000  0.018727  0.715730  1
  Rh  Rh25  1  0.000000  0.483130  0.213264  1
  Rh  Rh26  1  0.500000  0.987005  0.288888  1
  Rh  Rh27  1  0.500000  0.521385  0.773735  1
