# generated using pymatgen
data_Nd8GaSiI12
_symmetry_space_group_name_H-M   'P 1'
_cell_length_a   4.36834800
_cell_length_b   14.48554700
_cell_length_c   15.29077911
_cell_angle_alpha   90.06024026
_cell_angle_beta   90.00000000
_cell_angle_gamma   90.00000000
_symmetry_Int_Tables_number   1
_chemical_formula_structural   Nd8GaSiI12
_chemical_formula_sum   'Nd8 Ga1 Si1 I12'
_cell_volume   967.56801393
_cell_formula_units_Z   1
loop_
 _symmetry_equiv_pos_site_id
 _symmetry_equiv_pos_as_xyz
  1  'x, y, z'
loop_
 _atom_site_type_symbol
 _atom_site_label
 _atom_site_symmetry_multiplicity
 _atom_site_fract_x
 _atom_site_fract_y
 _atom_site_fract_z
 _atom_site_occupancy
  Nd  Nd0  1  0.500000  0.116188  0.344063  1
  Nd  Nd1  1  0.500000  0.883812  0.655937  1
  Nd  Nd2  1  0.500000  0.614586  0.154068  1
  Nd  Nd3  1  0.500000  0.385414  0.845932  1
  Nd  Nd4  1  0.000000  0.115190  0.577038  1
  Nd  Nd5  1  0.000000  0.884810  0.422962  1
  Nd  Nd6  1  0.000000  0.612533  0.924847  1
  Nd  Nd7  1  0.000000  0.387467  0.075153  1
  Ga  Ga8  1  0.500000  0.000000  0.500000  1
  Si  Si9  1  0.500000  0.500000  0.000000  1
  I  I10  1  0.500000  0.246328  0.162249  1
  I  I11  1  0.500000  0.753672  0.837751  1
  I  I12  1  0.500000  0.744622  0.335725  1
  I  I13  1  0.500000  0.255378  0.664275  1
  I  I14  1  0.000000  0.259907  0.415008  1
  I  I15  1  0.000000  0.740093  0.584992  1
  I  I16  1  0.000000  0.757911  0.085558  1
  I  I17  1  0.000000  0.242089  0.914442  1
  I  I18  1  0.000000  0.997668  0.239217  1
  I  I19  1  0.000000  0.002332  0.760783  1
  I  I20  1  0.000000  0.498414  0.259087  1
  I  I21  1  0.000000  0.501586  0.740913  1
