# generated using pymatgen
data_TbTm7Ga3Os
_symmetry_space_group_name_H-M   'P 1'
_cell_length_a   9.90462000
_cell_length_b   9.90462040
_cell_length_c   7.00817000
_cell_angle_alpha   90.00000000
_cell_angle_beta   90.00000000
_cell_angle_gamma   119.99999865
_symmetry_Int_Tables_number   1
_chemical_formula_structural   TbTm7Ga3Os
_chemical_formula_sum   'Tb2 Tm14 Ga6 Os2'
_cell_volume   595.40286427
_cell_formula_units_Z   2
loop_
 _symmetry_equiv_pos_site_id
 _symmetry_equiv_pos_as_xyz
  1  'x, y, z'
loop_
 _atom_site_type_symbol
 _atom_site_label
 _atom_site_symmetry_multiplicity
 _atom_site_fract_x
 _atom_site_fract_y
 _atom_site_fract_z
 _atom_site_occupancy
  Tb  Tb0  1  0.000000  0.000000  0.765751  1
  Tb  Tb1  1  0.000000  0.000000  0.265751  1
  Tm  Tm2  1  0.827745  0.655491  0.489019  1
  Tm  Tm3  1  0.344509  0.172255  0.489019  1
  Tm  Tm4  1  0.827745  0.172255  0.489019  1
  Tm  Tm5  1  0.172255  0.344509  0.989019  1
  Tm  Tm6  1  0.655491  0.827745  0.989019  1
  Tm  Tm7  1  0.172255  0.827745  0.989019  1
  Tm  Tm8  1  0.666667  0.333333  0.160800  1
  Tm  Tm9  1  0.333333  0.666667  0.660800  1
  Tm  Tm10  1  0.534495  0.068990  0.794742  1
  Tm  Tm11  1  0.931010  0.465505  0.794742  1
  Tm  Tm12  1  0.534495  0.465505  0.794742  1
  Tm  Tm13  1  0.465505  0.931010  0.294742  1
  Tm  Tm14  1  0.068990  0.534495  0.294742  1
  Tm  Tm15  1  0.465505  0.534495  0.294742  1
  Ga  Ga16  1  0.835593  0.671188  0.043428  1
  Ga  Ga17  1  0.328812  0.164407  0.043428  1
  Ga  Ga18  1  0.835593  0.164407  0.043428  1
  Ga  Ga19  1  0.164407  0.328812  0.543428  1
  Ga  Ga20  1  0.671188  0.835593  0.543428  1
  Ga  Ga21  1  0.164407  0.835593  0.543428  1
  Os  Os22  1  0.666667  0.333333  0.554919  1
  Os  Os23  1  0.333333  0.666667  0.054919  1
