# generated using pymatgen
data_NdSb3(AuCl6)4
_symmetry_space_group_name_H-M   'P 1'
_cell_length_a   8.02010292
_cell_length_b   10.15709805
_cell_length_c   14.34012584
_cell_angle_alpha   102.84134825
_cell_angle_beta   97.48404938
_cell_angle_gamma   112.61227029
_symmetry_Int_Tables_number   1
_chemical_formula_structural   NdSb3(AuCl6)4
_chemical_formula_sum   'Nd1 Sb3 Au4 Cl24'
_cell_volume   1020.74983834
_cell_formula_units_Z   1
loop_
 _symmetry_equiv_pos_site_id
 _symmetry_equiv_pos_as_xyz
  1  'x, y, z'
loop_
 _atom_site_type_symbol
 _atom_site_label
 _atom_site_symmetry_multiplicity
 _atom_site_fract_x
 _atom_site_fract_y
 _atom_site_fract_z
 _atom_site_occupancy
  Nd  Nd0  1  0.973834  0.308787  0.867876  1
  Sb  Sb1  1  0.614699  0.936825  0.617614  1
  Sb  Sb2  1  0.028778  0.663160  0.120896  1
  Sb  Sb3  1  0.369201  0.058516  0.375442  1
  Au  Au4  1  0.291475  0.632009  0.768648  1
  Au  Au5  1  0.502241  0.502097  0.501384  1
  Au  Au6  1  0.710845  0.369974  0.231592  1
  Au  Au7  1  0.997175  0.998775  0.999426  1
  Cl  Cl8  1  0.784517  0.098219  0.968856  1
  Cl  Cl9  1  0.725710  0.157273  0.254238  1
  Cl  Cl10  1  0.275298  0.842626  0.743604  1
  Cl  Cl11  1  0.775487  0.803531  0.034750  1
  Cl  Cl12  1  0.626547  0.183872  0.734703  1
  Cl  Cl13  1  0.303764  0.414759  0.794898  1
  Cl  Cl14  1  0.704437  0.589322  0.209512  1
  Cl  Cl15  1  0.300760  0.615537  0.495005  1
  Cl  Cl16  1  0.220298  0.199709  0.964288  1
  Cl  Cl17  1  0.751024  0.731347  0.526708  1
  Cl  Cl18  1  0.208920  0.900441  0.029253  1
  Cl  Cl19  1  0.739539  0.057877  0.497965  1
  Cl  Cl20  1  0.596214  0.721074  0.755641  1
  Cl  Cl21  1  0.945101  0.047519  0.725560  1
  Cl  Cl22  1  0.252741  0.273939  0.476506  1
  Cl  Cl23  1  0.364413  0.814514  0.263207  1
  Cl  Cl24  1  0.982128  0.539111  0.780591  1
  Cl  Cl25  1  0.773321  0.439056  0.976319  1
  Cl  Cl26  1  0.234754  0.566563  0.032917  1
  Cl  Cl27  1  0.019497  0.460473  0.216207  1
  Cl  Cl28  1  0.406546  0.281156  0.244268  1
  Cl  Cl29  1  0.267444  0.941826  0.504159  1
  Cl  Cl30  1  0.703317  0.389283  0.506156  1
  Cl  Cl31  1  0.049974  0.960832  0.281811  1
