# generated using pymatgen
data_Er3Ga8Tc3Hg
_symmetry_space_group_name_H-M   'P 1'
_cell_length_a   6.47535700
_cell_length_b   6.47535700
_cell_length_c   6.47535700
_cell_angle_alpha   90.00000000
_cell_angle_beta   90.00000000
_cell_angle_gamma   90.00000000
_symmetry_Int_Tables_number   1
_chemical_formula_structural   Er3Ga8Tc3Hg
_chemical_formula_sum   'Er3 Ga8 Tc3 Hg1'
_cell_volume   271.51332670
_cell_formula_units_Z   1
loop_
 _symmetry_equiv_pos_site_id
 _symmetry_equiv_pos_as_xyz
  1  'x, y, z'
loop_
 _atom_site_type_symbol
 _atom_site_label
 _atom_site_symmetry_multiplicity
 _atom_site_fract_x
 _atom_site_fract_y
 _atom_site_fract_z
 _atom_site_occupancy
  Er  Er0  1  0.500000  0.500000  0.000000  1
  Er  Er1  1  0.500000  0.000000  0.500000  1
  Er  Er2  1  0.000000  0.500000  0.500000  1
  Ga  Ga3  1  0.207194  0.207194  0.792806  1
  Ga  Ga4  1  0.207194  0.792806  0.207194  1
  Ga  Ga5  1  0.792806  0.207194  0.207194  1
  Ga  Ga6  1  0.792806  0.792806  0.792806  1
  Ga  Ga7  1  0.792806  0.792806  0.207194  1
  Ga  Ga8  1  0.792806  0.207194  0.792806  1
  Ga  Ga9  1  0.207194  0.792806  0.792806  1
  Ga  Ga10  1  0.207194  0.207194  0.207194  1
  Tc  Tc11  1  0.000000  0.000000  0.500000  1
  Tc  Tc12  1  0.000000  0.500000  0.000000  1
  Tc  Tc13  1  0.500000  0.000000  0.000000  1
  Hg  Hg14  1  0.500000  0.500000  0.500000  1
