# generated using pymatgen
data_DyEr15(C2Br3)4
_symmetry_space_group_name_H-M   'P 1'
_cell_length_a   3.66528900
_cell_length_b   10.64048111
_cell_length_c   20.32974821
_cell_angle_alpha   90.01841731
_cell_angle_beta   90.00000000
_cell_angle_gamma   90.00000000
_symmetry_Int_Tables_number   1
_chemical_formula_structural   DyEr15(C2Br3)4
_chemical_formula_sum   'Dy1 Er15 C8 Br12'
_cell_volume   792.86905128
_cell_formula_units_Z   1
loop_
 _symmetry_equiv_pos_site_id
 _symmetry_equiv_pos_as_xyz
  1  'x, y, z'
loop_
 _atom_site_type_symbol
 _atom_site_label
 _atom_site_symmetry_multiplicity
 _atom_site_fract_x
 _atom_site_fract_y
 _atom_site_fract_z
 _atom_site_occupancy
  Dy  Dy0  1  0.250000  0.865997  0.580409  1
  Er  Er1  1  0.750000  0.134023  0.418763  1
  Er  Er2  1  0.750000  0.634138  0.081270  1
  Er  Er3  1  0.250000  0.365830  0.918886  1
  Er  Er4  1  0.250000  0.865900  0.744461  1
  Er  Er5  1  0.750000  0.134125  0.255793  1
  Er  Er6  1  0.750000  0.634095  0.244338  1
  Er  Er7  1  0.250000  0.365877  0.755570  1
  Er  Er8  1  0.250000  0.867516  0.169758  1
  Er  Er9  1  0.750000  0.132264  0.830352  1
  Er  Er10  1  0.750000  0.632446  0.669549  1
  Er  Er11  1  0.250000  0.367569  0.330427  1
  Er  Er12  1  0.250000  0.901041  0.328268  1
  Er  Er13  1  0.750000  0.099168  0.671806  1
  Er  Er14  1  0.750000  0.599081  0.828194  1
  Er  Er15  1  0.250000  0.401138  0.171848  1
  C  C16  1  0.250000  0.614281  0.750561  1
  C  C17  1  0.750000  0.385696  0.249514  1
  C  C18  1  0.750000  0.885666  0.250619  1
  C  C19  1  0.250000  0.114417  0.749471  1
  C  C20  1  0.250000  0.633325  0.156554  1
  C  C21  1  0.750000  0.366674  0.843416  1
  C  C22  1  0.750000  0.866710  0.657375  1
  C  C23  1  0.250000  0.133262  0.343509  1
  Br  Br24  1  0.250000  0.610377  0.555627  1
  Br  Br25  1  0.750000  0.387027  0.444487  1
  Br  Br26  1  0.750000  0.887310  0.055660  1
  Br  Br27  1  0.250000  0.112483  0.944208  1
  Br  Br28  1  0.250000  0.627121  0.953190  1
  Br  Br29  1  0.750000  0.372943  0.046546  1
  Br  Br30  1  0.750000  0.872937  0.452729  1
  Br  Br31  1  0.250000  0.129633  0.546616  1
  Br  Br32  1  0.250000  0.635884  0.357257  1
  Br  Br33  1  0.750000  0.364103  0.642996  1
  Br  Br34  1  0.750000  0.864020  0.857016  1
  Br  Br35  1  0.250000  0.135924  0.142953  1
