# generated using pymatgen
data_Cs5Th(MoH9)3
_symmetry_space_group_name_H-M   'P 1'
_cell_length_a   9.83940000
_cell_length_b   9.50885321
_cell_length_c   5.59430200
_cell_angle_alpha   90.00000000
_cell_angle_beta   90.00000000
_cell_angle_gamma   118.89480894
_symmetry_Int_Tables_number   1
_chemical_formula_structural   Cs5Th(MoH9)3
_chemical_formula_sum   'Cs5 Th1 Mo3 H27'
_cell_volume   458.25049126
_cell_formula_units_Z   1
loop_
 _symmetry_equiv_pos_site_id
 _symmetry_equiv_pos_as_xyz
  1  'x, y, z'
loop_
 _atom_site_type_symbol
 _atom_site_label
 _atom_site_symmetry_multiplicity
 _atom_site_fract_x
 _atom_site_fract_y
 _atom_site_fract_z
 _atom_site_occupancy
  Cs  Cs0  1  0.730891  0.741886  0.500000  1
  Cs  Cs1  1  0.269109  0.010994  0.500000  1
  Cs  Cs2  1  0.000000  0.627316  0.000000  1
  Cs  Cs3  1  0.440228  0.395669  0.000000  1
  Cs  Cs4  1  0.559772  0.955443  0.000000  1
  Th  Th5  1  0.000000  0.280931  0.500000  1
  Mo  Mo6  1  0.705396  0.318946  0.500000  1
  Mo  Mo7  1  0.294604  0.613551  0.500000  1
  Mo  Mo8  1  0.000000  0.066372  0.000000  1
  H  H9  1  0.811552  0.302789  0.747564  1
  H  H10  1  0.721928  0.462802  0.707682  1
  H  H11  1  0.565508  0.204865  0.714230  1
  H  H12  1  0.188448  0.491238  0.252436  1
  H  H13  1  0.565508  0.204865  0.285770  1
  H  H14  1  0.811552  0.302789  0.252436  1
  H  H15  1  0.721928  0.462802  0.292318  1
  H  H16  1  0.278072  0.740876  0.707682  1
  H  H17  1  0.434492  0.639358  0.714230  1
  H  H18  1  0.167928  0.054868  0.000000  1
  H  H19  1  0.832072  0.886939  0.000000  1
  H  H20  1  0.000000  0.255184  0.000000  1
  H  H21  1  0.874725  0.057806  0.236645  1
  H  H22  1  0.125275  0.183081  0.763355  1
  H  H23  1  0.000000  0.928130  0.799494  1
  H  H24  1  0.000000  0.928130  0.200506  1
  H  H25  1  0.125275  0.183081  0.236645  1
  H  H26  1  0.874725  0.057806  0.763355  1
  H  H27  1  0.103964  0.580809  0.500000  1
  H  H28  1  0.449408  0.803639  0.500000  1
  H  H29  1  0.294392  0.424439  0.500000  1
  H  H30  1  0.550592  0.354230  0.500000  1
  H  H31  1  0.896036  0.476845  0.500000  1
  H  H32  1  0.705608  0.130047  0.500000  1
  H  H33  1  0.188448  0.491238  0.747564  1
  H  H34  1  0.278072  0.740876  0.292318  1
  H  H35  1  0.434492  0.639358  0.285770  1
