# generated using pymatgen
data_Na8Th(ZrBr8)3
_symmetry_space_group_name_H-M   'P 1'
_cell_length_a   7.35813000
_cell_length_b   7.35813043
_cell_length_c   27.35162600
_cell_angle_alpha   90.00000000
_cell_angle_beta   90.00000000
_cell_angle_gamma   119.99999807
_symmetry_Int_Tables_number   1
_chemical_formula_structural   Na8Th(ZrBr8)3
_chemical_formula_sum   'Na8 Th1 Zr3 Br24'
_cell_volume   1282.47446813
_cell_formula_units_Z   1
loop_
 _symmetry_equiv_pos_site_id
 _symmetry_equiv_pos_as_xyz
  1  'x, y, z'
loop_
 _atom_site_type_symbol
 _atom_site_label
 _atom_site_symmetry_multiplicity
 _atom_site_fract_x
 _atom_site_fract_y
 _atom_site_fract_z
 _atom_site_occupancy
  Na  Na0  1  0.000000  0.000000  0.250229  1
  Na  Na1  1  0.000000  0.000000  0.749771  1
  Na  Na2  1  0.333333  0.666667  0.000396  1
  Na  Na3  1  0.333333  0.666667  0.499558  1
  Na  Na4  1  0.333333  0.666667  0.250081  1
  Na  Na5  1  0.666667  0.333333  0.749919  1
  Na  Na6  1  0.666667  0.333333  0.999604  1
  Na  Na7  1  0.666667  0.333333  0.500442  1
  Th  Th8  1  0.000000  0.000000  0.000000  1
  Zr  Zr9  1  0.000000  0.000000  0.500000  1
  Zr  Zr10  1  0.333333  0.666667  0.749795  1
  Zr  Zr11  1  0.666667  0.333333  0.250205  1
  Br  Br12  1  0.371562  0.037742  0.306637  1
  Br  Br13  1  0.333323  0.962077  0.806221  1
  Br  Br14  1  0.999350  0.318004  0.059791  1
  Br  Br15  1  0.000907  0.295676  0.556466  1
  Br  Br16  1  0.962258  0.333820  0.306637  1
  Br  Br17  1  0.037923  0.371245  0.806221  1
  Br  Br18  1  0.371245  0.333323  0.193779  1
  Br  Br19  1  0.333820  0.371562  0.693363  1
  Br  Br20  1  0.295676  0.294769  0.443534  1
  Br  Br21  1  0.318004  0.318654  0.940209  1
  Br  Br22  1  0.705231  0.000907  0.443534  1
  Br  Br23  1  0.318654  0.000650  0.059791  1
  Br  Br24  1  0.294769  0.999093  0.556466  1
  Br  Br25  1  0.681996  0.681346  0.059791  1
  Br  Br26  1  0.704324  0.705231  0.556466  1
  Br  Br27  1  0.666180  0.628438  0.306637  1
  Br  Br28  1  0.628755  0.666677  0.806221  1
  Br  Br29  1  0.962077  0.628755  0.193779  1
  Br  Br30  1  0.037742  0.666180  0.693363  1
  Br  Br31  1  0.999093  0.704324  0.443534  1
  Br  Br32  1  0.000650  0.681996  0.940209  1
  Br  Br33  1  0.681346  0.999350  0.940209  1
  Br  Br34  1  0.666677  0.037923  0.193779  1
  Br  Br35  1  0.628438  0.962258  0.693363  1
