# generated using pymatgen
data_Eu2AlNiF10
_symmetry_space_group_name_H-M   'P 1'
_cell_length_a   5.66902205
_cell_length_b   5.61869196
_cell_length_c   7.79092406
_cell_angle_alpha   70.23360712
_cell_angle_beta   69.33255058
_cell_angle_gamma   71.43206545
_symmetry_Int_Tables_number   1
_chemical_formula_structural   Eu2AlNiF10
_chemical_formula_sum   'Eu2 Al1 Ni1 F10'
_cell_volume   212.85154231
_cell_formula_units_Z   1
loop_
 _symmetry_equiv_pos_site_id
 _symmetry_equiv_pos_as_xyz
  1  'x, y, z'
loop_
 _atom_site_type_symbol
 _atom_site_label
 _atom_site_symmetry_multiplicity
 _atom_site_fract_x
 _atom_site_fract_y
 _atom_site_fract_z
 _atom_site_occupancy
  Eu  Eu0  1  0.552864  0.452307  0.250602  1
  Eu  Eu1  1  0.447136  0.547693  0.749398  1
  Al  Al2  1  0.000000  0.000000  0.000000  1
  Ni  Ni3  1  0.000000  0.000000  0.500000  1
  F  F4  1  0.745156  0.784262  0.622912  1
  F  F5  1  0.199408  0.232304  0.890942  1
  F  F6  1  0.254844  0.215738  0.377088  1
  F  F7  1  0.800592  0.767696  0.109058  1
  F  F8  1  0.069165  0.930397  0.768199  1
  F  F9  1  0.930835  0.069603  0.231801  1
  F  F10  1  0.290032  0.730719  0.032603  1
  F  F11  1  0.290369  0.687448  0.476386  1
  F  F12  1  0.709968  0.269281  0.967397  1
  F  F13  1  0.709631  0.312552  0.523614  1
