# generated using pymatgen
data_LaNd3Al18Ir5Pt
_symmetry_space_group_name_H-M   'P 1'
_cell_length_a   7.63945005
_cell_length_b   7.64437276
_cell_length_c   9.61541837
_cell_angle_alpha   89.97889635
_cell_angle_beta   89.96515713
_cell_angle_gamma   119.50242181
_symmetry_Int_Tables_number   1
_chemical_formula_structural   LaNd3Al18Ir5Pt
_chemical_formula_sum   'La1 Nd3 Al18 Ir5 Pt1'
_cell_volume   488.71798122
_cell_formula_units_Z   1
loop_
 _symmetry_equiv_pos_site_id
 _symmetry_equiv_pos_as_xyz
  1  'x, y, z'
loop_
 _atom_site_type_symbol
 _atom_site_label
 _atom_site_symmetry_multiplicity
 _atom_site_fract_x
 _atom_site_fract_y
 _atom_site_fract_z
 _atom_site_occupancy
  La  La0  1  0.994239  0.669391  0.250227  1
  Nd  Nd1  1  0.004391  0.330157  0.750067  1
  Nd  Nd2  1  0.670360  0.995290  0.249986  1
  Nd  Nd3  1  0.330254  0.005329  0.749789  1
  Al  Al4  1  0.130828  0.131412  0.250362  1
  Al  Al5  1  0.871195  0.870898  0.749637  1
  Al  Al6  1  0.006249  0.333693  0.073693  1
  Al  Al7  1  0.000666  0.668570  0.923568  1
  Al  Al8  1  0.998353  0.664901  0.574767  1
  Al  Al9  1  0.336547  0.002826  0.428324  1
  Al  Al10  1  0.002126  0.333074  0.428007  1
  Al  Al11  1  0.665378  0.998118  0.573411  1
  Al  Al12  1  0.664759  0.994046  0.924850  1
  Al  Al13  1  0.332937  0.000602  0.073309  1
  Al  Al14  1  0.333261  0.333277  0.547767  1
  Al  Al15  1  0.665290  0.666546  0.455098  1
  Al  Al16  1  0.664306  0.668782  0.048355  1
  Al  Al17  1  0.331137  0.334271  0.948802  1
  Al  Al18  1  0.343009  0.547635  0.250273  1
  Al  Al19  1  0.659311  0.454640  0.747077  1
  Al  Al20  1  0.542210  0.337898  0.252943  1
  Al  Al21  1  0.452306  0.659251  0.749680  1
  Ir  Ir22  1  0.328793  0.671030  0.999861  1
  Ir  Ir23  1  0.329060  0.670809  0.500109  1
  Ir  Ir24  1  0.671207  0.329037  0.500097  1
  Ir  Ir25  1  0.999893  0.999959  0.999904  1
  Ir  Ir26  1  0.000149  0.999666  0.500075  1
  Pt  Pt27  1  0.671783  0.328891  0.999962  1
