# generated using pymatgen
data_Dy9Tm7(Ga3Ir)2
_symmetry_space_group_name_H-M   'P 1'
_cell_length_a   9.98739600
_cell_length_b   9.98739667
_cell_length_c   7.05093200
_cell_angle_alpha   90.00000000
_cell_angle_beta   90.00000000
_cell_angle_gamma   119.99999117
_symmetry_Int_Tables_number   1
_chemical_formula_structural   Dy9Tm7(Ga3Ir)2
_chemical_formula_sum   'Dy9 Tm7 Ga6 Ir2'
_cell_volume   609.09041546
_cell_formula_units_Z   1
loop_
 _symmetry_equiv_pos_site_id
 _symmetry_equiv_pos_as_xyz
  1  'x, y, z'
loop_
 _atom_site_type_symbol
 _atom_site_label
 _atom_site_symmetry_multiplicity
 _atom_site_fract_x
 _atom_site_fract_y
 _atom_site_fract_z
 _atom_site_occupancy
  Dy  Dy0  1  0.666667  0.333333  0.336643  1
  Dy  Dy1  1  0.464928  0.535072  0.204971  1
  Dy  Dy2  1  0.070142  0.535072  0.204971  1
  Dy  Dy3  1  0.464928  0.929858  0.204971  1
  Dy  Dy4  1  0.534624  0.465376  0.705834  1
  Dy  Dy5  1  0.930752  0.465376  0.705834  1
  Dy  Dy6  1  0.534624  0.069248  0.705834  1
  Dy  Dy7  1  0.000000  0.000000  0.233560  1
  Dy  Dy8  1  0.000000  0.000000  0.732363  1
  Tm  Tm9  1  0.171810  0.828190  0.512694  1
  Tm  Tm10  1  0.656379  0.828190  0.512694  1
  Tm  Tm11  1  0.171810  0.343621  0.512694  1
  Tm  Tm12  1  0.828693  0.171307  0.011436  1
  Tm  Tm13  1  0.342614  0.171307  0.011436  1
  Tm  Tm14  1  0.828693  0.657386  0.011436  1
  Tm  Tm15  1  0.333333  0.666667  0.833601  1
  Ga  Ga16  1  0.163682  0.836318  0.956276  1
  Ga  Ga17  1  0.672638  0.836318  0.956276  1
  Ga  Ga18  1  0.163682  0.327362  0.956276  1
  Ga  Ga19  1  0.837257  0.162743  0.457428  1
  Ga  Ga20  1  0.325485  0.162743  0.457428  1
  Ga  Ga21  1  0.837257  0.674515  0.457428  1
  Ir  Ir22  1  0.333333  0.666667  0.446155  1
  Ir  Ir23  1  0.666667  0.333333  0.946598  1
