# generated using pymatgen
data_Er6Tm4(InBi)3
_symmetry_space_group_name_H-M   'P 1'
_cell_length_a   6.49624400
_cell_length_b   8.97295520
_cell_length_c   8.97351300
_cell_angle_alpha   119.99707069
_cell_angle_beta   89.99766188
_cell_angle_gamma   89.99980711
_symmetry_Int_Tables_number   1
_chemical_formula_structural   Er6Tm4(InBi)3
_chemical_formula_sum   'Er6 Tm4 In3 Bi3'
_cell_volume   453.00581234
_cell_formula_units_Z   1
loop_
 _symmetry_equiv_pos_site_id
 _symmetry_equiv_pos_as_xyz
  1  'x, y, z'
loop_
 _atom_site_type_symbol
 _atom_site_label
 _atom_site_symmetry_multiplicity
 _atom_site_fract_x
 _atom_site_fract_y
 _atom_site_fract_z
 _atom_site_occupancy
  Er  Er0  1  0.750018  0.236097  0.999995  1
  Er  Er1  1  0.750011  0.763652  0.763741  1
  Er  Er2  1  0.750015  0.999909  0.236271  1
  Er  Er3  1  0.249993  0.762211  0.000011  1
  Er  Er4  1  0.249984  0.237985  0.237896  1
  Er  Er5  1  0.250001  0.000098  0.762072  1
  Tm  Tm6  1  0.492396  0.333339  0.666652  1
  Tm  Tm7  1  0.492419  0.666683  0.333344  1
  Tm  Tm8  1  0.007582  0.666680  0.333348  1
  Tm  Tm9  1  0.007592  0.333337  0.666656  1
  In  In10  1  0.249997  0.393859  0.999999  1
  In  In11  1  0.250003  0.606304  0.606288  1
  In  In12  1  0.249993  0.000014  0.393716  1
  Bi  Bi13  1  0.750000  0.603642  0.000004  1
  Bi  Bi14  1  0.749995  0.396211  0.396229  1
  Bi  Bi15  1  0.749999  0.999980  0.603778  1
