# generated using pymatgen
data_Dy5Y(ReB7)2
_symmetry_space_group_name_H-M   'P 1'
_cell_length_a   8.09576900
_cell_length_b   8.09576928
_cell_length_c   9.36444600
_cell_angle_alpha   90.00000000
_cell_angle_beta   90.00000000
_cell_angle_gamma   154.74655880
_symmetry_Int_Tables_number   1
_chemical_formula_structural   Dy5Y(ReB7)2
_chemical_formula_sum   'Dy5 Y1 Re2 B14'
_cell_volume   261.84401285
_cell_formula_units_Z   1
loop_
 _symmetry_equiv_pos_site_id
 _symmetry_equiv_pos_as_xyz
  1  'x, y, z'
loop_
 _atom_site_type_symbol
 _atom_site_label
 _atom_site_symmetry_multiplicity
 _atom_site_fract_x
 _atom_site_fract_y
 _atom_site_fract_z
 _atom_site_occupancy
  Dy  Dy0  1  0.894688  0.105312  0.439924  1
  Dy  Dy1  1  0.105347  0.894653  0.560086  1
  Dy  Dy2  1  0.894688  0.105312  0.060076  1
  Dy  Dy3  1  0.105347  0.894653  0.939914  1
  Dy  Dy4  1  0.757675  0.242325  0.750000  1
  Y  Y5  1  0.242455  0.757545  0.250000  1
  Re  Re6  1  0.052791  0.947209  0.250000  1
  Re  Re7  1  0.947177  0.052823  0.750000  1
  B  B8  1  0.726978  0.273022  0.466732  1
  B  B9  1  0.273018  0.726982  0.533393  1
  B  B10  1  0.726978  0.273022  0.033268  1
  B  B11  1  0.273018  0.726982  0.966607  1
  B  B12  1  0.631869  0.368131  0.150566  1
  B  B13  1  0.368046  0.631954  0.849391  1
  B  B14  1  0.631869  0.368131  0.349434  1
  B  B15  1  0.368046  0.631954  0.650609  1
  B  B16  1  0.520655  0.479345  0.095381  1
  B  B17  1  0.479349  0.520651  0.904602  1
  B  B18  1  0.520655  0.479345  0.404619  1
  B  B19  1  0.479349  0.520651  0.595398  1
  B  B20  1  0.457265  0.542735  0.250000  1
  B  B21  1  0.542736  0.457264  0.750000  1
