# generated using pymatgen
data_CePu3(C2Cl)2
_symmetry_space_group_name_H-M   'P 1'
_cell_length_a   7.45183873
_cell_length_b   7.46118940
_cell_length_c   6.36570344
_cell_angle_alpha   80.18605306
_cell_angle_beta   80.06795554
_cell_angle_gamma   31.37518528
_symmetry_Int_Tables_number   1
_chemical_formula_structural   CePu3(C2Cl)2
_chemical_formula_sum   'Ce1 Pu3 C4 Cl2'
_cell_volume   181.32299024
_cell_formula_units_Z   1
loop_
 _symmetry_equiv_pos_site_id
 _symmetry_equiv_pos_as_xyz
  1  'x, y, z'
loop_
 _atom_site_type_symbol
 _atom_site_label
 _atom_site_symmetry_multiplicity
 _atom_site_fract_x
 _atom_site_fract_y
 _atom_site_fract_z
 _atom_site_occupancy
  Ce  Ce0  1  0.465694  0.831920  0.851829  1
  Pu  Pu1  1  0.831525  0.472611  0.349759  1
  Pu  Pu2  1  0.529849  0.170804  0.148711  1
  Pu  Pu3  1  0.168110  0.527916  0.651557  1
  C  C4  1  0.344854  0.101444  0.470042  1
  C  C5  1  0.904368  0.653997  0.029686  1
  C  C6  1  0.655181  0.903174  0.524361  1
  C  C7  1  0.094108  0.348116  0.974579  1
  Cl  Cl8  1  0.207373  0.791886  0.253138  1
  Cl  Cl9  1  0.798938  0.198131  0.746337  1
