# generated using pymatgen
data_Mn3Ru8PtO24
_symmetry_space_group_name_H-M   'P 1'
_cell_length_a   6.46686460
_cell_length_b   6.46438260
_cell_length_c   10.43139904
_cell_angle_alpha   108.06153329
_cell_angle_beta   71.93676443
_cell_angle_gamma   90.00545146
_symmetry_Int_Tables_number   1
_chemical_formula_structural   Mn3Ru8PtO24
_chemical_formula_sum   'Mn3 Ru8 Pt1 O24'
_cell_volume   391.92482439
_cell_formula_units_Z   1
loop_
 _symmetry_equiv_pos_site_id
 _symmetry_equiv_pos_as_xyz
  1  'x, y, z'
loop_
 _atom_site_type_symbol
 _atom_site_label
 _atom_site_symmetry_multiplicity
 _atom_site_fract_x
 _atom_site_fract_y
 _atom_site_fract_z
 _atom_site_occupancy
  Mn  Mn0  1  0.082673  0.417155  0.834411  1
  Mn  Mn1  1  0.833423  0.166420  0.333183  1
  Mn  Mn2  1  0.583973  0.916289  0.832217  1
  Ru  Ru3  1  0.998267  0.001685  0.003422  1
  Ru  Ru4  1  0.501032  0.498945  0.997824  1
  Ru  Ru5  1  0.668417  0.331577  0.663268  1
  Ru  Ru6  1  0.165581  0.834454  0.668896  1
  Ru  Ru7  1  0.418434  0.081514  0.163107  1
  Ru  Ru8  1  0.917027  0.582931  0.166012  1
  Ru  Ru9  1  0.248236  0.251888  0.503637  1
  Ru  Ru10  1  0.749712  0.750295  0.500651  1
  Pt  Pt11  1  0.333349  0.666688  0.333351  1
  O  O12  1  0.392244  0.416180  0.831880  1
  O  O13  1  0.890921  0.917538  0.834738  1
  O  O14  1  0.333319  0.354249  0.333354  1
  O  O15  1  0.833000  0.855120  0.333308  1
  O  O16  1  0.333336  0.979142  0.333381  1
  O  O17  1  0.833693  0.478124  0.333303  1
  O  O18  1  0.775803  0.415828  0.831879  1
  O  O19  1  0.274324  0.917197  0.834724  1
  O  O20  1  0.717988  0.080481  0.160744  1
  O  O21  1  0.222041  0.581978  0.163833  1
  O  O22  1  0.545589  0.253009  0.505836  1
  O  O23  1  0.052596  0.751603  0.502942  1
  O  O24  1  0.497190  0.205100  0.005373  1
  O  O25  1  0.995341  0.706929  0.009164  1
  O  O26  1  0.169428  0.533233  0.661192  1
  O  O27  1  0.671167  0.031089  0.657467  1
  O  O28  1  0.497215  0.800267  0.005452  1
  O  O29  1  0.995497  0.302176  0.009189  1
  O  O30  1  0.169461  0.128147  0.661270  1
  O  O31  1  0.671326  0.626374  0.657490  1
  O  O32  1  0.121029  0.080356  0.160868  1
  O  O33  1  0.614117  0.581753  0.163775  1
  O  O34  1  0.948707  0.252887  0.505954  1
  O  O35  1  0.444550  0.751399  0.502907  1
