# generated using pymatgen
data_Ac3Cu3(Ni5B)2
_symmetry_space_group_name_H-M   'P 1'
_cell_length_a   5.21116700
_cell_length_b   5.21116755
_cell_length_c   11.01130100
_cell_angle_alpha   90.00023936
_cell_angle_beta   89.99975938
_cell_angle_gamma   119.99535968
_symmetry_Int_Tables_number   1
_chemical_formula_structural   Ac3Cu3(Ni5B)2
_chemical_formula_sum   'Ac3 Cu3 Ni10 B2'
_cell_volume   258.97604822
_cell_formula_units_Z   1
loop_
 _symmetry_equiv_pos_site_id
 _symmetry_equiv_pos_as_xyz
  1  'x, y, z'
loop_
 _atom_site_type_symbol
 _atom_site_label
 _atom_site_symmetry_multiplicity
 _atom_site_fract_x
 _atom_site_fract_y
 _atom_site_fract_z
 _atom_site_occupancy
  Ac  Ac0  1  0.999999  0.000001  0.000120  1
  Ac  Ac1  1  0.000000  0.000000  0.666001  1
  Ac  Ac2  1  0.000002  0.999998  0.329959  1
  Cu  Cu3  1  0.666673  0.333327  0.683656  1
  Cu  Cu4  1  0.333328  0.666672  0.683774  1
  Cu  Cu5  1  0.333334  0.666666  0.315970  1
  Ni  Ni6  1  0.500554  0.499446  0.499636  1
  Ni  Ni7  1  0.500546  0.001084  0.499630  1
  Ni  Ni8  1  0.998916  0.499454  0.499630  1
  Ni  Ni9  1  0.666663  0.333337  0.317881  1
  Ni  Ni10  1  0.499970  0.500030  0.872196  1
  Ni  Ni11  1  0.499972  0.999944  0.872194  1
  Ni  Ni12  1  0.000056  0.500028  0.872194  1
  Ni  Ni13  1  0.501231  0.498769  0.128764  1
  Ni  Ni14  1  0.501238  0.002482  0.128741  1
  Ni  Ni15  1  0.997518  0.498762  0.128741  1
  B  B16  1  0.666668  0.333332  0.000083  1
  B  B17  1  0.333332  0.666668  0.000827  1
