# generated using pymatgen
data_Li8Ga3Si2Pd3
_symmetry_space_group_name_H-M   'P 1'
_cell_length_a   6.03962346
_cell_length_b   6.03962292
_cell_length_c   6.03962300
_cell_angle_alpha   89.94826930
_cell_angle_beta   90.05173070
_cell_angle_gamma   90.05172995
_symmetry_Int_Tables_number   1
_chemical_formula_structural   Li8Ga3Si2Pd3
_chemical_formula_sum   'Li8 Ga3 Si2 Pd3'
_cell_volume   220.30735055
_cell_formula_units_Z   1
loop_
 _symmetry_equiv_pos_site_id
 _symmetry_equiv_pos_as_xyz
  1  'x, y, z'
loop_
 _atom_site_type_symbol
 _atom_site_label
 _atom_site_symmetry_multiplicity
 _atom_site_fract_x
 _atom_site_fract_y
 _atom_site_fract_z
 _atom_site_occupancy
  Li  Li0  1  0.249681  0.750319  0.250896  1
  Li  Li1  1  0.751384  0.248616  0.248616  1
  Li  Li2  1  0.249681  0.250896  0.750319  1
  Li  Li3  1  0.001837  0.998163  0.998163  1
  Li  Li4  1  0.003219  0.502522  0.502522  1
  Li  Li5  1  0.749104  0.750319  0.750319  1
  Li  Li6  1  0.497478  0.996781  0.502522  1
  Li  Li7  1  0.497478  0.502522  0.996781  1
  Ga  Ga8  1  0.245888  0.247687  0.247687  1
  Ga  Ga9  1  0.752313  0.247687  0.754112  1
  Ga  Ga10  1  0.752313  0.754112  0.247687  1
  Si  Si11  1  0.492608  0.507392  0.507392  1
  Si  Si12  1  0.249485  0.750515  0.750515  1
  Pd  Pd13  1  0.008951  0.991049  0.510371  1
  Pd  Pd14  1  0.008951  0.510371  0.991049  1
  Pd  Pd15  1  0.489629  0.991049  0.991049  1
