# generated using pymatgen
data_Ac3Cd5Pt
_symmetry_space_group_name_H-M   'P 1'
_cell_length_a   8.52550900
_cell_length_b   8.52551029
_cell_length_c   4.13756700
_cell_angle_alpha   90.00000000
_cell_angle_beta   90.00000000
_cell_angle_gamma   119.99999991
_symmetry_Int_Tables_number   1
_chemical_formula_structural   Ac3Cd5Pt
_chemical_formula_sum   'Ac3 Cd5 Pt1'
_cell_volume   260.44520835
_cell_formula_units_Z   1
loop_
 _symmetry_equiv_pos_site_id
 _symmetry_equiv_pos_as_xyz
  1  'x, y, z'
loop_
 _atom_site_type_symbol
 _atom_site_label
 _atom_site_symmetry_multiplicity
 _atom_site_fract_x
 _atom_site_fract_y
 _atom_site_fract_z
 _atom_site_occupancy
  Ac  Ac0  1  0.606725  0.030082  0.000000  1
  Ac  Ac1  1  0.969918  0.576642  0.000000  1
  Ac  Ac2  1  0.423358  0.393275  0.000000  1
  Cd  Cd3  1  0.259403  0.988484  0.500000  1
  Cd  Cd4  1  0.011516  0.270920  0.500000  1
  Cd  Cd5  1  0.729080  0.740597  0.500000  1
  Cd  Cd6  1  0.333333  0.666667  0.500000  1
  Cd  Cd7  1  0.000000  0.000000  0.000000  1
  Pt  Pt8  1  0.666667  0.333333  0.500000  1
