# generated using pymatgen
data_La3Y2P12Ir10Ru9
_symmetry_space_group_name_H-M   'P 1'
_cell_length_a   12.71500100
_cell_length_b   12.64089602
_cell_length_c   4.00198600
_cell_angle_alpha   90.00000000
_cell_angle_beta   90.00000000
_cell_angle_gamma   119.96672401
_symmetry_Int_Tables_number   1
_chemical_formula_structural   La3Y2P12Ir10Ru9
_chemical_formula_sum   'La3 Y2 P12 Ir10 Ru9'
_cell_volume   557.24474368
_cell_formula_units_Z   1
loop_
 _symmetry_equiv_pos_site_id
 _symmetry_equiv_pos_as_xyz
  1  'x, y, z'
loop_
 _atom_site_type_symbol
 _atom_site_label
 _atom_site_symmetry_multiplicity
 _atom_site_fract_x
 _atom_site_fract_y
 _atom_site_fract_z
 _atom_site_occupancy
  La  La0  1  0.812886  0.001207  0.500000  1
  La  La1  1  0.184485  0.186623  0.500000  1
  La  La2  1  0.999637  0.814661  0.500000  1
  Y  Y3  1  0.666747  0.332015  0.000000  1
  Y  Y4  1  0.335063  0.667605  0.000000  1
  P  P5  1  0.628627  0.997446  0.000000  1
  P  P6  1  0.367305  0.373026  0.000000  1
  P  P7  1  0.001166  0.632472  0.000000  1
  P  P8  1  0.690137  0.517884  0.500000  1
  P  P9  1  0.827007  0.305972  0.500000  1
  P  P10  1  0.315311  0.830793  0.500000  1
  P  P11  1  0.516760  0.688002  0.500000  1
  P  P12  1  0.184553  0.000749  0.000000  1
  P  P13  1  0.814610  0.815549  0.000000  1
  P  P14  1  0.996585  0.186423  0.000000  1
  P  P15  1  0.480497  0.169638  0.500000  1
  P  P16  1  0.175744  0.483014  0.500000  1
  Ir  Ir17  1  0.619771  0.799788  0.000000  1
  Ir  Ir18  1  0.181286  0.382086  0.000000  1
  Ir  Ir19  1  0.378935  0.183425  0.000000  1
  Ir  Ir20  1  0.197698  0.817995  0.000000  1
  Ir  Ir21  1  0.803046  0.619401  0.000000  1
  Ir  Ir22  1  0.869965  0.505598  0.500000  1
  Ir  Ir23  1  0.494974  0.362178  0.500000  1
  Ir  Ir24  1  0.634453  0.128235  0.500000  1
  Ir  Ir25  1  0.131124  0.637793  0.500000  1
  Ir  Ir26  1  0.999774  0.000666  0.000000  1
  Ru  Ru27  1  0.364189  0.489258  0.500000  1
  Ru  Ru28  1  0.509569  0.870813  0.500000  1
  Ru  Ru29  1  0.710110  0.708764  0.500000  1
  Ru  Ru30  1  0.000899  0.292289  0.500000  1
  Ru  Ru31  1  0.449668  0.999744  0.000000  1
  Ru  Ru32  1  0.551065  0.546914  0.000000  1
  Ru  Ru33  1  0.000293  0.453151  0.000000  1
  Ru  Ru34  1  0.816403  0.198891  0.000000  1
  Ru  Ru35  1  0.289658  0.999933  0.500000  1
