# generated using pymatgen
data_SrSc3Al18OsPd5
_symmetry_space_group_name_H-M   'P 1'
_cell_length_a   7.58578474
_cell_length_b   7.59088429
_cell_length_c   9.44480182
_cell_angle_alpha   89.95155761
_cell_angle_beta   90.10890084
_cell_angle_gamma   119.68961244
_symmetry_Int_Tables_number   1
_chemical_formula_structural   SrSc3Al18OsPd5
_chemical_formula_sum   'Sr1 Sc3 Al18 Os1 Pd5'
_cell_volume   472.46041957
_cell_formula_units_Z   1
loop_
 _symmetry_equiv_pos_site_id
 _symmetry_equiv_pos_as_xyz
  1  'x, y, z'
loop_
 _atom_site_type_symbol
 _atom_site_label
 _atom_site_symmetry_multiplicity
 _atom_site_fract_x
 _atom_site_fract_y
 _atom_site_fract_z
 _atom_site_occupancy
  Sr  Sr0  1  0.994128  0.670732  0.249589  1
  Sc  Sc1  1  0.002967  0.328464  0.751632  1
  Sc  Sc2  1  0.671128  0.997371  0.247813  1
  Sc  Sc3  1  0.330456  0.002897  0.752108  1
  Al  Al4  1  0.128574  0.137736  0.249472  1
  Al  Al5  1  0.875114  0.878378  0.750781  1
  Al  Al6  1  0.993719  0.329862  0.069175  1
  Al  Al7  1  0.998635  0.658539  0.915267  1
  Al  Al8  1  0.003710  0.666242  0.588685  1
  Al  Al9  1  0.339660  0.004189  0.427236  1
  Al  Al10  1  0.998494  0.329787  0.429537  1
  Al  Al11  1  0.664873  0.004519  0.583076  1
  Al  Al12  1  0.665804  0.006170  0.918460  1
  Al  Al13  1  0.344140  0.005017  0.070023  1
  Al  Al14  1  0.328039  0.329396  0.571153  1
  Al  Al15  1  0.662273  0.668463  0.448708  1
  Al  Al16  1  0.665334  0.662121  0.044829  1
  Al  Al17  1  0.333338  0.327509  0.935926  1
  Al  Al18  1  0.349719  0.552184  0.249556  1
  Al  Al19  1  0.658713  0.447121  0.752095  1
  Al  Al20  1  0.542765  0.331433  0.245047  1
  Al  Al21  1  0.450072  0.663209  0.750708  1
  Os  Os22  1  0.670106  0.325468  0.996288  1
  Pd  Pd23  1  0.328164  0.670842  0.997594  1
  Pd  Pd24  1  0.327208  0.671697  0.502578  1
  Pd  Pd25  1  0.670798  0.328642  0.502349  1
  Pd  Pd26  1  0.001471  0.000974  0.997984  1
  Pd  Pd27  1  0.000600  0.001041  0.502328  1
