# generated using pymatgen
data_Hf4Si3WC
_symmetry_space_group_name_H-M   'P 1'
_cell_length_a   7.76213300
_cell_length_b   7.76213380
_cell_length_c   5.46714000
_cell_angle_alpha   90.00000000
_cell_angle_beta   90.00000000
_cell_angle_gamma   120.00000085
_symmetry_Int_Tables_number   1
_chemical_formula_structural   Hf4Si3WC
_chemical_formula_sum   'Hf8 Si6 W2 C2'
_cell_volume   285.26798053
_cell_formula_units_Z   2
loop_
 _symmetry_equiv_pos_site_id
 _symmetry_equiv_pos_as_xyz
  1  'x, y, z'
loop_
 _atom_site_type_symbol
 _atom_site_label
 _atom_site_symmetry_multiplicity
 _atom_site_fract_x
 _atom_site_fract_y
 _atom_site_fract_z
 _atom_site_occupancy
  Hf  Hf0  1  0.235780  0.000000  0.251188  1
  Hf  Hf1  1  0.764220  0.000000  0.748812  1
  Hf  Hf2  1  0.000000  0.235780  0.251188  1
  Hf  Hf3  1  0.000000  0.764220  0.748812  1
  Hf  Hf4  1  0.764220  0.764220  0.251188  1
  Hf  Hf5  1  0.235780  0.235780  0.748812  1
  Hf  Hf6  1  0.666667  0.333333  0.500000  1
  Hf  Hf7  1  0.333333  0.666667  0.500000  1
  Si  Si8  1  0.592481  0.000000  0.228221  1
  Si  Si9  1  0.407519  0.000000  0.771779  1
  Si  Si10  1  0.000000  0.592481  0.228221  1
  Si  Si11  1  0.000000  0.407519  0.771779  1
  Si  Si12  1  0.407519  0.407519  0.228221  1
  Si  Si13  1  0.592481  0.592481  0.771779  1
  W  W14  1  0.333333  0.666667  0.000000  1
  W  W15  1  0.666667  0.333333  0.000000  1
  C  C16  1  0.000000  0.000000  0.000000  1
  C  C17  1  0.000000  0.000000  0.500000  1
