# generated using pymatgen
data_Li3Ta(ZnPt2)4
_symmetry_space_group_name_H-M   'P 1'
_cell_length_a   5.72608600
_cell_length_b   5.72614600
_cell_length_c   7.10400700
_cell_angle_alpha   89.99986513
_cell_angle_beta   90.00056858
_cell_angle_gamma   89.99997999
_symmetry_Int_Tables_number   1
_chemical_formula_structural   Li3Ta(ZnPt2)4
_chemical_formula_sum   'Li3 Ta1 Zn4 Pt8'
_cell_volume   232.92905469
_cell_formula_units_Z   1
loop_
 _symmetry_equiv_pos_site_id
 _symmetry_equiv_pos_as_xyz
  1  'x, y, z'
loop_
 _atom_site_type_symbol
 _atom_site_label
 _atom_site_symmetry_multiplicity
 _atom_site_fract_x
 _atom_site_fract_y
 _atom_site_fract_z
 _atom_site_occupancy
  Li  Li0  1  0.750256  0.249994  0.000005  1
  Li  Li1  1  0.249719  0.750000  0.999996  1
  Li  Li2  1  0.250269  0.749993  0.500003  1
  Ta  Ta3  1  0.749904  0.250012  0.499988  1
  Zn  Zn4  1  0.249938  0.249992  0.999992  1
  Zn  Zn5  1  0.750024  0.749999  0.000006  1
  Zn  Zn6  1  0.749955  0.750011  0.499997  1
  Zn  Zn7  1  0.249990  0.249994  0.500016  1
  Pt  Pt8  1  0.498027  0.998060  0.248454  1
  Pt  Pt9  1  0.498029  0.501940  0.248450  1
  Pt  Pt10  1  0.001938  0.998043  0.248589  1
  Pt  Pt11  1  0.001941  0.501958  0.248587  1
  Pt  Pt12  1  0.001944  0.998042  0.751409  1
  Pt  Pt13  1  0.001947  0.501958  0.751411  1
  Pt  Pt14  1  0.498060  0.998064  0.751548  1
  Pt  Pt15  1  0.498060  0.501939  0.751551  1
