# generated using pymatgen
data_DyEr5(Al3Ru)8
_symmetry_space_group_name_H-M   'P 1'
_cell_length_a   8.76948110
_cell_length_b   8.77173085
_cell_length_c   9.58104200
_cell_angle_alpha   90.00000000
_cell_angle_beta   90.00000000
_cell_angle_gamma   120.00848386
_symmetry_Int_Tables_number   1
_chemical_formula_structural   DyEr5(Al3Ru)8
_chemical_formula_sum   'Dy1 Er5 Al24 Ru8'
_cell_volume   638.21269063
_cell_formula_units_Z   1
loop_
 _symmetry_equiv_pos_site_id
 _symmetry_equiv_pos_as_xyz
  1  'x, y, z'
loop_
 _atom_site_type_symbol
 _atom_site_label
 _atom_site_symmetry_multiplicity
 _atom_site_fract_x
 _atom_site_fract_y
 _atom_site_fract_z
 _atom_site_occupancy
  Dy  Dy0  1  0.386649  0.193324  0.750000  1
  Er  Er1  1  0.194108  0.805945  0.250000  1
  Er  Er2  1  0.194108  0.388163  0.250000  1
  Er  Er3  1  0.611966  0.805983  0.250000  1
  Er  Er4  1  0.806005  0.194123  0.750000  1
  Er  Er5  1  0.806005  0.611882  0.750000  1
  Al  Al6  1  0.561491  0.438739  0.250000  1
  Al  Al7  1  0.561491  0.122752  0.250000  1
  Al  Al8  1  0.877418  0.438709  0.250000  1
  Al  Al9  1  0.438699  0.561920  0.750000  1
  Al  Al10  1  0.438699  0.876780  0.750000  1
  Al  Al11  1  0.122622  0.561311  0.750000  1
  Al  Al12  1  0.325761  0.162880  0.422057  1
  Al  Al13  1  0.837226  0.162863  0.422394  1
  Al  Al14  1  0.837226  0.674363  0.422394  1
  Al  Al15  1  0.674374  0.837187  0.577347  1
  Al  Al16  1  0.162709  0.836772  0.577264  1
  Al  Al17  1  0.162709  0.325937  0.577264  1
  Al  Al18  1  0.674374  0.837187  0.922653  1
  Al  Al19  1  0.162709  0.836772  0.922736  1
  Al  Al20  1  0.162709  0.325937  0.922736  1
  Al  Al21  1  0.325761  0.162880  0.077943  1
  Al  Al22  1  0.837226  0.162863  0.077606  1
  Al  Al23  1  0.837226  0.674363  0.077606  1
  Al  Al24  1  0.666886  0.333443  0.517697  1
  Al  Al25  1  0.333369  0.666685  0.481782  1
  Al  Al26  1  0.333369  0.666685  0.018218  1
  Al  Al27  1  0.666886  0.333443  0.982303  1
  Al  Al28  1  0.000129  0.000064  0.250000  1
  Al  Al29  1  0.998805  0.999403  0.750000  1
  Ru  Ru30  1  0.000198  0.000099  0.499995  1
  Ru  Ru31  1  0.000198  0.000099  0.000005  1
  Ru  Ru32  1  0.500149  0.500389  0.499689  1
  Ru  Ru33  1  0.500149  0.999760  0.499689  1
  Ru  Ru34  1  0.000146  0.500073  0.499916  1
  Ru  Ru35  1  0.500149  0.500389  0.000311  1
  Ru  Ru36  1  0.500149  0.999760  0.000311  1
  Ru  Ru37  1  0.000146  0.500073  0.000084  1
