# generated using pymatgen
data_Rb2PdSe10
_symmetry_space_group_name_H-M   'P 1'
_cell_length_a   13.22107085
_cell_length_b   13.22107136
_cell_length_c   13.22107100
_cell_angle_alpha   103.14785371
_cell_angle_beta   103.14785423
_cell_angle_gamma   123.02948617
_symmetry_Int_Tables_number   1
_chemical_formula_structural   Rb2PdSe10
_chemical_formula_sum   'Rb8 Pd4 Se40'
_cell_volume   1702.96321137
_cell_formula_units_Z   4
loop_
 _symmetry_equiv_pos_site_id
 _symmetry_equiv_pos_as_xyz
  1  'x, y, z'
loop_
 _atom_site_type_symbol
 _atom_site_label
 _atom_site_symmetry_multiplicity
 _atom_site_fract_x
 _atom_site_fract_y
 _atom_site_fract_z
 _atom_site_occupancy
  Rb  Rb0  1  0.849620  0.655272  0.006785  1
  Rb  Rb1  1  0.400380  0.907165  0.305652  1
  Rb  Rb2  1  0.905272  0.599620  0.506785  1
  Rb  Rb3  1  0.601513  0.094728  0.694348  1
  Rb  Rb4  1  0.092835  0.398487  0.493215  1
  Rb  Rb5  1  0.344728  0.351513  0.194348  1
  Rb  Rb6  1  0.648487  0.842835  0.993215  1
  Rb  Rb7  1  0.157165  0.150380  0.805652  1
  Pd  Pd8  1  0.750000  0.250000  0.500000  1
  Pd  Pd9  1  0.250000  0.750000  0.500000  1
  Pd  Pd10  1  0.500000  0.500000  0.000000  1
  Pd  Pd11  1  0.000000  0.000000  0.000000  1
  Se  Se12  1  0.081174  0.129916  0.326984  1
  Se  Se13  1  0.407703  0.765447  0.658570  1
  Se  Se14  1  0.321958  0.268553  0.421963  1
  Se  Se15  1  0.232458  0.515054  0.808334  1
  Se  Se16  1  0.518553  0.071958  0.921963  1
  Se  Se17  1  0.575877  0.767542  0.282596  1
  Se  Se18  1  0.928042  0.850006  0.446597  1
  Se  Se19  1  0.403410  0.481447  0.553403  1
  Se  Se20  1  0.447068  0.620084  0.451258  1
  Se  Se21  1  0.234553  0.893122  0.642256  1
  Se  Se22  1  0.149994  0.596590  0.078037  1
  Se  Se23  1  0.106878  0.749134  0.341430  1
  Se  Se24  1  0.870084  0.197068  0.951258  1
  Se  Se25  1  0.650193  0.567675  0.197129  1
  Se  Se26  1  0.379916  0.831174  0.826984  1
  Se  Se27  1  0.817675  0.400193  0.697129  1
  Se  Se28  1  0.143122  0.984553  0.142256  1
  Se  Se29  1  0.599807  0.296936  0.417483  1
  Se  Se30  1  0.004190  0.552932  0.173016  1
  Se  Se31  1  0.765054  0.982458  0.308334  1
  Se  Se32  1  0.168826  0.995810  0.548742  1
  Se  Se33  1  0.250866  0.592297  0.357744  1
  Se  Se34  1  0.674123  0.456720  0.691666  1
  Se  Se35  1  0.846590  0.899994  0.578037  1
  Se  Se36  1  0.015447  0.157703  0.158570  1
  Se  Se37  1  0.370547  0.453064  0.802871  1
  Se  Se38  1  0.879453  0.182325  0.582517  1
  Se  Se39  1  0.546936  0.349807  0.917483  1
  Se  Se40  1  0.999134  0.856878  0.841430  1
  Se  Se41  1  0.543280  0.234946  0.217404  1
  Se  Se42  1  0.731447  0.153410  0.053403  1
  Se  Se43  1  0.802932  0.754190  0.673016  1
  Se  Se44  1  0.484946  0.293280  0.717404  1
  Se  Se45  1  0.432325  0.629453  0.082517  1
  Se  Se46  1  0.703064  0.120547  0.302871  1
  Se  Se47  1  0.842297  0.000866  0.857744  1
  Se  Se48  1  0.100006  0.678042  0.946597  1
  Se  Se49  1  0.706720  0.424123  0.191666  1
  Se  Se50  1  0.017542  0.325877  0.782596  1
  Se  Se51  1  0.245810  0.918826  0.048742  1
