# generated using pymatgen
data_Pr7Ho(Sc3Pb4)4
_symmetry_space_group_name_H-M   'P 1'
_cell_length_a   8.06285379
_cell_length_b   15.35026764
_cell_length_c   8.12489673
_cell_angle_alpha   89.81857805
_cell_angle_beta   90.13363010
_cell_angle_gamma   90.32462757
_symmetry_Int_Tables_number   1
_chemical_formula_structural   Pr7Ho(Sc3Pb4)4
_chemical_formula_sum   'Pr7 Ho1 Sc12 Pb16'
_cell_volume   1005.56992326
_cell_formula_units_Z   1
loop_
 _symmetry_equiv_pos_site_id
 _symmetry_equiv_pos_as_xyz
  1  'x, y, z'
loop_
 _atom_site_type_symbol
 _atom_site_label
 _atom_site_symmetry_multiplicity
 _atom_site_fract_x
 _atom_site_fract_y
 _atom_site_fract_z
 _atom_site_occupancy
  Pr  Pr0  1  0.476331  0.595539  0.677652  1
  Pr  Pr1  1  0.977440  0.905167  0.823809  1
  Pr  Pr2  1  0.523480  0.095259  0.323709  1
  Pr  Pr3  1  0.024255  0.405432  0.175318  1
  Pr  Pr4  1  0.523591  0.405548  0.322821  1
  Pr  Pr5  1  0.023502  0.095301  0.176131  1
  Pr  Pr6  1  0.475807  0.903085  0.676953  1
  Ho  Ho7  1  0.972591  0.596470  0.823057  1
  Sc  Sc8  1  0.636303  0.624631  0.155526  1
  Sc  Sc9  1  0.136544  0.873569  0.344116  1
  Sc  Sc10  1  0.363076  0.125094  0.843097  1
  Sc  Sc11  1  0.864129  0.375556  0.657924  1
  Sc  Sc12  1  0.365216  0.375662  0.843512  1
  Sc  Sc13  1  0.863114  0.125258  0.656627  1
  Sc  Sc14  1  0.637329  0.874453  0.156524  1
  Sc  Sc15  1  0.136726  0.625357  0.343358  1
  Sc  Sc16  1  0.804246  0.749233  0.491999  1
  Sc  Sc17  1  0.302806  0.749019  0.006920  1
  Sc  Sc18  1  0.196301  0.250273  0.508412  1
  Sc  Sc19  1  0.696872  0.250486  0.991968  1
  Pb  Pb20  1  0.701616  0.457049  0.951447  1
  Pb  Pb21  1  0.196807  0.044905  0.546471  1
  Pb  Pb22  1  0.303939  0.954318  0.047470  1
  Pb  Pb23  1  0.804849  0.545763  0.457154  1
  Pb  Pb24  1  0.297203  0.546512  0.042565  1
  Pb  Pb25  1  0.803174  0.954391  0.453527  1
  Pb  Pb26  1  0.696454  0.045261  0.953058  1
  Pb  Pb27  1  0.195976  0.455259  0.547202  1
  Pb  Pb28  1  0.442407  0.749630  0.363605  1
  Pb  Pb29  1  0.942476  0.749401  0.134494  1
  Pb  Pb30  1  0.557859  0.250332  0.636327  1
  Pb  Pb31  1  0.058060  0.250106  0.864077  1
  Pb  Pb32  1  0.666791  0.749056  0.853079  1
  Pb  Pb33  1  0.160319  0.747175  0.650613  1
  Pb  Pb34  1  0.336204  0.250166  0.146453  1
  Pb  Pb35  1  0.836209  0.250284  0.353027  1
