# generated using pymatgen
data_Rb3Fe(IO3)6
_symmetry_space_group_name_H-M   'P 1'
_cell_length_a   7.12321674
_cell_length_b   7.14249968
_cell_length_c   10.76023550
_cell_angle_alpha   87.93895897
_cell_angle_beta   108.19540986
_cell_angle_gamma   107.15636039
_symmetry_Int_Tables_number   1
_chemical_formula_structural   Rb3Fe(IO3)6
_chemical_formula_sum   'Rb3 Fe1 I6 O18'
_cell_volume   495.98696175
_cell_formula_units_Z   1
loop_
 _symmetry_equiv_pos_site_id
 _symmetry_equiv_pos_as_xyz
  1  'x, y, z'
loop_
 _atom_site_type_symbol
 _atom_site_label
 _atom_site_symmetry_multiplicity
 _atom_site_fract_x
 _atom_site_fract_y
 _atom_site_fract_z
 _atom_site_occupancy
  Rb  Rb0  1  0.000000  0.000000  0.000000  1
  Rb  Rb1  1  0.831743  0.023801  0.601036  1
  Rb  Rb2  1  0.168257  0.976199  0.398964  1
  Fe  Fe3  1  0.500000  0.500000  0.000000  1
  I  I4  1  0.021178  0.472453  0.188121  1
  I  I5  1  0.978822  0.527547  0.811879  1
  I  I6  1  0.554940  0.952044  0.187964  1
  I  I7  1  0.445060  0.047956  0.812036  1
  I  I8  1  0.411850  0.549438  0.642908  1
  I  I9  1  0.588150  0.450562  0.357092  1
  O  O10  1  0.814798  0.536616  0.049601  1
  O  O11  1  0.185202  0.463384  0.950399  1
  O  O12  1  0.955120  0.549603  0.324757  1
  O  O13  1  0.044880  0.450397  0.675243  1
  O  O14  1  0.916523  0.204679  0.184794  1
  O  O15  1  0.083477  0.795321  0.815206  1
  O  O16  1  0.566891  0.800279  0.052964  1
  O  O17  1  0.433109  0.199721  0.947036  1
  O  O18  1  0.287062  0.842343  0.186651  1
  O  O19  1  0.712938  0.157657  0.813349  1
  O  O20  1  0.694144  0.840582  0.328461  1
  O  O21  1  0.305856  0.159418  0.671539  1
  O  O22  1  0.521105  0.592760  0.825067  1
  O  O23  1  0.478895  0.407240  0.174933  1
  O  O24  1  0.665047  0.568202  0.621352  1
  O  O25  1  0.334953  0.431798  0.378648  1
  O  O26  1  0.409734  0.801925  0.610176  1
  O  O27  1  0.590266  0.198075  0.389824  1
