# generated using pymatgen
data_Nd4Ga18Ir5Pt
_symmetry_space_group_name_H-M   'P 1'
_cell_length_a   7.66596326
_cell_length_b   7.66595941
_cell_length_c   9.59674126
_cell_angle_alpha   90.02927437
_cell_angle_beta   90.02927159
_cell_angle_gamma   119.75713558
_symmetry_Int_Tables_number   1
_chemical_formula_structural   Nd4Ga18Ir5Pt
_chemical_formula_sum   'Nd4 Ga18 Ir5 Pt1'
_cell_volume   489.60413922
_cell_formula_units_Z   1
loop_
 _symmetry_equiv_pos_site_id
 _symmetry_equiv_pos_as_xyz
  1  'x, y, z'
loop_
 _atom_site_type_symbol
 _atom_site_label
 _atom_site_symmetry_multiplicity
 _atom_site_fract_x
 _atom_site_fract_y
 _atom_site_fract_z
 _atom_site_occupancy
  Nd  Nd0  1  0.996866  0.668673  0.250582  1
  Nd  Nd1  1  0.003134  0.331327  0.749418  1
  Nd  Nd2  1  0.668673  0.996866  0.250582  1
  Nd  Nd3  1  0.331327  0.003134  0.749418  1
  Ga  Ga4  1  0.129799  0.129799  0.252340  1
  Ga  Ga5  1  0.870201  0.870201  0.747660  1
  Ga  Ga6  1  0.000949  0.337532  0.079747  1
  Ga  Ga7  1  0.999051  0.662468  0.920253  1
  Ga  Ga8  1  0.999210  0.665663  0.577742  1
  Ga  Ga9  1  0.334337  0.000790  0.422258  1
  Ga  Ga10  1  0.000790  0.334337  0.422258  1
  Ga  Ga11  1  0.665663  0.999210  0.577742  1
  Ga  Ga12  1  0.662468  0.999051  0.920253  1
  Ga  Ga13  1  0.337532  0.000949  0.079747  1
  Ga  Ga14  1  0.333323  0.333323  0.560534  1
  Ga  Ga15  1  0.666677  0.666677  0.439466  1
  Ga  Ga16  1  0.662644  0.662644  0.062202  1
  Ga  Ga17  1  0.337356  0.337356  0.937798  1
  Ga  Ga18  1  0.338600  0.544988  0.250213  1
  Ga  Ga19  1  0.661400  0.455012  0.749787  1
  Ga  Ga20  1  0.544988  0.338600  0.250213  1
  Ga  Ga21  1  0.455012  0.661400  0.749787  1
  Ir  Ir22  1  0.670890  0.329110  0.000000  1
  Ir  Ir23  1  0.329110  0.670890  0.000000  1
  Ir  Ir24  1  0.329189  0.670811  0.500000  1
  Ir  Ir25  1  0.670811  0.329189  0.500000  1
  Ir  Ir26  1  0.000000  0.000000  0.500000  1
  Pt  Pt27  1  0.000000  0.000000  0.000000  1
