# generated using pymatgen
data_Nd3Th5(ZnRu)8
_symmetry_space_group_name_H-M   'P 1'
_cell_length_a   3.92734000
_cell_length_b   7.48939452
_cell_length_c   16.40422636
_cell_angle_alpha   90.43524861
_cell_angle_beta   90.00000000
_cell_angle_gamma   90.00000000
_symmetry_Int_Tables_number   1
_chemical_formula_structural   Nd3Th5(ZnRu)8
_chemical_formula_sum   'Nd3 Th5 Zn8 Ru8'
_cell_volume   482.49012800
_cell_formula_units_Z   1
loop_
 _symmetry_equiv_pos_site_id
 _symmetry_equiv_pos_as_xyz
  1  'x, y, z'
loop_
 _atom_site_type_symbol
 _atom_site_label
 _atom_site_symmetry_multiplicity
 _atom_site_fract_x
 _atom_site_fract_y
 _atom_site_fract_z
 _atom_site_occupancy
  Nd  Nd0  1  0.750000  0.447418  0.215352  1
  Nd  Nd1  1  0.250000  0.052591  0.714986  1
  Nd  Nd2  1  0.250000  0.551165  0.784642  1
  Th  Th3  1  0.250000  0.174300  0.937235  1
  Th  Th4  1  0.250000  0.672171  0.562576  1
  Th  Th5  1  0.750000  0.326731  0.438848  1
  Th  Th6  1  0.750000  0.947951  0.283937  1
  Th  Th7  1  0.750000  0.831255  0.060472  1
  Zn  Zn8  1  0.750000  0.005806  0.559464  1
  Zn  Zn9  1  0.250000  0.616118  0.346903  1
  Zn  Zn10  1  0.750000  0.378655  0.653237  1
  Zn  Zn11  1  0.250000  0.496777  0.060157  1
  Zn  Zn12  1  0.750000  0.506839  0.940409  1
  Zn  Zn13  1  0.250000  0.991761  0.442850  1
  Zn  Zn14  1  0.250000  0.126945  0.150695  1
  Zn  Zn15  1  0.750000  0.878318  0.846714  1
  Ru  Ru16  1  0.750000  0.743725  0.438124  1
  Ru  Ru17  1  0.250000  0.230800  0.317985  1
  Ru  Ru18  1  0.750000  0.247734  0.819933  1
  Ru  Ru19  1  0.750000  0.749130  0.679972  1
  Ru  Ru20  1  0.250000  0.258305  0.558637  1
  Ru  Ru21  1  0.250000  0.760568  0.186124  1
  Ru  Ru22  1  0.750000  0.247610  0.058563  1
  Ru  Ru23  1  0.250000  0.757325  0.942184  1
