# generated using pymatgen
data_Ho11ErCo5Sn
_symmetry_space_group_name_H-M   'P 1'
_cell_length_a   8.21919494
_cell_length_b   8.21915492
_cell_length_c   8.22062778
_cell_angle_alpha   110.82873539
_cell_angle_beta   110.77492119
_cell_angle_gamma   106.83326672
_symmetry_Int_Tables_number   1
_chemical_formula_structural   Ho11ErCo5Sn
_chemical_formula_sum   'Ho11 Er1 Co5 Sn1'
_cell_volume   426.87352466
_cell_formula_units_Z   1
loop_
 _symmetry_equiv_pos_site_id
 _symmetry_equiv_pos_as_xyz
  1  'x, y, z'
loop_
 _atom_site_type_symbol
 _atom_site_label
 _atom_site_symmetry_multiplicity
 _atom_site_fract_x
 _atom_site_fract_y
 _atom_site_fract_z
 _atom_site_occupancy
  Ho  Ho0  1  0.185864  0.290930  0.476827  1
  Ho  Ho1  1  0.185409  0.709158  0.894607  1
  Ho  Ho2  1  0.814207  0.291041  0.105282  1
  Ho  Ho3  1  0.686140  0.380780  0.694230  1
  Ho  Ho4  1  0.313974  0.619346  0.305649  1
  Ho  Ho5  1  0.686266  0.991650  0.305654  1
  Ho  Ho6  1  0.313419  0.008076  0.694248  1
  Ho  Ho7  1  0.597298  0.790305  0.806763  1
  Ho  Ho8  1  0.402942  0.209943  0.193246  1
  Ho  Ho9  1  0.983315  0.790300  0.193277  1
  Ho  Ho10  1  0.016465  0.209457  0.806776  1
  Er  Er11  1  0.814230  0.709215  0.523552  1
  Co  Co12  1  0.623752  0.999726  0.623501  1
  Co  Co13  1  0.376194  0.999945  0.376173  1
  Co  Co14  1  0.111983  0.612659  0.499934  1
  Co  Co15  1  0.887281  0.387957  0.499925  1
  Co  Co16  1  0.999961  0.999632  0.999604  1
  Sn  Sn17  1  0.501299  0.499880  0.000753  1
