# generated using pymatgen
data_ErLuB6MoW
_symmetry_space_group_name_H-M   'P 1'
_cell_length_a   3.14966700
_cell_length_b   5.40207632
_cell_length_c   6.78167417
_cell_angle_alpha   78.44278023
_cell_angle_beta   90.00000000
_cell_angle_gamma   90.00000000
_symmetry_Int_Tables_number   1
_chemical_formula_structural   ErLuB6MoW
_chemical_formula_sum   'Er1 Lu1 B6 Mo1 W1'
_cell_volume   113.04894562
_cell_formula_units_Z   1
loop_
 _symmetry_equiv_pos_site_id
 _symmetry_equiv_pos_as_xyz
  1  'x, y, z'
loop_
 _atom_site_type_symbol
 _atom_site_label
 _atom_site_symmetry_multiplicity
 _atom_site_fract_x
 _atom_site_fract_y
 _atom_site_fract_z
 _atom_site_occupancy
  Er  Er0  1  0.750000  0.824504  0.707471  1
  Lu  Lu1  1  0.250000  0.179067  0.288480  1
  B  B2  1  0.250000  0.581376  0.475431  1
  B  B3  1  0.750000  0.413474  0.522166  1
  B  B4  1  0.250000  0.587204  0.996218  1
  B  B5  1  0.750000  0.412217  0.006605  1
  B  B6  1  0.250000  0.917127  0.993609  1
  B  B7  1  0.750000  0.083878  0.009328  1
  Mo  Mo8  1  0.250000  0.310617  0.778842  1
  W  W9  1  0.750000  0.690536  0.221848  1
