# generated using pymatgen
data_Y4Er2MnSi24Ru7
_symmetry_space_group_name_H-M   'P 1'
_cell_length_a   10.09698141
_cell_length_b   10.09698199
_cell_length_c   8.10430502
_cell_angle_alpha   90.02868106
_cell_angle_beta   90.02867550
_cell_angle_gamma   132.64514021
_symmetry_Int_Tables_number   1
_chemical_formula_structural   Y4Er2MnSi24Ru7
_chemical_formula_sum   'Y4 Er2 Mn1 Si24 Ru7'
_cell_volume   607.74136893
_cell_formula_units_Z   1
loop_
 _symmetry_equiv_pos_site_id
 _symmetry_equiv_pos_as_xyz
  1  'x, y, z'
loop_
 _atom_site_type_symbol
 _atom_site_label
 _atom_site_symmetry_multiplicity
 _atom_site_fract_x
 _atom_site_fract_y
 _atom_site_fract_z
 _atom_site_occupancy
  Y  Y0  1  0.498185  0.997555  0.248744  1
  Y  Y1  1  0.003022  0.501898  0.750905  1
  Y  Y2  1  0.501898  0.003022  0.750905  1
  Y  Y3  1  0.997555  0.498185  0.248744  1
  Er  Er4  1  0.501873  0.501873  0.500770  1
  Er  Er5  1  0.999206  0.999206  0.997755  1
  Mn  Mn6  1  0.624817  0.624817  0.874581  1
  Si  Si7  1  0.387134  0.154320  0.004951  1
  Si  Si8  1  0.654360  0.887294  0.494584  1
  Si  Si9  1  0.112845  0.345433  0.506184  1
  Si  Si10  1  0.842046  0.614603  0.989364  1
  Si  Si11  1  0.614603  0.842046  0.989364  1
  Si  Si12  1  0.345433  0.112845  0.506184  1
  Si  Si13  1  0.887294  0.654360  0.494584  1
  Si  Si14  1  0.154320  0.387134  0.004951  1
  Si  Si15  1  0.612122  0.378421  0.228999  1
  Si  Si16  1  0.877381  0.110382  0.271084  1
  Si  Si17  1  0.888771  0.121909  0.728896  1
  Si  Si18  1  0.624340  0.396349  0.772221  1
  Si  Si19  1  0.396349  0.624340  0.772221  1
  Si  Si20  1  0.121909  0.888771  0.728896  1
  Si  Si21  1  0.704440  0.294700  0.000091  1
  Si  Si22  1  0.794836  0.205036  0.500013  1
  Si  Si23  1  0.294700  0.704440  0.000091  1
  Si  Si24  1  0.205036  0.794836  0.500013  1
  Si  Si25  1  0.166698  0.166698  0.333851  1
  Si  Si26  1  0.667831  0.667831  0.161035  1
  Si  Si27  1  0.338375  0.338375  0.832825  1
  Si  Si28  1  0.825819  0.825819  0.673458  1
  Si  Si29  1  0.378421  0.612122  0.228999  1
  Si  Si30  1  0.110382  0.877381  0.271084  1
  Ru  Ru31  1  0.125078  0.125078  0.628817  1
  Ru  Ru32  1  0.871777  0.871777  0.374360  1
  Ru  Ru33  1  0.373871  0.373871  0.127112  1
  Ru  Ru34  1  0.330771  0.669289  0.501828  1
  Ru  Ru35  1  0.167632  0.829575  0.999855  1
  Ru  Ru36  1  0.669289  0.330771  0.501828  1
  Ru  Ru37  1  0.829575  0.167632  0.999855  1
