# generated using pymatgen
data_La3Sn2BiRh3
_symmetry_space_group_name_H-M   'P 1'
_cell_length_a   7.66127468
_cell_length_b   7.66127305
_cell_length_c   4.19252200
_cell_angle_alpha   90.00000000
_cell_angle_beta   90.00000000
_cell_angle_gamma   119.41838684
_symmetry_Int_Tables_number   1
_chemical_formula_structural   La3Sn2BiRh3
_chemical_formula_sum   'La3 Sn2 Bi1 Rh3'
_cell_volume   214.35001376
_cell_formula_units_Z   1
loop_
 _symmetry_equiv_pos_site_id
 _symmetry_equiv_pos_as_xyz
  1  'x, y, z'
loop_
 _atom_site_type_symbol
 _atom_site_label
 _atom_site_symmetry_multiplicity
 _atom_site_fract_x
 _atom_site_fract_y
 _atom_site_fract_z
 _atom_site_occupancy
  La  La0  1  0.004947  0.586822  0.000000  1
  La  La1  1  0.409027  0.409027  0.000000  1
  La  La2  1  0.586822  0.004947  0.000000  1
  Sn  Sn3  1  0.002596  0.252701  0.500000  1
  Sn  Sn4  1  0.252701  0.002596  0.500000  1
  Bi  Bi5  1  0.748954  0.748954  0.500000  1
  Rh  Rh6  1  0.321715  0.662419  0.500000  1
  Rh  Rh7  1  0.662419  0.321715  0.500000  1
  Rh  Rh8  1  0.010819  0.010819  0.000000  1
