# generated using pymatgen
data_Cs2HfCu3F12
_symmetry_space_group_name_H-M   'P 1'
_cell_length_a   7.16631800
_cell_length_b   8.21230823
_cell_length_c   10.88961860
_cell_angle_alpha   99.81861421
_cell_angle_beta   90.00000000
_cell_angle_gamma   90.00000000
_symmetry_Int_Tables_number   1
_chemical_formula_structural   Cs2HfCu3F12
_chemical_formula_sum   'Cs4 Hf2 Cu6 F24'
_cell_volume   631.48876784
_cell_formula_units_Z   2
loop_
 _symmetry_equiv_pos_site_id
 _symmetry_equiv_pos_as_xyz
  1  'x, y, z'
loop_
 _atom_site_type_symbol
 _atom_site_label
 _atom_site_symmetry_multiplicity
 _atom_site_fract_x
 _atom_site_fract_y
 _atom_site_fract_z
 _atom_site_occupancy
  Cs  Cs0  1  0.503047  0.713649  0.392282  1
  Cs  Cs1  1  0.996953  0.213649  0.892282  1
  Cs  Cs2  1  0.496953  0.286351  0.607718  1
  Cs  Cs3  1  0.003047  0.786351  0.107718  1
  Hf  Hf4  1  0.500000  0.500000  0.000000  1
  Hf  Hf5  1  0.000000  0.000000  0.500000  1
  Cu  Cu6  1  0.500000  0.000000  0.000000  1
  Cu  Cu7  1  0.000000  0.500000  0.500000  1
  Cu  Cu8  1  0.236431  0.748087  0.755698  1
  Cu  Cu9  1  0.263569  0.248087  0.255698  1
  Cu  Cu10  1  0.763569  0.251913  0.244302  1
  Cu  Cu11  1  0.736431  0.751913  0.744302  1
  F  F12  1  0.290806  0.920081  0.894925  1
  F  F13  1  0.209194  0.420081  0.394925  1
  F  F14  1  0.709194  0.079919  0.105075  1
  F  F15  1  0.790806  0.579919  0.605075  1
  F  F16  1  0.816728  0.438991  0.371566  1
  F  F17  1  0.683272  0.938991  0.871566  1
  F  F18  1  0.183272  0.561009  0.628434  1
  F  F19  1  0.316728  0.061009  0.128434  1
  F  F20  1  0.482919  0.735309  0.684491  1
  F  F21  1  0.017081  0.235309  0.184491  1
  F  F22  1  0.517081  0.264691  0.315509  1
  F  F23  1  0.982919  0.764691  0.815509  1
  F  F24  1  0.775722  0.945515  0.596747  1
  F  F25  1  0.724278  0.445515  0.096747  1
  F  F26  1  0.224279  0.054485  0.403253  1
  F  F27  1  0.275721  0.554485  0.903253  1
  F  F28  1  0.328968  0.482360  0.143693  1
  F  F29  1  0.171032  0.982360  0.643693  1
  F  F30  1  0.671032  0.517640  0.856307  1
  F  F31  1  0.828968  0.017640  0.356307  1
  F  F32  1  0.459155  0.260783  0.925835  1
  F  F33  1  0.040845  0.760783  0.425835  1
  F  F34  1  0.540845  0.739217  0.074165  1
  F  F35  1  0.959155  0.239217  0.574165  1
