# generated using pymatgen
data_Dy5Er7Os3Ru
_symmetry_space_group_name_H-M   'P 1'
_cell_length_a   6.29736796
_cell_length_b   7.36246268
_cell_length_c   9.02689297
_cell_angle_alpha   89.94876702
_cell_angle_beta   89.84701645
_cell_angle_gamma   90.00957866
_symmetry_Int_Tables_number   1
_chemical_formula_structural   Dy5Er7Os3Ru
_chemical_formula_sum   'Dy5 Er7 Os3 Ru1'
_cell_volume   418.52243359
_cell_formula_units_Z   1
loop_
 _symmetry_equiv_pos_site_id
 _symmetry_equiv_pos_as_xyz
  1  'x, y, z'
loop_
 _atom_site_type_symbol
 _atom_site_label
 _atom_site_symmetry_multiplicity
 _atom_site_fract_x
 _atom_site_fract_y
 _atom_site_fract_z
 _atom_site_occupancy
  Dy  Dy0  1  0.168068  0.175645  0.063273  1
  Dy  Dy1  1  0.869146  0.541176  0.250341  1
  Dy  Dy2  1  0.632669  0.039201  0.250535  1
  Dy  Dy3  1  0.130300  0.460959  0.749528  1
  Dy  Dy4  1  0.369412  0.961044  0.749512  1
  Er  Er5  1  0.332997  0.674374  0.062769  1
  Er  Er6  1  0.168064  0.175179  0.437329  1
  Er  Er7  1  0.668703  0.324920  0.563084  1
  Er  Er8  1  0.830060  0.824129  0.935039  1
  Er  Er9  1  0.668761  0.325117  0.936596  1
  Er  Er10  1  0.830349  0.824422  0.564375  1
  Er  Er11  1  0.332680  0.674642  0.437342  1
  Os  Os12  1  0.459771  0.383384  0.250577  1
  Os  Os13  1  0.958125  0.116266  0.748912  1
  Os  Os14  1  0.541174  0.616728  0.750265  1
  Ru  Ru15  1  0.039718  0.882814  0.250524  1
