# generated using pymatgen
data_K2SbCl3F2
_symmetry_space_group_name_H-M   'P 1'
_cell_length_a   7.44692426
_cell_length_b   7.46361501
_cell_length_c   12.99143980
_cell_angle_alpha   84.66915633
_cell_angle_beta   78.73472599
_cell_angle_gamma   61.05611887
_symmetry_Int_Tables_number   1
_chemical_formula_structural   K2SbCl3F2
_chemical_formula_sum   'K6 Sb3 Cl9 F6'
_cell_volume   619.70975560
_cell_formula_units_Z   3
loop_
 _symmetry_equiv_pos_site_id
 _symmetry_equiv_pos_as_xyz
  1  'x, y, z'
loop_
 _atom_site_type_symbol
 _atom_site_label
 _atom_site_symmetry_multiplicity
 _atom_site_fract_x
 _atom_site_fract_y
 _atom_site_fract_z
 _atom_site_occupancy
  K  K0  1  0.306180  0.331434  0.089901  1
  K  K1  1  0.435673  0.340040  0.694457  1
  K  K2  1  0.098208  0.999317  0.684914  1
  K  K3  1  0.693820  0.668566  0.910099  1
  K  K4  1  0.564327  0.659960  0.305543  1
  K  K5  1  0.901792  0.000683  0.315086  1
  Sb  Sb6  1  0.198299  0.336557  0.397425  1
  Sb  Sb7  1  0.801701  0.663443  0.602575  1
  Sb  Sb8  1  0.000000  0.000000  0.000000  1
  Cl  Cl9  1  0.288505  0.772510  0.118840  1
  Cl  Cl10  1  0.191660  0.690780  0.498100  1
  Cl  Cl11  1  0.808340  0.309220  0.501900  1
  Cl  Cl12  1  0.862244  0.329992  0.118795  1
  Cl  Cl13  1  0.272654  0.098337  0.878935  1
  Cl  Cl14  1  0.711495  0.227490  0.881160  1
  Cl  Cl15  1  0.500000  0.000000  0.500000  1
  Cl  Cl16  1  0.727346  0.901663  0.121065  1
  Cl  Cl17  1  0.137756  0.670008  0.881205  1
  F  F18  1  0.558810  0.660490  0.699071  1
  F  F19  1  0.771197  0.875664  0.697727  1
  F  F20  1  0.009963  0.552261  0.306367  1
  F  F21  1  0.990037  0.447739  0.693633  1
  F  F22  1  0.228803  0.124336  0.302273  1
  F  F23  1  0.441190  0.339510  0.300929  1
