# generated using pymatgen
data_MnCo3S4
_symmetry_space_group_name_H-M   'P 1'
_cell_length_a   3.58200917
_cell_length_b   6.67413485
_cell_length_c   8.00000596
_cell_angle_alpha   119.30933493
_cell_angle_beta   116.64307479
_cell_angle_gamma   84.75208245
_symmetry_Int_Tables_number   1
_chemical_formula_structural   MnCo3S4
_chemical_formula_sum   'Mn1 Co3 S4'
_cell_volume   147.03811909
_cell_formula_units_Z   1
loop_
 _symmetry_equiv_pos_site_id
 _symmetry_equiv_pos_as_xyz
  1  'x, y, z'
loop_
 _atom_site_type_symbol
 _atom_site_label
 _atom_site_symmetry_multiplicity
 _atom_site_fract_x
 _atom_site_fract_y
 _atom_site_fract_z
 _atom_site_occupancy
  Mn  Mn0  1  0.917017  0.628005  0.623554  1
  Co  Co1  1  0.673964  0.636520  0.881628  1
  Co  Co2  1  0.422820  0.647972  0.132666  1
  Co  Co3  1  0.165661  0.635688  0.372940  1
  S  S4  1  0.606853  0.419922  0.276667  1
  S  S5  1  0.985941  0.859243  0.231993  1
  S  S6  1  0.104419  0.420320  0.775437  1
  S  S7  1  0.483099  0.851291  0.727821  1
