# generated using pymatgen
data_Tm10In8GaCo3
_symmetry_space_group_name_H-M   'P 1'
_cell_length_a   3.53668200
_cell_length_b   7.98719609
_cell_length_c   17.87266406
_cell_angle_alpha   90.30203970
_cell_angle_beta   90.00000000
_cell_angle_gamma   90.00000000
_symmetry_Int_Tables_number   1
_chemical_formula_structural   Tm10In8GaCo3
_chemical_formula_sum   'Tm10 In8 Ga1 Co3'
_cell_volume   504.86308515
_cell_formula_units_Z   1
loop_
 _symmetry_equiv_pos_site_id
 _symmetry_equiv_pos_as_xyz
  1  'x, y, z'
loop_
 _atom_site_type_symbol
 _atom_site_label
 _atom_site_symmetry_multiplicity
 _atom_site_fract_x
 _atom_site_fract_y
 _atom_site_fract_z
 _atom_site_occupancy
  Tm  Tm0  1  0.000000  0.114121  0.413143  1
  Tm  Tm1  1  0.000000  0.883651  0.591988  1
  Tm  Tm2  1  0.000000  0.387699  0.907583  1
  Tm  Tm3  1  0.000000  0.625640  0.078447  1
  Tm  Tm4  1  0.000000  0.215714  0.225657  1
  Tm  Tm5  1  0.000000  0.752617  0.776657  1
  Tm  Tm6  1  0.000000  0.252489  0.721899  1
  Tm  Tm7  1  0.000000  0.766899  0.284096  1
  Tm  Tm8  1  0.000000  0.001152  0.998744  1
  Tm  Tm9  1  0.000000  0.500392  0.501345  1
  In  In10  1  0.500000  0.419679  0.351671  1
  In  In11  1  0.500000  0.568348  0.651665  1
  In  In12  1  0.500000  0.070378  0.848214  1
  In  In13  1  0.500000  0.928151  0.149659  1
  In  In14  1  0.500000  0.296021  0.064709  1
  In  In15  1  0.500000  0.708596  0.926631  1
  In  In16  1  0.500000  0.202986  0.569426  1
  In  In17  1  0.500000  0.796486  0.434543  1
  Ga  Ga18  1  0.500000  0.523176  0.198733  1
  Co  Co19  1  0.500000  0.022446  0.305344  1
  Co  Co20  1  0.500000  0.981692  0.696335  1
  Co  Co21  1  0.500000  0.481668  0.803511  1
