# generated using pymatgen
data_La3Er2Bi3O14
_symmetry_space_group_name_H-M   'P 1'
_cell_length_a   6.71250396
_cell_length_b   6.79708917
_cell_length_c   7.87906850
_cell_angle_alpha   106.61503446
_cell_angle_beta   89.70614470
_cell_angle_gamma   98.79019679
_symmetry_Int_Tables_number   1
_chemical_formula_structural   La3Er2Bi3O14
_chemical_formula_sum   'La3 Er2 Bi3 O14'
_cell_volume   340.14843599
_cell_formula_units_Z   1
loop_
 _symmetry_equiv_pos_site_id
 _symmetry_equiv_pos_as_xyz
  1  'x, y, z'
loop_
 _atom_site_type_symbol
 _atom_site_label
 _atom_site_symmetry_multiplicity
 _atom_site_fract_x
 _atom_site_fract_y
 _atom_site_fract_z
 _atom_site_occupancy
  La  La0  1  0.268937  0.533613  0.882814  1
  La  La1  1  0.741539  0.459089  0.115802  1
  La  La2  1  0.752097  0.483432  0.618193  1
  Er  Er3  1  0.458973  0.009713  0.256807  1
  Er  Er4  1  0.535795  0.999487  0.747602  1
  Bi  Bi5  1  0.994138  0.998882  0.499444  1
  Bi  Bi6  1  0.998804  0.995926  0.997977  1
  Bi  Bi7  1  0.287744  0.542771  0.390042  1
  O  O8  1  0.447383  0.665413  0.179530  1
  O  O9  1  0.556548  0.342094  0.831853  1
  O  O10  1  0.303525  0.938839  0.951814  1
  O  O11  1  0.695306  0.055155  0.050488  1
  O  O12  1  0.297731  0.939176  0.519903  1
  O  O13  1  0.695561  0.068329  0.484330  1
  O  O14  1  0.535083  0.352253  0.341131  1
  O  O15  1  0.463271  0.653141  0.653036  1
  O  O16  1  0.927911  0.664859  0.940203  1
  O  O17  1  0.068270  0.319839  0.035649  1
  O  O18  1  0.069545  0.329298  0.619302  1
  O  O19  1  0.913635  0.668864  0.389087  1
  O  O20  1  0.869794  0.923417  0.731081  1
  O  O21  1  0.118410  0.056408  0.263910  1
