# generated using pymatgen
data_Ti4ZnAuN2
_symmetry_space_group_name_H-M   'P 1'
_cell_length_a   8.38358598
_cell_length_b   8.38358698
_cell_length_c   4.24826100
_cell_angle_alpha   90.00000000
_cell_angle_beta   90.00000000
_cell_angle_gamma   159.32300367
_symmetry_Int_Tables_number   1
_chemical_formula_structural   Ti4ZnAuN2
_chemical_formula_sum   'Ti4 Zn1 Au1 N2'
_cell_volume   105.43084220
_cell_formula_units_Z   1
loop_
 _symmetry_equiv_pos_site_id
 _symmetry_equiv_pos_as_xyz
  1  'x, y, z'
loop_
 _atom_site_type_symbol
 _atom_site_label
 _atom_site_symmetry_multiplicity
 _atom_site_fract_x
 _atom_site_fract_y
 _atom_site_fract_z
 _atom_site_occupancy
  Ti  Ti0  1  0.786247  0.213753  0.250000  1
  Ti  Ti1  1  0.212537  0.787463  0.750000  1
  Ti  Ti2  1  0.612801  0.387199  0.250000  1
  Ti  Ti3  1  0.385595  0.614405  0.750000  1
  Zn  Zn4  1  0.046454  0.953546  0.750000  1
  Au  Au5  1  0.957496  0.042504  0.250000  1
  N  N6  1  0.199669  0.800331  0.250000  1
  N  N7  1  0.799201  0.200799  0.750000  1
