# generated using pymatgen
data_Dy10Ir3PtRh2
_symmetry_space_group_name_H-M   'P 1'
_cell_length_a   10.92422615
_cell_length_b   10.92330000
_cell_length_c   6.36277909
_cell_angle_alpha   90.00000000
_cell_angle_beta   89.98056421
_cell_angle_gamma   90.00000000
_symmetry_Int_Tables_number   1
_chemical_formula_structural   Dy10Ir3PtRh2
_chemical_formula_sum   'Dy20 Ir6 Pt2 Rh4'
_cell_volume   759.26147476
_cell_formula_units_Z   2
loop_
 _symmetry_equiv_pos_site_id
 _symmetry_equiv_pos_as_xyz
  1  'x, y, z'
loop_
 _atom_site_type_symbol
 _atom_site_label
 _atom_site_symmetry_multiplicity
 _atom_site_fract_x
 _atom_site_fract_y
 _atom_site_fract_z
 _atom_site_occupancy
  Dy  Dy0  1  0.290910  0.089586  0.379131  1
  Dy  Dy1  1  0.290910  0.910414  0.879131  1
  Dy  Dy2  1  0.705740  0.090835  0.876790  1
  Dy  Dy3  1  0.705740  0.909165  0.376790  1
  Dy  Dy4  1  0.586091  0.790203  0.880684  1
  Dy  Dy5  1  0.586091  0.209797  0.380684  1
  Dy  Dy6  1  0.409961  0.790563  0.380154  1
  Dy  Dy7  1  0.409961  0.209437  0.880154  1
  Dy  Dy8  1  0.209456  0.410408  0.619438  1
  Dy  Dy9  1  0.209456  0.589592  0.119438  1
  Dy  Dy10  1  0.790280  0.413338  0.119274  1
  Dy  Dy11  1  0.790280  0.586662  0.619274  1
  Dy  Dy12  1  0.912139  0.707617  0.124372  1
  Dy  Dy13  1  0.912139  0.292383  0.624372  1
  Dy  Dy14  1  0.092142  0.707735  0.620226  1
  Dy  Dy15  1  0.092142  0.292265  0.120226  1
  Dy  Dy16  1  0.002775  0.999498  0.499909  1
  Dy  Dy17  1  0.002775  0.000502  0.999909  1
  Dy  Dy18  1  0.499840  0.499584  0.999961  1
  Dy  Dy19  1  0.499840  0.500416  0.499961  1
  Ir  Ir20  1  0.153099  0.154119  0.750016  1
  Ir  Ir21  1  0.153099  0.845881  0.250016  1
  Ir  Ir22  1  0.655318  0.345134  0.749599  1
  Ir  Ir23  1  0.655318  0.654866  0.249599  1
  Ir  Ir24  1  0.346057  0.345635  0.250357  1
  Ir  Ir25  1  0.346057  0.654365  0.750357  1
  Pt  Pt26  1  0.845627  0.153826  0.249931  1
  Pt  Pt27  1  0.845627  0.846174  0.749931  1
  Rh  Rh28  1  0.501110  0.999654  0.124967  1
  Rh  Rh29  1  0.501110  0.000346  0.624967  1
  Rh  Rh30  1  0.999456  0.500021  0.875192  1
  Rh  Rh31  1  0.999456  0.499979  0.375192  1
