# generated using pymatgen
data_Nd12Be2Br17
_symmetry_space_group_name_H-M   'P 1'
_cell_length_a   9.43834380
_cell_length_b   11.32960842
_cell_length_c   11.08020100
_cell_angle_alpha   94.21354372
_cell_angle_beta   104.79989397
_cell_angle_gamma   115.54004827
_symmetry_Int_Tables_number   1
_chemical_formula_structural   Nd12Be2Br17
_chemical_formula_sum   'Nd12 Be2 Br17'
_cell_volume   1010.43880555
_cell_formula_units_Z   1
loop_
 _symmetry_equiv_pos_site_id
 _symmetry_equiv_pos_as_xyz
  1  'x, y, z'
loop_
 _atom_site_type_symbol
 _atom_site_label
 _atom_site_symmetry_multiplicity
 _atom_site_fract_x
 _atom_site_fract_y
 _atom_site_fract_z
 _atom_site_occupancy
  Nd  Nd0  1  0.065025  0.526860  0.334917  1
  Nd  Nd1  1  0.991342  0.813737  0.569420  1
  Nd  Nd2  1  0.621096  0.235355  0.282185  1
  Nd  Nd3  1  0.008658  0.186263  0.430580  1
  Nd  Nd4  1  0.237088  0.671077  0.009448  1
  Nd  Nd5  1  0.296856  0.009141  0.917124  1
  Nd  Nd6  1  0.378904  0.764645  0.717815  1
  Nd  Nd7  1  0.934975  0.473140  0.665083  1
  Nd  Nd8  1  0.703144  0.990859  0.082876  1
  Nd  Nd9  1  0.157381  0.288194  0.140632  1
  Nd  Nd10  1  0.762912  0.328923  0.990552  1
  Nd  Nd11  1  0.842619  0.711806  0.859368  1
  Be  Be12  1  0.108250  0.736483  0.786807  1
  Be  Be13  1  0.891750  0.263517  0.213193  1
  Br  Br14  1  0.775857  0.527824  0.413708  1
  Br  Br15  1  0.634513  0.421828  0.742496  1
  Br  Br16  1  0.840840  0.898187  0.316322  1
  Br  Br17  1  0.313486  0.211717  0.366458  1
  Br  Br18  1  0.159160  0.101813  0.683678  1
  Br  Br19  1  0.589840  0.057592  0.822293  1
  Br  Br20  1  0.740007  0.168031  0.534557  1
  Br  Br21  1  0.537117  0.682353  0.949772  1
  Br  Br22  1  0.365487  0.578172  0.257504  1
  Br  Br23  1  0.224143  0.472176  0.586292  1
  Br  Br24  1  0.057182  0.370626  0.893483  1
  Br  Br25  1  0.462883  0.317647  0.050228  1
  Br  Br26  1  0.000000  0.000000  0.000000  1
  Br  Br27  1  0.259993  0.831969  0.465443  1
  Br  Br28  1  0.410160  0.942408  0.177707  1
  Br  Br29  1  0.686514  0.788283  0.633542  1
  Br  Br30  1  0.942818  0.629374  0.106517  1
