# generated using pymatgen
data_Y10BiPb5
_symmetry_space_group_name_H-M   'P 1'
_cell_length_a   9.09500600
_cell_length_b   9.09104624
_cell_length_c   6.61608500
_cell_angle_alpha   90.00000000
_cell_angle_beta   90.00000000
_cell_angle_gamma   120.01441676
_symmetry_Int_Tables_number   1
_chemical_formula_structural   Y10BiPb5
_chemical_formula_sum   'Y10 Bi1 Pb5'
_cell_volume   473.68044396
_cell_formula_units_Z   1
loop_
 _symmetry_equiv_pos_site_id
 _symmetry_equiv_pos_as_xyz
  1  'x, y, z'
loop_
 _atom_site_type_symbol
 _atom_site_label
 _atom_site_symmetry_multiplicity
 _atom_site_fract_x
 _atom_site_fract_y
 _atom_site_fract_z
 _atom_site_occupancy
  Y  Y0  1  0.331534  0.664487  0.000737  1
  Y  Y1  1  0.667048  0.335513  0.499263  1
  Y  Y2  1  0.667048  0.335513  0.000737  1
  Y  Y3  1  0.331534  0.664487  0.499263  1
  Y  Y4  1  0.237106  0.000000  0.250000  1
  Y  Y5  1  0.238175  0.238842  0.750000  1
  Y  Y6  1  0.999333  0.761158  0.750000  1
  Y  Y7  1  0.003502  0.240673  0.250000  1
  Y  Y8  1  0.762830  0.759327  0.250000  1
  Y  Y9  1  0.761421  0.000000  0.750000  1
  Bi  Bi10  1  0.607049  0.000000  0.250000  1
  Pb  Pb11  1  0.605672  0.606878  0.750000  1
  Pb  Pb12  1  0.998794  0.393122  0.750000  1
  Pb  Pb13  1  0.000307  0.605256  0.250000  1
  Pb  Pb14  1  0.395051  0.394744  0.250000  1
  Pb  Pb15  1  0.393598  0.000000  0.750000  1
