# generated using pymatgen
data_AlBiSeBr4
_symmetry_space_group_name_H-M   'P 1'
_cell_length_a   10.92826207
_cell_length_b   10.92825764
_cell_length_c   10.92818786
_cell_angle_alpha   107.36624542
_cell_angle_beta   107.36641380
_cell_angle_gamma   113.76859072
_symmetry_Int_Tables_number   1
_chemical_formula_structural   AlBiSeBr4
_chemical_formula_sum   'Al4 Bi4 Se4 Br16'
_cell_volume   1000.40656928
_cell_formula_units_Z   4
loop_
 _symmetry_equiv_pos_site_id
 _symmetry_equiv_pos_as_xyz
  1  'x, y, z'
loop_
 _atom_site_type_symbol
 _atom_site_label
 _atom_site_symmetry_multiplicity
 _atom_site_fract_x
 _atom_site_fract_y
 _atom_site_fract_z
 _atom_site_occupancy
  Al  Al0  1  0.593348  0.704646  0.725003  1
  Al  Al1  1  0.131656  0.406650  0.111293  1
  Al  Al2  1  0.979643  0.868344  0.274997  1
  Al  Al3  1  0.295357  0.020362  0.888707  1
  Bi  Bi4  1  0.807304  0.217630  0.294696  1
  Bi  Bi5  1  0.782370  0.077068  0.589675  1
  Bi  Bi6  1  0.922934  0.512609  0.705304  1
  Bi  Bi7  1  0.487393  0.192696  0.410325  1
  Se  Se8  1  0.013295  0.321034  0.584715  1
  Se  Se9  1  0.736320  0.428581  0.415285  1
  Se  Se10  1  0.571417  0.986707  0.307737  1
  Se  Se11  1  0.678970  0.263681  0.692263  1
  Br  Br12  1  0.833719  0.825431  0.394940  1
  Br  Br13  1  0.512203  0.808947  0.579627  1
  Br  Br14  1  0.832123  0.765357  0.744683  1
  Br  Br15  1  0.174569  0.569508  0.008286  1
  Br  Br16  1  0.561221  0.166281  0.991714  1
  Br  Br17  1  0.912554  0.167871  0.933231  1
  Br  Br18  1  0.020674  0.087441  0.255316  1
  Br  Br19  1  0.234640  0.979323  0.066770  1
  Br  Br20  1  0.229320  0.932576  0.420373  1
  Br  Br21  1  0.067424  0.487798  0.296738  1
  Br  Br22  1  0.201155  0.139808  0.788574  1
  Br  Br23  1  0.351234  0.412581  0.211426  1
  Br  Br24  1  0.191060  0.770685  0.703262  1
  Br  Br25  1  0.860190  0.648767  0.061351  1
  Br  Br26  1  0.430490  0.438779  0.605061  1
  Br  Br27  1  0.587416  0.798840  0.938650  1
