# generated using pymatgen
data_LiTm2Sc2(In2Rh)2
_symmetry_space_group_name_H-M   'P 1'
_cell_length_a   3.51884900
_cell_length_b   7.71873800
_cell_length_c   17.43354300
_cell_angle_alpha   90.00000000
_cell_angle_beta   90.00000000
_cell_angle_gamma   90.00000000
_symmetry_Int_Tables_number   1
_chemical_formula_structural   LiTm2Sc2(In2Rh)2
_chemical_formula_sum   'Li2 Tm4 Sc4 In8 Rh4'
_cell_volume   473.51374266
_cell_formula_units_Z   2
loop_
 _symmetry_equiv_pos_site_id
 _symmetry_equiv_pos_as_xyz
  1  'x, y, z'
loop_
 _atom_site_type_symbol
 _atom_site_label
 _atom_site_symmetry_multiplicity
 _atom_site_fract_x
 _atom_site_fract_y
 _atom_site_fract_z
 _atom_site_occupancy
  Li  Li0  1  0.000000  0.000000  0.000000  1
  Li  Li1  1  0.000000  0.500000  0.500000  1
  Tm  Tm2  1  0.000000  0.749733  0.782440  1
  Tm  Tm3  1  0.000000  0.250267  0.217560  1
  Tm  Tm4  1  0.000000  0.249733  0.717560  1
  Tm  Tm5  1  0.000000  0.750267  0.282440  1
  Sc  Sc6  1  0.000000  0.880405  0.583582  1
  Sc  Sc7  1  0.000000  0.119595  0.416418  1
  Sc  Sc8  1  0.000000  0.380405  0.916418  1
  Sc  Sc9  1  0.000000  0.619595  0.083582  1
  In  In10  1  0.500000  0.791548  0.440131  1
  In  In11  1  0.500000  0.208452  0.559869  1
  In  In12  1  0.500000  0.291548  0.059869  1
  In  In13  1  0.500000  0.708452  0.940131  1
  In  In14  1  0.500000  0.925167  0.144150  1
  In  In15  1  0.500000  0.074833  0.855850  1
  In  In16  1  0.500000  0.425167  0.355850  1
  In  In17  1  0.500000  0.574833  0.644150  1
  Rh  Rh18  1  0.500000  0.959820  0.690159  1
  Rh  Rh19  1  0.500000  0.040180  0.309841  1
  Rh  Rh20  1  0.500000  0.459820  0.809841  1
  Rh  Rh21  1  0.500000  0.540180  0.190159  1
