# generated using pymatgen
data_Dy6VCo16ReP12
_symmetry_space_group_name_H-M   'P 1'
_cell_length_a   3.70734500
_cell_length_b   10.53740600
_cell_length_c   12.20471400
_cell_angle_alpha   90.00000000
_cell_angle_beta   90.00000000
_cell_angle_gamma   90.00000000
_symmetry_Int_Tables_number   1
_chemical_formula_structural   Dy6VCo16ReP12
_chemical_formula_sum   'Dy6 V1 Co16 Re1 P12'
_cell_volume   476.78690943
_cell_formula_units_Z   1
loop_
 _symmetry_equiv_pos_site_id
 _symmetry_equiv_pos_as_xyz
  1  'x, y, z'
loop_
 _atom_site_type_symbol
 _atom_site_label
 _atom_site_symmetry_multiplicity
 _atom_site_fract_x
 _atom_site_fract_y
 _atom_site_fract_z
 _atom_site_occupancy
  Dy  Dy0  1  0.000000  0.500000  0.524535  1
  Dy  Dy1  1  0.500000  0.000000  0.477986  1
  Dy  Dy2  1  0.500000  0.818995  0.204825  1
  Dy  Dy3  1  0.500000  0.181005  0.204825  1
  Dy  Dy4  1  0.000000  0.681879  0.794737  1
  Dy  Dy5  1  0.000000  0.318121  0.794737  1
  V  V6  1  0.000000  0.000000  0.845276  1
  Co  Co7  1  0.500000  0.500000  0.701735  1
  Co  Co8  1  0.000000  0.000000  0.297952  1
  Co  Co9  1  0.000000  0.500000  0.987777  1
  Co  Co10  1  0.500000  0.000000  0.013342  1
  Co  Co11  1  0.500000  0.332936  0.990498  1
  Co  Co12  1  0.500000  0.667064  0.990498  1
  Co  Co13  1  0.000000  0.167939  0.007888  1
  Co  Co14  1  0.000000  0.832061  0.007888  1
  Co  Co15  1  0.500000  0.296645  0.430492  1
  Co  Co16  1  0.500000  0.703355  0.430492  1
  Co  Co17  1  0.000000  0.204439  0.568355  1
  Co  Co18  1  0.000000  0.795561  0.568355  1
  Co  Co19  1  0.500000  0.878470  0.708191  1
  Co  Co20  1  0.500000  0.121530  0.708191  1
  Co  Co21  1  0.000000  0.620620  0.291883  1
  Co  Co22  1  0.000000  0.379380  0.291883  1
  Re  Re23  1  0.500000  0.500000  0.156410  1
  P  P24  1  0.500000  0.500000  0.880613  1
  P  P25  1  0.000000  0.000000  0.117894  1
  P  P26  1  0.500000  0.500000  0.348746  1
  P  P27  1  0.000000  0.000000  0.654817  1
  P  P28  1  0.500000  0.310871  0.615595  1
  P  P29  1  0.500000  0.689129  0.615595  1
  P  P30  1  0.000000  0.188529  0.384096  1
  P  P31  1  0.000000  0.811471  0.384096  1
  P  P32  1  0.500000  0.846988  0.892281  1
  P  P33  1  0.500000  0.153012  0.892281  1
  P  P34  1  0.000000  0.654636  0.107617  1
  P  P35  1  0.000000  0.345364  0.107617  1
