# generated using pymatgen
data_CaDyEr3Tm3(B6Os)4
_symmetry_space_group_name_H-M   'P 1'
_cell_length_a   3.62944400
_cell_length_b   9.10609780
_cell_length_c   11.49528500
_cell_angle_alpha   89.91035245
_cell_angle_beta   90.00000000
_cell_angle_gamma   90.00000000
_symmetry_Int_Tables_number   1
_chemical_formula_structural   CaDyEr3Tm3(B6Os)4
_chemical_formula_sum   'Ca1 Dy1 Er3 Tm3 B24 Os4'
_cell_volume   379.91953234
_cell_formula_units_Z   1
loop_
 _symmetry_equiv_pos_site_id
 _symmetry_equiv_pos_as_xyz
  1  'x, y, z'
loop_
 _atom_site_type_symbol
 _atom_site_label
 _atom_site_symmetry_multiplicity
 _atom_site_fract_x
 _atom_site_fract_y
 _atom_site_fract_z
 _atom_site_occupancy
  Ca  Ca0  1  0.000000  0.678827  0.586139  1
  Dy  Dy1  1  0.000000  0.323147  0.414730  1
  Er  Er2  1  0.000000  0.820841  0.085194  1
  Er  Er3  1  0.000000  0.178443  0.913747  1
  Er  Er4  1  0.000000  0.942404  0.372248  1
  Tm  Tm5  1  0.000000  0.056040  0.628765  1
  Tm  Tm6  1  0.000000  0.443778  0.126776  1
  Tm  Tm7  1  0.000000  0.556907  0.871686  1
  B  B8  1  0.500000  0.553705  0.431991  1
  B  B9  1  0.500000  0.445567  0.567773  1
  B  B10  1  0.500000  0.053830  0.066852  1
  B  B11  1  0.500000  0.947008  0.934037  1
  B  B12  1  0.500000  0.748373  0.418015  1
  B  B13  1  0.500000  0.250745  0.581539  1
  B  B14  1  0.500000  0.248734  0.079981  1
  B  B15  1  0.500000  0.751916  0.919965  1
  B  B16  1  0.500000  0.790522  0.264718  1
  B  B17  1  0.500000  0.208185  0.734894  1
  B  B18  1  0.500000  0.290736  0.233129  1
  B  B19  1  0.500000  0.710039  0.767169  1
  B  B20  1  0.500000  0.630902  0.183901  1
  B  B21  1  0.500000  0.368545  0.815047  1
  B  B22  1  0.500000  0.130677  0.314496  1
  B  B23  1  0.500000  0.870054  0.686529  1
  B  B24  1  0.500000  0.982293  0.212309  1
  B  B25  1  0.500000  0.017923  0.788504  1
  B  B26  1  0.500000  0.482797  0.286160  1
  B  B27  1  0.500000  0.516771  0.713446  1
  B  B28  1  0.500000  0.606122  0.028881  1
  B  B29  1  0.500000  0.393584  0.970451  1
  B  B30  1  0.500000  0.103349  0.471731  1
  B  B31  1  0.500000  0.898229  0.528614  1
  Os  Os32  1  0.000000  0.637600  0.318452  1
  Os  Os33  1  0.000000  0.359851  0.680592  1
  Os  Os34  1  0.000000  0.137488  0.178230  1
  Os  Os35  1  0.000000  0.864062  0.823312  1
