# generated using pymatgen
data_Dy9Y9Sc2(Cd3Ru)2
_symmetry_space_group_name_H-M   'P 1'
_cell_length_a   9.55095100
_cell_length_b   9.55095058
_cell_length_c   9.79538000
_cell_angle_alpha   90.00000000
_cell_angle_beta   90.00000000
_cell_angle_gamma   119.99999799
_symmetry_Int_Tables_number   1
_chemical_formula_structural   Dy9Y9Sc2(Cd3Ru)2
_chemical_formula_sum   'Dy9 Y9 Sc2 Cd6 Ru2'
_cell_volume   773.82925414
_cell_formula_units_Z   1
loop_
 _symmetry_equiv_pos_site_id
 _symmetry_equiv_pos_as_xyz
  1  'x, y, z'
loop_
 _atom_site_type_symbol
 _atom_site_label
 _atom_site_symmetry_multiplicity
 _atom_site_fract_x
 _atom_site_fract_y
 _atom_site_fract_z
 _atom_site_occupancy
  Dy  Dy0  1  0.208492  0.791508  0.440761  1
  Dy  Dy1  1  0.208492  0.416984  0.440761  1
  Dy  Dy2  1  0.583016  0.791508  0.440761  1
  Dy  Dy3  1  0.791560  0.208440  0.559245  1
  Dy  Dy4  1  0.791560  0.583120  0.559245  1
  Dy  Dy5  1  0.416880  0.208440  0.559245  1
  Dy  Dy6  1  0.791494  0.208506  0.940644  1
  Dy  Dy7  1  0.791494  0.582987  0.940644  1
  Dy  Dy8  1  0.417013  0.208506  0.940644  1
  Y  Y9  1  0.208125  0.791875  0.058917  1
  Y  Y10  1  0.208125  0.416251  0.058917  1
  Y  Y11  1  0.583749  0.791875  0.058917  1
  Y  Y12  1  0.541036  0.458964  0.250208  1
  Y  Y13  1  0.541036  0.082072  0.250208  1
  Y  Y14  1  0.917928  0.458964  0.250208  1
  Y  Y15  1  0.459149  0.540851  0.749734  1
  Y  Y16  1  0.459149  0.918299  0.749734  1
  Y  Y17  1  0.081701  0.540851  0.749734  1
  Sc  Sc18  1  0.000000  0.000000  0.500310  1
  Sc  Sc19  1  0.000000  0.000000  0.999730  1
  Cd  Cd20  1  0.889142  0.110858  0.249928  1
  Cd  Cd21  1  0.889142  0.778286  0.249928  1
  Cd  Cd22  1  0.221714  0.110858  0.249928  1
  Cd  Cd23  1  0.110814  0.889186  0.750061  1
  Cd  Cd24  1  0.110814  0.221627  0.750061  1
  Cd  Cd25  1  0.778373  0.889186  0.750061  1
  Ru  Ru26  1  0.333333  0.666667  0.251611  1
  Ru  Ru27  1  0.666667  0.333333  0.749858  1
