# generated using pymatgen
data_Li4La3PrAs8
_symmetry_space_group_name_H-M   'P 1'
_cell_length_a   3.98770900
_cell_length_b   4.02786710
_cell_length_c   21.45288900
_cell_angle_alpha   89.98692737
_cell_angle_beta   90.00000000
_cell_angle_gamma   90.00000000
_symmetry_Int_Tables_number   1
_chemical_formula_structural   Li4La3PrAs8
_chemical_formula_sum   'Li4 La3 Pr1 As8'
_cell_volume   344.57547690
_cell_formula_units_Z   1
loop_
 _symmetry_equiv_pos_site_id
 _symmetry_equiv_pos_as_xyz
  1  'x, y, z'
loop_
 _atom_site_type_symbol
 _atom_site_label
 _atom_site_symmetry_multiplicity
 _atom_site_fract_x
 _atom_site_fract_y
 _atom_site_fract_z
 _atom_site_occupancy
  Li  Li0  1  0.750000  0.726464  0.249764  1
  Li  Li1  1  0.250000  0.226576  0.249852  1
  Li  Li2  1  0.750000  0.773488  0.750736  1
  Li  Li3  1  0.250000  0.273517  0.750812  1
  La  La4  1  0.250000  0.729186  0.117400  1
  La  La5  1  0.750000  0.228603  0.381845  1
  La  La6  1  0.250000  0.771204  0.618355  1
  Pr  Pr7  1  0.750000  0.271255  0.882447  1
  As  As8  1  0.750000  0.226925  0.172544  1
  As  As9  1  0.250000  0.726457  0.326891  1
  As  As10  1  0.750000  0.273416  0.673140  1
  As  As11  1  0.250000  0.773576  0.828256  1
  As  As12  1  0.250000  0.205703  0.000794  1
  As  As13  1  0.750000  0.704601  0.498181  1
  As  As14  1  0.250000  0.295103  0.501844  1
  As  As15  1  0.750000  0.793921  0.997138  1
