# generated using pymatgen
data_AcTaN2O
_symmetry_space_group_name_H-M   'P 1'
_cell_length_a   5.75972883
_cell_length_b   5.75972902
_cell_length_c   5.82550779
_cell_angle_alpha   119.13415877
_cell_angle_beta   119.13415384
_cell_angle_gamma   90.78859916
_symmetry_Int_Tables_number   1
_chemical_formula_structural   AcTaN2O
_chemical_formula_sum   'Ac2 Ta2 N4 O2'
_cell_volume   139.25698212
_cell_formula_units_Z   2
loop_
 _symmetry_equiv_pos_site_id
 _symmetry_equiv_pos_as_xyz
  1  'x, y, z'
loop_
 _atom_site_type_symbol
 _atom_site_label
 _atom_site_symmetry_multiplicity
 _atom_site_fract_x
 _atom_site_fract_y
 _atom_site_fract_z
 _atom_site_occupancy
  Ac  Ac0  1  0.251767  0.251767  0.004003  1
  Ac  Ac1  1  0.748234  0.748234  0.995997  1
  Ta  Ta2  1  0.500001  0.000000  0.500000  1
  Ta  Ta3  1  0.000000  0.500001  0.500000  1
  N  N4  1  0.751927  0.248072  0.000000  1
  N  N5  1  0.248072  0.751927  0.000000  1
  N  N6  1  0.700943  0.700943  0.496095  1
  N  N7  1  0.299057  0.299057  0.503906  1
  O  O8  1  0.797347  0.202653  0.500000  1
  O  O9  1  0.202653  0.797347  0.500000  1
