# generated using pymatgen
data_La2Tm3InIr18
_symmetry_space_group_name_H-M   'P 1'
_cell_length_a   9.02210309
_cell_length_b   9.02210309
_cell_length_c   5.21462000
_cell_angle_alpha   90.00000000
_cell_angle_beta   90.00000000
_cell_angle_gamma   89.66699940
_symmetry_Int_Tables_number   1
_chemical_formula_structural   La2Tm3InIr18
_chemical_formula_sum   'La2 Tm3 In1 Ir18'
_cell_volume   424.45426499
_cell_formula_units_Z   1
loop_
 _symmetry_equiv_pos_site_id
 _symmetry_equiv_pos_as_xyz
  1  'x, y, z'
loop_
 _atom_site_type_symbol
 _atom_site_label
 _atom_site_symmetry_multiplicity
 _atom_site_fract_x
 _atom_site_fract_y
 _atom_site_fract_z
 _atom_site_occupancy
  La  La0  1  0.504825  0.500579  0.000000  1
  La  La1  1  0.999421  0.995175  0.000000  1
  Tm  Tm2  1  0.621513  0.120566  0.000000  1
  Tm  Tm3  1  0.379434  0.878487  0.000000  1
  Tm  Tm4  1  0.118366  0.381634  0.000000  1
  In  In5  1  0.878507  0.621493  0.000000  1
  Ir  Ir6  1  0.501397  0.998603  0.500000  1
  Ir  Ir7  1  0.998107  0.501893  0.500000  1
  Ir  Ir8  1  0.701803  0.555234  0.500000  1
  Ir  Ir9  1  0.294021  0.442646  0.500000  1
  Ir  Ir10  1  0.205937  0.943367  0.500000  1
  Ir  Ir11  1  0.794786  0.058416  0.500000  1
  Ir  Ir12  1  0.441584  0.705214  0.500000  1
  Ir  Ir13  1  0.556633  0.294063  0.500000  1
  Ir  Ir14  1  0.057354  0.205979  0.500000  1
  Ir  Ir15  1  0.944766  0.798197  0.500000  1
  Ir  Ir16  1  0.820100  0.320936  0.755422  1
  Ir  Ir17  1  0.179064  0.679900  0.755422  1
  Ir  Ir18  1  0.320151  0.179849  0.754306  1
  Ir  Ir19  1  0.681458  0.818542  0.756332  1
  Ir  Ir20  1  0.179064  0.679900  0.244578  1
  Ir  Ir21  1  0.820100  0.320936  0.244578  1
  Ir  Ir22  1  0.681458  0.818542  0.243668  1
  Ir  Ir23  1  0.320151  0.179849  0.245694  1
