# generated using pymatgen
data_Dy6SbO12
_symmetry_space_group_name_H-M   'P 1'
_cell_length_a   6.50617324
_cell_length_b   6.50617382
_cell_length_c   6.50617404
_cell_angle_alpha   98.88867022
_cell_angle_beta   98.88867463
_cell_angle_gamma   98.88868162
_symmetry_Int_Tables_number   1
_chemical_formula_structural   Dy6SbO12
_chemical_formula_sum   'Dy6 Sb1 O12'
_cell_volume   264.30544398
_cell_formula_units_Z   1
loop_
 _symmetry_equiv_pos_site_id
 _symmetry_equiv_pos_as_xyz
  1  'x, y, z'
loop_
 _atom_site_type_symbol
 _atom_site_label
 _atom_site_symmetry_multiplicity
 _atom_site_fract_x
 _atom_site_fract_y
 _atom_site_fract_z
 _atom_site_occupancy
  Dy  Dy0  1  0.696148  0.860149  0.391030  1
  Dy  Dy1  1  0.391030  0.696148  0.860149  1
  Dy  Dy2  1  0.860149  0.391030  0.696148  1
  Dy  Dy3  1  0.303852  0.139851  0.608970  1
  Dy  Dy4  1  0.608970  0.303852  0.139851  1
  Dy  Dy5  1  0.139851  0.608970  0.303852  1
  Sb  Sb6  1  0.000000  0.000000  0.000000  1
  O  O7  1  0.435972  0.587510  0.178289  1
  O  O8  1  0.178289  0.435972  0.587510  1
  O  O9  1  0.587510  0.178289  0.435972  1
  O  O10  1  0.564028  0.412490  0.821711  1
  O  O11  1  0.821711  0.564028  0.412490  1
  O  O12  1  0.412490  0.821711  0.564028  1
  O  O13  1  0.928331  0.042851  0.696181  1
  O  O14  1  0.957149  0.303819  0.071669  1
  O  O15  1  0.303819  0.071669  0.957149  1
  O  O16  1  0.071669  0.957149  0.303819  1
  O  O17  1  0.042851  0.696181  0.928331  1
  O  O18  1  0.696181  0.928331  0.042851  1
