# generated using pymatgen
data_Ho20Ir6Pd5Pt
_symmetry_space_group_name_H-M   'P 1'
_cell_length_a   11.01832932
_cell_length_b   11.00973608
_cell_length_c   6.32404936
_cell_angle_alpha   89.99021540
_cell_angle_beta   90.05571630
_cell_angle_gamma   90.00921084
_symmetry_Int_Tables_number   1
_chemical_formula_structural   Ho20Ir6Pd5Pt
_chemical_formula_sum   'Ho20 Ir6 Pd5 Pt1'
_cell_volume   767.16307438
_cell_formula_units_Z   1
loop_
 _symmetry_equiv_pos_site_id
 _symmetry_equiv_pos_as_xyz
  1  'x, y, z'
loop_
 _atom_site_type_symbol
 _atom_site_label
 _atom_site_symmetry_multiplicity
 _atom_site_fract_x
 _atom_site_fract_y
 _atom_site_fract_z
 _atom_site_occupancy
  Ho  Ho0  1  0.297136  0.091442  0.371076  1
  Ho  Ho1  1  0.297276  0.908039  0.870521  1
  Ho  Ho2  1  0.702077  0.086111  0.869005  1
  Ho  Ho3  1  0.701597  0.911391  0.369353  1
  Ho  Ho4  1  0.581488  0.791590  0.873894  1
  Ho  Ho5  1  0.581070  0.207053  0.370325  1
  Ho  Ho6  1  0.412569  0.793311  0.378201  1
  Ho  Ho7  1  0.410737  0.206287  0.878757  1
  Ho  Ho8  1  0.210217  0.416449  0.622999  1
  Ho  Ho9  1  0.209522  0.583830  0.123528  1
  Ho  Ho10  1  0.796478  0.414856  0.127801  1
  Ho  Ho11  1  0.795958  0.587561  0.624311  1
  Ho  Ho12  1  0.913013  0.702203  0.129553  1
  Ho  Ho13  1  0.914999  0.297520  0.630411  1
  Ho  Ho14  1  0.093038  0.702315  0.630217  1
  Ho  Ho15  1  0.093292  0.297780  0.130200  1
  Ho  Ho16  1  0.999783  0.999839  0.499731  1
  Ho  Ho17  1  0.999648  0.000121  0.999970  1
  Ho  Ho18  1  0.496612  0.499515  0.000386  1
  Ho  Ho19  1  0.496584  0.501948  0.499587  1
  Ir  Ir20  1  0.346712  0.345684  0.250146  1
  Ir  Ir21  1  0.346063  0.654762  0.750474  1
  Ir  Ir22  1  0.500324  0.000109  0.119876  1
  Ir  Ir23  1  0.500315  0.000828  0.620787  1
  Ir  Ir24  1  0.998791  0.500040  0.879286  1
  Ir  Ir25  1  0.999245  0.499599  0.380160  1
  Pd  Pd26  1  0.844740  0.154145  0.250580  1
  Pd  Pd27  1  0.845020  0.846246  0.750702  1
  Pd  Pd28  1  0.153116  0.154074  0.749278  1
  Pd  Pd29  1  0.153181  0.845960  0.249438  1
  Pd  Pd30  1  0.654897  0.345783  0.749568  1
  Pt  Pt31  1  0.654500  0.653606  0.249876  1
