# generated using pymatgen
data_Pr3PCl3
_symmetry_space_group_name_H-M   'P 1'
_cell_length_a   10.13951671
_cell_length_b   10.13951743
_cell_length_c   10.13951700
_cell_angle_alpha   109.47121978
_cell_angle_beta   109.47122121
_cell_angle_gamma   109.47122428
_symmetry_Int_Tables_number   1
_chemical_formula_structural   Pr3PCl3
_chemical_formula_sum   'Pr12 P4 Cl12'
_cell_volume   802.47202325
_cell_formula_units_Z   4
loop_
 _symmetry_equiv_pos_site_id
 _symmetry_equiv_pos_as_xyz
  1  'x, y, z'
loop_
 _atom_site_type_symbol
 _atom_site_label
 _atom_site_symmetry_multiplicity
 _atom_site_fract_x
 _atom_site_fract_y
 _atom_site_fract_z
 _atom_site_occupancy
  Pr  Pr0  1  0.479722  0.489862  0.239862  1
  Pr  Pr1  1  0.750000  0.239862  0.260138  1
  Pr  Pr2  1  0.750000  0.010138  0.489862  1
  Pr  Pr3  1  0.239862  0.479722  0.489862  1
  Pr  Pr4  1  0.260138  0.750000  0.239862  1
  Pr  Pr5  1  0.020278  0.260138  0.010138  1
  Pr  Pr6  1  0.010138  0.020278  0.260138  1
  Pr  Pr7  1  0.489862  0.750000  0.010138  1
  Pr  Pr8  1  0.489862  0.239862  0.479722  1
  Pr  Pr9  1  0.010138  0.489862  0.750000  1
  Pr  Pr10  1  0.260138  0.010138  0.020278  1
  Pr  Pr11  1  0.239862  0.260138  0.750000  1
  P  P12  1  0.250000  0.250000  0.250000  1
  P  P13  1  0.500000  0.000000  0.250000  1
  P  P14  1  0.000000  0.250000  0.500000  1
  P  P15  1  0.250000  0.500000  0.000000  1
  Cl  Cl16  1  0.250000  0.751489  0.748511  1
  Cl  Cl17  1  0.502978  0.501489  0.751489  1
  Cl  Cl18  1  0.997022  0.748511  0.998511  1
  Cl  Cl19  1  0.748511  0.250000  0.751489  1
  Cl  Cl20  1  0.998511  0.997022  0.748511  1
  Cl  Cl21  1  0.250000  0.998511  0.501489  1
  Cl  Cl22  1  0.751489  0.502978  0.501489  1
  Cl  Cl23  1  0.501489  0.250000  0.998511  1
  Cl  Cl24  1  0.751489  0.748511  0.250000  1
  Cl  Cl25  1  0.748511  0.998511  0.997022  1
  Cl  Cl26  1  0.998511  0.501489  0.250000  1
  Cl  Cl27  1  0.501489  0.751489  0.502978  1
