# generated using pymatgen
data_Tm8V9Si16W3
_symmetry_space_group_name_H-M   'P 1'
_cell_length_a   6.78371928
_cell_length_b   6.78371928
_cell_length_c   12.57652932
_cell_angle_alpha   89.96268651
_cell_angle_beta   90.03731335
_cell_angle_gamma   90.06930398
_symmetry_Int_Tables_number   1
_chemical_formula_structural   Tm8V9Si16W3
_chemical_formula_sum   'Tm8 V9 Si16 W3'
_cell_volume   578.75671407
_cell_formula_units_Z   1
loop_
 _symmetry_equiv_pos_site_id
 _symmetry_equiv_pos_as_xyz
  1  'x, y, z'
loop_
 _atom_site_type_symbol
 _atom_site_label
 _atom_site_symmetry_multiplicity
 _atom_site_fract_x
 _atom_site_fract_y
 _atom_site_fract_z
 _atom_site_occupancy
  Tm  Tm0  1  0.000855  0.662818  0.030089  1
  Tm  Tm1  1  0.837462  0.499905  0.280209  1
  Tm  Tm2  1  0.162071  0.499585  0.779424  1
  Tm  Tm3  1  0.499905  0.837462  0.719791  1
  Tm  Tm4  1  0.499585  0.162071  0.220576  1
  Tm  Tm5  1  0.999456  0.337292  0.530280  1
  Tm  Tm6  1  0.662818  0.000855  0.969911  1
  Tm  Tm7  1  0.337292  0.999456  0.469720  1
  V  V8  1  0.667840  0.667840  0.500000  1
  V  V9  1  0.006340  0.159181  0.125664  1
  V  V10  1  0.340487  0.507418  0.375352  1
  V  V11  1  0.660028  0.492297  0.875003  1
  V  V12  1  0.507418  0.340487  0.624648  1
  V  V13  1  0.492297  0.660028  0.124997  1
  V  V14  1  0.992940  0.839582  0.625069  1
  V  V15  1  0.159181  0.006340  0.874336  1
  V  V16  1  0.839582  0.992940  0.374931  1
  Si  Si17  1  0.289755  0.960308  0.063819  1
  Si  Si18  1  0.541988  0.788739  0.315874  1
  Si  Si19  1  0.459251  0.210149  0.813621  1
  Si  Si20  1  0.788739  0.541988  0.684126  1
  Si  Si21  1  0.210149  0.459251  0.186379  1
  Si  Si22  1  0.710169  0.038397  0.563192  1
  Si  Si23  1  0.960308  0.289755  0.936181  1
  Si  Si24  1  0.038397  0.710169  0.436808  1
  Si  Si25  1  0.702852  0.376472  0.067449  1
  Si  Si26  1  0.123835  0.202373  0.317447  1
  Si  Si27  1  0.875753  0.797063  0.816693  1
  Si  Si28  1  0.202373  0.123835  0.682553  1
  Si  Si29  1  0.797063  0.875753  0.183307  1
  Si  Si30  1  0.299700  0.624033  0.565843  1
  Si  Si31  1  0.376472  0.702852  0.932551  1
  Si  Si32  1  0.624033  0.299700  0.434157  1
  W  W33  1  0.332450  0.332450  0.000000  1
  W  W34  1  0.169088  0.832068  0.249899  1
  W  W35  1  0.832068  0.169088  0.750101  1
