# generated using pymatgen
data_Na4AlGa3Sb16
_symmetry_space_group_name_H-M   'P 1'
_cell_length_a   4.25524700
_cell_length_b   10.26359415
_cell_length_c   17.39051726
_cell_angle_alpha   89.98026378
_cell_angle_beta   90.00000000
_cell_angle_gamma   90.00000000
_symmetry_Int_Tables_number   1
_chemical_formula_structural   Na4AlGa3Sb16
_chemical_formula_sum   'Na4 Al1 Ga3 Sb16'
_cell_volume   759.51563557
_cell_formula_units_Z   1
loop_
 _symmetry_equiv_pos_site_id
 _symmetry_equiv_pos_as_xyz
  1  'x, y, z'
loop_
 _atom_site_type_symbol
 _atom_site_label
 _atom_site_symmetry_multiplicity
 _atom_site_fract_x
 _atom_site_fract_y
 _atom_site_fract_z
 _atom_site_occupancy
  Na  Na0  1  0.250000  0.335330  0.936271  1
  Na  Na1  1  0.750000  0.664708  0.063717  1
  Na  Na2  1  0.250000  0.835286  0.563733  1
  Na  Na3  1  0.750000  0.164705  0.436253  1
  Al  Al4  1  0.250000  0.189179  0.128934  1
  Ga  Ga5  1  0.750000  0.810738  0.871167  1
  Ga  Ga6  1  0.250000  0.689249  0.371129  1
  Ga  Ga7  1  0.750000  0.310758  0.628854  1
  Sb  Sb8  1  0.750000  0.837645  0.409545  1
  Sb  Sb9  1  0.250000  0.162329  0.590460  1
  Sb  Sb10  1  0.750000  0.337677  0.090212  1
  Sb  Sb11  1  0.250000  0.662348  0.909500  1
  Sb  Sb12  1  0.750000  0.367571  0.781542  1
  Sb  Sb13  1  0.250000  0.632464  0.218470  1
  Sb  Sb14  1  0.750000  0.867577  0.718439  1
  Sb  Sb15  1  0.250000  0.132558  0.281748  1
  Sb  Sb16  1  0.750000  0.540807  0.551448  1
  Sb  Sb17  1  0.250000  0.459235  0.448551  1
  Sb  Sb18  1  0.750000  0.040897  0.948495  1
  Sb  Sb19  1  0.250000  0.958930  0.051467  1
  Sb  Sb20  1  0.750000  0.943482  0.256207  1
  Sb  Sb21  1  0.250000  0.056444  0.743717  1
  Sb  Sb22  1  0.750000  0.443646  0.243841  1
  Sb  Sb23  1  0.250000  0.556437  0.756299  1
