# generated using pymatgen
data_Yb17Pa3Pt16
_symmetry_space_group_name_H-M   'P 1'
_cell_length_a   7.50289895
_cell_length_b   7.56667337
_cell_length_c   14.59934438
_cell_angle_alpha   90.18146897
_cell_angle_beta   90.02287883
_cell_angle_gamma   89.80609609
_symmetry_Int_Tables_number   1
_chemical_formula_structural   Yb17Pa3Pt16
_chemical_formula_sum   'Yb17 Pa3 Pt16'
_cell_volume   828.82480322
_cell_formula_units_Z   1
loop_
 _symmetry_equiv_pos_site_id
 _symmetry_equiv_pos_as_xyz
  1  'x, y, z'
loop_
 _atom_site_type_symbol
 _atom_site_label
 _atom_site_symmetry_multiplicity
 _atom_site_fract_x
 _atom_site_fract_y
 _atom_site_fract_z
 _atom_site_occupancy
  Yb  Yb0  1  0.858653  0.659813  0.377713  1
  Yb  Yb1  1  0.358770  0.835253  0.378817  1
  Yb  Yb2  1  0.860300  0.662343  0.120875  1
  Yb  Yb3  1  0.637271  0.165952  0.879970  1
  Yb  Yb4  1  0.139496  0.332704  0.620943  1
  Yb  Yb5  1  0.482498  0.672221  0.592362  1
  Yb  Yb6  1  0.983105  0.824391  0.906560  1
  Yb  Yb7  1  0.518472  0.325234  0.097465  1
  Yb  Yb8  1  0.015602  0.184435  0.405181  1
  Yb  Yb9  1  0.515300  0.322937  0.402430  1
  Yb  Yb10  1  0.006174  0.181619  0.099392  1
  Yb  Yb11  1  0.490919  0.684200  0.902969  1
  Yb  Yb12  1  0.989730  0.812941  0.591807  1
  Yb  Yb13  1  0.799988  0.511111  0.749395  1
  Yb  Yb14  1  0.299318  0.985626  0.749697  1
  Yb  Yb15  1  0.191178  0.491118  0.252712  1
  Yb  Yb16  1  0.704662  0.006123  0.252275  1
  Pa  Pa17  1  0.642080  0.155724  0.623806  1
  Pa  Pa18  1  0.144114  0.343620  0.877240  1
  Pa  Pa19  1  0.356266  0.843601  0.124016  1
  Pt  Pt20  1  0.702019  0.973781  0.465652  1
  Pt  Pt21  1  0.207883  0.545577  0.036118  1
  Pt  Pt22  1  0.290212  0.046827  0.963360  1
  Pt  Pt23  1  0.796087  0.444501  0.542754  1
  Pt  Pt24  1  0.325295  0.034656  0.545938  1
  Pt  Pt25  1  0.830397  0.461410  0.954188  1
  Pt  Pt26  1  0.666038  0.957242  0.044387  1
  Pt  Pt27  1  0.185881  0.531963  0.457784  1
  Pt  Pt28  1  0.439520  0.371451  0.744789  1
  Pt  Pt29  1  0.941210  0.128090  0.758465  1
  Pt  Pt30  1  0.553321  0.627014  0.240196  1
  Pt  Pt31  1  0.070796  0.877548  0.244772  1
  Pt  Pt32  1  0.674843  0.871273  0.741907  1
  Pt  Pt33  1  0.170012  0.627632  0.757561  1
  Pt  Pt34  1  0.337490  0.134510  0.244920  1
  Pt  Pt35  1  0.815099  0.365560  0.251585  1
