# generated using pymatgen
data_Li2InBiRh4
_symmetry_space_group_name_H-M   'P 1'
_cell_length_a   4.46028900
_cell_length_b   6.28327200
_cell_length_c   8.89757400
_cell_angle_alpha   90.00000000
_cell_angle_beta   90.00000000
_cell_angle_gamma   90.00000000
_symmetry_Int_Tables_number   1
_chemical_formula_structural   Li2InBiRh4
_chemical_formula_sum   'Li4 In2 Bi2 Rh8'
_cell_volume   249.35637081
_cell_formula_units_Z   2
loop_
 _symmetry_equiv_pos_site_id
 _symmetry_equiv_pos_as_xyz
  1  'x, y, z'
loop_
 _atom_site_type_symbol
 _atom_site_label
 _atom_site_symmetry_multiplicity
 _atom_site_fract_x
 _atom_site_fract_y
 _atom_site_fract_z
 _atom_site_occupancy
  Li  Li0  1  0.250004  0.749999  0.129667  1
  Li  Li1  1  0.750006  0.250000  0.370333  1
  Li  Li2  1  0.249947  0.749999  0.620451  1
  Li  Li3  1  0.749946  0.250000  0.879548  1
  In  In4  1  0.250043  0.250000  0.126950  1
  In  In5  1  0.750045  0.749999  0.373050  1
  Bi  Bi6  1  0.249995  0.250000  0.621495  1
  Bi  Bi7  1  0.749994  0.749999  0.878505  1
  Rh  Rh8  1  0.750022  0.498522  0.124601  1
  Rh  Rh9  1  0.750022  0.001478  0.124601  1
  Rh  Rh10  1  0.250023  0.998522  0.375399  1
  Rh  Rh11  1  0.250023  0.501479  0.375399  1
  Rh  Rh12  1  0.749985  0.501821  0.626164  1
  Rh  Rh13  1  0.749985  0.998179  0.626164  1
  Rh  Rh14  1  0.249985  0.001821  0.873837  1
  Rh  Rh15  1  0.249985  0.498180  0.873837  1
