# generated using pymatgen
data_CaLa(Si2Rh3)2
_symmetry_space_group_name_H-M   'P 1'
_cell_length_a   5.64924389
_cell_length_b   6.70306132
_cell_length_c   6.70306020
_cell_angle_alpha   64.52763501
_cell_angle_beta   65.07744778
_cell_angle_gamma   65.07745163
_symmetry_Int_Tables_number   1
_chemical_formula_structural   CaLa(Si2Rh3)2
_chemical_formula_sum   'Ca1 La1 Si4 Rh6'
_cell_volume   198.67156417
_cell_formula_units_Z   1
loop_
 _symmetry_equiv_pos_site_id
 _symmetry_equiv_pos_as_xyz
  1  'x, y, z'
loop_
 _atom_site_type_symbol
 _atom_site_label
 _atom_site_symmetry_multiplicity
 _atom_site_fract_x
 _atom_site_fract_y
 _atom_site_fract_z
 _atom_site_occupancy
  Ca  Ca0  1  0.536336  0.750000  0.750000  1
  La  La1  1  0.460940  0.250000  0.250000  1
  Si  Si2  1  0.223659  0.579379  0.579379  1
  Si  Si3  1  0.773396  0.424867  0.424867  1
  Si  Si4  1  0.123129  0.075133  0.075133  1
  Si  Si5  1  0.882419  0.920621  0.920621  1
  Rh  Rh6  1  0.500260  0.214302  0.782618  1
  Rh  Rh7  1  0.997181  0.717382  0.285698  1
  Rh  Rh8  1  0.500260  0.782618  0.214302  1
  Rh  Rh9  1  0.997181  0.285698  0.717382  1
  Rh  Rh10  1  0.002619  0.500637  0.999363  1
  Rh  Rh11  1  0.002619  0.999363  0.500637  1
