# generated using pymatgen
data_Tb7YSc12Si15Ir
_symmetry_space_group_name_H-M   'P 1'
_cell_length_a   7.09358736
_cell_length_b   7.44319934
_cell_length_c   13.98882610
_cell_angle_alpha   89.98712548
_cell_angle_beta   89.99600415
_cell_angle_gamma   90.19869734
_symmetry_Int_Tables_number   1
_chemical_formula_structural   Tb7YSc12Si15Ir
_chemical_formula_sum   'Tb7 Y1 Sc12 Si15 Ir1'
_cell_volume   738.59135421
_cell_formula_units_Z   1
loop_
 _symmetry_equiv_pos_site_id
 _symmetry_equiv_pos_as_xyz
  1  'x, y, z'
loop_
 _atom_site_type_symbol
 _atom_site_label
 _atom_site_symmetry_multiplicity
 _atom_site_fract_x
 _atom_site_fract_y
 _atom_site_fract_z
 _atom_site_occupancy
  Tb  Tb0  1  0.990801  0.825794  0.903765  1
  Tb  Tb1  1  0.488530  0.676173  0.904178  1
  Tb  Tb2  1  0.990809  0.825792  0.596234  1
  Tb  Tb3  1  0.511222  0.323662  0.096739  1
  Tb  Tb4  1  0.011563  0.178142  0.403453  1
  Tb  Tb5  1  0.511141  0.323658  0.403281  1
  Tb  Tb6  1  0.488546  0.676240  0.595903  1
  Y  Y7  1  0.011464  0.178241  0.096728  1
  Sc  Sc8  1  0.156789  0.498510  0.749976  1
  Sc  Sc9  1  0.838180  0.496673  0.249891  1
  Sc  Sc10  1  0.339039  0.004047  0.249991  1
  Sc  Sc11  1  0.668801  0.999548  0.749994  1
  Sc  Sc12  1  0.320918  0.172893  0.626851  1
  Sc  Sc13  1  0.671330  0.825157  0.373653  1
  Sc  Sc14  1  0.170971  0.677430  0.374066  1
  Sc  Sc15  1  0.671251  0.825233  0.126340  1
  Sc  Sc16  1  0.834970  0.320415  0.626787  1
  Sc  Sc17  1  0.320700  0.172931  0.873182  1
  Sc  Sc18  1  0.835072  0.320318  0.873162  1
  Sc  Sc19  1  0.170906  0.677463  0.125845  1
  Si  Si20  1  0.968667  0.883446  0.250004  1
  Si  Si21  1  0.468033  0.615693  0.249978  1
  Si  Si22  1  0.530606  0.388067  0.750015  1
  Si  Si23  1  0.286779  0.869725  0.750009  1
  Si  Si24  1  0.713273  0.128498  0.249871  1
  Si  Si25  1  0.212927  0.372519  0.249962  1
  Si  Si26  1  0.779439  0.625097  0.750016  1
  Si  Si27  1  0.158816  0.467676  0.537481  1
  Si  Si28  1  0.843863  0.536060  0.461244  1
  Si  Si29  1  0.345755  0.965607  0.460318  1
  Si  Si30  1  0.843879  0.536031  0.038802  1
  Si  Si31  1  0.656002  0.034292  0.538183  1
  Si  Si32  1  0.158788  0.467482  0.962555  1
  Si  Si33  1  0.656066  0.034297  0.961799  1
  Si  Si34  1  0.345553  0.965661  0.039744  1
  Ir  Ir35  1  0.028548  0.111528  0.750000  1
