# generated using pymatgen
data_Ti10Si2Sn5Sb
_symmetry_space_group_name_H-M   'P 1'
_cell_length_a   8.22444371
_cell_length_b   8.23834630
_cell_length_c   5.53738600
_cell_angle_alpha   90.00000000
_cell_angle_beta   90.00000000
_cell_angle_gamma   120.05593669
_symmetry_Int_Tables_number   1
_chemical_formula_structural   Ti10Si2Sn5Sb
_chemical_formula_sum   'Ti10 Si2 Sn5 Sb1'
_cell_volume   324.74086132
_cell_formula_units_Z   1
loop_
 _symmetry_equiv_pos_site_id
 _symmetry_equiv_pos_as_xyz
  1  'x, y, z'
loop_
 _atom_site_type_symbol
 _atom_site_label
 _atom_site_symmetry_multiplicity
 _atom_site_fract_x
 _atom_site_fract_y
 _atom_site_fract_z
 _atom_site_occupancy
  Ti  Ti0  1  0.668357  0.333628  0.999674  1
  Ti  Ti1  1  0.331643  0.665272  0.999674  1
  Ti  Ti2  1  0.331643  0.665272  0.500326  1
  Ti  Ti3  1  0.668357  0.333628  0.500326  1
  Ti  Ti4  1  0.741427  0.741029  0.750000  1
  Ti  Ti5  1  0.258573  0.999602  0.750000  1
  Ti  Ti6  1  0.000000  0.260419  0.750000  1
  Ti  Ti7  1  0.255757  0.257701  0.250000  1
  Ti  Ti8  1  0.744243  0.001945  0.250000  1
  Ti  Ti9  1  0.000000  0.740541  0.250000  1
  Si  Si10  1  0.000000  0.999192  0.998427  1
  Si  Si11  1  0.000000  0.999192  0.501573  1
  Sn  Sn12  1  0.394541  0.393465  0.750000  1
  Sn  Sn13  1  0.605459  0.998924  0.750000  1
  Sn  Sn14  1  0.000000  0.608190  0.750000  1
  Sn  Sn15  1  0.605561  0.605845  0.250000  1
  Sn  Sn16  1  0.394439  0.000284  0.250000  1
  Sb  Sb17  1  0.000000  0.395873  0.250000  1
