# generated using pymatgen
data_DyTm3Hf3AlPt4
_symmetry_space_group_name_H-M   'P 1'
_cell_length_a   4.55596100
_cell_length_b   7.02765896
_cell_length_c   8.13816050
_cell_angle_alpha   87.17731293
_cell_angle_beta   90.00000000
_cell_angle_gamma   90.00000000
_symmetry_Int_Tables_number   1
_chemical_formula_structural   DyTm3Hf3AlPt4
_chemical_formula_sum   'Dy1 Tm3 Hf3 Al1 Pt4'
_cell_volume   260.24936851
_cell_formula_units_Z   1
loop_
 _symmetry_equiv_pos_site_id
 _symmetry_equiv_pos_as_xyz
  1  'x, y, z'
loop_
 _atom_site_type_symbol
 _atom_site_label
 _atom_site_symmetry_multiplicity
 _atom_site_fract_x
 _atom_site_fract_y
 _atom_site_fract_z
 _atom_site_occupancy
  Dy  Dy0  1  0.750000  0.038687  0.671106  1
  Tm  Tm1  1  0.250000  0.471525  0.186846  1
  Tm  Tm2  1  0.750000  0.517302  0.816012  1
  Tm  Tm3  1  0.250000  0.988197  0.336650  1
  Hf  Hf4  1  0.250000  0.853890  0.923948  1
  Hf  Hf5  1  0.750000  0.138677  0.071125  1
  Hf  Hf6  1  0.750000  0.641223  0.435279  1
  Al  Al7  1  0.250000  0.358711  0.572275  1
  Pt  Pt8  1  0.250000  0.727664  0.609368  1
  Pt  Pt9  1  0.750000  0.269138  0.380537  1
  Pt  Pt10  1  0.750000  0.762181  0.102370  1
  Pt  Pt11  1  0.250000  0.232806  0.894485  1
