# generated using pymatgen
data_Ho9ErAl4(SiC4)2
_symmetry_space_group_name_H-M   'P 1'
_cell_length_a   10.70545822
_cell_length_b   10.70855608
_cell_length_c   3.50348200
_cell_angle_alpha   90.00000000
_cell_angle_beta   90.00000000
_cell_angle_gamma   90.01871932
_symmetry_Int_Tables_number   1
_chemical_formula_structural   Ho9ErAl4(SiC4)2
_chemical_formula_sum   'Ho9 Er1 Al4 Si2 C8'
_cell_volume   401.63915416
_cell_formula_units_Z   1
loop_
 _symmetry_equiv_pos_site_id
 _symmetry_equiv_pos_as_xyz
  1  'x, y, z'
loop_
 _atom_site_type_symbol
 _atom_site_label
 _atom_site_symmetry_multiplicity
 _atom_site_fract_x
 _atom_site_fract_y
 _atom_site_fract_z
 _atom_site_occupancy
  Ho  Ho0  1  0.550994  0.725301  0.500000  1
  Ho  Ho1  1  0.449086  0.274816  0.500000  1
  Ho  Ho2  1  0.050876  0.774777  0.500000  1
  Ho  Ho3  1  0.949018  0.225166  0.500000  1
  Ho  Ho4  1  0.274854  0.550890  0.500000  1
  Ho  Ho5  1  0.725151  0.449075  0.500000  1
  Ho  Ho6  1  0.225286  0.050880  0.500000  1
  Ho  Ho7  1  0.500191  0.000061  0.000000  1
  Ho  Ho8  1  0.999995  0.500032  0.000000  1
  Er  Er9  1  0.774074  0.948974  0.500000  1
  Al  Al10  1  0.703719  0.203671  0.000000  1
  Al  Al11  1  0.296341  0.796300  0.000000  1
  Al  Al12  1  0.203703  0.296357  0.000000  1
  Al  Al13  1  0.796306  0.703695  0.000000  1
  Si  Si14  1  0.500010  0.499965  0.000000  1
  Si  Si15  1  0.999515  0.999898  0.000000  1
  C  C16  1  0.633373  0.132872  0.500000  1
  C  C17  1  0.366877  0.866926  0.500000  1
  C  C18  1  0.133146  0.366852  0.500000  1
  C  C19  1  0.866929  0.633077  0.500000  1
  C  C20  1  0.162915  0.662877  0.000000  1
  C  C21  1  0.837140  0.337071  0.000000  1
  C  C22  1  0.663439  0.837622  0.000000  1
  C  C23  1  0.337063  0.162849  0.000000  1
