# generated using pymatgen
data_Tb5Y3Zn3Si12Pd
_symmetry_space_group_name_H-M   'P 1'
_cell_length_a   8.12931000
_cell_length_b   8.12930916
_cell_length_c   8.12774700
_cell_angle_alpha   90.00000000
_cell_angle_beta   90.00000000
_cell_angle_gamma   120.00000344
_symmetry_Int_Tables_number   1
_chemical_formula_structural   Tb5Y3Zn3Si12Pd
_chemical_formula_sum   'Tb5 Y3 Zn3 Si12 Pd1'
_cell_volume   465.16616547
_cell_formula_units_Z   1
loop_
 _symmetry_equiv_pos_site_id
 _symmetry_equiv_pos_as_xyz
  1  'x, y, z'
loop_
 _atom_site_type_symbol
 _atom_site_label
 _atom_site_symmetry_multiplicity
 _atom_site_fract_x
 _atom_site_fract_y
 _atom_site_fract_z
 _atom_site_occupancy
  Tb  Tb0  1  0.000583  0.500292  0.750678  1
  Tb  Tb1  1  0.501149  0.498851  0.249125  1
  Tb  Tb2  1  0.499708  0.500292  0.750678  1
  Tb  Tb3  1  0.000000  0.000000  0.250392  1
  Tb  Tb4  1  0.000000  0.000000  0.750069  1
  Y  Y5  1  0.501149  0.002297  0.249125  1
  Y  Y6  1  0.499708  0.999417  0.750678  1
  Y  Y7  1  0.997703  0.498851  0.249125  1
  Zn  Zn8  1  0.333333  0.666667  0.006265  1
  Zn  Zn9  1  0.666667  0.333333  0.994504  1
  Zn  Zn10  1  0.666667  0.333333  0.500443  1
  Si  Si11  1  0.166428  0.332857  0.997330  1
  Si  Si12  1  0.833060  0.666120  0.002599  1
  Si  Si13  1  0.667143  0.833572  0.997330  1
  Si  Si14  1  0.835379  0.670757  0.502333  1
  Si  Si15  1  0.333880  0.166940  0.002599  1
  Si  Si16  1  0.167553  0.335105  0.497732  1
  Si  Si17  1  0.166428  0.833572  0.997330  1
  Si  Si18  1  0.329243  0.164621  0.502333  1
  Si  Si19  1  0.833060  0.166940  0.002599  1
  Si  Si20  1  0.664895  0.832447  0.497732  1
  Si  Si21  1  0.835379  0.164621  0.502333  1
  Si  Si22  1  0.167553  0.832447  0.497732  1
  Pd  Pd23  1  0.333333  0.666667  0.498935  1
