# generated using pymatgen
data_Tb8Er2OsRu3
_symmetry_space_group_name_H-M   'P 1'
_cell_length_a   6.37636370
_cell_length_b   7.31226097
_cell_length_c   8.51406856
_cell_angle_alpha   96.70531246
_cell_angle_beta   112.05335949
_cell_angle_gamma   90.01645512
_symmetry_Int_Tables_number   1
_chemical_formula_structural   Tb8Er2OsRu3
_chemical_formula_sum   'Tb8 Er2 Os1 Ru3'
_cell_volume   364.99226256
_cell_formula_units_Z   1
loop_
 _symmetry_equiv_pos_site_id
 _symmetry_equiv_pos_as_xyz
  1  'x, y, z'
loop_
 _atom_site_type_symbol
 _atom_site_label
 _atom_site_symmetry_multiplicity
 _atom_site_fract_x
 _atom_site_fract_y
 _atom_site_fract_z
 _atom_site_occupancy
  Tb  Tb0  1  0.793061  0.583492  0.814233  1
  Tb  Tb1  1  0.976778  0.915428  0.183865  1
  Tb  Tb2  1  0.207021  0.415389  0.185566  1
  Tb  Tb3  1  0.022704  0.084454  0.814767  1
  Tb  Tb4  1  0.207870  0.685460  0.567835  1
  Tb  Tb5  1  0.639297  0.815336  0.434114  1
  Tb  Tb6  1  0.793321  0.314774  0.432575  1
  Tb  Tb7  1  0.359918  0.185223  0.566691  1
  Er  Er8  1  0.422689  0.750360  0.999233  1
  Er  Er9  1  0.577904  0.249659  0.999956  1
  Os  Os10  1  0.602042  0.925081  0.782000  1
  Ru  Ru11  1  0.822188  0.575151  0.219069  1
  Ru  Ru12  1  0.397053  0.075503  0.218860  1
  Ru  Ru13  1  0.178155  0.424690  0.781237  1
