# generated using pymatgen
data_Er6InCoRu
_symmetry_space_group_name_H-M   'P 1'
_cell_length_a   8.34354729
_cell_length_b   8.34354739
_cell_length_c   8.34354710
_cell_angle_alpha   112.68424436
_cell_angle_beta   110.55112077
_cell_angle_gamma   105.26624275
_symmetry_Int_Tables_number   1
_chemical_formula_structural   Er6InCoRu
_chemical_formula_sum   'Er12 In2 Co2 Ru2'
_cell_volume   445.17032952
_cell_formula_units_Z   2
loop_
 _symmetry_equiv_pos_site_id
 _symmetry_equiv_pos_as_xyz
  1  'x, y, z'
loop_
 _atom_site_type_symbol
 _atom_site_label
 _atom_site_symmetry_multiplicity
 _atom_site_fract_x
 _atom_site_fract_y
 _atom_site_fract_z
 _atom_site_occupancy
  Er  Er0  1  0.444171  0.241886  0.202286  1
  Er  Er1  1  0.555829  0.758114  0.797714  1
  Er  Er2  1  0.039601  0.241886  0.797714  1
  Er  Er3  1  0.960399  0.758114  0.202286  1
  Er  Er4  1  0.184707  0.286145  0.470851  1
  Er  Er5  1  0.815293  0.713855  0.529149  1
  Er  Er6  1  0.184707  0.713855  0.898562  1
  Er  Er7  1  0.815293  0.286145  0.101438  1
  Er  Er8  1  0.321971  0.636644  0.314673  1
  Er  Er9  1  0.678029  0.363356  0.685327  1
  Er  Er10  1  0.321971  0.007297  0.685327  1
  Er  Er11  1  0.678029  0.992703  0.314673  1
  In  In12  1  0.500000  0.500000  0.000000  1
  In  In13  1  0.000000  0.000000  0.000000  1
  Co  Co14  1  0.112634  0.612634  0.500000  1
  Co  Co15  1  0.887366  0.387366  0.500000  1
  Ru  Ru16  1  0.331614  0.000000  0.331614  1
  Ru  Ru17  1  0.668386  0.000000  0.668386  1
