# generated using pymatgen
data_Sc2Cr3Fe7P6
_symmetry_space_group_name_H-M   'P 1'
_cell_length_a   3.60380300
_cell_length_b   10.20913500
_cell_length_c   11.91536200
_cell_angle_alpha   90.00000000
_cell_angle_beta   90.00000000
_cell_angle_gamma   90.00000000
_symmetry_Int_Tables_number   1
_chemical_formula_structural   Sc2Cr3Fe7P6
_chemical_formula_sum   'Sc4 Cr6 Fe14 P12'
_cell_volume   438.38655922
_cell_formula_units_Z   2
loop_
 _symmetry_equiv_pos_site_id
 _symmetry_equiv_pos_as_xyz
  1  'x, y, z'
loop_
 _atom_site_type_symbol
 _atom_site_label
 _atom_site_symmetry_multiplicity
 _atom_site_fract_x
 _atom_site_fract_y
 _atom_site_fract_z
 _atom_site_occupancy
  Sc  Sc0  1  0.250000  0.581202  0.711298  1
  Sc  Sc1  1  0.250000  0.918798  0.211298  1
  Sc  Sc2  1  0.750000  0.419243  0.289610  1
  Sc  Sc3  1  0.750000  0.080757  0.789610  1
  Cr  Cr4  1  0.250000  0.705493  0.989566  1
  Cr  Cr5  1  0.250000  0.794507  0.489566  1
  Cr  Cr6  1  0.750000  0.296244  0.011475  1
  Cr  Cr7  1  0.750000  0.203756  0.511475  1
  Cr  Cr8  1  0.250000  0.410345  0.491001  1
  Cr  Cr9  1  0.250000  0.089655  0.991001  1
  Fe  Fe10  1  0.750000  0.591159  0.510006  1
  Fe  Fe11  1  0.750000  0.908841  0.010006  1
  Fe  Fe12  1  0.250000  0.217638  0.173844  1
  Fe  Fe13  1  0.250000  0.282362  0.673844  1
  Fe  Fe14  1  0.750000  0.779322  0.823620  1
  Fe  Fe15  1  0.750000  0.720678  0.323620  1
  Fe  Fe16  1  0.250000  0.874107  0.697963  1
  Fe  Fe17  1  0.250000  0.625893  0.197963  1
  Fe  Fe18  1  0.750000  0.122906  0.301508  1
  Fe  Fe19  1  0.750000  0.377094  0.801508  1
  Fe  Fe20  1  0.250000  0.463584  0.933386  1
  Fe  Fe21  1  0.250000  0.036416  0.433386  1
  Fe  Fe22  1  0.750000  0.538300  0.067897  1
  Fe  Fe23  1  0.750000  0.961700  0.567897  1
  P  P24  1  0.250000  0.422689  0.114726  1
  P  P25  1  0.250000  0.077311  0.614726  1
  P  P26  1  0.750000  0.576836  0.886091  1
  P  P27  1  0.750000  0.923164  0.386091  1
  P  P28  1  0.250000  0.263270  0.864306  1
  P  P29  1  0.250000  0.236730  0.364306  1
  P  P30  1  0.750000  0.739224  0.133545  1
  P  P31  1  0.750000  0.760776  0.633545  1
  P  P32  1  0.250000  0.599252  0.382753  1
  P  P33  1  0.250000  0.900748  0.882753  1
  P  P34  1  0.750000  0.403507  0.617403  1
  P  P35  1  0.750000  0.096493  0.117403  1
