# generated using pymatgen
data_Er5GaTcBi
_symmetry_space_group_name_H-M   'P 1'
_cell_length_a   8.74505673
_cell_length_b   8.74505746
_cell_length_c   8.74505627
_cell_angle_alpha   127.06354951
_cell_angle_beta   127.15246364
_cell_angle_gamma   78.07456259
_symmetry_Int_Tables_number   1
_chemical_formula_structural   Er5GaTcBi
_chemical_formula_sum   'Er10 Ga2 Tc2 Bi2'
_cell_volume   412.12798057
_cell_formula_units_Z   2
loop_
 _symmetry_equiv_pos_site_id
 _symmetry_equiv_pos_as_xyz
  1  'x, y, z'
loop_
 _atom_site_type_symbol
 _atom_site_label
 _atom_site_symmetry_multiplicity
 _atom_site_fract_x
 _atom_site_fract_y
 _atom_site_fract_z
 _atom_site_occupancy
  Er  Er0  1  0.997886  0.992499  0.990384  1
  Er  Er1  1  0.497886  0.507501  0.005387  1
  Er  Er2  1  0.797695  0.282062  0.804123  1
  Er  Er3  1  0.297695  0.493572  0.515633  1
  Er  Er4  1  0.975436  0.805392  0.509033  1
  Er  Er5  1  0.703641  0.533597  0.509033  1
  Er  Er6  1  0.022061  0.217938  0.515633  1
  Er  Er7  1  0.522061  0.006428  0.804123  1
  Er  Er8  1  0.203641  0.694608  0.170044  1
  Er  Er9  1  0.475436  0.966403  0.170044  1
  Ga  Ga10  1  0.867792  0.364473  0.232265  1
  Ga  Ga11  1  0.367792  0.135527  0.503319  1
  Tc  Tc12  1  0.625483  0.875061  0.500544  1
  Tc  Tc13  1  0.125483  0.624939  0.750422  1
  Bi  Bi14  1  0.260006  0.250000  0.010006  1
  Bi  Bi15  1  0.760006  0.750000  0.010006  1
