# generated using pymatgen
data_La3Mg3CuSnGe
_symmetry_space_group_name_H-M   'P 1'
_cell_length_a   7.67260300
_cell_length_b   7.67260489
_cell_length_c   4.56212800
_cell_angle_alpha   90.00000000
_cell_angle_beta   90.00000000
_cell_angle_gamma   119.99999618
_symmetry_Int_Tables_number   1
_chemical_formula_structural   La3Mg3CuSnGe
_chemical_formula_sum   'La3 Mg3 Cu1 Sn1 Ge1'
_cell_volume   232.58605681
_cell_formula_units_Z   1
loop_
 _symmetry_equiv_pos_site_id
 _symmetry_equiv_pos_as_xyz
  1  'x, y, z'
loop_
 _atom_site_type_symbol
 _atom_site_label
 _atom_site_symmetry_multiplicity
 _atom_site_fract_x
 _atom_site_fract_y
 _atom_site_fract_z
 _atom_site_occupancy
  La  La0  1  0.588523  0.990217  0.000000  1
  La  La1  1  0.009783  0.598306  0.000000  1
  La  La2  1  0.401694  0.411477  0.000000  1
  Mg  Mg3  1  0.233696  0.997030  0.500000  1
  Mg  Mg4  1  0.002970  0.236666  0.500000  1
  Mg  Mg5  1  0.763334  0.766304  0.500000  1
  Cu  Cu6  1  0.000000  0.000000  0.000000  1
  Sn  Sn7  1  0.666667  0.333333  0.500000  1
  Ge  Ge8  1  0.333333  0.666667  0.500000  1
