# generated using pymatgen
data_NaEr(NbS2)6
_symmetry_space_group_name_H-M   'P 1'
_cell_length_a   5.84247200
_cell_length_b   5.84247322
_cell_length_c   14.09162300
_cell_angle_alpha   90.00000000
_cell_angle_beta   90.00000000
_cell_angle_gamma   120.00000444
_symmetry_Int_Tables_number   1
_chemical_formula_structural   NaEr(NbS2)6
_chemical_formula_sum   'Na1 Er1 Nb6 S12'
_cell_volume   416.56712975
_cell_formula_units_Z   1
loop_
 _symmetry_equiv_pos_site_id
 _symmetry_equiv_pos_as_xyz
  1  'x, y, z'
loop_
 _atom_site_type_symbol
 _atom_site_label
 _atom_site_symmetry_multiplicity
 _atom_site_fract_x
 _atom_site_fract_y
 _atom_site_fract_z
 _atom_site_occupancy
  Na  Na0  1  0.000000  0.000000  0.000000  1
  Er  Er1  1  0.000000  0.000000  0.500000  1
  Nb  Nb2  1  0.333333  0.666667  0.259171  1
  Nb  Nb3  1  0.000000  0.000000  0.259553  1
  Nb  Nb4  1  0.000000  0.000000  0.740447  1
  Nb  Nb5  1  0.333333  0.666667  0.740829  1
  Nb  Nb6  1  0.666667  0.333333  0.740829  1
  Nb  Nb7  1  0.666667  0.333333  0.259171  1
  S  S8  1  0.000000  0.663013  0.628863  1
  S  S9  1  0.000000  0.665010  0.850693  1
  S  S10  1  0.000000  0.334990  0.149307  1
  S  S11  1  0.000000  0.336987  0.371137  1
  S  S12  1  0.336987  0.336987  0.628863  1
  S  S13  1  0.334990  0.334990  0.850693  1
  S  S14  1  0.665010  0.665010  0.149307  1
  S  S15  1  0.663013  0.663013  0.371137  1
  S  S16  1  0.334990  0.000000  0.149307  1
  S  S17  1  0.336987  0.000000  0.371137  1
  S  S18  1  0.663013  0.000000  0.628863  1
  S  S19  1  0.665010  0.000000  0.850693  1
