# generated using pymatgen
data_Nd6CdIn8P
_symmetry_space_group_name_H-M   'P 1'
_cell_length_a   8.52876438
_cell_length_b   8.52876486
_cell_length_c   8.52876422
_cell_angle_alpha   119.64162483
_cell_angle_beta   119.64162697
_cell_angle_gamma   90.62185068
_symmetry_Int_Tables_number   1
_chemical_formula_structural   Nd6CdIn8P
_chemical_formula_sum   'Nd6 Cd1 In8 P1'
_cell_volume   441.02359117
_cell_formula_units_Z   1
loop_
 _symmetry_equiv_pos_site_id
 _symmetry_equiv_pos_as_xyz
  1  'x, y, z'
loop_
 _atom_site_type_symbol
 _atom_site_label
 _atom_site_symmetry_multiplicity
 _atom_site_fract_x
 _atom_site_fract_y
 _atom_site_fract_z
 _atom_site_occupancy
  Nd  Nd0  1  0.770443  0.770443  0.000000  1
  Nd  Nd1  1  0.229557  0.229557  0.000000  1
  Nd  Nd2  1  0.683904  0.141086  0.824991  1
  Nd  Nd3  1  0.316096  0.858914  0.175009  1
  Nd  Nd4  1  0.141086  0.316096  0.457183  1
  Nd  Nd5  1  0.858914  0.683904  0.542817  1
  Cd  Cd6  1  0.500000  0.500000  0.000000  1
  In  In7  1  0.336626  0.813970  0.787945  1
  In  In8  1  0.663374  0.186030  0.212055  1
  In  In9  1  0.026027  0.548682  0.212055  1
  In  In10  1  0.813970  0.026027  0.477344  1
  In  In11  1  0.451318  0.663374  0.477344  1
  In  In12  1  0.973973  0.451318  0.787945  1
  In  In13  1  0.186030  0.973973  0.522656  1
  In  In14  1  0.548682  0.336626  0.522656  1
  P  P15  1  0.000000  0.000000  0.000000  1
