# generated using pymatgen
data_Na5EuVP4
_symmetry_space_group_name_H-M   'P 1'
_cell_length_a   9.18141765
_cell_length_b   9.18141679
_cell_length_c   7.20773596
_cell_angle_alpha   90.52784486
_cell_angle_beta   90.52784873
_cell_angle_gamma   120.40262157
_symmetry_Int_Tables_number   1
_chemical_formula_structural   Na5EuVP4
_chemical_formula_sum   'Na10 Eu2 V2 P8'
_cell_volume   523.95984567
_cell_formula_units_Z   2
loop_
 _symmetry_equiv_pos_site_id
 _symmetry_equiv_pos_as_xyz
  1  'x, y, z'
loop_
 _atom_site_type_symbol
 _atom_site_label
 _atom_site_symmetry_multiplicity
 _atom_site_fract_x
 _atom_site_fract_y
 _atom_site_fract_z
 _atom_site_occupancy
  Na  Na0  1  0.535918  0.473762  0.610835  1
  Na  Na1  1  0.940827  0.473027  0.610731  1
  Na  Na2  1  0.473762  0.535918  0.110835  1
  Na  Na3  1  0.473027  0.940827  0.110731  1
  Na  Na4  1  0.133237  0.855748  0.781275  1
  Na  Na5  1  0.712442  0.848282  0.802059  1
  Na  Na6  1  0.146885  0.288082  0.771143  1
  Na  Na7  1  0.855748  0.133237  0.281275  1
  Na  Na8  1  0.288082  0.146885  0.271143  1
  Na  Na9  1  0.848282  0.712442  0.302059  1
  Eu  Eu10  1  0.531435  0.058948  0.606954  1
  Eu  Eu11  1  0.058948  0.531435  0.106954  1
  V  V12  1  0.332688  0.663163  0.501274  1
  V  V13  1  0.663163  0.332688  0.001274  1
  P  P14  1  0.805781  0.199863  0.894659  1
  P  P15  1  0.393827  0.194423  0.885110  1
  P  P16  1  0.809383  0.609585  0.913066  1
  P  P17  1  0.199863  0.805781  0.394659  1
  P  P18  1  0.609585  0.809383  0.413066  1
  P  P19  1  0.194423  0.393827  0.385110  1
  P  P20  1  0.324529  0.668163  0.819994  1
  P  P21  1  0.668163  0.324529  0.319994  1
