# generated using pymatgen
data_CePuOsC2
_symmetry_space_group_name_H-M   'P 1'
_cell_length_a   5.23573700
_cell_length_b   6.35898800
_cell_length_c   9.93225400
_cell_angle_alpha   90.00000000
_cell_angle_beta   90.00000000
_cell_angle_gamma   90.00000000
_symmetry_Int_Tables_number   1
_chemical_formula_structural   CePuOsC2
_chemical_formula_sum   'Ce4 Pu4 Os4 C8'
_cell_volume   330.68435298
_cell_formula_units_Z   4
loop_
 _symmetry_equiv_pos_site_id
 _symmetry_equiv_pos_as_xyz
  1  'x, y, z'
loop_
 _atom_site_type_symbol
 _atom_site_label
 _atom_site_symmetry_multiplicity
 _atom_site_fract_x
 _atom_site_fract_y
 _atom_site_fract_z
 _atom_site_occupancy
  Ce  Ce0  1  0.250000  0.701331  0.544289  1
  Ce  Ce1  1  0.750000  0.298669  0.455711  1
  Ce  Ce2  1  0.750000  0.798669  0.044289  1
  Ce  Ce3  1  0.250000  0.201331  0.955711  1
  Pu  Pu4  1  0.250000  0.525897  0.227830  1
  Pu  Pu5  1  0.750000  0.474103  0.772170  1
  Pu  Pu6  1  0.750000  0.974103  0.727830  1
  Pu  Pu7  1  0.250000  0.025897  0.272170  1
  Os  Os8  1  0.250000  0.725980  0.864720  1
  Os  Os9  1  0.750000  0.274020  0.135280  1
  Os  Os10  1  0.750000  0.774020  0.364720  1
  Os  Os11  1  0.250000  0.225980  0.635280  1
  C  C12  1  0.250000  0.469037  0.753506  1
  C  C13  1  0.750000  0.530963  0.246494  1
  C  C14  1  0.750000  0.030963  0.253506  1
  C  C15  1  0.250000  0.969037  0.746494  1
  C  C16  1  0.250000  0.822903  0.055826  1
  C  C17  1  0.750000  0.177097  0.944174  1
  C  C18  1  0.750000  0.677097  0.555826  1
  C  C19  1  0.250000  0.322903  0.444174  1
