# generated using pymatgen
data_Ca3As6(Pd9Rh)2
_symmetry_space_group_name_H-M   'P 1'
_cell_length_a   8.88006019
_cell_length_b   8.93045213
_cell_length_c   8.88008921
_cell_angle_alpha   59.81209149
_cell_angle_beta   59.61582108
_cell_angle_gamma   59.81208658
_symmetry_Int_Tables_number   1
_chemical_formula_structural   Ca3As6(Pd9Rh)2
_chemical_formula_sum   'Ca3 As6 Pd18 Rh2'
_cell_volume   495.08828424
_cell_formula_units_Z   1
loop_
 _symmetry_equiv_pos_site_id
 _symmetry_equiv_pos_as_xyz
  1  'x, y, z'
loop_
 _atom_site_type_symbol
 _atom_site_label
 _atom_site_symmetry_multiplicity
 _atom_site_fract_x
 _atom_site_fract_y
 _atom_site_fract_z
 _atom_site_occupancy
  Ca  Ca0  1  0.254172  0.241105  0.254172  1
  Ca  Ca1  1  0.745828  0.749448  0.745829  1
  Ca  Ca2  1  0.000000  0.999854  0.000000  1
  As  As3  1  0.726339  0.732608  0.273662  1
  As  As4  1  0.264408  0.262252  0.735589  1
  As  As5  1  0.273661  0.732608  0.726339  1
  As  As6  1  0.732922  0.269935  0.732922  1
  As  As7  1  0.267076  0.735782  0.267077  1
  As  As8  1  0.735590  0.262251  0.264410  1
  Pd  Pd9  1  0.653410  0.353054  0.997033  1
  Pd  Pd10  1  0.997032  0.353056  0.653410  1
  Pd  Pd11  1  0.653645  0.001446  0.000470  1
  Pd  Pd12  1  0.620290  0.613611  0.148197  1
  Pd  Pd13  1  0.000471  0.001445  0.653644  1
  Pd  Pd14  1  0.000000  0.352300  0.000000  1
  Pd  Pd15  1  0.652421  0.999912  0.347579  1
  Pd  Pd16  1  0.346591  0.003497  0.002967  1
  Pd  Pd17  1  0.000000  0.656583  0.000000  1
  Pd  Pd18  1  0.347579  0.999911  0.652422  1
  Pd  Pd19  1  0.999530  0.655561  0.346355  1
  Pd  Pd20  1  0.346355  0.655561  0.999530  1
  Pd  Pd21  1  0.148197  0.613610  0.620290  1
  Pd  Pd22  1  0.383219  0.385706  0.383219  1
  Pd  Pd23  1  0.851803  0.382098  0.379710  1
  Pd  Pd24  1  0.379710  0.382098  0.851803  1
  Pd  Pd25  1  0.616781  0.152145  0.616781  1
  Pd  Pd26  1  0.002967  0.003497  0.346591  1
  Rh  Rh27  1  0.615349  0.609184  0.615348  1
  Rh  Rh28  1  0.384652  0.839880  0.384652  1
