# generated using pymatgen
data_Dy7(LuPb2)3
_symmetry_space_group_name_H-M   'P 1'
_cell_length_a   9.02727200
_cell_length_b   9.02727297
_cell_length_c   6.56068100
_cell_angle_alpha   90.00000000
_cell_angle_beta   90.00000000
_cell_angle_gamma   119.99999644
_symmetry_Int_Tables_number   1
_chemical_formula_structural   Dy7(LuPb2)3
_chemical_formula_sum   'Dy7 Lu3 Pb6'
_cell_volume   463.01245349
_cell_formula_units_Z   1
loop_
 _symmetry_equiv_pos_site_id
 _symmetry_equiv_pos_as_xyz
  1  'x, y, z'
loop_
 _atom_site_type_symbol
 _atom_site_label
 _atom_site_symmetry_multiplicity
 _atom_site_fract_x
 _atom_site_fract_y
 _atom_site_fract_z
 _atom_site_occupancy
  Dy  Dy0  1  0.238124  0.238229  0.750326  1
  Dy  Dy1  1  0.238124  0.999895  0.249674  1
  Dy  Dy2  1  0.000105  0.761876  0.750326  1
  Dy  Dy3  1  0.761771  0.761876  0.249674  1
  Dy  Dy4  1  0.000105  0.238229  0.249674  1
  Dy  Dy5  1  0.761771  0.999895  0.750326  1
  Dy  Dy6  1  0.666667  0.333333  0.500000  1
  Lu  Lu7  1  0.333333  0.666667  0.000000  1
  Lu  Lu8  1  0.666667  0.333333  0.000000  1
  Lu  Lu9  1  0.333333  0.666667  0.500000  1
  Pb  Pb10  1  0.001240  0.396355  0.751330  1
  Pb  Pb11  1  0.395115  0.396355  0.248670  1
  Pb  Pb12  1  0.603645  0.998760  0.248670  1
  Pb  Pb13  1  0.603645  0.604885  0.751330  1
  Pb  Pb14  1  0.395115  0.998760  0.751330  1
  Pb  Pb15  1  0.001240  0.604885  0.248670  1
