# generated using pymatgen
data_Ca7TbBi6
_symmetry_space_group_name_H-M   'P 1'
_cell_length_a   8.30343549
_cell_length_b   8.40378801
_cell_length_c   8.40378779
_cell_angle_alpha   109.71185665
_cell_angle_beta   109.22950104
_cell_angle_gamma   109.22949623
_symmetry_Int_Tables_number   1
_chemical_formula_structural   Ca7TbBi6
_chemical_formula_sum   'Ca7 Tb1 Bi6'
_cell_volume   452.76514096
_cell_formula_units_Z   1
loop_
 _symmetry_equiv_pos_site_id
 _symmetry_equiv_pos_as_xyz
  1  'x, y, z'
loop_
 _atom_site_type_symbol
 _atom_site_label
 _atom_site_symmetry_multiplicity
 _atom_site_fract_x
 _atom_site_fract_y
 _atom_site_fract_z
 _atom_site_occupancy
  Ca  Ca0  1  0.499806  0.001616  0.354551  1
  Ca  Ca1  1  0.500532  0.000586  0.851815  1
  Ca  Ca2  1  0.648717  0.648185  0.648771  1
  Ca  Ca3  1  0.998190  0.352935  0.498384  1
  Ca  Ca4  1  0.145255  0.145449  0.147065  1
  Ca  Ca5  1  0.852171  0.500000  0.000000  1
  Ca  Ca6  1  0.999945  0.851229  0.499414  1
  Tb  Tb7  1  0.355434  0.500000  0.000000  1
  Bi  Bi8  1  0.128243  0.745516  0.876173  1
  Bi  Bi9  1  0.882728  0.130657  0.754484  1
  Bi  Bi10  1  0.619230  0.375058  0.245722  1
  Bi  Bi11  1  0.373507  0.254278  0.629335  1
  Bi  Bi12  1  0.744172  0.870665  0.124942  1
  Bi  Bi13  1  0.252070  0.623827  0.369343  1
