# generated using pymatgen
data_EuTe16
_symmetry_space_group_name_H-M   'P 1'
_cell_length_a   11.56225982
_cell_length_b   11.56225959
_cell_length_c   11.31075103
_cell_angle_alpha   89.01890141
_cell_angle_beta   89.01889692
_cell_angle_gamma   108.94054410
_symmetry_Int_Tables_number   1
_chemical_formula_structural   EuTe16
_chemical_formula_sum   'Eu2 Te32'
_cell_volume   1429.59580112
_cell_formula_units_Z   2
loop_
 _symmetry_equiv_pos_site_id
 _symmetry_equiv_pos_as_xyz
  1  'x, y, z'
loop_
 _atom_site_type_symbol
 _atom_site_label
 _atom_site_symmetry_multiplicity
 _atom_site_fract_x
 _atom_site_fract_y
 _atom_site_fract_z
 _atom_site_occupancy
  Eu  Eu0  1  0.010216  0.747085  0.779113  1
  Eu  Eu1  1  0.252915  0.989784  0.220887  1
  Te  Te2  1  0.846238  0.008703  0.090048  1
  Te  Te3  1  0.875199  0.607295  0.154221  1
  Te  Te4  1  0.707588  0.783245  0.824041  1
  Te  Te5  1  0.552311  0.904262  0.286306  1
  Te  Te6  1  0.553633  0.585659  0.334501  1
  Te  Te7  1  0.414341  0.446367  0.665499  1
  Te  Te8  1  0.373601  0.928951  0.603529  1
  Te  Te9  1  0.392705  0.124801  0.845779  1
  Te  Te10  1  0.071049  0.626399  0.396471  1
  Te  Te11  1  0.216755  0.292412  0.175959  1
  Te  Te12  1  0.095738  0.447689  0.713694  1
  Te  Te13  1  0.991297  0.153762  0.909952  1
  Te  Te14  1  0.918924  0.507834  0.588481  1
  Te  Te15  1  0.822222  0.304778  0.900411  1
  Te  Te16  1  0.850493  0.856819  0.452908  1
  Te  Te17  1  0.890851  0.969191  0.687662  1
  Te  Te18  1  0.771140  0.573477  0.921527  1
  Te  Te19  1  0.684105  0.425063  0.271772  1
  Te  Te20  1  0.695222  0.177778  0.099589  1
  Te  Te21  1  0.630418  0.662067  0.571034  1
  Te  Te22  1  0.574937  0.315895  0.728228  1
  Te  Te23  1  0.492166  0.081076  0.411519  1
  Te  Te24  1  0.404595  0.893303  0.986206  1
  Te  Te25  1  0.307959  0.729154  0.181873  1
  Te  Te26  1  0.426523  0.228860  0.078473  1
  Te  Te27  1  0.337933  0.369582  0.428966  1
  Te  Te28  1  0.270846  0.692041  0.818127  1
  Te  Te29  1  0.143181  0.149507  0.547092  1
  Te  Te30  1  0.130045  0.869955  0.500000  1
  Te  Te31  1  0.066541  0.933459  0.000000  1
  Te  Te32  1  0.106697  0.595405  0.013794  1
  Te  Te33  1  0.030809  0.109149  0.312338  1
