# generated using pymatgen
data_YEr3(PdPt)2
_symmetry_space_group_name_H-M   'P 1'
_cell_length_a   4.52227100
_cell_length_b   5.57927907
_cell_length_c   6.97044049
_cell_angle_alpha   90.16742098
_cell_angle_beta   90.00000000
_cell_angle_gamma   90.00000000
_symmetry_Int_Tables_number   1
_chemical_formula_structural   YEr3(PdPt)2
_chemical_formula_sum   'Y1 Er3 Pd2 Pt2'
_cell_volume   175.87051661
_cell_formula_units_Z   1
loop_
 _symmetry_equiv_pos_site_id
 _symmetry_equiv_pos_as_xyz
  1  'x, y, z'
loop_
 _atom_site_type_symbol
 _atom_site_label
 _atom_site_symmetry_multiplicity
 _atom_site_fract_x
 _atom_site_fract_y
 _atom_site_fract_z
 _atom_site_occupancy
  Y  Y0  1  0.500000  0.612369  0.818534  1
  Er  Er1  1  0.000000  0.104531  0.682541  1
  Er  Er2  1  0.000000  0.895940  0.183130  1
  Er  Er3  1  0.500000  0.387072  0.318519  1
  Pd  Pd4  1  0.000000  0.591763  0.540247  1
  Pd  Pd5  1  0.000000  0.406619  0.045628  1
  Pt  Pt6  1  0.500000  0.901321  0.454117  1
  Pt  Pt7  1  0.500000  0.100384  0.957281  1
