# generated using pymatgen
data_TaTi4Re17Tc7
_symmetry_space_group_name_H-M   'P 1'
_cell_length_a   8.36197233
_cell_length_b   8.36197165
_cell_length_c   8.35390501
_cell_angle_alpha   109.48143943
_cell_angle_beta   109.48143136
_cell_angle_gamma   109.54806892
_symmetry_Int_Tables_number   1
_chemical_formula_structural   TaTi4Re17Tc7
_chemical_formula_sum   'Ta1 Ti4 Re17 Tc7'
_cell_volume   449.12003265
_cell_formula_units_Z   1
loop_
 _symmetry_equiv_pos_site_id
 _symmetry_equiv_pos_as_xyz
  1  'x, y, z'
loop_
 _atom_site_type_symbol
 _atom_site_label
 _atom_site_symmetry_multiplicity
 _atom_site_fract_x
 _atom_site_fract_y
 _atom_site_fract_z
 _atom_site_occupancy
  Ta  Ta0  1  0.999749  0.999749  0.999882  1
  Ti  Ti1  1  0.629932  0.999755  0.999839  1
  Ti  Ti2  1  0.999755  0.629932  0.999839  1
  Ti  Ti3  1  0.000845  0.000845  0.631491  1
  Ti  Ti4  1  0.368501  0.368501  0.368829  1
  Re  Re5  1  0.000743  0.681732  0.400056  1
  Re  Re6  1  0.681732  0.000743  0.400056  1
  Re  Re7  1  0.599880  0.599880  0.280921  1
  Re  Re8  1  0.281312  0.600807  0.600360  1
  Re  Re9  1  0.600807  0.281312  0.600360  1
  Re  Re10  1  0.375986  0.194088  0.000496  1
  Re  Re11  1  0.180885  0.806542  0.805993  1
  Re  Re12  1  0.374894  0.000393  0.193771  1
  Re  Re13  1  0.194088  0.375986  0.000496  1
  Re  Re14  1  0.000393  0.374894  0.193771  1
  Re  Re15  1  0.806542  0.180885  0.805993  1
  Re  Re16  1  0.806492  0.806492  0.181400  1
  Re  Re17  1  0.000744  0.193651  0.376514  1
  Re  Re18  1  0.193651  0.000744  0.376514  1
  Re  Re19  1  0.623592  0.623592  0.816783  1
  Re  Re20  1  0.816733  0.623856  0.623595  1
  Re  Re21  1  0.623856  0.816733  0.623595  1
  Tc  Tc22  1  0.400179  0.682693  0.000194  1
  Tc  Tc23  1  0.718120  0.317537  0.317000  1
  Tc  Tc24  1  0.401075  0.001439  0.683330  1
  Tc  Tc25  1  0.682693  0.400179  0.000194  1
  Tc  Tc26  1  0.001439  0.401075  0.683330  1
  Tc  Tc27  1  0.317537  0.718120  0.317000  1
  Tc  Tc28  1  0.317846  0.317846  0.718401  1
