# generated using pymatgen
data_Na5GaSe4
_symmetry_space_group_name_H-M   'P 1'
_cell_length_a   9.17155400
_cell_length_b   7.04598842
_cell_length_c   8.08570457
_cell_angle_alpha   89.08406843
_cell_angle_beta   90.00000000
_cell_angle_gamma   90.00000000
_symmetry_Int_Tables_number   1
_chemical_formula_structural   Na5GaSe4
_chemical_formula_sum   'Na10 Ga2 Se8'
_cell_volume   522.45300018
_cell_formula_units_Z   2
loop_
 _symmetry_equiv_pos_site_id
 _symmetry_equiv_pos_as_xyz
  1  'x, y, z'
loop_
 _atom_site_type_symbol
 _atom_site_label
 _atom_site_symmetry_multiplicity
 _atom_site_fract_x
 _atom_site_fract_y
 _atom_site_fract_z
 _atom_site_occupancy
  Na  Na0  1  0.478855  0.347469  0.666277  1
  Na  Na1  1  0.978855  0.652531  0.333723  1
  Na  Na2  1  0.521145  0.652531  0.333723  1
  Na  Na3  1  0.021145  0.347469  0.666277  1
  Na  Na4  1  0.750000  0.023168  0.532394  1
  Na  Na5  1  0.250000  0.976832  0.467606  1
  Na  Na6  1  0.750000  0.334146  0.160447  1
  Na  Na7  1  0.250000  0.665854  0.839553  1
  Na  Na8  1  0.000000  0.000000  0.000000  1
  Na  Na9  1  0.500000  0.000000  0.000000  1
  Ga  Ga10  1  0.250000  0.363839  0.176939  1
  Ga  Ga11  1  0.750000  0.636161  0.823061  1
  Se  Se12  1  0.250000  0.241935  0.892821  1
  Se  Se13  1  0.750000  0.758065  0.107179  1
  Se  Se14  1  0.969935  0.765835  0.678233  1
  Se  Se15  1  0.469935  0.234165  0.321767  1
  Se  Se16  1  0.030065  0.234165  0.321767  1
  Se  Se17  1  0.530065  0.765835  0.678233  1
  Se  Se18  1  0.750000  0.286616  0.818687  1
  Se  Se19  1  0.250000  0.713384  0.181313  1
