# generated using pymatgen
data_MnV(SnRu2)2
_symmetry_space_group_name_H-M   'P 1'
_cell_length_a   7.63018352
_cell_length_b   7.63018363
_cell_length_c   7.63018257
_cell_angle_alpha   33.53751752
_cell_angle_beta   33.53751785
_cell_angle_gamma   33.53751690
_symmetry_Int_Tables_number   1
_chemical_formula_structural   MnV(SnRu2)2
_chemical_formula_sum   'Mn1 V1 Sn2 Ru4'
_cell_volume   120.77342452
_cell_formula_units_Z   1
loop_
 _symmetry_equiv_pos_site_id
 _symmetry_equiv_pos_as_xyz
  1  'x, y, z'
loop_
 _atom_site_type_symbol
 _atom_site_label
 _atom_site_symmetry_multiplicity
 _atom_site_fract_x
 _atom_site_fract_y
 _atom_site_fract_z
 _atom_site_occupancy
  Mn  Mn0  1  0.000000  0.000000  0.000000  1
  V  V1  1  0.500000  0.500000  0.500000  1
  Sn  Sn2  1  0.252271  0.252271  0.252271  1
  Sn  Sn3  1  0.747729  0.747729  0.747729  1
  Ru  Ru4  1  0.621214  0.621214  0.621214  1
  Ru  Ru5  1  0.127314  0.127314  0.127314  1
  Ru  Ru6  1  0.872686  0.872686  0.872686  1
  Ru  Ru7  1  0.378786  0.378786  0.378786  1
