# generated using pymatgen
data_Yb2Sc2Si7TcPt9
_symmetry_space_group_name_H-M   'P 1'
_cell_length_a   9.94986100
_cell_length_b   9.99853292
_cell_length_c   3.96854700
_cell_angle_alpha   90.00000000
_cell_angle_beta   90.00000000
_cell_angle_gamma   119.75925380
_symmetry_Int_Tables_number   1
_chemical_formula_structural   Yb2Sc2Si7TcPt9
_chemical_formula_sum   'Yb2 Sc2 Si7 Tc1 Pt9'
_cell_volume   342.73930675
_cell_formula_units_Z   1
loop_
 _symmetry_equiv_pos_site_id
 _symmetry_equiv_pos_as_xyz
  1  'x, y, z'
loop_
 _atom_site_type_symbol
 _atom_site_label
 _atom_site_symmetry_multiplicity
 _atom_site_fract_x
 _atom_site_fract_y
 _atom_site_fract_z
 _atom_site_occupancy
  Yb  Yb0  1  0.000613  0.995530  0.000000  1
  Yb  Yb1  1  0.329114  0.665936  0.500000  1
  Sc  Sc2  1  0.568024  0.110576  0.500000  1
  Sc  Sc3  1  0.547487  0.438423  0.500000  1
  Si  Si4  1  0.247046  0.203842  0.500000  1
  Si  Si5  1  0.802385  0.044431  0.500000  1
  Si  Si6  1  0.952053  0.731049  0.500000  1
  Si  Si7  1  0.549150  0.643380  0.000000  1
  Si  Si8  1  0.356720  0.911451  0.000000  1
  Si  Si9  1  0.078863  0.449203  0.000000  1
  Si  Si10  1  0.686853  0.342550  0.000000  1
  Tc  Tc11  1  0.880362  0.455033  0.500000  1
  Pt  Pt12  1  0.220203  0.942209  0.500000  1
  Pt  Pt13  1  0.057658  0.285482  0.500000  1
  Pt  Pt14  1  0.717707  0.775436  0.500000  1
  Pt  Pt15  1  0.303426  0.406041  0.000000  1
  Pt  Pt16  1  0.591074  0.901261  0.000000  1
  Pt  Pt17  1  0.097343  0.695213  0.000000  1
  Pt  Pt18  1  0.399571  0.179916  0.000000  1
  Pt  Pt19  1  0.830405  0.209388  0.000000  1
  Pt  Pt20  1  0.783941  0.613654  0.000000  1
