# generated using pymatgen
data_Pr2(HoAu2)5
_symmetry_space_group_name_H-M   'P 1'
_cell_length_a   8.79517500
_cell_length_b   8.79517443
_cell_length_c   10.41334900
_cell_angle_alpha   90.00000000
_cell_angle_beta   90.00000000
_cell_angle_gamma   107.16230682
_symmetry_Int_Tables_number   1
_chemical_formula_structural   Pr2(HoAu2)5
_chemical_formula_sum   'Pr4 Ho10 Au20'
_cell_volume   769.65774811
_cell_formula_units_Z   2
loop_
 _symmetry_equiv_pos_site_id
 _symmetry_equiv_pos_as_xyz
  1  'x, y, z'
loop_
 _atom_site_type_symbol
 _atom_site_label
 _atom_site_symmetry_multiplicity
 _atom_site_fract_x
 _atom_site_fract_y
 _atom_site_fract_z
 _atom_site_occupancy
  Pr  Pr0  1  0.308321  0.308321  0.192505  1
  Pr  Pr1  1  0.691679  0.691679  0.807495  1
  Pr  Pr2  1  0.191679  0.191679  0.692505  1
  Pr  Pr3  1  0.808321  0.808321  0.307495  1
  Ho  Ho4  1  0.695054  0.304946  0.000000  1
  Ho  Ho5  1  0.304946  0.695054  0.000000  1
  Ho  Ho6  1  0.804946  0.195054  0.500000  1
  Ho  Ho7  1  0.195054  0.804946  0.500000  1
  Ho  Ho8  1  0.000000  0.000000  0.000000  1
  Ho  Ho9  1  0.500000  0.500000  0.500000  1
  Ho  Ho10  1  0.001853  0.501853  0.250000  1
  Ho  Ho11  1  0.998147  0.498147  0.750000  1
  Ho  Ho12  1  0.498147  0.998147  0.750000  1
  Ho  Ho13  1  0.501853  0.001853  0.250000  1
  Au  Au14  1  0.859552  0.154133  0.208261  1
  Au  Au15  1  0.140448  0.845867  0.791739  1
  Au  Au16  1  0.640448  0.345867  0.708261  1
  Au  Au17  1  0.654133  0.359552  0.291739  1
  Au  Au18  1  0.359552  0.654133  0.291739  1
  Au  Au19  1  0.345867  0.640448  0.708261  1
  Au  Au20  1  0.845867  0.140448  0.791739  1
  Au  Au21  1  0.154133  0.859552  0.208261  1
  Au  Au22  1  0.941119  0.644320  0.006238  1
  Au  Au23  1  0.058881  0.355680  0.993762  1
  Au  Au24  1  0.558881  0.855680  0.506238  1
  Au  Au25  1  0.144320  0.441119  0.493762  1
  Au  Au26  1  0.441119  0.144320  0.493762  1
  Au  Au27  1  0.855680  0.558881  0.506238  1
  Au  Au28  1  0.355680  0.058881  0.993762  1
  Au  Au29  1  0.644320  0.941119  0.006238  1
  Au  Au30  1  0.100741  0.100741  0.401163  1
  Au  Au31  1  0.899259  0.899259  0.598837  1
  Au  Au32  1  0.399259  0.399259  0.901163  1
  Au  Au33  1  0.600741  0.600741  0.098837  1
