# generated using pymatgen
data_Nd6EuCoI12
_symmetry_space_group_name_H-M   'P 1'
_cell_length_a   10.03709438
_cell_length_b   10.03709313
_cell_length_c   10.03709291
_cell_angle_alpha   106.96002182
_cell_angle_beta   106.96002326
_cell_angle_gamma   106.96002354
_symmetry_Int_Tables_number   1
_chemical_formula_structural   Nd6EuCoI12
_chemical_formula_sum   'Nd6 Eu1 Co1 I12'
_cell_volume   843.02819242
_cell_formula_units_Z   1
loop_
 _symmetry_equiv_pos_site_id
 _symmetry_equiv_pos_as_xyz
  1  'x, y, z'
loop_
 _atom_site_type_symbol
 _atom_site_label
 _atom_site_symmetry_multiplicity
 _atom_site_fract_x
 _atom_site_fract_y
 _atom_site_fract_z
 _atom_site_occupancy
  Nd  Nd0  1  0.796578  0.522521  0.595151  1
  Nd  Nd1  1  0.522521  0.595151  0.796578  1
  Nd  Nd2  1  0.203422  0.477479  0.404849  1
  Nd  Nd3  1  0.477479  0.404849  0.203422  1
  Nd  Nd4  1  0.595151  0.796578  0.522521  1
  Nd  Nd5  1  0.404849  0.203422  0.477479  1
  Eu  Eu6  1  0.000000  0.000000  0.000000  1
  Co  Co7  1  0.500000  0.500000  0.500000  1
  I  I8  1  0.725439  0.181212  0.574045  1
  I  I9  1  0.955900  0.876713  0.647991  1
  I  I10  1  0.574045  0.725439  0.181212  1
  I  I11  1  0.123287  0.352009  0.044100  1
  I  I12  1  0.647991  0.955900  0.876713  1
  I  I13  1  0.876713  0.647991  0.955900  1
  I  I14  1  0.044100  0.123287  0.352009  1
  I  I15  1  0.818788  0.425955  0.274561  1
  I  I16  1  0.352009  0.044100  0.123287  1
  I  I17  1  0.274561  0.818788  0.425955  1
  I  I18  1  0.181212  0.574045  0.725439  1
  I  I19  1  0.425955  0.274561  0.818788  1
