# generated using pymatgen
data_Pr3CuHg3Au2
_symmetry_space_group_name_H-M   'P 1'
_cell_length_a   8.02859400
_cell_length_b   8.02859369
_cell_length_c   3.90625400
_cell_angle_alpha   90.00000000
_cell_angle_beta   90.00000000
_cell_angle_gamma   120.00000129
_symmetry_Int_Tables_number   1
_chemical_formula_structural   Pr3CuHg3Au2
_chemical_formula_sum   'Pr3 Cu1 Hg3 Au2'
_cell_volume   218.05702450
_cell_formula_units_Z   1
loop_
 _symmetry_equiv_pos_site_id
 _symmetry_equiv_pos_as_xyz
  1  'x, y, z'
loop_
 _atom_site_type_symbol
 _atom_site_label
 _atom_site_symmetry_multiplicity
 _atom_site_fract_x
 _atom_site_fract_y
 _atom_site_fract_z
 _atom_site_occupancy
  Pr  Pr0  1  0.406614  0.000000  0.500000  1
  Pr  Pr1  1  0.000000  0.406614  0.500000  1
  Pr  Pr2  1  0.593386  0.593386  0.500000  1
  Cu  Cu3  1  0.000000  0.000000  0.500000  1
  Hg  Hg4  1  0.752045  0.000000  0.000000  1
  Hg  Hg5  1  0.000000  0.752045  0.000000  1
  Hg  Hg6  1  0.247955  0.247955  0.000000  1
  Au  Au7  1  0.333333  0.666667  0.000000  1
  Au  Au8  1  0.666667  0.333333  0.000000  1
