# generated using pymatgen
data_Hf8Zr2GaCuSnSb5
_symmetry_space_group_name_H-M   'P 1'
_cell_length_a   8.65766900
_cell_length_b   8.63413459
_cell_length_c   5.81446200
_cell_angle_alpha   90.00000000
_cell_angle_beta   90.00000000
_cell_angle_gamma   119.91011842
_symmetry_Int_Tables_number   1
_chemical_formula_structural   Hf8Zr2GaCuSnSb5
_chemical_formula_sum   'Hf8 Zr2 Ga1 Cu1 Sn1 Sb5'
_cell_volume   376.74941914
_cell_formula_units_Z   1
loop_
 _symmetry_equiv_pos_site_id
 _symmetry_equiv_pos_as_xyz
  1  'x, y, z'
loop_
 _atom_site_type_symbol
 _atom_site_label
 _atom_site_symmetry_multiplicity
 _atom_site_fract_x
 _atom_site_fract_y
 _atom_site_fract_z
 _atom_site_occupancy
  Hf  Hf0  1  0.000000  0.262361  0.751668  1
  Hf  Hf1  1  0.270402  0.270955  0.248016  1
  Hf  Hf2  1  0.729598  0.000553  0.248016  1
  Hf  Hf3  1  0.000000  0.731031  0.248202  1
  Hf  Hf4  1  0.666105  0.332854  0.001265  1
  Hf  Hf5  1  0.333895  0.666751  0.001265  1
  Hf  Hf6  1  0.333372  0.666368  0.498731  1
  Hf  Hf7  1  0.666628  0.332994  0.498731  1
  Zr  Zr8  1  0.736352  0.735484  0.750982  1
  Zr  Zr9  1  0.263648  0.999132  0.750982  1
  Ga  Ga10  1  0.000000  0.001503  0.490686  1
  Cu  Cu11  1  0.000000  0.002513  0.010963  1
  Sn  Sn12  1  0.000000  0.384964  0.249913  1
  Sb  Sb13  1  0.388126  0.388738  0.750382  1
  Sb  Sb14  1  0.611874  0.000612  0.750382  1
  Sb  Sb15  1  0.000000  0.607841  0.750324  1
  Sb  Sb16  1  0.615208  0.615276  0.249746  1
  Sb  Sb17  1  0.384792  0.000068  0.249746  1
