# generated using pymatgen
data_DyZr2TcF15
_symmetry_space_group_name_H-M   'P 1'
_cell_length_a   8.16881929
_cell_length_b   8.16881923
_cell_length_c   8.14807516
_cell_angle_alpha   79.79378025
_cell_angle_beta   79.79377938
_cell_angle_gamma   99.91007152
_symmetry_Int_Tables_number   1
_chemical_formula_structural   DyZr2TcF15
_chemical_formula_sum   'Dy2 Zr4 Tc2 F30'
_cell_volume   514.89253413
_cell_formula_units_Z   2
loop_
 _symmetry_equiv_pos_site_id
 _symmetry_equiv_pos_as_xyz
  1  'x, y, z'
loop_
 _atom_site_type_symbol
 _atom_site_label
 _atom_site_symmetry_multiplicity
 _atom_site_fract_x
 _atom_site_fract_y
 _atom_site_fract_z
 _atom_site_occupancy
  Dy  Dy0  1  0.177984  0.822016  0.250000  1
  Dy  Dy1  1  0.822016  0.177984  0.750000  1
  Zr  Zr2  1  0.746961  0.677750  0.673276  1
  Zr  Zr3  1  0.322250  0.253039  0.826724  1
  Zr  Zr4  1  0.253039  0.322250  0.326724  1
  Zr  Zr5  1  0.677750  0.746961  0.173276  1
  Tc  Tc6  1  0.750079  0.249921  0.250000  1
  Tc  Tc7  1  0.249921  0.750079  0.750000  1
  F  F8  1  0.313730  0.350478  0.054731  1
  F  F9  1  0.935321  0.810698  0.152707  1
  F  F10  1  0.844324  0.460899  0.685507  1
  F  F11  1  0.460899  0.844324  0.185507  1
  F  F12  1  0.810698  0.935321  0.652707  1
  F  F13  1  0.350478  0.313730  0.554730  1
  F  F14  1  0.686270  0.649522  0.945269  1
  F  F15  1  0.064679  0.189302  0.847293  1
  F  F16  1  0.155676  0.539101  0.314493  1
  F  F17  1  0.539101  0.155676  0.814493  1
  F  F18  1  0.189302  0.064679  0.347293  1
  F  F19  1  0.649522  0.686270  0.445269  1
  F  F20  1  0.773474  0.281425  0.002290  1
  F  F21  1  0.998206  0.273666  0.217355  1
  F  F22  1  0.778631  0.500634  0.224990  1
  F  F23  1  0.500634  0.778631  0.724990  1
  F  F24  1  0.273666  0.998206  0.717355  1
  F  F25  1  0.281425  0.773474  0.502290  1
  F  F26  1  0.226526  0.718575  0.997710  1
  F  F27  1  0.001794  0.726334  0.782645  1
  F  F28  1  0.221369  0.499366  0.775010  1
  F  F29  1  0.499366  0.221369  0.275010  1
  F  F30  1  0.726334  0.001794  0.282645  1
  F  F31  1  0.718575  0.226526  0.497710  1
  F  F32  1  0.468110  0.531890  0.250000  1
  F  F33  1  0.747134  0.955016  0.971791  1
  F  F34  1  0.044984  0.252866  0.528209  1
  F  F35  1  0.252866  0.044984  0.028209  1
  F  F36  1  0.955016  0.747134  0.471791  1
  F  F37  1  0.531890  0.468110  0.750000  1
