# generated using pymatgen
data_La12AlGa7Ir8
_symmetry_space_group_name_H-M   'P 1'
_cell_length_a   5.84480600
_cell_length_b   8.28607950
_cell_length_c   13.76458650
_cell_angle_alpha   90.04992125
_cell_angle_beta   90.00000000
_cell_angle_gamma   90.00000000
_symmetry_Int_Tables_number   1
_chemical_formula_structural   La12AlGa7Ir8
_chemical_formula_sum   'La12 Al1 Ga7 Ir8'
_cell_volume   666.62592746
_cell_formula_units_Z   1
loop_
 _symmetry_equiv_pos_site_id
 _symmetry_equiv_pos_as_xyz
  1  'x, y, z'
loop_
 _atom_site_type_symbol
 _atom_site_label
 _atom_site_symmetry_multiplicity
 _atom_site_fract_x
 _atom_site_fract_y
 _atom_site_fract_z
 _atom_site_occupancy
  La  La0  1  0.629592  0.258247  0.250828  1
  La  La1  1  0.369018  0.740221  0.749076  1
  La  La2  1  0.369018  0.759779  0.250924  1
  La  La3  1  0.629592  0.241753  0.749172  1
  La  La4  1  0.148706  0.401266  0.097229  1
  La  La5  1  0.852599  0.601821  0.903298  1
  La  La6  1  0.849962  0.600848  0.596579  1
  La  La7  1  0.849962  0.899152  0.403421  1
  La  La8  1  0.149690  0.399516  0.403827  1
  La  La9  1  0.149690  0.100484  0.596173  1
  La  La10  1  0.148706  0.098734  0.902771  1
  La  La11  1  0.852599  0.898179  0.096702  1
  Al  Al12  1  0.612673  0.250000  0.000000  1
  Ga  Ga13  1  0.136529  0.108687  0.249975  1
  Ga  Ga14  1  0.861630  0.892517  0.749806  1
  Ga  Ga15  1  0.861630  0.607483  0.250194  1
  Ga  Ga16  1  0.136529  0.391313  0.750025  1
  Ga  Ga17  1  0.380153  0.750000  0.000000  1
  Ga  Ga18  1  0.377416  0.750000  0.500000  1
  Ga  Ga19  1  0.622460  0.250000  0.500000  1
  Ir  Ir20  1  0.359614  0.032896  0.091956  1
  Ir  Ir21  1  0.646407  0.973923  0.909649  1
  Ir  Ir22  1  0.643665  0.969422  0.591589  1
  Ir  Ir23  1  0.643665  0.530578  0.408411  1
  Ir  Ir24  1  0.356236  0.030190  0.408177  1
  Ir  Ir25  1  0.356236  0.469810  0.591823  1
  Ir  Ir26  1  0.359614  0.467104  0.908044  1
  Ir  Ir27  1  0.646407  0.526077  0.090351  1
