# generated using pymatgen
data_Y12Co3CuSiSn
_symmetry_space_group_name_H-M   'P 1'
_cell_length_a   8.40374751
_cell_length_b   8.40374716
_cell_length_c   8.40374897
_cell_angle_alpha   112.66192616
_cell_angle_beta   110.32915074
_cell_angle_gamma   105.50332582
_symmetry_Int_Tables_number   1
_chemical_formula_structural   Y12Co3CuSiSn
_chemical_formula_sum   'Y12 Co3 Cu1 Si1 Sn1'
_cell_volume   455.04276474
_cell_formula_units_Z   1
loop_
 _symmetry_equiv_pos_site_id
 _symmetry_equiv_pos_as_xyz
  1  'x, y, z'
loop_
 _atom_site_type_symbol
 _atom_site_label
 _atom_site_symmetry_multiplicity
 _atom_site_fract_x
 _atom_site_fract_y
 _atom_site_fract_z
 _atom_site_occupancy
  Y  Y0  1  0.424212  0.231989  0.192223  1
  Y  Y1  1  0.581672  0.777344  0.804328  1
  Y  Y2  1  0.026984  0.222656  0.804328  1
  Y  Y3  1  0.960234  0.768011  0.192223  1
  Y  Y4  1  0.183251  0.286373  0.469625  1
  Y  Y5  1  0.817030  0.718010  0.535039  1
  Y  Y6  1  0.183251  0.713627  0.896879  1
  Y  Y7  1  0.817030  0.281990  0.099020  1
  Y  Y8  1  0.315533  0.625057  0.316011  1
  Y  Y9  1  0.690954  0.374943  0.690475  1
  Y  Y10  1  0.315533  0.999521  0.690475  1
  Y  Y11  1  0.690954  0.000479  0.316011  1
  Co  Co12  1  0.636560  0.000000  0.636560  1
  Co  Co13  1  0.108798  0.609236  0.499562  1
  Co  Co14  1  0.890325  0.390764  0.499562  1
  Cu  Cu15  1  0.997797  0.000000  0.997797  1
  Si  Si16  1  0.364178  0.000000  0.364178  1
  Sn  Sn17  1  0.495704  0.500000  0.995704  1
