# generated using pymatgen
data_Y11LuCo5Sn
_symmetry_space_group_name_H-M   'P 1'
_cell_length_a   8.30917080
_cell_length_b   8.30917100
_cell_length_c   8.28715392
_cell_angle_alpha   106.87557711
_cell_angle_beta   110.78602615
_cell_angle_gamma   110.88762871
_symmetry_Int_Tables_number   1
_chemical_formula_structural   Y11LuCo5Sn
_chemical_formula_sum   'Y11 Lu1 Co5 Sn1'
_cell_volume   439.19409061
_cell_formula_units_Z   1
loop_
 _symmetry_equiv_pos_site_id
 _symmetry_equiv_pos_as_xyz
  1  'x, y, z'
loop_
 _atom_site_type_symbol
 _atom_site_label
 _atom_site_symmetry_multiplicity
 _atom_site_fract_x
 _atom_site_fract_y
 _atom_site_fract_z
 _atom_site_occupancy
  Y  Y0  1  0.480365  0.292856  0.186461  1
  Y  Y1  1  0.103732  0.289942  0.814805  1
  Y  Y2  1  0.893605  0.706097  0.186461  1
  Y  Y3  1  0.524862  0.711073  0.814805  1
  Y  Y4  1  0.302385  0.616694  0.311278  1
  Y  Y5  1  0.306658  0.992298  0.687857  1
  Y  Y6  1  0.695561  0.381199  0.687857  1
  Y  Y7  1  0.694584  0.008892  0.311278  1
  Y  Y8  1  0.191398  0.207125  0.398522  1
  Y  Y9  1  0.805604  0.790292  0.595896  1
  Y  Y10  1  0.192587  0.792802  0.985387  1
  Lu  Lu11  1  0.805111  0.208595  0.013708  1
  Co  Co12  1  0.499055  0.611052  0.110106  1
  Co  Co13  1  0.503197  0.388759  0.891956  1
  Co  Co14  1  0.382700  0.999365  0.382065  1
  Co  Co15  1  0.624587  0.001135  0.625721  1
  Co  Co16  1  0.994224  0.002254  0.996478  1
  Sn  Sn17  1  0.999787  0.499570  0.499358  1
