# generated using pymatgen
data_Na3Er(Ni7P4)2
_symmetry_space_group_name_H-M   'P 1'
_cell_length_a   3.65002700
_cell_length_b   9.14401373
_cell_length_c   10.28002515
_cell_angle_alpha   89.44401684
_cell_angle_beta   90.00000000
_cell_angle_gamma   90.00000000
_symmetry_Int_Tables_number   1
_chemical_formula_structural   Na3Er(Ni7P4)2
_chemical_formula_sum   'Na3 Er1 Ni14 P8'
_cell_volume   343.08890716
_cell_formula_units_Z   1
loop_
 _symmetry_equiv_pos_site_id
 _symmetry_equiv_pos_as_xyz
  1  'x, y, z'
loop_
 _atom_site_type_symbol
 _atom_site_label
 _atom_site_symmetry_multiplicity
 _atom_site_fract_x
 _atom_site_fract_y
 _atom_site_fract_z
 _atom_site_occupancy
  Na  Na0  1  0.500000  0.442991  0.499953  1
  Na  Na1  1  0.500000  0.060885  0.283117  1
  Na  Na2  1  0.000000  0.938547  0.784169  1
  Er  Er3  1  0.000000  0.561639  0.002119  1
  Ni  Ni4  1  0.500000  0.307765  0.073135  1
  Ni  Ni5  1  0.500000  0.751871  0.406046  1
  Ni  Ni6  1  0.500000  0.413533  0.816043  1
  Ni  Ni7  1  0.500000  0.059091  0.974879  1
  Ni  Ni8  1  0.500000  0.682157  0.769777  1
  Ni  Ni9  1  0.000000  0.274605  0.664861  1
  Ni  Ni10  1  0.000000  0.248228  0.903469  1
  Ni  Ni11  1  0.000000  0.696349  0.582316  1
  Ni  Ni12  1  0.500000  0.098645  0.576182  1
  Ni  Ni13  1  0.000000  0.314337  0.261420  1
  Ni  Ni14  1  0.000000  0.585552  0.304163  1
  Ni  Ni15  1  0.000000  0.903157  0.078977  1
  Ni  Ni16  1  0.000000  0.941730  0.476349  1
  Ni  Ni17  1  0.500000  0.725160  0.168899  1
  P  P18  1  0.000000  0.822934  0.285374  1
  P  P19  1  0.000000  0.189241  0.459996  1
  P  P20  1  0.500000  0.177947  0.781472  1
  P  P21  1  0.000000  0.153251  0.096569  1
  P  P22  1  0.500000  0.476997  0.220320  1
  P  P23  1  0.500000  0.809232  0.964178  1
  P  P24  1  0.500000  0.844430  0.598191  1
  P  P25  1  0.000000  0.519728  0.723427  1
