# generated using pymatgen
data_Dy6TmZn(Co3Sn11)2
_symmetry_space_group_name_H-M   'P 1'
_cell_length_a   9.67009695
_cell_length_b   9.67009676
_cell_length_c   9.95612467
_cell_angle_alpha   89.92736493
_cell_angle_beta   90.07263835
_cell_angle_gamma   119.99505716
_symmetry_Int_Tables_number   1
_chemical_formula_structural   Dy6TmZn(Co3Sn11)2
_chemical_formula_sum   'Dy6 Tm1 Zn1 Co6 Sn22'
_cell_volume   806.31319976
_cell_formula_units_Z   1
loop_
 _symmetry_equiv_pos_site_id
 _symmetry_equiv_pos_as_xyz
  1  'x, y, z'
loop_
 _atom_site_type_symbol
 _atom_site_label
 _atom_site_symmetry_multiplicity
 _atom_site_fract_x
 _atom_site_fract_y
 _atom_site_fract_z
 _atom_site_occupancy
  Dy  Dy0  1  0.999904  0.000096  0.000167  1
  Dy  Dy1  1  0.520761  0.479239  0.694034  1
  Dy  Dy2  1  0.479152  0.958587  0.305769  1
  Dy  Dy3  1  0.520712  0.041456  0.694118  1
  Dy  Dy4  1  0.041413  0.520848  0.305769  1
  Dy  Dy5  1  0.958544  0.479288  0.694118  1
  Tm  Tm6  1  0.479876  0.520124  0.305485  1
  Zn  Zn7  1  0.999974  0.000026  0.499913  1
  Co  Co8  1  0.832467  0.167533  0.197277  1
  Co  Co9  1  0.167684  0.832316  0.802964  1
  Co  Co10  1  0.831516  0.664308  0.197382  1
  Co  Co11  1  0.167719  0.335348  0.802834  1
  Co  Co12  1  0.335692  0.168484  0.197382  1
  Co  Co13  1  0.664652  0.832281  0.802834  1
  Sn  Sn14  1  0.346025  0.000228  0.999990  1
  Sn  Sn15  1  0.654007  0.999859  0.000042  1
  Sn  Sn16  1  0.000141  0.345993  0.000042  1
  Sn  Sn17  1  0.999772  0.653975  0.999990  1
  Sn  Sn18  1  0.653868  0.654062  0.000082  1
  Sn  Sn19  1  0.345938  0.346132  0.000082  1
  Sn  Sn20  1  0.333316  0.666684  0.818761  1
  Sn  Sn21  1  0.666548  0.333452  0.181419  1
  Sn  Sn22  1  0.783102  0.216898  0.453360  1
  Sn  Sn23  1  0.216858  0.783142  0.546613  1
  Sn  Sn24  1  0.782197  0.566213  0.453077  1
  Sn  Sn25  1  0.217383  0.433804  0.545975  1
  Sn  Sn26  1  0.433787  0.217803  0.453077  1
  Sn  Sn27  1  0.566196  0.782617  0.545975  1
  Sn  Sn28  1  0.334318  0.665682  0.119808  1
  Sn  Sn29  1  0.666680  0.333320  0.881105  1
  Sn  Sn30  1  0.113425  0.886575  0.276795  1
  Sn  Sn31  1  0.886484  0.113516  0.723284  1
  Sn  Sn32  1  0.114269  0.227952  0.276925  1
  Sn  Sn33  1  0.886447  0.772875  0.723311  1
  Sn  Sn34  1  0.772048  0.885731  0.276925  1
  Sn  Sn35  1  0.227125  0.113553  0.723311  1
