# generated using pymatgen
data_Sr5La3(FeO3)8
_symmetry_space_group_name_H-M   'P 1'
_cell_length_a   7.84243610
_cell_length_b   7.84243605
_cell_length_c   7.84881109
_cell_angle_alpha   90.00272058
_cell_angle_beta   90.00271904
_cell_angle_gamma   90.00316322
_symmetry_Int_Tables_number   1
_chemical_formula_structural   Sr5La3(FeO3)8
_chemical_formula_sum   'Sr5 La3 Fe8 O24'
_cell_volume   482.73173445
_cell_formula_units_Z   1
loop_
 _symmetry_equiv_pos_site_id
 _symmetry_equiv_pos_as_xyz
  1  'x, y, z'
loop_
 _atom_site_type_symbol
 _atom_site_label
 _atom_site_symmetry_multiplicity
 _atom_site_fract_x
 _atom_site_fract_y
 _atom_site_fract_z
 _atom_site_occupancy
  Sr  Sr0  1  0.249942  0.750055  0.750078  1
  Sr  Sr1  1  0.750037  0.750037  0.750060  1
  Sr  Sr2  1  0.249958  0.249958  0.750068  1
  Sr  Sr3  1  0.750055  0.249942  0.750078  1
  Sr  Sr4  1  0.249926  0.249926  0.249934  1
  La  La5  1  0.249956  0.750018  0.249973  1
  La  La6  1  0.750039  0.750039  0.249965  1
  La  La7  1  0.750018  0.249956  0.249973  1
  Fe  Fe8  1  0.499435  0.499435  0.501569  1
  Fe  Fe9  1  0.000574  0.499420  0.998397  1
  Fe  Fe10  1  0.499451  0.499451  0.998400  1
  Fe  Fe11  1  0.000558  0.499445  0.501571  1
  Fe  Fe12  1  0.000553  0.000553  0.998427  1
  Fe  Fe13  1  0.499420  0.000574  0.998397  1
  Fe  Fe14  1  0.000558  0.000558  0.501616  1
  Fe  Fe15  1  0.499445  0.000558  0.501571  1
  O  O16  1  0.998926  0.749894  0.011543  1
  O  O17  1  0.501061  0.750026  0.011556  1
  O  O18  1  0.998922  0.750019  0.488491  1
  O  O19  1  0.501089  0.750049  0.488379  1
  O  O20  1  0.994156  0.250067  0.007629  1
  O  O21  1  0.505845  0.249994  0.007649  1
  O  O22  1  0.994144  0.249991  0.492409  1
  O  O23  1  0.505903  0.249962  0.492302  1
  O  O24  1  0.999217  0.500775  0.749997  1
  O  O25  1  0.500800  0.500800  0.750042  1
  O  O26  1  0.995126  0.504870  0.249970  1
  O  O27  1  0.504922  0.504922  0.249938  1
  O  O28  1  0.999203  0.999203  0.749958  1
  O  O29  1  0.500775  0.999217  0.749997  1
  O  O30  1  0.995118  0.995118  0.250136  1
  O  O31  1  0.504870  0.995126  0.249970  1
  O  O32  1  0.249994  0.505845  0.007649  1
  O  O33  1  0.750026  0.501061  0.011556  1
  O  O34  1  0.249962  0.505903  0.492302  1
  O  O35  1  0.750049  0.501089  0.488379  1
  O  O36  1  0.250067  0.994156  0.007629  1
  O  O37  1  0.749894  0.998926  0.011543  1
  O  O38  1  0.249991  0.994144  0.492409  1
  O  O39  1  0.750019  0.998922  0.488491  1
