# generated using pymatgen
data_Dy4FeTc3B16
_symmetry_space_group_name_H-M   'P 1'
_cell_length_a   3.55157800
_cell_length_b   5.95527919
_cell_length_c   11.52295736
_cell_angle_alpha   89.97120715
_cell_angle_beta   90.00000000
_cell_angle_gamma   90.00000000
_symmetry_Int_Tables_number   1
_chemical_formula_structural   Dy4FeTc3B16
_chemical_formula_sum   'Dy4 Fe1 Tc3 B16'
_cell_volume   243.71787543
_cell_formula_units_Z   1
loop_
 _symmetry_equiv_pos_site_id
 _symmetry_equiv_pos_as_xyz
  1  'x, y, z'
loop_
 _atom_site_type_symbol
 _atom_site_label
 _atom_site_symmetry_multiplicity
 _atom_site_fract_x
 _atom_site_fract_y
 _atom_site_fract_z
 _atom_site_occupancy
  Dy  Dy0  1  0.000000  0.627775  0.352077  1
  Dy  Dy1  1  0.000000  0.375055  0.647708  1
  Dy  Dy2  1  0.000000  0.127204  0.152047  1
  Dy  Dy3  1  0.000000  0.872667  0.846392  1
  Fe  Fe4  1  0.000000  0.865102  0.589305  1
  Tc  Tc5  1  0.000000  0.631507  0.086605  1
  Tc  Tc6  1  0.000000  0.367838  0.911958  1
  Tc  Tc7  1  0.000000  0.132591  0.413879  1
  B  B8  1  0.500000  0.786295  0.185886  1
  B  B9  1  0.500000  0.212240  0.813297  1
  B  B10  1  0.500000  0.286089  0.316008  1
  B  B11  1  0.500000  0.717176  0.682117  1
  B  B12  1  0.500000  0.864552  0.031236  1
  B  B13  1  0.500000  0.135043  0.967900  1
  B  B14  1  0.500000  0.364451  0.470177  1
  B  B15  1  0.500000  0.638836  0.532731  1
  B  B16  1  0.500000  0.885797  0.454912  1
  B  B17  1  0.500000  0.110675  0.548220  1
  B  B18  1  0.500000  0.386660  0.046855  1
  B  B19  1  0.500000  0.613519  0.951996  1
  B  B20  1  0.500000  0.974446  0.309283  1
  B  B21  1  0.500000  0.022249  0.690427  1
  B  B22  1  0.500000  0.476760  0.192896  1
  B  B23  1  0.500000  0.525474  0.806087  1
