# generated using pymatgen
data_Dy7Lu5AlCo4Pb
_symmetry_space_group_name_H-M   'P 1'
_cell_length_a   8.26741840
_cell_length_b   8.26741913
_cell_length_c   8.25952656
_cell_angle_alpha   112.00148425
_cell_angle_beta   109.33548355
_cell_angle_gamma   107.15419931
_symmetry_Int_Tables_number   1
_chemical_formula_structural   Dy7Lu5AlCo4Pb
_chemical_formula_sum   'Dy7 Lu5 Al1 Co4 Pb1'
_cell_volume   433.58160467
_cell_formula_units_Z   1
loop_
 _symmetry_equiv_pos_site_id
 _symmetry_equiv_pos_as_xyz
  1  'x, y, z'
loop_
 _atom_site_type_symbol
 _atom_site_label
 _atom_site_symmetry_multiplicity
 _atom_site_fract_x
 _atom_site_fract_y
 _atom_site_fract_z
 _atom_site_occupancy
  Dy  Dy0  1  0.438855  0.232990  0.203664  1
  Dy  Dy1  1  0.563872  0.768239  0.797254  1
  Dy  Dy2  1  0.029014  0.233381  0.797254  1
  Dy  Dy3  1  0.970675  0.764810  0.203664  1
  Dy  Dy4  1  0.180072  0.282315  0.462388  1
  Dy  Dy5  1  0.818805  0.718555  0.537359  1
  Dy  Dy6  1  0.180719  0.718583  0.899302  1
  Lu  Lu7  1  0.819352  0.280676  0.100028  1
  Lu  Lu8  1  0.323897  0.639775  0.315255  1
  Lu  Lu9  1  0.675284  0.358269  0.684909  1
  Lu  Lu10  1  0.326640  0.009625  0.684909  1
  Lu  Lu11  1  0.675479  0.991357  0.315255  1
  Al  Al12  1  0.000185  0.002007  0.002193  1
  Co  Co13  1  0.341198  0.000283  0.341481  1
  Co  Co14  1  0.660457  0.002064  0.662521  1
  Co  Co15  1  0.112092  0.613318  0.495412  1
  Co  Co16  1  0.882094  0.383320  0.495412  1
  Pb  Pb17  1  0.501311  0.500432  0.001742  1
