# generated using pymatgen
data_NaP8(Pt8Pb)3
_symmetry_space_group_name_H-M   'P 1'
_cell_length_a   8.55398121
_cell_length_b   8.55398121
_cell_length_c   8.55398121
_cell_angle_alpha   89.89476413
_cell_angle_beta   90.10523587
_cell_angle_gamma   90.10523587
_symmetry_Int_Tables_number   1
_chemical_formula_structural   NaP8(Pt8Pb)3
_chemical_formula_sum   'Na1 P8 Pt24 Pb3'
_cell_volume   625.89672696
_cell_formula_units_Z   1
loop_
 _symmetry_equiv_pos_site_id
 _symmetry_equiv_pos_as_xyz
  1  'x, y, z'
loop_
 _atom_site_type_symbol
 _atom_site_label
 _atom_site_symmetry_multiplicity
 _atom_site_fract_x
 _atom_site_fract_y
 _atom_site_fract_z
 _atom_site_occupancy
  Na  Na0  1  0.500000  0.500000  0.000000  1
  P  P1  1  0.803469  0.307054  0.192726  1
  P  P2  1  0.194318  0.805682  0.305682  1
  P  P3  1  0.692946  0.692726  0.696531  1
  P  P4  1  0.307274  0.196531  0.807054  1
  P  P5  1  0.196531  0.692946  0.807274  1
  P  P6  1  0.805682  0.194318  0.694318  1
  P  P7  1  0.307054  0.307274  0.303469  1
  P  P8  1  0.692726  0.803469  0.192946  1
  Pt  Pt9  1  0.423041  0.842703  0.158341  1
  Pt  Pt10  1  0.577740  0.343797  0.341765  1
  Pt  Pt11  1  0.078009  0.156364  0.658834  1
  Pt  Pt12  1  0.922276  0.655876  0.841965  1
  Pt  Pt13  1  0.158235  0.422260  0.843797  1
  Pt  Pt14  1  0.341659  0.576959  0.342703  1
  Pt  Pt15  1  0.658035  0.077724  0.155876  1
  Pt  Pt16  1  0.841166  0.921991  0.656364  1
  Pt  Pt17  1  0.843636  0.158834  0.421991  1
  Pt  Pt18  1  0.344124  0.341965  0.577724  1
  Pt  Pt19  1  0.157297  0.658341  0.076959  1
  Pt  Pt20  1  0.656203  0.841765  0.922260  1
  Pt  Pt21  1  0.576959  0.157297  0.841659  1
  Pt  Pt22  1  0.422260  0.656203  0.658235  1
  Pt  Pt23  1  0.921991  0.843636  0.341166  1
  Pt  Pt24  1  0.077724  0.344124  0.158035  1
  Pt  Pt25  1  0.841765  0.577740  0.156203  1
  Pt  Pt26  1  0.658341  0.423041  0.657297  1
  Pt  Pt27  1  0.341965  0.922276  0.844124  1
  Pt  Pt28  1  0.158834  0.078009  0.343636  1
  Pt  Pt29  1  0.156364  0.841166  0.578009  1
  Pt  Pt30  1  0.655876  0.658035  0.422276  1
  Pt  Pt31  1  0.842703  0.341659  0.923041  1
  Pt  Pt32  1  0.343797  0.158235  0.077740  1
  Pb  Pb33  1  0.500000  0.000000  0.500000  1
  Pb  Pb34  1  0.000000  0.500000  0.500000  1
  Pb  Pb35  1  0.000000  0.000000  0.000000  1
