# generated using pymatgen
data_Nd2Ga6AgPd
_symmetry_space_group_name_H-M   'P 1'
_cell_length_a   4.25207200
_cell_length_b   4.25207200
_cell_length_c   10.94363200
_cell_angle_alpha   90.00000000
_cell_angle_beta   90.00000000
_cell_angle_gamma   90.00000000
_symmetry_Int_Tables_number   1
_chemical_formula_structural   Nd2Ga6AgPd
_chemical_formula_sum   'Nd2 Ga6 Ag1 Pd1'
_cell_volume   197.86213923
_cell_formula_units_Z   1
loop_
 _symmetry_equiv_pos_site_id
 _symmetry_equiv_pos_as_xyz
  1  'x, y, z'
loop_
 _atom_site_type_symbol
 _atom_site_label
 _atom_site_symmetry_multiplicity
 _atom_site_fract_x
 _atom_site_fract_y
 _atom_site_fract_z
 _atom_site_occupancy
  Nd  Nd0  1  0.500000  0.000000  0.753541  1
  Nd  Nd1  1  0.000000  0.500000  0.246459  1
  Ga  Ga2  1  0.000000  0.500000  0.866475  1
  Ga  Ga3  1  0.500000  0.000000  0.359114  1
  Ga  Ga4  1  0.500000  0.000000  0.133525  1
  Ga  Ga5  1  0.000000  0.500000  0.640886  1
  Ga  Ga6  1  0.000000  0.000000  0.000000  1
  Ga  Ga7  1  0.500000  0.500000  0.500000  1
  Ag  Ag8  1  0.000000  0.000000  0.500000  1
  Pd  Pd9  1  0.500000  0.500000  0.000000  1
