# generated using pymatgen
data_Nd2CoNiC4
_symmetry_space_group_name_H-M   'P 1'
_cell_length_a   3.80229109
_cell_length_b   3.79473584
_cell_length_c   7.45052429
_cell_angle_alpha   98.20319271
_cell_angle_beta   98.41534053
_cell_angle_gamma   90.09225584
_symmetry_Int_Tables_number   1
_chemical_formula_structural   Nd2CoNiC4
_chemical_formula_sum   'Nd2 Co1 Ni1 C4'
_cell_volume   105.22800528
_cell_formula_units_Z   1
loop_
 _symmetry_equiv_pos_site_id
 _symmetry_equiv_pos_as_xyz
  1  'x, y, z'
loop_
 _atom_site_type_symbol
 _atom_site_label
 _atom_site_symmetry_multiplicity
 _atom_site_fract_x
 _atom_site_fract_y
 _atom_site_fract_z
 _atom_site_occupancy
  Nd  Nd0  1  0.070991  0.926949  0.999681  1
  Nd  Nd1  1  0.924561  0.074305  0.506080  1
  Co  Co2  1  0.510640  0.372058  0.808500  1
  Ni  Ni3  1  0.370263  0.516222  0.307652  1
  C  C4  1  0.601910  0.440546  0.072747  1
  C  C5  1  0.851326  0.489109  0.225986  1
  C  C6  1  0.444881  0.591858  0.578032  1
  C  C7  1  0.490631  0.854156  0.728323  1
