# generated using pymatgen
data_Ca8InGe5Rh8
_symmetry_space_group_name_H-M   'P 1'
_cell_length_a   11.00562299
_cell_length_b   11.00562352
_cell_length_c   7.84486988
_cell_angle_alpha   72.14365829
_cell_angle_beta   72.14365724
_cell_angle_gamma   30.32883119
_symmetry_Int_Tables_number   1
_chemical_formula_structural   Ca8InGe5Rh8
_chemical_formula_sum   'Ca8 In1 Ge5 Rh8'
_cell_volume   454.95731389
_cell_formula_units_Z   1
loop_
 _symmetry_equiv_pos_site_id
 _symmetry_equiv_pos_as_xyz
  1  'x, y, z'
loop_
 _atom_site_type_symbol
 _atom_site_label
 _atom_site_symmetry_multiplicity
 _atom_site_fract_x
 _atom_site_fract_y
 _atom_site_fract_z
 _atom_site_occupancy
  Ca  Ca0  1  0.207099  0.447212  0.406513  1
  Ca  Ca1  1  0.552788  0.792901  0.093487  1
  Ca  Ca2  1  0.446462  0.207362  0.907482  1
  Ca  Ca3  1  0.925119  0.212293  0.331605  1
  Ca  Ca4  1  0.787707  0.074881  0.168395  1
  Ca  Ca5  1  0.078446  0.783577  0.665094  1
  Ca  Ca6  1  0.216423  0.921554  0.834906  1
  Ca  Ca7  1  0.792638  0.553538  0.592518  1
  In  In8  1  0.629874  0.370126  0.750000  1
  Ge  Ge9  1  0.389122  0.610878  0.250000  1
  Ge  Ge10  1  0.305280  0.038891  0.439670  1
  Ge  Ge11  1  0.961109  0.694720  0.060330  1
  Ge  Ge12  1  0.694965  0.959458  0.560301  1
  Ge  Ge13  1  0.040542  0.305035  0.939699  1
  Rh  Rh14  1  0.284220  0.588037  0.037636  1
  Rh  Rh15  1  0.572772  0.296093  0.510061  1
  Rh  Rh16  1  0.703907  0.427228  0.989939  1
  Rh  Rh17  1  0.083569  0.361256  0.186256  1
  Rh  Rh18  1  0.638744  0.916431  0.313744  1
  Rh  Rh19  1  0.411963  0.715780  0.462364  1
  Rh  Rh20  1  0.916421  0.639171  0.814234  1
  Rh  Rh21  1  0.360829  0.083579  0.685766  1
