# generated using pymatgen
data_Tm4ZnSi3Ni4
_symmetry_space_group_name_H-M   'P 1'
_cell_length_a   4.15836500
_cell_length_b   6.77623502
_cell_length_c   7.12118292
_cell_angle_alpha   89.59187045
_cell_angle_beta   90.00000000
_cell_angle_gamma   90.00000000
_symmetry_Int_Tables_number   1
_chemical_formula_structural   Tm4ZnSi3Ni4
_chemical_formula_sum   'Tm4 Zn1 Si3 Ni4'
_cell_volume   200.65601831
_cell_formula_units_Z   1
loop_
 _symmetry_equiv_pos_site_id
 _symmetry_equiv_pos_as_xyz
  1  'x, y, z'
loop_
 _atom_site_type_symbol
 _atom_site_label
 _atom_site_symmetry_multiplicity
 _atom_site_fract_x
 _atom_site_fract_y
 _atom_site_fract_z
 _atom_site_occupancy
  Tm  Tm0  1  0.250000  0.487279  0.203139  1
  Tm  Tm1  1  0.750000  0.506709  0.795886  1
  Tm  Tm2  1  0.750000  0.008584  0.702024  1
  Tm  Tm3  1  0.250000  0.992993  0.301316  1
  Zn  Zn4  1  0.250000  0.805506  0.910857  1
  Si  Si5  1  0.750000  0.187236  0.084918  1
  Si  Si6  1  0.750000  0.690921  0.412389  1
  Si  Si7  1  0.250000  0.303831  0.588841  1
  Ni  Ni8  1  0.250000  0.679147  0.569930  1
  Ni  Ni9  1  0.750000  0.307825  0.416476  1
  Ni  Ni10  1  0.750000  0.819517  0.096509  1
  Ni  Ni11  1  0.250000  0.210452  0.917715  1
