# generated using pymatgen
data_PrHo4Si12Ir19
_symmetry_space_group_name_H-M   'P 1'
_cell_length_a   12.84303900
_cell_length_b   12.84303922
_cell_length_c   3.98918000
_cell_angle_alpha   90.00000000
_cell_angle_beta   90.00000000
_cell_angle_gamma   120.00000201
_symmetry_Int_Tables_number   1
_chemical_formula_structural   PrHo4Si12Ir19
_chemical_formula_sum   'Pr1 Ho4 Si12 Ir19'
_cell_volume   569.83597802
_cell_formula_units_Z   1
loop_
 _symmetry_equiv_pos_site_id
 _symmetry_equiv_pos_as_xyz
  1  'x, y, z'
loop_
 _atom_site_type_symbol
 _atom_site_label
 _atom_site_symmetry_multiplicity
 _atom_site_fract_x
 _atom_site_fract_y
 _atom_site_fract_z
 _atom_site_occupancy
  Pr  Pr0  1  0.666667  0.333333  0.000000  1
  Ho  Ho1  1  0.999616  0.814442  0.500000  1
  Ho  Ho2  1  0.185558  0.185174  0.500000  1
  Ho  Ho3  1  0.814826  0.000384  0.500000  1
  Ho  Ho4  1  0.333333  0.666667  0.000000  1
  Si  Si5  1  0.001356  0.181355  0.000000  1
  Si  Si6  1  0.818645  0.820000  0.000000  1
  Si  Si7  1  0.180000  0.998644  0.000000  1
  Si  Si8  1  0.518902  0.688476  0.500000  1
  Si  Si9  1  0.311524  0.830426  0.500000  1
  Si  Si10  1  0.169574  0.481098  0.500000  1
  Si  Si11  1  0.477940  0.165638  0.500000  1
  Si  Si12  1  0.687700  0.522060  0.500000  1
  Si  Si13  1  0.834362  0.312300  0.500000  1
  Si  Si14  1  0.000003  0.631790  0.000000  1
  Si  Si15  1  0.368210  0.368213  0.000000  1
  Si  Si16  1  0.631787  0.999997  0.000000  1
  Ir  Ir17  1  0.001576  0.282342  0.500000  1
  Ir  Ir18  1  0.717658  0.719234  0.500000  1
  Ir  Ir19  1  0.280766  0.998424  0.500000  1
  Ir  Ir20  1  0.622975  0.806455  0.000000  1
  Ir  Ir21  1  0.193545  0.816520  0.000000  1
  Ir  Ir22  1  0.183480  0.377025  0.000000  1
  Ir  Ir23  1  0.373944  0.181293  0.000000  1
  Ir  Ir24  1  0.807348  0.626056  0.000000  1
  Ir  Ir25  1  0.818707  0.192652  0.000000  1
  Ir  Ir26  1  0.511081  0.872970  0.500000  1
  Ir  Ir27  1  0.127030  0.638112  0.500000  1
  Ir  Ir28  1  0.361888  0.488919  0.500000  1
  Ir  Ir29  1  0.485435  0.361025  0.500000  1
  Ir  Ir30  1  0.875591  0.514565  0.500000  1
  Ir  Ir31  1  0.638975  0.124409  0.500000  1
  Ir  Ir32  1  0.000000  0.000000  0.000000  1
  Ir  Ir33  1  0.999902  0.446796  0.000000  1
  Ir  Ir34  1  0.553204  0.553106  0.000000  1
  Ir  Ir35  1  0.446894  0.000098  0.000000  1
