# generated using pymatgen
data_Pr3Ho4Sn23Ir6
_symmetry_space_group_name_H-M   'P 1'
_cell_length_a   9.92609361
_cell_length_b   9.93019104
_cell_length_c   10.16014514
_cell_angle_alpha   89.99999947
_cell_angle_beta   90.07827562
_cell_angle_gamma   120.01365744
_symmetry_Int_Tables_number   1
_chemical_formula_structural   Pr3Ho4Sn23Ir6
_chemical_formula_sum   'Pr3 Ho4 Sn23 Ir6'
_cell_volume   867.17388122
_cell_formula_units_Z   1
loop_
 _symmetry_equiv_pos_site_id
 _symmetry_equiv_pos_as_xyz
  1  'x, y, z'
loop_
 _atom_site_type_symbol
 _atom_site_label
 _atom_site_symmetry_multiplicity
 _atom_site_fract_x
 _atom_site_fract_y
 _atom_site_fract_z
 _atom_site_occupancy
  Pr  Pr0  1  0.998303  0.999151  0.001314  1
  Pr  Pr1  1  0.521174  0.477315  0.690219  1
  Pr  Pr2  1  0.521174  0.043859  0.690219  1
  Ho  Ho3  1  0.961855  0.480927  0.692832  1
  Ho  Ho4  1  0.038621  0.519311  0.306544  1
  Ho  Ho5  1  0.481691  0.962740  0.307148  1
  Ho  Ho6  1  0.481691  0.518952  0.307148  1
  Sn  Sn7  1  0.666420  0.333210  0.175000  1
  Sn  Sn8  1  0.672935  0.336467  0.886749  1
  Sn  Sn9  1  0.334720  0.667361  0.121129  1
  Sn  Sn10  1  0.352479  0.352876  0.999727  1
  Sn  Sn11  1  0.999443  0.646742  0.001032  1
  Sn  Sn12  1  0.646059  0.999474  0.001201  1
  Sn  Sn13  1  0.646059  0.646585  0.001201  1
  Sn  Sn14  1  0.333432  0.666717  0.828551  1
  Sn  Sn15  1  0.440288  0.220144  0.453296  1
  Sn  Sn16  1  0.216818  0.775998  0.541289  1
  Sn  Sn17  1  0.216818  0.440820  0.541289  1
  Sn  Sn18  1  0.559011  0.779505  0.540561  1
  Sn  Sn19  1  0.119371  0.880987  0.284571  1
  Sn  Sn20  1  0.782695  0.559096  0.455640  1
  Sn  Sn21  1  0.782695  0.223599  0.455640  1
  Sn  Sn22  1  0.352479  0.999603  0.999727  1
  Sn  Sn23  1  0.119371  0.238384  0.284571  1
  Sn  Sn24  1  0.761727  0.880863  0.284763  1
  Sn  Sn25  1  0.230465  0.115233  0.716171  1
  Sn  Sn26  1  0.883344  0.764760  0.715049  1
  Sn  Sn27  1  0.883344  0.118584  0.715049  1
  Sn  Sn28  1  0.998872  0.999436  0.498359  1
  Sn  Sn29  1  0.999443  0.352701  0.001032  1
  Ir  Ir30  1  0.166878  0.827185  0.800595  1
  Ir  Ir31  1  0.166878  0.339692  0.800595  1
  Ir  Ir32  1  0.664114  0.832057  0.802068  1
  Ir  Ir33  1  0.338369  0.169185  0.198609  1
  Ir  Ir34  1  0.830481  0.661083  0.200555  1
  Ir  Ir35  1  0.830481  0.169400  0.200555  1
