# generated using pymatgen
data_TbScFeB6
_symmetry_space_group_name_H-M   'P 1'
_cell_length_a   3.44514700
_cell_length_b   8.92120000
_cell_length_c   11.29538800
_cell_angle_alpha   90.00000000
_cell_angle_beta   90.00000000
_cell_angle_gamma   90.00000000
_symmetry_Int_Tables_number   1
_chemical_formula_structural   TbScFeB6
_chemical_formula_sum   'Tb4 Sc4 Fe4 B24'
_cell_volume   347.16200410
_cell_formula_units_Z   4
loop_
 _symmetry_equiv_pos_site_id
 _symmetry_equiv_pos_as_xyz
  1  'x, y, z'
loop_
 _atom_site_type_symbol
 _atom_site_label
 _atom_site_symmetry_multiplicity
 _atom_site_fract_x
 _atom_site_fract_y
 _atom_site_fract_z
 _atom_site_occupancy
  Tb  Tb0  1  0.000000  0.322313  0.414517  1
  Tb  Tb1  1  0.000000  0.677687  0.585483  1
  Tb  Tb2  1  0.000000  0.822313  0.085483  1
  Tb  Tb3  1  0.000000  0.177687  0.914517  1
  Sc  Sc4  1  0.000000  0.944310  0.371498  1
  Sc  Sc5  1  0.000000  0.055690  0.628502  1
  Sc  Sc6  1  0.000000  0.444310  0.128502  1
  Sc  Sc7  1  0.000000  0.555690  0.871498  1
  Fe  Fe8  1  0.000000  0.640887  0.317918  1
  Fe  Fe9  1  0.000000  0.359113  0.682082  1
  Fe  Fe10  1  0.000000  0.140887  0.182082  1
  Fe  Fe11  1  0.000000  0.859113  0.817918  1
  B  B12  1  0.500000  0.556187  0.430599  1
  B  B13  1  0.500000  0.443813  0.569401  1
  B  B14  1  0.500000  0.056187  0.069401  1
  B  B15  1  0.500000  0.943813  0.930599  1
  B  B16  1  0.500000  0.751617  0.416819  1
  B  B17  1  0.500000  0.248383  0.583181  1
  B  B18  1  0.500000  0.251617  0.083181  1
  B  B19  1  0.500000  0.748383  0.916819  1
  B  B20  1  0.500000  0.792113  0.265817  1
  B  B21  1  0.500000  0.207887  0.734183  1
  B  B22  1  0.500000  0.292113  0.234183  1
  B  B23  1  0.500000  0.707887  0.765817  1
  B  B24  1  0.500000  0.629584  0.183801  1
  B  B25  1  0.500000  0.370416  0.816199  1
  B  B26  1  0.500000  0.129584  0.316199  1
  B  B27  1  0.500000  0.870416  0.683801  1
  B  B28  1  0.500000  0.984870  0.214126  1
  B  B29  1  0.500000  0.015130  0.785874  1
  B  B30  1  0.500000  0.484870  0.285874  1
  B  B31  1  0.500000  0.515130  0.714126  1
  B  B32  1  0.500000  0.599595  0.026671  1
  B  B33  1  0.500000  0.400405  0.973329  1
  B  B34  1  0.500000  0.099595  0.473329  1
  B  B35  1  0.500000  0.900405  0.526671  1
