# generated using pymatgen
data_Dy4Al18Pd5Ru
_symmetry_space_group_name_H-M   'P 1'
_cell_length_a   7.62381801
_cell_length_b   7.62381751
_cell_length_c   9.48980900
_cell_angle_alpha   90.05092413
_cell_angle_beta   90.05093164
_cell_angle_gamma   119.65092954
_symmetry_Int_Tables_number   1
_chemical_formula_structural   Dy4Al18Pd5Ru
_chemical_formula_sum   'Dy4 Al18 Pd5 Ru1'
_cell_volume   479.34624664
_cell_formula_units_Z   1
loop_
 _symmetry_equiv_pos_site_id
 _symmetry_equiv_pos_as_xyz
  1  'x, y, z'
loop_
 _atom_site_type_symbol
 _atom_site_label
 _atom_site_symmetry_multiplicity
 _atom_site_fract_x
 _atom_site_fract_y
 _atom_site_fract_z
 _atom_site_occupancy
  Dy  Dy0  1  0.996139  0.670868  0.249416  1
  Dy  Dy1  1  0.007199  0.330993  0.750529  1
  Dy  Dy2  1  0.669007  0.992801  0.249471  1
  Dy  Dy3  1  0.329132  0.003861  0.750584  1
  Al  Al4  1  0.129398  0.131250  0.248909  1
  Al  Al5  1  0.868750  0.870602  0.751091  1
  Al  Al6  1  0.994336  0.333664  0.074296  1
  Al  Al7  1  0.995078  0.659660  0.926294  1
  Al  Al8  1  0.998354  0.665551  0.577270  1
  Al  Al9  1  0.334449  0.001646  0.422730  1
  Al  Al10  1  0.000763  0.334621  0.423496  1
  Al  Al11  1  0.665379  0.999237  0.576504  1
  Al  Al12  1  0.666336  0.005664  0.925704  1
  Al  Al13  1  0.340340  0.004922  0.073706  1
  Al  Al14  1  0.334425  0.334614  0.559771  1
  Al  Al15  1  0.665386  0.665575  0.440229  1
  Al  Al16  1  0.667498  0.661978  0.053423  1
  Al  Al17  1  0.338022  0.332502  0.946577  1
  Al  Al18  1  0.336988  0.545658  0.248953  1
  Al  Al19  1  0.660849  0.451116  0.754699  1
  Al  Al20  1  0.548884  0.339151  0.245301  1
  Al  Al21  1  0.454342  0.663012  0.751047  1
  Pd  Pd22  1  0.327920  0.672080  0.000000  1
  Pd  Pd23  1  0.327321  0.672679  0.500000  1
  Pd  Pd24  1  0.671838  0.328162  0.500000  1
  Pd  Pd25  1  0.000710  0.999290  0.000000  1
  Pd  Pd26  1  0.999720  0.000280  0.500000  1
  Ru  Ru27  1  0.671440  0.328560  0.000000  1
