# generated using pymatgen
data_Yb10P6O25
_symmetry_space_group_name_H-M   'P 1'
_cell_length_a   9.35245900
_cell_length_b   9.35245918
_cell_length_c   6.72709500
_cell_angle_alpha   90.00000000
_cell_angle_beta   90.00000000
_cell_angle_gamma   120.00000290
_symmetry_Int_Tables_number   1
_chemical_formula_structural   Yb10P6O25
_chemical_formula_sum   'Yb10 P6 O25'
_cell_volume   509.57699580
_cell_formula_units_Z   1
loop_
 _symmetry_equiv_pos_site_id
 _symmetry_equiv_pos_as_xyz
  1  'x, y, z'
loop_
 _atom_site_type_symbol
 _atom_site_label
 _atom_site_symmetry_multiplicity
 _atom_site_fract_x
 _atom_site_fract_y
 _atom_site_fract_z
 _atom_site_occupancy
  Yb  Yb0  1  0.333333  0.666667  0.501747  1
  Yb  Yb1  1  0.000000  0.000000  0.999199  1
  Yb  Yb2  1  0.000000  0.000000  0.504993  1
  Yb  Yb3  1  0.333333  0.666667  0.990889  1
  Yb  Yb4  1  0.669648  0.563878  0.747856  1
  Yb  Yb5  1  0.436122  0.105770  0.747856  1
  Yb  Yb6  1  0.894230  0.330352  0.747856  1
  Yb  Yb7  1  0.672777  0.065952  0.249939  1
  Yb  Yb8  1  0.934048  0.606825  0.249939  1
  Yb  Yb9  1  0.393175  0.327223  0.249939  1
  P  P10  1  0.044168  0.743481  0.749772  1
  P  P11  1  0.256519  0.300687  0.749772  1
  P  P12  1  0.699313  0.955832  0.749772  1
  P  P13  1  0.308551  0.944906  0.248648  1
  P  P14  1  0.055094  0.363645  0.248648  1
  P  P15  1  0.636355  0.691449  0.248648  1
  O  O16  1  0.933981  0.693154  0.561611  1
  O  O17  1  0.306846  0.240826  0.561611  1
  O  O18  1  0.759174  0.066019  0.561611  1
  O  O19  1  0.427238  0.009803  0.068763  1
  O  O20  1  0.990197  0.417435  0.068763  1
  O  O21  1  0.582565  0.572762  0.068763  1
  O  O22  1  0.423098  0.000764  0.432525  1
  O  O23  1  0.999236  0.422334  0.432525  1
  O  O24  1  0.577666  0.576902  0.432525  1
  O  O25  1  0.929929  0.684062  0.934275  1
  O  O26  1  0.315938  0.245867  0.934275  1
  O  O27  1  0.754133  0.070071  0.934275  1
  O  O28  1  0.141113  0.934648  0.755113  1
  O  O29  1  0.065352  0.206465  0.755113  1
  O  O30  1  0.793535  0.858887  0.755113  1
  O  O31  1  0.211819  0.751628  0.243866  1
  O  O32  1  0.248372  0.460191  0.243866  1
  O  O33  1  0.539809  0.788181  0.243866  1
  O  O34  1  0.159872  0.670281  0.747369  1
  O  O35  1  0.329719  0.489591  0.747369  1
  O  O36  1  0.510409  0.840128  0.747369  1
  O  O37  1  0.183967  0.007866  0.250250  1
  O  O38  1  0.992134  0.176100  0.250250  1
  O  O39  1  0.823900  0.816033  0.250250  1
  O  O40  1  0.666667  0.333333  0.731220  1
