# generated using pymatgen
data_TbDy14Th(CdNi)4
_symmetry_space_group_name_H-M   'P 1'
_cell_length_a   9.57960538
_cell_length_b   9.57960563
_cell_length_c   9.58065904
_cell_angle_alpha   60.09564116
_cell_angle_beta   60.09564810
_cell_angle_gamma   60.08710116
_symmetry_Int_Tables_number   1
_chemical_formula_structural   TbDy14Th(CdNi)4
_chemical_formula_sum   'Tb1 Dy14 Th1 Cd4 Ni4'
_cell_volume   622.99973611
_cell_formula_units_Z   1
loop_
 _symmetry_equiv_pos_site_id
 _symmetry_equiv_pos_as_xyz
  1  'x, y, z'
loop_
 _atom_site_type_symbol
 _atom_site_label
 _atom_site_symmetry_multiplicity
 _atom_site_fract_x
 _atom_site_fract_y
 _atom_site_fract_z
 _atom_site_occupancy
  Tb  Tb0  1  0.598639  0.598639  0.200825  1
  Dy  Dy1  1  0.598634  0.200969  0.598716  1
  Dy  Dy2  1  0.200969  0.598634  0.598716  1
  Dy  Dy3  1  0.062570  0.439172  0.439134  1
  Dy  Dy4  1  0.439564  0.062254  0.062162  1
  Dy  Dy5  1  0.439172  0.062570  0.439134  1
  Dy  Dy6  1  0.062254  0.439564  0.062162  1
  Dy  Dy7  1  0.439122  0.439122  0.062630  1
  Dy  Dy8  1  0.062138  0.062138  0.439583  1
  Dy  Dy9  1  0.187749  0.814735  0.814749  1
  Dy  Dy10  1  0.813134  0.186185  0.186229  1
  Dy  Dy11  1  0.814735  0.187749  0.814749  1
  Dy  Dy12  1  0.186185  0.813134  0.186229  1
  Dy  Dy13  1  0.814730  0.814730  0.187727  1
  Dy  Dy14  1  0.186200  0.186200  0.813143  1
  Th  Th15  1  0.594069  0.594069  0.594199  1
  Cd  Cd16  1  0.830789  0.830789  0.830569  1
  Cd  Cd17  1  0.831959  0.831959  0.505696  1
  Cd  Cd18  1  0.832022  0.505682  0.831838  1
  Cd  Cd19  1  0.505682  0.832022  0.831838  1
  Ni  Ni20  1  0.392771  0.392771  0.392915  1
  Ni  Ni21  1  0.392879  0.392879  0.821157  1
  Ni  Ni22  1  0.392767  0.821266  0.392950  1
  Ni  Ni23  1  0.821266  0.392767  0.392950  1
