# generated using pymatgen
data_Dy3In4IrAu
_symmetry_space_group_name_H-M   'P 1'
_cell_length_a   7.90140400
_cell_length_b   7.90140399
_cell_length_c   3.92582500
_cell_angle_alpha   90.00000000
_cell_angle_beta   90.00000000
_cell_angle_gamma   120.00000842
_symmetry_Int_Tables_number   1
_chemical_formula_structural   Dy3In4IrAu
_chemical_formula_sum   'Dy3 In4 Ir1 Au1'
_cell_volume   212.26093181
_cell_formula_units_Z   1
loop_
 _symmetry_equiv_pos_site_id
 _symmetry_equiv_pos_as_xyz
  1  'x, y, z'
loop_
 _atom_site_type_symbol
 _atom_site_label
 _atom_site_symmetry_multiplicity
 _atom_site_fract_x
 _atom_site_fract_y
 _atom_site_fract_z
 _atom_site_occupancy
  Dy  Dy0  1  0.049622  0.297183  0.500000  1
  Dy  Dy1  1  0.702817  0.752438  0.500000  1
  Dy  Dy2  1  0.247562  0.950378  0.500000  1
  In  In3  1  0.667503  0.069464  0.000000  1
  In  In4  1  0.930536  0.598039  0.000000  1
  In  In5  1  0.401961  0.332497  0.000000  1
  In  In6  1  0.333333  0.666667  0.000000  1
  Ir  Ir7  1  0.000000  0.000000  0.000000  1
  Au  Au8  1  0.666667  0.333333  0.500000  1
