# generated using pymatgen
data_ErTm9(SnSb2)2
_symmetry_space_group_name_H-M   'P 1'
_cell_length_a   8.84489400
_cell_length_b   8.84456933
_cell_length_c   6.31724800
_cell_angle_alpha   90.00000000
_cell_angle_beta   90.00000000
_cell_angle_gamma   120.00121431
_symmetry_Int_Tables_number   1
_chemical_formula_structural   ErTm9(SnSb2)2
_chemical_formula_sum   'Er1 Tm9 Sn2 Sb4'
_cell_volume   427.97910603
_cell_formula_units_Z   1
loop_
 _symmetry_equiv_pos_site_id
 _symmetry_equiv_pos_as_xyz
  1  'x, y, z'
loop_
 _atom_site_type_symbol
 _atom_site_label
 _atom_site_symmetry_multiplicity
 _atom_site_fract_x
 _atom_site_fract_y
 _atom_site_fract_z
 _atom_site_occupancy
  Er  Er0  1  0.242059  0.000000  0.250000  1
  Tm  Tm1  1  0.334323  0.668632  0.999997  1
  Tm  Tm2  1  0.665691  0.331368  0.500003  1
  Tm  Tm3  1  0.665691  0.331368  0.999997  1
  Tm  Tm4  1  0.334323  0.668632  0.500003  1
  Tm  Tm5  1  0.757943  0.000000  0.750000  1
  Tm  Tm6  1  0.997027  0.241137  0.250000  1
  Tm  Tm7  1  0.755891  0.758863  0.250000  1
  Tm  Tm8  1  0.244061  0.241193  0.750000  1
  Tm  Tm9  1  0.002869  0.758807  0.750000  1
  Sn  Sn10  1  0.606387  0.000000  0.250000  1
  Sn  Sn11  1  0.393904  0.000000  0.750000  1
  Sb  Sb12  1  0.998759  0.608690  0.250000  1
  Sb  Sb13  1  0.390068  0.391310  0.250000  1
  Sb  Sb14  1  0.610029  0.609056  0.750000  1
  Sb  Sb15  1  0.000973  0.390944  0.750000  1
