# generated using pymatgen
data_Yb20Ir3Pd
_symmetry_space_group_name_H-M   'P 1'
_cell_length_a   7.43642993
_cell_length_b   15.76833500
_cell_length_c   6.71970980
_cell_angle_alpha   90.00000000
_cell_angle_beta   90.05665752
_cell_angle_gamma   90.00000000
_symmetry_Int_Tables_number   1
_chemical_formula_structural   Yb20Ir3Pd
_chemical_formula_sum   'Yb20 Ir3 Pd1'
_cell_volume   787.95358141
_cell_formula_units_Z   1
loop_
 _symmetry_equiv_pos_site_id
 _symmetry_equiv_pos_as_xyz
  1  'x, y, z'
loop_
 _atom_site_type_symbol
 _atom_site_label
 _atom_site_symmetry_multiplicity
 _atom_site_fract_x
 _atom_site_fract_y
 _atom_site_fract_z
 _atom_site_occupancy
  Yb  Yb0  1  0.309272  0.068339  0.138846  1
  Yb  Yb1  1  0.309272  0.431661  0.138846  1
  Yb  Yb2  1  0.597351  0.250000  0.151850  1
  Yb  Yb3  1  0.044702  0.643185  0.175942  1
  Yb  Yb4  1  0.044702  0.856815  0.175942  1
  Yb  Yb5  1  0.533907  0.642926  0.330807  1
  Yb  Yb6  1  0.533907  0.857074  0.330807  1
  Yb  Yb7  1  0.097134  0.250000  0.347867  1
  Yb  Yb8  1  0.808975  0.068019  0.360299  1
  Yb  Yb9  1  0.808975  0.431981  0.360299  1
  Yb  Yb10  1  0.188199  0.566008  0.643023  1
  Yb  Yb11  1  0.188199  0.933993  0.643023  1
  Yb  Yb12  1  0.903201  0.750000  0.645229  1
  Yb  Yb13  1  0.462737  0.146435  0.675158  1
  Yb  Yb14  1  0.462737  0.353565  0.675158  1
  Yb  Yb15  1  0.963223  0.146490  0.823913  1
  Yb  Yb16  1  0.963223  0.353510  0.823913  1
  Yb  Yb17  1  0.400569  0.750000  0.844637  1
  Yb  Yb18  1  0.689278  0.560764  0.856726  1
  Yb  Yb19  1  0.689278  0.939237  0.856726  1
  Ir  Ir20  1  0.240682  0.750000  0.461569  1
  Ir  Ir21  1  0.758823  0.250000  0.535806  1
  Ir  Ir22  1  0.258978  0.250000  0.964105  1
  Pd  Pd23  1  0.742676  0.750000  0.039510  1
