# generated using pymatgen
data_CeNd8Sm(Al2Ru3)2
_symmetry_space_group_name_H-M   'P 1'
_cell_length_a   8.61346491
_cell_length_b   8.61806286
_cell_length_c   8.49052276
_cell_angle_alpha   110.39566505
_cell_angle_beta   108.98578677
_cell_angle_gamma   109.59800950
_symmetry_Int_Tables_number   1
_chemical_formula_structural   CeNd8Sm(Al2Ru3)2
_chemical_formula_sum   'Ce1 Nd8 Sm1 Al4 Ru6'
_cell_volume   481.70431209
_cell_formula_units_Z   1
loop_
 _symmetry_equiv_pos_site_id
 _symmetry_equiv_pos_as_xyz
  1  'x, y, z'
loop_
 _atom_site_type_symbol
 _atom_site_label
 _atom_site_symmetry_multiplicity
 _atom_site_fract_x
 _atom_site_fract_y
 _atom_site_fract_z
 _atom_site_occupancy
  Ce  Ce0  1  0.195466  0.946146  0.249842  1
  Nd  Nd1  1  0.782210  0.788142  0.787140  1
  Nd  Nd2  1  0.310714  0.560960  0.749172  1
  Nd  Nd3  1  0.755237  0.316700  0.565405  1
  Nd  Nd4  1  0.564282  0.748806  0.312184  1
  Nd  Nd5  1  0.718599  0.500029  0.997379  1
  Nd  Nd6  1  0.003060  0.720623  0.501565  1
  Nd  Nd7  1  0.501511  0.995953  0.713909  1
  Nd  Nd8  1  0.250185  0.188752  0.934343  1
  Sm  Sm9  1  0.935097  0.252060  0.186477  1
  Al  Al10  1  0.410320  0.408791  0.404462  1
  Al  Al11  1  0.094595  0.500137  0.009192  1
  Al  Al12  1  0.992627  0.087822  0.491436  1
  Al  Al13  1  0.505539  0.006662  0.094919  1
  Ru  Ru14  1  0.881218  0.131788  0.750991  1
  Ru  Ru15  1  0.739654  0.876472  0.121515  1
  Ru  Ru16  1  0.135881  0.767913  0.923523  1
  Ru  Ru17  1  0.253174  0.615723  0.379272  1
  Ru  Ru18  1  0.345998  0.212741  0.577959  1
  Ru  Ru19  1  0.624635  0.373784  0.249317  1
