# generated using pymatgen
data_Tm5IrRh
_symmetry_space_group_name_H-M   'P 1'
_cell_length_a   6.39615302
_cell_length_b   7.11498911
_cell_length_c   8.43836016
_cell_angle_alpha   96.51651860
_cell_angle_beta   112.27130061
_cell_angle_gamma   90.00000086
_symmetry_Int_Tables_number   1
_chemical_formula_structural   Tm5IrRh
_chemical_formula_sum   'Tm10 Ir2 Rh2'
_cell_volume   352.68722837
_cell_formula_units_Z   2
loop_
 _symmetry_equiv_pos_site_id
 _symmetry_equiv_pos_as_xyz
  1  'x, y, z'
loop_
 _atom_site_type_symbol
 _atom_site_label
 _atom_site_symmetry_multiplicity
 _atom_site_fract_x
 _atom_site_fract_y
 _atom_site_fract_z
 _atom_site_occupancy
  Tm  Tm0  1  0.974275  0.918591  0.184948  1
  Tm  Tm1  1  0.789326  0.581409  0.815052  1
  Tm  Tm2  1  0.028499  0.081559  0.817083  1
  Tm  Tm3  1  0.211417  0.418441  0.182917  1
  Tm  Tm4  1  0.653845  0.817225  0.440528  1
  Tm  Tm5  1  0.213316  0.682775  0.559472  1
  Tm  Tm6  1  0.345450  0.184504  0.558143  1
  Tm  Tm7  1  0.787306  0.315496  0.441857  1
  Tm  Tm8  1  0.425501  0.750000  0.000000  1
  Tm  Tm9  1  0.571569  0.250000  0.000000  1
  Ir  Ir10  1  0.174880  0.427096  0.780488  1
  Ir  Ir11  1  0.394391  0.072904  0.219512  1
  Rh  Rh12  1  0.824133  0.572171  0.218040  1
  Rh  Rh13  1  0.606093  0.927829  0.781960  1
