# generated using pymatgen
data_La7Nd13Si15Ag
_symmetry_space_group_name_H-M   'P 1'
_cell_length_a   7.95762962
_cell_length_b   7.95522646
_cell_length_c   15.27860000
_cell_angle_alpha   90.04309125
_cell_angle_beta   89.49949264
_cell_angle_gamma   90.18479132
_symmetry_Int_Tables_number   1
_chemical_formula_structural   La7Nd13Si15Ag
_chemical_formula_sum   'La7 Nd13 Si15 Ag1'
_cell_volume   967.16570070
_cell_formula_units_Z   1
loop_
 _symmetry_equiv_pos_site_id
 _symmetry_equiv_pos_as_xyz
  1  'x, y, z'
loop_
 _atom_site_type_symbol
 _atom_site_label
 _atom_site_symmetry_multiplicity
 _atom_site_fract_x
 _atom_site_fract_y
 _atom_site_fract_z
 _atom_site_occupancy
  La  La0  1  0.012819  0.367518  0.551697  1
  La  La1  1  0.627048  0.985354  0.950834  1
  La  La2  1  0.126598  0.511787  0.802098  1
  La  La3  1  0.863659  0.478263  0.293307  1
  La  La4  1  0.508508  0.123819  0.197949  1
  La  La5  1  0.492876  0.875366  0.699742  1
  La  La6  1  0.379135  0.017799  0.451543  1
  Nd  Nd7  1  0.377315  0.479256  0.373606  1
  Nd  Nd8  1  0.861187  0.026594  0.370002  1
  Nd  Nd9  1  0.981147  0.128205  0.123981  1
  Nd  Nd10  1  0.021983  0.875257  0.624017  1
  Nd  Nd11  1  0.631246  0.519688  0.874460  1
  Nd  Nd12  1  0.486309  0.371421  0.627800  1
  Nd  Nd13  1  0.514911  0.626849  0.125101  1
  Nd  Nd14  1  0.125924  0.983092  0.878667  1
  Nd  Nd15  1  0.992189  0.619572  0.053835  1
  Nd  Nd16  1  0.687853  0.696244  0.497907  1
  Nd  Nd17  1  0.812535  0.189793  0.750291  1
  Nd  Nd18  1  0.182580  0.806818  0.250963  1
  Nd  Nd19  1  0.307195  0.310130  0.999921  1
  Si  Si20  1  0.922625  0.289193  0.940049  1
  Si  Si21  1  0.715605  0.078654  0.560789  1
  Si  Si22  1  0.212558  0.423300  0.190154  1
  Si  Si23  1  0.789831  0.578406  0.688467  1
  Si  Si24  1  0.424370  0.212638  0.811777  1
  Si  Si25  1  0.574186  0.786339  0.308154  1
  Si  Si26  1  0.285226  0.920753  0.060923  1
  Si  Si27  1  0.834068  0.805102  0.796684  1
  Si  Si28  1  0.165758  0.197584  0.299092  1
  Si  Si29  1  0.800506  0.831453  0.197986  1
  Si  Si30  1  0.313034  0.666721  0.552517  1
  Si  Si31  1  0.697408  0.334561  0.048572  1
  Si  Si32  1  0.669162  0.307223  0.454179  1
  Si  Si33  1  0.330685  0.694436  0.952471  1
  Si  Si34  1  0.199127  0.167665  0.702803  1
  Ag  Ag35  1  0.072838  0.713144  0.437665  1
