# generated using pymatgen
data_K4VSe4
_symmetry_space_group_name_H-M   'P 1'
_cell_length_a   8.37125500
_cell_length_b   10.06550500
_cell_length_c   14.75269100
_cell_angle_alpha   90.00000000
_cell_angle_beta   90.00000000
_cell_angle_gamma   90.00000000
_symmetry_Int_Tables_number   1
_chemical_formula_structural   K4VSe4
_chemical_formula_sum   'K16 V4 Se16'
_cell_volume   1243.07515472
_cell_formula_units_Z   4
loop_
 _symmetry_equiv_pos_site_id
 _symmetry_equiv_pos_as_xyz
  1  'x, y, z'
loop_
 _atom_site_type_symbol
 _atom_site_label
 _atom_site_symmetry_multiplicity
 _atom_site_fract_x
 _atom_site_fract_y
 _atom_site_fract_z
 _atom_site_occupancy
  K  K0  1  0.000000  0.000000  0.000000  1
  K  K1  1  0.500000  0.000000  0.500000  1
  K  K2  1  0.000000  0.500000  0.000000  1
  K  K3  1  0.500000  0.500000  0.500000  1
  K  K4  1  0.987975  0.750000  0.423855  1
  K  K5  1  0.487975  0.250000  0.076145  1
  K  K6  1  0.012025  0.250000  0.576145  1
  K  K7  1  0.512025  0.750000  0.923855  1
  K  K8  1  0.842606  0.051330  0.274308  1
  K  K9  1  0.342606  0.948670  0.225692  1
  K  K10  1  0.157394  0.551330  0.725692  1
  K  K11  1  0.657394  0.448670  0.774308  1
  K  K12  1  0.157394  0.948670  0.725692  1
  K  K13  1  0.657394  0.051330  0.774308  1
  K  K14  1  0.842606  0.448670  0.274308  1
  K  K15  1  0.342606  0.551330  0.225692  1
  V  V16  1  0.759871  0.750000  0.666491  1
  V  V17  1  0.240129  0.250000  0.333509  1
  V  V18  1  0.740129  0.750000  0.166491  1
  V  V19  1  0.259871  0.250000  0.833509  1
  Se  Se20  1  0.976202  0.250000  0.825673  1
  Se  Se21  1  0.523798  0.250000  0.325673  1
  Se  Se22  1  0.476202  0.750000  0.674327  1
  Se  Se23  1  0.023798  0.750000  0.174327  1
  Se  Se24  1  0.652683  0.558952  0.089509  1
  Se  Se25  1  0.152683  0.441048  0.410491  1
  Se  Se26  1  0.347317  0.058952  0.910491  1
  Se  Se27  1  0.847317  0.941048  0.589509  1
  Se  Se28  1  0.347317  0.441048  0.910491  1
  Se  Se29  1  0.847317  0.558952  0.589509  1
  Se  Se30  1  0.652683  0.941048  0.089509  1
  Se  Se31  1  0.152683  0.058952  0.410491  1
  Se  Se32  1  0.631819  0.750000  0.315910  1
  Se  Se33  1  0.131819  0.250000  0.184090  1
  Se  Se34  1  0.368181  0.250000  0.684090  1
  Se  Se35  1  0.868181  0.750000  0.815910  1
