# generated using pymatgen
data_Tm6AuO12
_symmetry_space_group_name_H-M   'P 1'
_cell_length_a   6.40063887
_cell_length_b   6.40063894
_cell_length_c   6.40063918
_cell_angle_alpha   98.98251659
_cell_angle_beta   98.98251730
_cell_angle_gamma   98.98252056
_symmetry_Int_Tables_number   1
_chemical_formula_structural   Tm6AuO12
_chemical_formula_sum   'Tm6 Au1 O12'
_cell_volume   251.41316757
_cell_formula_units_Z   1
loop_
 _symmetry_equiv_pos_site_id
 _symmetry_equiv_pos_as_xyz
  1  'x, y, z'
loop_
 _atom_site_type_symbol
 _atom_site_label
 _atom_site_symmetry_multiplicity
 _atom_site_fract_x
 _atom_site_fract_y
 _atom_site_fract_z
 _atom_site_occupancy
  Tm  Tm0  1  0.695460  0.859168  0.390151  1
  Tm  Tm1  1  0.390151  0.695460  0.859168  1
  Tm  Tm2  1  0.859168  0.390151  0.695460  1
  Tm  Tm3  1  0.304540  0.140832  0.609849  1
  Tm  Tm4  1  0.609849  0.304540  0.140832  1
  Tm  Tm5  1  0.140832  0.609849  0.304540  1
  Au  Au6  1  0.000000  0.000000  0.000000  1
  O  O7  1  0.436519  0.587080  0.178401  1
  O  O8  1  0.178401  0.436519  0.587080  1
  O  O9  1  0.587080  0.178401  0.436519  1
  O  O10  1  0.563481  0.412920  0.821599  1
  O  O11  1  0.821599  0.563481  0.412920  1
  O  O12  1  0.412920  0.821599  0.563481  1
  O  O13  1  0.937616  0.048903  0.688579  1
  O  O14  1  0.951097  0.311421  0.062384  1
  O  O15  1  0.311421  0.062384  0.951097  1
  O  O16  1  0.062384  0.951097  0.311421  1
  O  O17  1  0.048903  0.688579  0.937616  1
  O  O18  1  0.688579  0.937616  0.048903  1
