# generated using pymatgen
data_CaTm2Zn11
_symmetry_space_group_name_H-M   'P 1'
_cell_length_a   4.36430054
_cell_length_b   8.15563764
_cell_length_c   8.15563659
_cell_angle_alpha   66.90498316
_cell_angle_beta   74.48066405
_cell_angle_gamma   74.48067270
_symmetry_Int_Tables_number   1
_chemical_formula_structural   CaTm2Zn11
_chemical_formula_sum   'Ca1 Tm2 Zn11'
_cell_volume   252.92102198
_cell_formula_units_Z   1
loop_
 _symmetry_equiv_pos_site_id
 _symmetry_equiv_pos_as_xyz
  1  'x, y, z'
loop_
 _atom_site_type_symbol
 _atom_site_label
 _atom_site_symmetry_multiplicity
 _atom_site_fract_x
 _atom_site_fract_y
 _atom_site_fract_z
 _atom_site_occupancy
  Ca  Ca0  1  0.000000  0.000000  0.000000  1
  Tm  Tm1  1  0.702941  0.297059  0.297059  1
  Tm  Tm2  1  0.297059  0.702941  0.702941  1
  Zn  Zn3  1  0.664577  0.693507  0.977342  1
  Zn  Zn4  1  0.335423  0.306493  0.022658  1
  Zn  Zn5  1  0.664577  0.977342  0.693507  1
  Zn  Zn6  1  0.335423  0.022658  0.306493  1
  Zn  Zn7  1  0.500000  0.685902  0.314098  1
  Zn  Zn8  1  0.500000  0.314098  0.685902  1
  Zn  Zn9  1  0.863482  0.418802  0.854234  1
  Zn  Zn10  1  0.136518  0.581198  0.145766  1
  Zn  Zn11  1  0.863482  0.854234  0.418802  1
  Zn  Zn12  1  0.136518  0.145766  0.581198  1
  Zn  Zn13  1  0.000000  0.500000  0.500000  1
