# generated using pymatgen
data_Y17Lu3Sn16
_symmetry_space_group_name_H-M   'P 1'
_cell_length_a   8.01033938
_cell_length_b   8.15885438
_cell_length_c   15.48386100
_cell_angle_alpha   90.00000000
_cell_angle_beta   90.00000000
_cell_angle_gamma   89.96494004
_symmetry_Int_Tables_number   1
_chemical_formula_structural   Y17Lu3Sn16
_chemical_formula_sum   'Y17 Lu3 Sn16'
_cell_volume   1011.95052699
_cell_formula_units_Z   1
loop_
 _symmetry_equiv_pos_site_id
 _symmetry_equiv_pos_as_xyz
  1  'x, y, z'
loop_
 _atom_site_type_symbol
 _atom_site_label
 _atom_site_symmetry_multiplicity
 _atom_site_fract_x
 _atom_site_fract_y
 _atom_site_fract_z
 _atom_site_occupancy
  Y  Y0  1  0.367270  0.836114  0.877940  1
  Y  Y1  1  0.867259  0.663897  0.621964  1
  Y  Y2  1  0.633188  0.164171  0.378121  1
  Y  Y3  1  0.132501  0.336393  0.121892  1
  Y  Y4  1  0.633188  0.164171  0.121879  1
  Y  Y5  1  0.132501  0.336393  0.378108  1
  Y  Y6  1  0.367270  0.836114  0.622060  1
  Y  Y7  1  0.867259  0.663897  0.878036  1
  Y  Y8  1  0.522596  0.320567  0.901990  1
  Y  Y9  1  0.022628  0.179427  0.598057  1
  Y  Y10  1  0.477582  0.679247  0.402031  1
  Y  Y11  1  0.977224  0.820414  0.097953  1
  Y  Y12  1  0.477582  0.679247  0.097969  1
  Y  Y13  1  0.977224  0.820414  0.402047  1
  Y  Y14  1  0.522596  0.320567  0.598010  1
  Y  Y15  1  0.022628  0.179427  0.901943  1
  Y  Y16  1  0.301784  0.002602  0.250000  1
  Lu  Lu17  1  0.198473  0.502763  0.750000  1
  Lu  Lu18  1  0.698483  0.997249  0.750000  1
  Lu  Lu19  1  0.801451  0.497108  0.250000  1
  Sn  Sn20  1  0.292194  0.034311  0.041766  1
  Sn  Sn21  1  0.792207  0.465792  0.457700  1
  Sn  Sn22  1  0.707806  0.965860  0.542343  1
  Sn  Sn23  1  0.207839  0.534226  0.957654  1
  Sn  Sn24  1  0.707806  0.965860  0.957657  1
  Sn  Sn25  1  0.207839  0.534226  0.542346  1
  Sn  Sn26  1  0.292194  0.034311  0.458234  1
  Sn  Sn27  1  0.792207  0.465792  0.042300  1
  Sn  Sn28  1  0.564058  0.619662  0.750000  1
  Sn  Sn29  1  0.063903  0.880257  0.750000  1
  Sn  Sn30  1  0.436243  0.381041  0.250000  1
  Sn  Sn31  1  0.934436  0.120233  0.250000  1
  Sn  Sn32  1  0.330819  0.148414  0.750000  1
  Sn  Sn33  1  0.830695  0.351800  0.750000  1
  Sn  Sn34  1  0.670083  0.851470  0.250000  1
  Sn  Sn35  1  0.168986  0.646563  0.250000  1
