# generated using pymatgen
data_Tb2HoAl3PdAu2
_symmetry_space_group_name_H-M   'P 1'
_cell_length_a   7.28047571
_cell_length_b   7.29136311
_cell_length_c   4.09348800
_cell_angle_alpha   90.00000000
_cell_angle_beta   90.00000000
_cell_angle_gamma   120.04947232
_symmetry_Int_Tables_number   1
_chemical_formula_structural   Tb2HoAl3PdAu2
_chemical_formula_sum   'Tb2 Ho1 Al3 Pd1 Au2'
_cell_volume   188.09442293
_cell_formula_units_Z   1
loop_
 _symmetry_equiv_pos_site_id
 _symmetry_equiv_pos_as_xyz
  1  'x, y, z'
loop_
 _atom_site_type_symbol
 _atom_site_label
 _atom_site_symmetry_multiplicity
 _atom_site_fract_x
 _atom_site_fract_y
 _atom_site_fract_z
 _atom_site_occupancy
  Tb  Tb0  1  0.411700  0.412053  0.500000  1
  Tb  Tb1  1  0.588300  0.000353  0.500000  1
  Ho  Ho2  1  0.000000  0.588841  0.500000  1
  Al  Al3  1  0.766547  0.765495  0.000000  1
  Al  Al4  1  0.233453  0.998949  0.000000  1
  Al  Al5  1  0.000000  0.234680  0.000000  1
  Pd  Pd6  1  0.000000  0.998360  0.500000  1
  Au  Au7  1  0.330237  0.665754  0.000000  1
  Au  Au8  1  0.669763  0.335516  0.000000  1
