# generated using pymatgen
data_Tb4Pr(B3Ru)2
_symmetry_space_group_name_H-M   'P 1'
_cell_length_a   8.59874108
_cell_length_b   8.59874107
_cell_length_c   8.59874163
_cell_angle_alpha   37.50814489
_cell_angle_beta   37.50814544
_cell_angle_gamma   37.50814917
_symmetry_Int_Tables_number   1
_chemical_formula_structural   Tb4Pr(B3Ru)2
_chemical_formula_sum   'Tb4 Pr1 B6 Ru2'
_cell_volume   211.38490824
_cell_formula_units_Z   1
loop_
 _symmetry_equiv_pos_site_id
 _symmetry_equiv_pos_as_xyz
  1  'x, y, z'
loop_
 _atom_site_type_symbol
 _atom_site_label
 _atom_site_symmetry_multiplicity
 _atom_site_fract_x
 _atom_site_fract_y
 _atom_site_fract_z
 _atom_site_occupancy
  Tb  Tb0  1  0.581188  0.581188  0.581188  1
  Tb  Tb1  1  0.418812  0.418812  0.418812  1
  Tb  Tb2  1  0.752363  0.752363  0.752363  1
  Tb  Tb3  1  0.247637  0.247637  0.247637  1
  Pr  Pr4  1  0.000000  0.000000  0.000000  1
  B  B5  1  0.500000  0.827152  0.172848  1
  B  B6  1  0.172848  0.500000  0.827152  1
  B  B7  1  0.827152  0.172848  0.500000  1
  B  B8  1  0.500000  0.172848  0.827152  1
  B  B9  1  0.827152  0.500000  0.172848  1
  B  B10  1  0.172848  0.827152  0.500000  1
  Ru  Ru11  1  0.885925  0.885925  0.885925  1
  Ru  Ru12  1  0.114075  0.114075  0.114075  1
