# generated using pymatgen
data_Nb9PdSe16
_symmetry_space_group_name_H-M   'P 1'
_cell_length_a   7.00862700
_cell_length_b   7.00862723
_cell_length_c   13.15111600
_cell_angle_alpha   90.00000000
_cell_angle_beta   90.00000000
_cell_angle_gamma   120.00000365
_symmetry_Int_Tables_number   1
_chemical_formula_structural   Nb9PdSe16
_chemical_formula_sum   'Nb9 Pd1 Se16'
_cell_volume   559.44723662
_cell_formula_units_Z   1
loop_
 _symmetry_equiv_pos_site_id
 _symmetry_equiv_pos_as_xyz
  1  'x, y, z'
loop_
 _atom_site_type_symbol
 _atom_site_label
 _atom_site_symmetry_multiplicity
 _atom_site_fract_x
 _atom_site_fract_y
 _atom_site_fract_z
 _atom_site_occupancy
  Nb  Nb0  1  0.000000  0.000000  0.249444  1
  Nb  Nb1  1  0.000000  0.000000  0.750556  1
  Nb  Nb2  1  0.508574  0.017149  0.249835  1
  Nb  Nb3  1  0.491426  0.982851  0.750165  1
  Nb  Nb4  1  0.982851  0.491426  0.249835  1
  Nb  Nb5  1  0.017149  0.508574  0.750165  1
  Nb  Nb6  1  0.508574  0.491426  0.249835  1
  Nb  Nb7  1  0.491426  0.508574  0.750165  1
  Nb  Nb8  1  0.000000  0.000000  0.500000  1
  Pd  Pd9  1  0.000000  0.000000  0.000000  1
  Se  Se10  1  0.333333  0.666667  0.616614  1
  Se  Se11  1  0.666667  0.333333  0.383386  1
  Se  Se12  1  0.666667  0.333333  0.117622  1
  Se  Se13  1  0.333333  0.666667  0.882378  1
  Se  Se14  1  0.170175  0.340351  0.124845  1
  Se  Se15  1  0.829825  0.659649  0.875155  1
  Se  Se16  1  0.659649  0.829825  0.124845  1
  Se  Se17  1  0.831738  0.663476  0.623838  1
  Se  Se18  1  0.340351  0.170175  0.875155  1
  Se  Se19  1  0.168262  0.336524  0.376162  1
  Se  Se20  1  0.170175  0.829825  0.124845  1
  Se  Se21  1  0.336524  0.168262  0.623838  1
  Se  Se22  1  0.829825  0.170175  0.875155  1
  Se  Se23  1  0.663476  0.831738  0.376162  1
  Se  Se24  1  0.831738  0.168262  0.623838  1
  Se  Se25  1  0.168262  0.831738  0.376162  1
