# generated using pymatgen
data_Sm7Dy(GeO5)4
_symmetry_space_group_name_H-M   'P 1'
_cell_length_a   8.35634253
_cell_length_b   8.37739315
_cell_length_c   10.80380640
_cell_angle_alpha   61.46497273
_cell_angle_beta   61.31036398
_cell_angle_gamma   49.74282861
_symmetry_Int_Tables_number   1
_chemical_formula_structural   Sm7Dy(GeO5)4
_chemical_formula_sum   'Sm7 Dy1 Ge4 O20'
_cell_volume   490.22502884
_cell_formula_units_Z   1
loop_
 _symmetry_equiv_pos_site_id
 _symmetry_equiv_pos_as_xyz
  1  'x, y, z'
loop_
 _atom_site_type_symbol
 _atom_site_label
 _atom_site_symmetry_multiplicity
 _atom_site_fract_x
 _atom_site_fract_y
 _atom_site_fract_z
 _atom_site_occupancy
  Sm  Sm0  1  0.719546  0.208840  0.965909  1
  Sm  Sm1  1  0.791644  0.275331  0.536419  1
  Sm  Sm2  1  0.276461  0.794226  0.035075  1
  Sm  Sm3  1  0.207294  0.721716  0.464143  1
  Sm  Sm4  1  0.987797  0.734961  0.837089  1
  Sm  Sm5  1  0.266734  0.015893  0.659875  1
  Sm  Sm6  1  0.009085  0.266003  0.165123  1
  Dy  Dy7  1  0.741455  0.980497  0.337288  1
  Ge  Ge8  1  0.778345  0.591606  0.690071  1
  Ge  Ge9  1  0.407756  0.223396  0.808571  1
  Ge  Ge10  1  0.225251  0.407551  0.306262  1
  Ge  Ge11  1  0.590066  0.778812  0.194723  1
  O  O12  1  0.775929  0.633775  0.058434  1
  O  O13  1  0.380867  0.219412  0.435784  1
  O  O14  1  0.221480  0.368688  0.944276  1
  O  O15  1  0.634778  0.781073  0.553851  1
  O  O16  1  0.583078  0.587502  0.364831  1
  O  O17  1  0.404483  0.424162  0.131105  1
  O  O18  1  0.416327  0.410968  0.636848  1
  O  O19  1  0.589299  0.582559  0.861978  1
  O  O20  1  0.957815  0.646493  0.675646  1
  O  O21  1  0.349408  0.045570  0.825431  1
  O  O22  1  0.047142  0.345738  0.327026  1
  O  O23  1  0.649587  0.954827  0.180033  1
  O  O24  1  0.884556  0.075510  0.397866  1
  O  O25  1  0.916563  0.109307  0.108174  1
  O  O26  1  0.112363  0.921055  0.602835  1
  O  O27  1  0.078076  0.892127  0.895102  1
  O  O28  1  0.086622  0.675944  0.322364  1
  O  O29  1  0.321436  0.911675  0.181322  1
  O  O30  1  0.912153  0.324766  0.675050  1
  O  O31  1  0.676602  0.090017  0.821495  1
