# generated using pymatgen
data_Dy3Tm(ZrPt)4
_symmetry_space_group_name_H-M   'P 1'
_cell_length_a   4.69812900
_cell_length_b   7.11855316
_cell_length_c   8.24335945
_cell_angle_alpha   89.93649981
_cell_angle_beta   90.00000000
_cell_angle_gamma   90.00000000
_symmetry_Int_Tables_number   1
_chemical_formula_structural   Dy3Tm(ZrPt)4
_chemical_formula_sum   'Dy3 Tm1 Zr4 Pt4'
_cell_volume   275.68976336
_cell_formula_units_Z   1
loop_
 _symmetry_equiv_pos_site_id
 _symmetry_equiv_pos_as_xyz
  1  'x, y, z'
loop_
 _atom_site_type_symbol
 _atom_site_label
 _atom_site_symmetry_multiplicity
 _atom_site_fract_x
 _atom_site_fract_y
 _atom_site_fract_z
 _atom_site_occupancy
  Dy  Dy0  1  0.250000  0.515315  0.179161  1
  Dy  Dy1  1  0.750000  0.984761  0.677850  1
  Dy  Dy2  1  0.750000  0.484730  0.821649  1
  Tm  Tm3  1  0.250000  0.016146  0.321817  1
  Zr  Zr4  1  0.250000  0.148349  0.920513  1
  Zr  Zr5  1  0.250000  0.649313  0.579368  1
  Zr  Zr6  1  0.750000  0.851670  0.081094  1
  Zr  Zr7  1  0.750000  0.350781  0.419865  1
  Pt  Pt8  1  0.250000  0.269984  0.591728  1
  Pt  Pt9  1  0.250000  0.770680  0.906569  1
  Pt  Pt10  1  0.750000  0.730042  0.405943  1
  Pt  Pt11  1  0.750000  0.228229  0.094441  1
