# generated using pymatgen
data_Rb3NaCdCl6
_symmetry_space_group_name_H-M   'P 1'
_cell_length_a   8.81890224
_cell_length_b   8.81890330
_cell_length_c   8.81890171
_cell_angle_alpha   93.03229846
_cell_angle_beta   93.03230362
_cell_angle_gamma   93.03230885
_symmetry_Int_Tables_number   1
_chemical_formula_structural   Rb3NaCdCl6
_chemical_formula_sum   'Rb6 Na2 Cd2 Cl12'
_cell_volume   682.88589782
_cell_formula_units_Z   2
loop_
 _symmetry_equiv_pos_site_id
 _symmetry_equiv_pos_as_xyz
  1  'x, y, z'
loop_
 _atom_site_type_symbol
 _atom_site_label
 _atom_site_symmetry_multiplicity
 _atom_site_fract_x
 _atom_site_fract_y
 _atom_site_fract_z
 _atom_site_occupancy
  Rb  Rb0  1  0.747708  0.371686  0.123913  1
  Rb  Rb1  1  0.623913  0.871686  0.247707  1
  Rb  Rb2  1  0.123914  0.747707  0.371687  1
  Rb  Rb3  1  0.871687  0.247707  0.623914  1
  Rb  Rb4  1  0.371687  0.123914  0.747707  1
  Rb  Rb5  1  0.247707  0.623913  0.871686  1
  Na  Na6  1  0.247908  0.247908  0.247908  1
  Na  Na7  1  0.747908  0.747908  0.747908  1
  Cd  Cd8  1  0.497988  0.497988  0.497988  1
  Cd  Cd9  1  0.997989  0.997988  0.997989  1
  Cl  Cl10  1  0.912247  0.708202  0.036597  1
  Cl  Cl11  1  0.287486  0.958993  0.083572  1
  Cl  Cl12  1  0.412248  0.536596  0.208202  1
  Cl  Cl13  1  0.958993  0.083572  0.287485  1
  Cl  Cl14  1  0.536596  0.208202  0.412248  1
  Cl  Cl15  1  0.787485  0.583572  0.458993  1
  Cl  Cl16  1  0.208202  0.412248  0.536596  1
  Cl  Cl17  1  0.458993  0.787485  0.583572  1
  Cl  Cl18  1  0.036597  0.912248  0.708201  1
  Cl  Cl19  1  0.583572  0.458993  0.787486  1
  Cl  Cl20  1  0.708202  0.036596  0.912248  1
  Cl  Cl21  1  0.083573  0.287485  0.958993  1
