# generated using pymatgen
data_Tb3LuIn4
_symmetry_space_group_name_H-M   'P 1'
_cell_length_a   6.54633066
_cell_length_b   6.54633115
_cell_length_c   10.02015600
_cell_angle_alpha   90.00000000
_cell_angle_beta   90.00000000
_cell_angle_gamma   98.66288415
_symmetry_Int_Tables_number   1
_chemical_formula_structural   Tb3LuIn4
_chemical_formula_sum   'Tb6 Lu2 In8'
_cell_volume   424.50942393
_cell_formula_units_Z   2
loop_
 _symmetry_equiv_pos_site_id
 _symmetry_equiv_pos_as_xyz
  1  'x, y, z'
loop_
 _atom_site_type_symbol
 _atom_site_label
 _atom_site_symmetry_multiplicity
 _atom_site_fract_x
 _atom_site_fract_y
 _atom_site_fract_z
 _atom_site_occupancy
  Tb  Tb0  1  0.535225  0.535225  0.250000  1
  Tb  Tb1  1  0.464775  0.464775  0.750000  1
  Tb  Tb2  1  0.244841  0.755159  0.500000  1
  Tb  Tb3  1  0.244841  0.755159  0.000000  1
  Tb  Tb4  1  0.755159  0.244841  0.500000  1
  Tb  Tb5  1  0.755159  0.244841  0.000000  1
  Lu  Lu6  1  0.978461  0.978461  0.250000  1
  Lu  Lu7  1  0.021539  0.021539  0.750000  1
  In  In8  1  0.251938  0.251938  0.022309  1
  In  In9  1  0.748062  0.748062  0.977691  1
  In  In10  1  0.251938  0.251938  0.477691  1
  In  In11  1  0.748062  0.748062  0.522309  1
  In  In12  1  0.483463  0.023824  0.250000  1
  In  In13  1  0.976176  0.516537  0.750000  1
  In  In14  1  0.516537  0.976176  0.750000  1
  In  In15  1  0.023824  0.483463  0.250000  1
