# generated using pymatgen
data_TbYb2Y3Mn2(VC6)2
_symmetry_space_group_name_H-M   'P 1'
_cell_length_a   8.10165500
_cell_length_b   8.07329325
_cell_length_c   4.98513400
_cell_angle_alpha   90.00000000
_cell_angle_beta   90.00000000
_cell_angle_gamma   120.09105697
_symmetry_Int_Tables_number   1
_chemical_formula_structural   TbYb2Y3Mn2(VC6)2
_chemical_formula_sum   'Tb1 Yb2 Y3 Mn2 V2 C12'
_cell_volume   282.11925116
_cell_formula_units_Z   1
loop_
 _symmetry_equiv_pos_site_id
 _symmetry_equiv_pos_as_xyz
  1  'x, y, z'
loop_
 _atom_site_type_symbol
 _atom_site_label
 _atom_site_symmetry_multiplicity
 _atom_site_fract_x
 _atom_site_fract_y
 _atom_site_fract_z
 _atom_site_occupancy
  Tb  Tb0  1  0.064393  0.385423  0.750000  1
  Yb  Yb1  1  0.611284  0.679945  0.750000  1
  Yb  Yb2  1  0.929981  0.612157  0.250000  1
  Y  Y3  1  0.681654  0.065933  0.250000  1
  Y  Y4  1  0.315704  0.933361  0.750000  1
  Y  Y5  1  0.385377  0.321078  0.250000  1
  Mn  Mn6  1  0.666260  0.330075  0.750000  1
  Mn  Mn7  1  0.335662  0.668590  0.250000  1
  V  V8  1  0.999065  0.997949  0.500223  1
  V  V9  1  0.999065  0.997949  0.999777  1
  C  C10  1  0.959172  0.765865  0.750000  1
  C  C11  1  0.194469  0.962184  0.250000  1
  C  C12  1  0.769439  0.811031  0.250000  1
  C  C13  1  0.233791  0.197705  0.750000  1
  C  C14  1  0.811280  0.039622  0.750000  1
  C  C15  1  0.036838  0.233658  0.250000  1
  C  C16  1  0.859202  0.572046  0.750000  1
  C  C17  1  0.290318  0.863861  0.250000  1
  C  C18  1  0.576953  0.712448  0.250000  1
  C  C19  1  0.427956  0.288214  0.750000  1
  C  C20  1  0.142162  0.428703  0.250000  1
  C  C21  1  0.709976  0.132206  0.750000  1
