# generated using pymatgen
data_Dy5Co19(SiP3)3
_symmetry_space_group_name_H-M   'P 1'
_cell_length_a   12.02459000
_cell_length_b   12.02458878
_cell_length_c   3.68149500
_cell_angle_alpha   90.00000000
_cell_angle_beta   90.00000000
_cell_angle_gamma   120.00000336
_symmetry_Int_Tables_number   1
_chemical_formula_structural   Dy5Co19(SiP3)3
_chemical_formula_sum   'Dy5 Co19 Si3 P9'
_cell_volume   460.99407370
_cell_formula_units_Z   1
loop_
 _symmetry_equiv_pos_site_id
 _symmetry_equiv_pos_as_xyz
  1  'x, y, z'
loop_
 _atom_site_type_symbol
 _atom_site_label
 _atom_site_symmetry_multiplicity
 _atom_site_fract_x
 _atom_site_fract_y
 _atom_site_fract_z
 _atom_site_occupancy
  Dy  Dy0  1  0.333333  0.666667  0.000000  1
  Dy  Dy1  1  0.666667  0.333333  0.000000  1
  Dy  Dy2  1  0.185064  0.000000  0.500000  1
  Dy  Dy3  1  0.000000  0.185064  0.500000  1
  Dy  Dy4  1  0.814936  0.814936  0.500000  1
  Co  Co5  1  0.202568  0.378037  0.000000  1
  Co  Co6  1  0.621963  0.824532  0.000000  1
  Co  Co7  1  0.175468  0.797432  0.000000  1
  Co  Co8  1  0.824532  0.621963  0.000000  1
  Co  Co9  1  0.797432  0.175468  0.000000  1
  Co  Co10  1  0.378037  0.202568  0.000000  1
  Co  Co11  1  0.556939  0.000000  0.000000  1
  Co  Co12  1  0.000000  0.556939  0.000000  1
  Co  Co13  1  0.443061  0.443061  0.000000  1
  Co  Co14  1  0.126917  0.485313  0.500000  1
  Co  Co15  1  0.514687  0.641604  0.500000  1
  Co  Co16  1  0.358396  0.873083  0.500000  1
  Co  Co17  1  0.641604  0.514687  0.500000  1
  Co  Co18  1  0.873083  0.358396  0.500000  1
  Co  Co19  1  0.485313  0.126917  0.500000  1
  Co  Co20  1  0.715673  0.000000  0.500000  1
  Co  Co21  1  0.000000  0.715673  0.500000  1
  Co  Co22  1  0.284327  0.284327  0.500000  1
  Co  Co23  1  0.000000  0.000000  0.000000  1
  Si  Si24  1  0.369354  0.000000  0.000000  1
  Si  Si25  1  0.000000  0.369354  0.000000  1
  Si  Si26  1  0.630646  0.630646  0.000000  1
  P  P27  1  0.313843  0.479737  0.500000  1
  P  P28  1  0.520263  0.834107  0.500000  1
  P  P29  1  0.165893  0.686157  0.500000  1
  P  P30  1  0.834107  0.520263  0.500000  1
  P  P31  1  0.686157  0.165893  0.500000  1
  P  P32  1  0.479737  0.313843  0.500000  1
  P  P33  1  0.817995  0.000000  0.000000  1
  P  P34  1  0.000000  0.817995  0.000000  1
  P  P35  1  0.182005  0.182005  0.000000  1
