# generated using pymatgen
data_TbSm11(GaI3)4
_symmetry_space_group_name_H-M   'P 1'
_cell_length_a   10.67192724
_cell_length_b   10.67192695
_cell_length_c   10.68708600
_cell_angle_alpha   109.46288419
_cell_angle_beta   109.46288364
_cell_angle_gamma   109.41416828
_symmetry_Int_Tables_number   1
_chemical_formula_structural   TbSm11(GaI3)4
_chemical_formula_sum   'Tb1 Sm11 Ga4 I12'
_cell_volume   937.81583107
_cell_formula_units_Z   1
loop_
 _symmetry_equiv_pos_site_id
 _symmetry_equiv_pos_as_xyz
  1  'x, y, z'
loop_
 _atom_site_type_symbol
 _atom_site_label
 _atom_site_symmetry_multiplicity
 _atom_site_fract_x
 _atom_site_fract_y
 _atom_site_fract_z
 _atom_site_occupancy
  Tb  Tb0  1  0.234204  0.265796  0.750000  1
  Sm  Sm1  1  0.471356  0.485565  0.235700  1
  Sm  Sm2  1  0.750962  0.235662  0.265339  1
  Sm  Sm3  1  0.749776  0.014238  0.485115  1
  Sm  Sm4  1  0.235379  0.470990  0.485373  1
  Sm  Sm5  1  0.264338  0.749038  0.234661  1
  Sm  Sm6  1  0.029010  0.264621  0.014627  1
  Sm  Sm7  1  0.014435  0.028644  0.264300  1
  Sm  Sm8  1  0.485762  0.750224  0.014885  1
  Sm  Sm9  1  0.485522  0.235539  0.471134  1
  Sm  Sm10  1  0.014995  0.485005  0.750000  1
  Sm  Sm11  1  0.264461  0.014478  0.028866  1
  Ga  Ga12  1  0.250013  0.249987  0.250000  1
  Ga  Ga13  1  0.499917  0.000083  0.250000  1
  Ga  Ga14  1  0.001295  0.249572  0.501064  1
  Ga  Ga15  1  0.250428  0.498705  0.998936  1
  I  I16  1  0.250148  0.757917  0.742259  1
  I  I17  1  0.512856  0.504766  0.757950  1
  I  I18  1  0.983975  0.741618  0.991610  1
  I  I19  1  0.742083  0.249852  0.757741  1
  I  I20  1  0.995234  0.987144  0.742050  1
  I  I21  1  0.250122  0.994336  0.510040  1
  I  I22  1  0.758382  0.516025  0.508390  1
  I  I23  1  0.505664  0.249878  0.989960  1
  I  I24  1  0.758068  0.741932  0.250000  1
  I  I25  1  0.742025  0.992289  0.984201  1
  I  I26  1  0.991876  0.508124  0.250000  1
  I  I27  1  0.507711  0.757975  0.515799  1
