# generated using pymatgen
data_Y2SnHgRh4
_symmetry_space_group_name_H-M   'P 1'
_cell_length_a   6.30080200
_cell_length_b   6.29764500
_cell_length_c   7.30892400
_cell_angle_alpha   90.00000000
_cell_angle_beta   89.99906463
_cell_angle_gamma   90.00000000
_symmetry_Int_Tables_number   1
_chemical_formula_structural   Y2SnHgRh4
_chemical_formula_sum   'Y4 Sn2 Hg2 Rh8'
_cell_volume   290.01966995
_cell_formula_units_Z   2
loop_
 _symmetry_equiv_pos_site_id
 _symmetry_equiv_pos_as_xyz
  1  'x, y, z'
loop_
 _atom_site_type_symbol
 _atom_site_label
 _atom_site_symmetry_multiplicity
 _atom_site_fract_x
 _atom_site_fract_y
 _atom_site_fract_z
 _atom_site_occupancy
  Y  Y0  1  0.750064  0.250009  0.000000  1
  Y  Y1  1  0.249936  0.749990  0.000000  1
  Y  Y2  1  0.750023  0.250003  0.499998  1
  Y  Y3  1  0.249978  0.749996  0.500002  1
  Sn  Sn4  1  0.750340  0.750004  0.499933  1
  Sn  Sn5  1  0.249660  0.249995  0.500067  1
  Hg  Hg6  1  0.249935  0.250009  0.999991  1
  Hg  Hg7  1  0.750066  0.749990  0.000009  1
  Rh  Rh8  1  0.500005  0.999987  0.259967  1
  Rh  Rh9  1  0.499996  0.500015  0.259975  1
  Rh  Rh10  1  0.999991  0.999994  0.259968  1
  Rh  Rh11  1  0.999995  0.500005  0.259935  1
  Rh  Rh12  1  0.000009  0.000006  0.740032  1
  Rh  Rh13  1  0.000005  0.499994  0.740065  1
  Rh  Rh14  1  0.499994  0.000013  0.740033  1
  Rh  Rh15  1  0.500003  0.499985  0.740025  1
