# generated using pymatgen
data_La3Pr6HoC4I15
_symmetry_space_group_name_H-M   'P 1'
_cell_length_a   9.85896746
_cell_length_b   10.75271438
_cell_length_c   11.85294776
_cell_angle_alpha   93.65531365
_cell_angle_beta   114.16394532
_cell_angle_gamma   109.52832199
_symmetry_Int_Tables_number   1
_chemical_formula_structural   La3Pr6HoC4I15
_chemical_formula_sum   'La3 Pr6 Ho1 C4 I15'
_cell_volume   1050.68219733
_cell_formula_units_Z   1
loop_
 _symmetry_equiv_pos_site_id
 _symmetry_equiv_pos_as_xyz
  1  'x, y, z'
loop_
 _atom_site_type_symbol
 _atom_site_label
 _atom_site_symmetry_multiplicity
 _atom_site_fract_x
 _atom_site_fract_y
 _atom_site_fract_z
 _atom_site_occupancy
  La  La0  1  0.706275  0.568555  0.045261  1
  La  La1  1  0.293666  0.432155  0.955638  1
  La  La2  1  0.658150  0.253828  0.831258  1
  Pr  Pr3  1  0.345255  0.746775  0.164769  1
  Pr  Pr4  1  0.776733  0.883817  0.257790  1
  Pr  Pr5  1  0.527737  0.185242  0.102343  1
  Pr  Pr6  1  0.223823  0.114992  0.743678  1
  Pr  Pr7  1  0.402100  0.458103  0.657170  1
  Pr  Pr8  1  0.472908  0.814329  0.899048  1
  Ho  Ho9  1  0.592895  0.546434  0.334387  1
  C  C10  1  0.483631  0.300539  0.937471  1
  C  C11  1  0.518508  0.698185  0.062877  1
  C  C12  1  0.453933  0.362061  0.834408  1
  C  C13  1  0.546577  0.636274  0.166026  1
  I  I14  1  0.207451  0.906538  0.938146  1
  I  I15  1  0.103797  0.186667  0.469344  1
  I  I16  1  0.153183  0.557069  0.702483  1
  I  I17  1  0.401284  0.966252  0.645683  1
  I  I18  1  0.712442  0.734801  0.819636  1
  I  I19  1  0.299524  0.274392  0.189081  1
  I  I20  1  0.836582  0.446406  0.303401  1
  I  I21  1  0.882477  0.799048  0.525548  1
  I  I22  1  0.368947  0.627931  0.411487  1
  I  I23  1  0.055818  0.833968  0.222939  1
  I  I24  1  0.793355  0.095005  0.063916  1
  I  I25  1  0.640943  0.376388  0.581715  1
  I  I26  1  0.944422  0.163663  0.778579  1
  I  I27  1  0.594788  0.029886  0.352653  1
  I  I28  1  0.002797  0.500697  0.003265  1
