# generated using pymatgen
data_Na3Cr(NO3)8
_symmetry_space_group_name_H-M   'P 1'
_cell_length_a   7.76913214
_cell_length_b   7.76913228
_cell_length_c   7.76913227
_cell_angle_alpha   91.21653719
_cell_angle_beta   91.21654039
_cell_angle_gamma   91.21654795
_symmetry_Int_Tables_number   1
_chemical_formula_structural   Na3Cr(NO3)8
_chemical_formula_sum   'Na3 Cr1 N8 O24'
_cell_volume   468.61861506
_cell_formula_units_Z   1
loop_
 _symmetry_equiv_pos_site_id
 _symmetry_equiv_pos_as_xyz
  1  'x, y, z'
loop_
 _atom_site_type_symbol
 _atom_site_label
 _atom_site_symmetry_multiplicity
 _atom_site_fract_x
 _atom_site_fract_y
 _atom_site_fract_z
 _atom_site_occupancy
  Na  Na0  1  0.500000  0.500000  0.000000  1
  Na  Na1  1  0.000000  0.500000  0.500000  1
  Na  Na2  1  0.500000  0.000000  0.500000  1
  Cr  Cr3  1  0.000000  0.000000  0.000000  1
  N  N4  1  0.305137  0.154587  0.823571  1
  N  N5  1  0.823571  0.305137  0.154587  1
  N  N6  1  0.154587  0.823571  0.305137  1
  N  N7  1  0.670092  0.670092  0.670092  1
  N  N8  1  0.694863  0.845413  0.176429  1
  N  N9  1  0.176429  0.694863  0.845413  1
  N  N10  1  0.845413  0.176429  0.694863  1
  N  N11  1  0.329908  0.329908  0.329908  1
  O  O12  1  0.416379  0.270621  0.811685  1
  O  O13  1  0.811685  0.416379  0.270621  1
  O  O14  1  0.270621  0.811685  0.416379  1
  O  O15  1  0.201157  0.163831  0.952368  1
  O  O16  1  0.290253  0.032348  0.717652  1
  O  O17  1  0.717652  0.290253  0.032348  1
  O  O18  1  0.695691  0.546417  0.768082  1
  O  O19  1  0.163831  0.952368  0.201157  1
  O  O20  1  0.768082  0.695691  0.546417  1
  O  O21  1  0.952368  0.201157  0.163831  1
  O  O22  1  0.546417  0.768082  0.695691  1
  O  O23  1  0.032348  0.717652  0.290253  1
  O  O24  1  0.583621  0.729379  0.188315  1
  O  O25  1  0.188315  0.583621  0.729379  1
  O  O26  1  0.729379  0.188315  0.583621  1
  O  O27  1  0.798843  0.836169  0.047632  1
  O  O28  1  0.709747  0.967652  0.282348  1
  O  O29  1  0.282348  0.709747  0.967652  1
  O  O30  1  0.304309  0.453583  0.231918  1
  O  O31  1  0.836169  0.047632  0.798843  1
  O  O32  1  0.231918  0.304309  0.453583  1
  O  O33  1  0.047632  0.798843  0.836169  1
  O  O34  1  0.453583  0.231918  0.304309  1
  O  O35  1  0.967652  0.282348  0.709747  1
