# generated using pymatgen
data_Sm6YBI12
_symmetry_space_group_name_H-M   'P 1'
_cell_length_a   9.78700818
_cell_length_b   9.78392191
_cell_length_c   9.76157600
_cell_angle_alpha   107.65105924
_cell_angle_beta   107.80414922
_cell_angle_gamma   107.98889600
_symmetry_Int_Tables_number   1
_chemical_formula_structural   Sm6YBI12
_chemical_formula_sum   'Sm6 Y1 B1 I12'
_cell_volume   760.47776198
_cell_formula_units_Z   1
loop_
 _symmetry_equiv_pos_site_id
 _symmetry_equiv_pos_as_xyz
  1  'x, y, z'
loop_
 _atom_site_type_symbol
 _atom_site_label
 _atom_site_symmetry_multiplicity
 _atom_site_fract_x
 _atom_site_fract_y
 _atom_site_fract_z
 _atom_site_occupancy
  Sm  Sm0  1  0.701815  0.959052  0.892236  1
  Sm  Sm1  1  0.958858  0.892098  0.701504  1
  Sm  Sm2  1  0.525269  0.525650  0.525786  1
  Sm  Sm3  1  0.097262  0.294920  0.026979  1
  Sm  Sm4  1  0.295028  0.028230  0.097590  1
  Sm  Sm5  1  0.891751  0.701537  0.959104  1
  Y  Y6  1  0.027687  0.095430  0.289966  1
  B  B7  1  0.006338  0.006431  0.006979  1
  I  I8  1  0.076069  0.221613  0.683248  1
  I  I9  1  0.385539  0.161941  0.468304  1
  I  I10  1  0.606634  0.853864  0.522886  1
  I  I11  1  0.222701  0.685986  0.078151  1
  I  I12  1  0.771162  0.310830  0.923626  1
  I  I13  1  0.691840  0.078011  0.225549  1
  I  I14  1  0.523053  0.607459  0.854756  1
  I  I15  1  0.853811  0.523077  0.607397  1
  I  I16  1  0.925444  0.777237  0.311815  1
  I  I17  1  0.310657  0.922657  0.771412  1
  I  I18  1  0.469671  0.391178  0.162895  1
  I  I19  1  0.159410  0.462798  0.389820  1
