# generated using pymatgen
data_Nd2HoFe(Co4P3)2
_symmetry_space_group_name_H-M   'P 1'
_cell_length_a   3.74037400
_cell_length_b   10.59762300
_cell_length_c   12.28558800
_cell_angle_alpha   90.00000000
_cell_angle_beta   90.00000000
_cell_angle_gamma   90.00000000
_symmetry_Int_Tables_number   1
_chemical_formula_structural   Nd2HoFe(Co4P3)2
_chemical_formula_sum   'Nd4 Ho2 Fe2 Co16 P12'
_cell_volume   486.98932610
_cell_formula_units_Z   2
loop_
 _symmetry_equiv_pos_site_id
 _symmetry_equiv_pos_as_xyz
  1  'x, y, z'
loop_
 _atom_site_type_symbol
 _atom_site_label
 _atom_site_symmetry_multiplicity
 _atom_site_fract_x
 _atom_site_fract_y
 _atom_site_fract_z
 _atom_site_occupancy
  Nd  Nd0  1  0.000000  0.500000  0.520559  1
  Nd  Nd1  1  0.500000  0.000000  0.477646  1
  Nd  Nd2  1  0.000000  0.682519  0.795102  1
  Nd  Nd3  1  0.000000  0.317481  0.795102  1
  Ho  Ho4  1  0.500000  0.818357  0.204668  1
  Ho  Ho5  1  0.500000  0.181643  0.204668  1
  Fe  Fe6  1  0.500000  0.500000  0.156072  1
  Fe  Fe7  1  0.000000  0.000000  0.845269  1
  Co  Co8  1  0.500000  0.500000  0.703471  1
  Co  Co9  1  0.000000  0.000000  0.294724  1
  Co  Co10  1  0.000000  0.500000  0.990692  1
  Co  Co11  1  0.500000  0.000000  0.016027  1
  Co  Co12  1  0.500000  0.331738  0.997831  1
  Co  Co13  1  0.500000  0.668262  0.997831  1
  Co  Co14  1  0.000000  0.165508  0.007543  1
  Co  Co15  1  0.000000  0.834492  0.007543  1
  Co  Co16  1  0.500000  0.295720  0.427165  1
  Co  Co17  1  0.500000  0.704280  0.427165  1
  Co  Co18  1  0.000000  0.202959  0.567667  1
  Co  Co19  1  0.000000  0.797041  0.567667  1
  Co  Co20  1  0.500000  0.880944  0.710096  1
  Co  Co21  1  0.500000  0.119056  0.710096  1
  Co  Co22  1  0.000000  0.621077  0.287674  1
  Co  Co23  1  0.000000  0.378923  0.287674  1
  P  P24  1  0.500000  0.500000  0.888403  1
  P  P25  1  0.000000  0.000000  0.118057  1
  P  P26  1  0.500000  0.500000  0.338081  1
  P  P27  1  0.000000  0.000000  0.661357  1
  P  P28  1  0.500000  0.305397  0.612917  1
  P  P29  1  0.500000  0.694603  0.612917  1
  P  P30  1  0.000000  0.192388  0.381027  1
  P  P31  1  0.000000  0.807612  0.381027  1
  P  P32  1  0.500000  0.849837  0.895828  1
  P  P33  1  0.500000  0.150163  0.895828  1
  P  P34  1  0.000000  0.654798  0.107304  1
  P  P35  1  0.000000  0.345202  0.107304  1
