# generated using pymatgen
data_Tb5Er4Lu7(CdPt)4
_symmetry_space_group_name_H-M   'P 1'
_cell_length_a   9.57776516
_cell_length_b   9.57429908
_cell_length_c   9.57430059
_cell_angle_alpha   60.10423292
_cell_angle_beta   59.98802195
_cell_angle_gamma   59.98802586
_symmetry_Int_Tables_number   1
_chemical_formula_structural   Tb5Er4Lu7(CdPt)4
_chemical_formula_sum   'Tb5 Er4 Lu7 Cd4 Pt4'
_cell_volume   621.19137208
_cell_formula_units_Z   1
loop_
 _symmetry_equiv_pos_site_id
 _symmetry_equiv_pos_as_xyz
  1  'x, y, z'
loop_
 _atom_site_type_symbol
 _atom_site_label
 _atom_site_symmetry_multiplicity
 _atom_site_fract_x
 _atom_site_fract_y
 _atom_site_fract_z
 _atom_site_occupancy
  Tb  Tb0  1  0.560080  0.939920  0.939920  1
  Tb  Tb1  1  0.564999  0.934807  0.563759  1
  Tb  Tb2  1  0.936436  0.563759  0.934807  1
  Tb  Tb3  1  0.564999  0.563759  0.934807  1
  Tb  Tb4  1  0.936436  0.934807  0.563759  1
  Er  Er5  1  0.350495  0.352291  0.352291  1
  Er  Er6  1  0.352430  0.357333  0.937808  1
  Er  Er7  1  0.352430  0.937808  0.357333  1
  Er  Er8  1  0.944923  0.352291  0.352291  1
  Lu  Lu9  1  0.811254  0.188746  0.188746  1
  Lu  Lu10  1  0.186056  0.813944  0.813944  1
  Lu  Lu11  1  0.186177  0.812897  0.189097  1
  Lu  Lu12  1  0.811829  0.189097  0.812897  1
  Lu  Lu13  1  0.186177  0.189097  0.812897  1
  Lu  Lu14  1  0.811829  0.812897  0.189097  1
  Lu  Lu15  1  0.937556  0.562444  0.562444  1
  Cd  Cd16  1  0.585802  0.579640  0.579640  1
  Cd  Cd17  1  0.582269  0.580248  0.255214  1
  Cd  Cd18  1  0.582269  0.255214  0.580248  1
  Cd  Cd19  1  0.254918  0.579640  0.579640  1
  Pt  Pt20  1  0.145301  0.142221  0.142221  1
  Pt  Pt21  1  0.142540  0.141671  0.573250  1
  Pt  Pt22  1  0.142540  0.573250  0.141671  1
  Pt  Pt23  1  0.570256  0.142221  0.142221  1
