# generated using pymatgen
data_Rb3In(GaI4)4
_symmetry_space_group_name_H-M   'P 1'
_cell_length_a   8.27508491
_cell_length_b   8.71092501
_cell_length_c   16.78676432
_cell_angle_alpha   85.37933205
_cell_angle_beta   90.29481455
_cell_angle_gamma   90.04648144
_symmetry_Int_Tables_number   1
_chemical_formula_structural   Rb3In(GaI4)4
_chemical_formula_sum   'Rb3 In1 Ga4 I16'
_cell_volume   1206.10227696
_cell_formula_units_Z   1
loop_
 _symmetry_equiv_pos_site_id
 _symmetry_equiv_pos_as_xyz
  1  'x, y, z'
loop_
 _atom_site_type_symbol
 _atom_site_label
 _atom_site_symmetry_multiplicity
 _atom_site_fract_x
 _atom_site_fract_y
 _atom_site_fract_z
 _atom_site_occupancy
  Rb  Rb0  1  0.502982  0.257620  0.640249  1
  Rb  Rb1  1  0.002713  0.742159  0.859843  1
  Rb  Rb2  1  0.496698  0.742417  0.359286  1
  In  In3  1  0.000508  0.256191  0.138231  1
  Ga  Ga4  1  0.356222  0.245181  0.360358  1
  Ga  Ga5  1  0.859226  0.754958  0.139435  1
  Ga  Ga6  1  0.642546  0.754697  0.639085  1
  Ga  Ga7  1  0.141731  0.244746  0.861431  1
  I  I8  1  0.862305  0.144915  0.909588  1
  I  I9  1  0.362276  0.854995  0.591133  1
  I  I10  1  0.136411  0.864425  0.092022  1
  I  I11  1  0.636573  0.145463  0.408458  1
  I  I12  1  0.386600  0.406384  0.224048  1
  I  I13  1  0.893638  0.586750  0.272821  1
  I  I14  1  0.606899  0.591041  0.774269  1
  I  I15  1  0.107242  0.409141  0.726426  1
  I  I16  1  0.662588  0.980946  0.158066  1
  I  I17  1  0.152456  0.026046  0.339461  1
  I  I18  1  0.345305  0.025353  0.841473  1
  I  I19  1  0.845467  0.975268  0.658797  1
  I  I20  1  0.239069  0.418088  0.465063  1
  I  I21  1  0.743352  0.577081  0.036243  1
  I  I22  1  0.761230  0.582108  0.534763  1
  I  I23  1  0.255962  0.414030  0.969455  1
