# generated using pymatgen
data_Nd2U(SnIr)3
_symmetry_space_group_name_H-M   'P 1'
_cell_length_a   7.64886400
_cell_length_b   7.52563839
_cell_length_c   4.01980200
_cell_angle_alpha   90.00000000
_cell_angle_beta   90.00000000
_cell_angle_gamma   120.54313671
_symmetry_Int_Tables_number   1
_chemical_formula_structural   Nd2U(SnIr)3
_chemical_formula_sum   'Nd2 U1 Sn3 Ir3'
_cell_volume   199.28406344
_cell_formula_units_Z   1
loop_
 _symmetry_equiv_pos_site_id
 _symmetry_equiv_pos_as_xyz
  1  'x, y, z'
loop_
 _atom_site_type_symbol
 _atom_site_label
 _atom_site_symmetry_multiplicity
 _atom_site_fract_x
 _atom_site_fract_y
 _atom_site_fract_z
 _atom_site_occupancy
  Nd  Nd0  1  0.000255  0.591091  0.000000  1
  Nd  Nd1  1  0.409164  0.408909  0.000000  1
  U  U2  1  0.585274  0.000000  0.000000  1
  Sn  Sn3  1  0.240915  0.000000  0.500000  1
  Sn  Sn4  1  0.009679  0.263450  0.500000  1
  Sn  Sn5  1  0.746229  0.736550  0.500000  1
  Ir  Ir6  1  0.370531  0.710124  0.500000  1
  Ir  Ir7  1  0.660408  0.289876  0.500000  1
  Ir  Ir8  1  0.977543  0.000000  0.000000  1
