# generated using pymatgen
data_Mg5U(ZnRh2)6
_symmetry_space_group_name_H-M   'P 1'
_cell_length_a   4.37671401
_cell_length_b   6.26557100
_cell_length_c   13.09134702
_cell_angle_alpha   90.00000000
_cell_angle_beta   89.99320887
_cell_angle_gamma   90.00000000
_symmetry_Int_Tables_number   1
_chemical_formula_structural   Mg5U(ZnRh2)6
_chemical_formula_sum   'Mg5 U1 Zn6 Rh12'
_cell_volume   358.99893218
_cell_formula_units_Z   1
loop_
 _symmetry_equiv_pos_site_id
 _symmetry_equiv_pos_as_xyz
  1  'x, y, z'
loop_
 _atom_site_type_symbol
 _atom_site_label
 _atom_site_symmetry_multiplicity
 _atom_site_fract_x
 _atom_site_fract_y
 _atom_site_fract_z
 _atom_site_occupancy
  Mg  Mg0  1  0.499674  0.500001  0.172292  1
  Mg  Mg1  1  0.999639  0.000000  0.336321  1
  Mg  Mg2  1  0.500000  0.500001  0.499991  1
  Mg  Mg3  1  0.000362  0.000000  0.663684  1
  Mg  Mg4  1  0.500326  0.500001  0.827716  1
  U  U5  1  0.000000  0.000000  0.999998  1
  Zn  Zn6  1  0.000000  0.500001  0.999995  1
  Zn  Zn7  1  0.499705  0.000000  0.176060  1
  Zn  Zn8  1  0.999687  0.500001  0.336383  1
  Zn  Zn9  1  0.500000  0.000000  0.499998  1
  Zn  Zn10  1  0.000314  0.500001  0.663627  1
  Zn  Zn11  1  0.500294  0.000000  0.823937  1
  Rh  Rh12  1  0.500001  0.255711  0.999996  1
  Rh  Rh13  1  0.500001  0.744289  0.999996  1
  Rh  Rh14  1  0.999714  0.245164  0.162019  1
  Rh  Rh15  1  0.999714  0.754835  0.162019  1
  Rh  Rh16  1  0.499665  0.251391  0.334384  1
  Rh  Rh17  1  0.499665  0.748608  0.334384  1
  Rh  Rh18  1  0.000000  0.249639  0.500010  1
  Rh  Rh19  1  0.000000  0.750359  0.500010  1
  Rh  Rh20  1  0.500336  0.251396  0.665611  1
  Rh  Rh21  1  0.500336  0.748603  0.665611  1
  Rh  Rh22  1  0.000286  0.245163  0.837979  1
  Rh  Rh23  1  0.000286  0.754836  0.837979  1
