# generated using pymatgen
data_Tb4Dy11Y5(CoSb2)4
_symmetry_space_group_name_H-M   'P 1'
_cell_length_a   7.94046914
_cell_length_b   8.74563400
_cell_length_c   12.23575114
_cell_angle_alpha   90.00000000
_cell_angle_beta   89.91260591
_cell_angle_gamma   90.00000000
_symmetry_Int_Tables_number   1
_chemical_formula_structural   Tb4Dy11Y5(CoSb2)4
_chemical_formula_sum   'Tb4 Dy11 Y5 Co4 Sb8'
_cell_volume   849.70385859
_cell_formula_units_Z   1
loop_
 _symmetry_equiv_pos_site_id
 _symmetry_equiv_pos_as_xyz
  1  'x, y, z'
loop_
 _atom_site_type_symbol
 _atom_site_label
 _atom_site_symmetry_multiplicity
 _atom_site_fract_x
 _atom_site_fract_y
 _atom_site_fract_z
 _atom_site_occupancy
  Tb  Tb0  1  0.621239  0.750000  0.305770  1
  Tb  Tb1  1  0.121520  0.250000  0.194003  1
  Tb  Tb2  1  0.378796  0.250000  0.694050  1
  Tb  Tb3  1  0.878489  0.750000  0.805805  1
  Dy  Dy4  1  0.954301  0.250000  0.501752  1
  Dy  Dy5  1  0.545422  0.250000  0.001783  1
  Dy  Dy6  1  0.045617  0.750000  0.498242  1
  Dy  Dy7  1  0.821711  0.965353  0.065193  1
  Dy  Dy8  1  0.321423  0.035330  0.435139  1
  Dy  Dy9  1  0.178716  0.465123  0.935086  1
  Dy  Dy10  1  0.678434  0.535077  0.564713  1
  Dy  Dy11  1  0.178716  0.034877  0.935086  1
  Dy  Dy12  1  0.678434  0.964923  0.564713  1
  Dy  Dy13  1  0.821711  0.534647  0.065193  1
  Dy  Dy14  1  0.321423  0.464670  0.435139  1
  Y  Y15  1  0.154897  0.750000  0.203737  1
  Y  Y16  1  0.655201  0.250000  0.296041  1
  Y  Y17  1  0.845101  0.250000  0.796509  1
  Y  Y18  1  0.344691  0.750000  0.703929  1
  Y  Y19  1  0.456218  0.750000  0.998330  1
  Co  Co20  1  0.434076  0.750000  0.489653  1
  Co  Co21  1  0.934126  0.250000  0.010471  1
  Co  Co22  1  0.565971  0.250000  0.510184  1
  Co  Co23  1  0.064372  0.750000  0.989872  1
  Sb  Sb24  1  0.927633  0.991494  0.327014  1
  Sb  Sb25  1  0.427664  0.008239  0.172921  1
  Sb  Sb26  1  0.072359  0.491412  0.673015  1
  Sb  Sb27  1  0.572040  0.508667  0.826855  1
  Sb  Sb28  1  0.072359  0.008588  0.673015  1
  Sb  Sb29  1  0.572040  0.991333  0.826855  1
  Sb  Sb30  1  0.927633  0.508506  0.327014  1
  Sb  Sb31  1  0.427664  0.491761  0.172921  1
