# generated using pymatgen
data_YEr2(InRh)3
_symmetry_space_group_name_H-M   'P 1'
_cell_length_a   7.54790300
_cell_length_b   7.55993922
_cell_length_c   3.88317300
_cell_angle_alpha   90.00000000
_cell_angle_beta   90.00000000
_cell_angle_gamma   119.94735191
_symmetry_Int_Tables_number   1
_chemical_formula_structural   YEr2(InRh)3
_chemical_formula_sum   'Y1 Er2 In3 Rh3'
_cell_volume   191.99598264
_cell_formula_units_Z   1
loop_
 _symmetry_equiv_pos_site_id
 _symmetry_equiv_pos_as_xyz
  1  'x, y, z'
loop_
 _atom_site_type_symbol
 _atom_site_label
 _atom_site_symmetry_multiplicity
 _atom_site_fract_x
 _atom_site_fract_y
 _atom_site_fract_z
 _atom_site_occupancy
  Y  Y0  1  0.591744  0.000000  0.500000  1
  Er  Er1  1  0.000044  0.593303  0.500000  1
  Er  Er2  1  0.406741  0.406697  0.500000  1
  In  In3  1  0.999725  0.257346  0.000000  1
  In  In4  1  0.257924  0.000000  0.000000  1
  In  In5  1  0.742379  0.742654  0.000000  1
  Rh  Rh6  1  0.330661  0.662850  0.000000  1
  Rh  Rh7  1  0.002971  0.000000  0.500000  1
  Rh  Rh8  1  0.667812  0.337150  0.000000  1
