# generated using pymatgen
data_Pr18Dy2Si15Cl
_symmetry_space_group_name_H-M   'P 1'
_cell_length_a   7.93891219
_cell_length_b   7.87162214
_cell_length_c   15.26055667
_cell_angle_alpha   89.49219637
_cell_angle_beta   89.09671694
_cell_angle_gamma   90.76869464
_symmetry_Int_Tables_number   1
_chemical_formula_structural   Pr18Dy2Si15Cl
_chemical_formula_sum   'Pr18 Dy2 Si15 Cl1'
_cell_volume   953.42089261
_cell_formula_units_Z   1
loop_
 _symmetry_equiv_pos_site_id
 _symmetry_equiv_pos_as_xyz
  1  'x, y, z'
loop_
 _atom_site_type_symbol
 _atom_site_label
 _atom_site_symmetry_multiplicity
 _atom_site_fract_x
 _atom_site_fract_y
 _atom_site_fract_z
 _atom_site_occupancy
  Pr  Pr0  1  0.795231  0.189849  0.753110  1
  Pr  Pr1  1  0.688122  0.687935  0.497549  1
  Pr  Pr2  1  0.380935  0.002738  0.441850  1
  Pr  Pr3  1  0.498835  0.861464  0.701373  1
  Pr  Pr4  1  0.510085  0.122969  0.196644  1
  Pr  Pr5  1  0.874045  0.483232  0.299449  1
  Pr  Pr6  1  0.124098  0.517150  0.802001  1
  Pr  Pr7  1  0.634366  0.986543  0.953420  1
  Pr  Pr8  1  0.996527  0.382469  0.545995  1
  Pr  Pr9  1  0.994951  0.624536  0.052642  1
  Pr  Pr10  1  0.141343  0.989865  0.874281  1
  Pr  Pr11  1  0.518947  0.631860  0.124642  1
  Pr  Pr12  1  0.473164  0.362399  0.631689  1
  Pr  Pr13  1  0.636622  0.520661  0.876990  1
  Pr  Pr14  1  0.366033  0.475658  0.375300  1
  Pr  Pr15  1  0.870726  0.019003  0.376645  1
  Pr  Pr16  1  0.985117  0.126373  0.123411  1
  Pr  Pr17  1  0.019843  0.874606  0.621256  1
  Dy  Dy18  1  0.313152  0.311416  0.998837  1
  Dy  Dy19  1  0.185235  0.807848  0.249652  1
  Si  Si20  1  0.333135  0.695935  0.949743  1
  Si  Si21  1  0.660748  0.303145  0.453487  1
  Si  Si22  1  0.700209  0.334695  0.050751  1
  Si  Si23  1  0.303222  0.665230  0.551448  1
  Si  Si24  1  0.808478  0.829145  0.203585  1
  Si  Si25  1  0.169246  0.189692  0.295085  1
  Si  Si26  1  0.845493  0.804283  0.797716  1
  Si  Si27  1  0.288699  0.924739  0.060744  1
  Si  Si28  1  0.571717  0.784456  0.307245  1
  Si  Si29  1  0.447622  0.209447  0.827375  1
  Si  Si30  1  0.790978  0.578874  0.687716  1
  Si  Si31  1  0.212702  0.425491  0.188206  1
  Si  Si32  1  0.704209  0.073781  0.561214  1
  Si  Si33  1  0.933315  0.291921  0.941131  1
  Si  Si34  1  0.078761  0.712813  0.437746  1
  Cl  Cl35  1  0.144085  0.197783  0.690076  1
