# generated using pymatgen
data_Dy5Ho3(Si3Rh)4
_symmetry_space_group_name_H-M   'P 1'
_cell_length_a   8.16769800
_cell_length_b   8.16769804
_cell_length_c   7.90209800
_cell_angle_alpha   90.00000000
_cell_angle_beta   90.00000000
_cell_angle_gamma   119.99999985
_symmetry_Int_Tables_number   1
_chemical_formula_structural   Dy5Ho3(Si3Rh)4
_chemical_formula_sum   'Dy5 Ho3 Si12 Rh4'
_cell_volume   456.53322377
_cell_formula_units_Z   1
loop_
 _symmetry_equiv_pos_site_id
 _symmetry_equiv_pos_as_xyz
  1  'x, y, z'
loop_
 _atom_site_type_symbol
 _atom_site_label
 _atom_site_symmetry_multiplicity
 _atom_site_fract_x
 _atom_site_fract_y
 _atom_site_fract_z
 _atom_site_occupancy
  Dy  Dy0  1  0.000000  0.000000  0.250000  1
  Dy  Dy1  1  0.000000  0.000000  0.750000  1
  Dy  Dy2  1  0.508857  0.491143  0.250000  1
  Dy  Dy3  1  0.508857  0.017714  0.250000  1
  Dy  Dy4  1  0.982286  0.491143  0.250000  1
  Ho  Ho5  1  0.491129  0.508871  0.750000  1
  Ho  Ho6  1  0.491129  0.982258  0.750000  1
  Ho  Ho7  1  0.017742  0.508871  0.750000  1
  Si  Si8  1  0.166950  0.833050  0.500010  1
  Si  Si9  1  0.166950  0.333899  0.500010  1
  Si  Si10  1  0.666101  0.833050  0.500010  1
  Si  Si11  1  0.833051  0.166949  0.500694  1
  Si  Si12  1  0.833051  0.666104  0.500694  1
  Si  Si13  1  0.333896  0.166949  0.500694  1
  Si  Si14  1  0.833051  0.166949  0.999306  1
  Si  Si15  1  0.833051  0.666104  0.999306  1
  Si  Si16  1  0.333896  0.166949  0.999306  1
  Si  Si17  1  0.166950  0.833050  0.999990  1
  Si  Si18  1  0.166950  0.333899  0.999990  1
  Si  Si19  1  0.666101  0.833050  0.999990  1
  Rh  Rh20  1  0.333333  0.666667  0.467383  1
  Rh  Rh21  1  0.666667  0.333333  0.534515  1
  Rh  Rh22  1  0.666667  0.333333  0.965485  1
  Rh  Rh23  1  0.333333  0.666667  0.032617  1
