# generated using pymatgen
data_Er3GeP2Rh3
_symmetry_space_group_name_H-M   'P 1'
_cell_length_a   6.78044700
_cell_length_b   6.78044868
_cell_length_c   3.94302100
_cell_angle_alpha   90.00000000
_cell_angle_beta   90.00000000
_cell_angle_gamma   119.99999669
_symmetry_Int_Tables_number   1
_chemical_formula_structural   Er3GeP2Rh3
_chemical_formula_sum   'Er3 Ge1 P2 Rh3'
_cell_volume   156.99162867
_cell_formula_units_Z   1
loop_
 _symmetry_equiv_pos_site_id
 _symmetry_equiv_pos_as_xyz
  1  'x, y, z'
loop_
 _atom_site_type_symbol
 _atom_site_label
 _atom_site_symmetry_multiplicity
 _atom_site_fract_x
 _atom_site_fract_y
 _atom_site_fract_z
 _atom_site_occupancy
  Er  Er0  1  0.421426  0.421426  0.500000  1
  Er  Er1  1  0.578574  0.000000  0.500000  1
  Er  Er2  1  0.000000  0.578574  0.500000  1
  Ge  Ge3  1  0.000000  0.000000  0.500000  1
  P  P4  1  0.666667  0.333333  0.000000  1
  P  P5  1  0.333333  0.666667  0.000000  1
  Rh  Rh6  1  0.752381  0.752381  0.000000  1
  Rh  Rh7  1  0.247619  0.000000  0.000000  1
  Rh  Rh8  1  0.000000  0.247619  0.000000  1
