# generated using pymatgen
data_Ce2Sm2LuSn3Au
_symmetry_space_group_name_H-M   'P 1'
_cell_length_a   9.47254507
_cell_length_b   9.47254600
_cell_length_c   6.50307100
_cell_angle_alpha   90.00000000
_cell_angle_beta   90.00000000
_cell_angle_gamma   120.01406802
_symmetry_Int_Tables_number   1
_chemical_formula_structural   Ce2Sm2LuSn3Au
_chemical_formula_sum   'Ce4 Sm4 Lu2 Sn6 Au2'
_cell_volume   505.26701586
_cell_formula_units_Z   2
loop_
 _symmetry_equiv_pos_site_id
 _symmetry_equiv_pos_as_xyz
  1  'x, y, z'
loop_
 _atom_site_type_symbol
 _atom_site_label
 _atom_site_symmetry_multiplicity
 _atom_site_fract_x
 _atom_site_fract_y
 _atom_site_fract_z
 _atom_site_occupancy
  Ce  Ce0  1  0.334276  0.665724  0.500000  1
  Ce  Ce1  1  0.665724  0.334276  0.500000  1
  Ce  Ce2  1  0.665724  0.334276  0.000000  1
  Ce  Ce3  1  0.334276  0.665724  0.000000  1
  Sm  Sm4  1  0.274224  0.002252  0.750000  1
  Sm  Sm5  1  0.725776  0.997748  0.250000  1
  Sm  Sm6  1  0.002252  0.274224  0.750000  1
  Sm  Sm7  1  0.997748  0.725776  0.250000  1
  Lu  Lu8  1  0.731458  0.731458  0.750000  1
  Lu  Lu9  1  0.268542  0.268542  0.250000  1
  Sn  Sn10  1  0.621627  0.997420  0.750000  1
  Sn  Sn11  1  0.378373  0.002580  0.250000  1
  Sn  Sn12  1  0.997420  0.621627  0.750000  1
  Sn  Sn13  1  0.002580  0.378373  0.250000  1
  Sn  Sn14  1  0.385569  0.385569  0.750000  1
  Sn  Sn15  1  0.614431  0.614431  0.250000  1
  Au  Au16  1  0.000000  0.000000  0.500000  1
  Au  Au17  1  0.000000  0.000000  0.000000  1
