# generated using pymatgen
data_K3AlS3
_symmetry_space_group_name_H-M   'P 1'
_cell_length_a   12.71402000
_cell_length_b   7.81311165
_cell_length_c   10.15533704
_cell_angle_alpha   52.22083515
_cell_angle_beta   90.00000000
_cell_angle_gamma   90.00000000
_symmetry_Int_Tables_number   1
_chemical_formula_structural   K3AlS3
_chemical_formula_sum   'K12 Al4 S12'
_cell_volume   797.32616696
_cell_formula_units_Z   4
loop_
 _symmetry_equiv_pos_site_id
 _symmetry_equiv_pos_as_xyz
  1  'x, y, z'
loop_
 _atom_site_type_symbol
 _atom_site_label
 _atom_site_symmetry_multiplicity
 _atom_site_fract_x
 _atom_site_fract_y
 _atom_site_fract_z
 _atom_site_occupancy
  K  K0  1  0.910682  0.341175  0.391792  1
  K  K1  1  0.410682  0.658825  0.108208  1
  K  K2  1  0.089318  0.658825  0.608208  1
  K  K3  1  0.589318  0.341175  0.891792  1
  K  K4  1  0.188402  0.139301  0.576539  1
  K  K5  1  0.688402  0.860699  0.923461  1
  K  K6  1  0.811598  0.860699  0.423461  1
  K  K7  1  0.311598  0.139301  0.076539  1
  K  K8  1  0.626883  0.384115  0.473593  1
  K  K9  1  0.126883  0.615885  0.026407  1
  K  K10  1  0.373117  0.615885  0.526407  1
  K  K11  1  0.873117  0.384115  0.973593  1
  Al  Al12  1  0.941263  0.062389  0.840454  1
  Al  Al13  1  0.441263  0.937611  0.659546  1
  Al  Al14  1  0.058737  0.937611  0.159546  1
  Al  Al15  1  0.558737  0.062389  0.340454  1
  S  S16  1  0.395058  0.154238  0.378861  1
  S  S17  1  0.895058  0.845762  0.121139  1
  S  S18  1  0.604942  0.845762  0.621139  1
  S  S19  1  0.104942  0.154238  0.878861  1
  S  S20  1  0.673452  0.339256  0.192804  1
  S  S21  1  0.173452  0.660744  0.307196  1
  S  S22  1  0.326548  0.660744  0.807196  1
  S  S23  1  0.826548  0.339256  0.692804  1
  S  S24  1  0.545480  0.876766  0.239246  1
  S  S25  1  0.045480  0.123234  0.260754  1
  S  S26  1  0.454520  0.123234  0.760754  1
  S  S27  1  0.954520  0.876766  0.739246  1
