# generated using pymatgen
data_Sm4Ho2Al24ZnOs7
_symmetry_space_group_name_H-M   'P 1'
_cell_length_a   8.89874128
_cell_length_b   8.89874024
_cell_length_c   9.58072609
_cell_angle_alpha   90.01913394
_cell_angle_beta   89.98086397
_cell_angle_gamma   120.12230027
_symmetry_Int_Tables_number   1
_chemical_formula_structural   Sm4Ho2Al24ZnOs7
_chemical_formula_sum   'Sm4 Ho2 Al24 Zn1 Os7'
_cell_volume   656.22020454
_cell_formula_units_Z   1
loop_
 _symmetry_equiv_pos_site_id
 _symmetry_equiv_pos_as_xyz
  1  'x, y, z'
loop_
 _atom_site_type_symbol
 _atom_site_label
 _atom_site_symmetry_multiplicity
 _atom_site_fract_x
 _atom_site_fract_y
 _atom_site_fract_z
 _atom_site_occupancy
  Sm  Sm0  1  0.191309  0.382890  0.246824  1
  Sm  Sm1  1  0.808691  0.617110  0.753176  1
  Sm  Sm2  1  0.617110  0.808691  0.246824  1
  Sm  Sm3  1  0.382890  0.191309  0.753176  1
  Ho  Ho4  1  0.194755  0.805245  0.254620  1
  Ho  Ho5  1  0.805245  0.194755  0.745380  1
  Al  Al6  1  0.328795  0.671205  0.018555  1
  Al  Al7  1  0.671205  0.328795  0.981445  1
  Al  Al8  1  0.666038  0.333962  0.516054  1
  Al  Al9  1  0.333962  0.666038  0.483946  1
  Al  Al10  1  0.161612  0.326255  0.573159  1
  Al  Al11  1  0.838388  0.673745  0.426841  1
  Al  Al12  1  0.673745  0.838388  0.573159  1
  Al  Al13  1  0.850760  0.677422  0.081324  1
  Al  Al14  1  0.326255  0.161612  0.426841  1
  Al  Al15  1  0.149240  0.322578  0.918676  1
  Al  Al16  1  0.162885  0.837115  0.573979  1
  Al  Al17  1  0.322578  0.149240  0.081324  1
  Al  Al18  1  0.837115  0.162885  0.426021  1
  Al  Al19  1  0.677422  0.850760  0.918676  1
  Al  Al20  1  0.836521  0.163479  0.073845  1
  Al  Al21  1  0.163479  0.836521  0.926155  1
  Al  Al22  1  0.560911  0.120943  0.249305  1
  Al  Al23  1  0.439089  0.879057  0.750695  1
  Al  Al24  1  0.879057  0.439089  0.249305  1
  Al  Al25  1  0.120943  0.560911  0.750695  1
  Al  Al26  1  0.564907  0.435093  0.255550  1
  Al  Al27  1  0.435093  0.564907  0.744450  1
  Al  Al28  1  0.001099  0.998901  0.250635  1
  Al  Al29  1  0.998901  0.001099  0.749365  1
  Zn  Zn30  1  0.500000  0.500000  0.000000  1
  Os  Os31  1  0.500000  0.000000  0.000000  1
  Os  Os32  1  0.000000  0.500000  0.000000  1
  Os  Os33  1  0.500000  0.000000  0.500000  1
  Os  Os34  1  0.000000  0.500000  0.500000  1
  Os  Os35  1  0.500000  0.500000  0.500000  1
  Os  Os36  1  0.000000  0.000000  0.000000  1
  Os  Os37  1  0.000000  0.000000  0.500000  1
