# generated using pymatgen
data_ErWN2
_symmetry_space_group_name_H-M   'P 1'
_cell_length_a   3.18683800
_cell_length_b   5.68779300
_cell_length_c   10.50800000
_cell_angle_alpha   90.00000000
_cell_angle_beta   90.00000000
_cell_angle_gamma   90.00000000
_symmetry_Int_Tables_number   1
_chemical_formula_structural   ErWN2
_chemical_formula_sum   'Er4 W4 N8'
_cell_volume   190.46879472
_cell_formula_units_Z   4
loop_
 _symmetry_equiv_pos_site_id
 _symmetry_equiv_pos_as_xyz
  1  'x, y, z'
loop_
 _atom_site_type_symbol
 _atom_site_label
 _atom_site_symmetry_multiplicity
 _atom_site_fract_x
 _atom_site_fract_y
 _atom_site_fract_z
 _atom_site_occupancy
  Er  Er0  1  0.250000  0.080951  0.854511  1
  Er  Er1  1  0.250000  0.580951  0.645489  1
  Er  Er2  1  0.750000  0.919049  0.145489  1
  Er  Er3  1  0.750000  0.419049  0.354511  1
  W  W4  1  0.250000  0.431802  0.095197  1
  W  W5  1  0.250000  0.931802  0.404803  1
  W  W6  1  0.750000  0.568198  0.904803  1
  W  W7  1  0.750000  0.068198  0.595197  1
  N  N8  1  0.250000  0.163039  0.248171  1
  N  N9  1  0.250000  0.663039  0.251829  1
  N  N10  1  0.750000  0.836961  0.751829  1
  N  N11  1  0.750000  0.336961  0.748171  1
  N  N12  1  0.250000  0.764650  0.993984  1
  N  N13  1  0.250000  0.264650  0.506016  1
  N  N14  1  0.750000  0.235350  0.006016  1
  N  N15  1  0.750000  0.735350  0.493984  1
