# generated using pymatgen
data_TaNb3V8
_symmetry_space_group_name_H-M   'P 1'
_cell_length_a   5.10098300
_cell_length_b   5.10098337
_cell_length_c   8.12344900
_cell_angle_alpha   90.00000000
_cell_angle_beta   90.00000000
_cell_angle_gamma   120.00000409
_symmetry_Int_Tables_number   1
_chemical_formula_structural   TaNb3V8
_chemical_formula_sum   'Ta1 Nb3 V8'
_cell_volume   183.05384511
_cell_formula_units_Z   1
loop_
 _symmetry_equiv_pos_site_id
 _symmetry_equiv_pos_as_xyz
  1  'x, y, z'
loop_
 _atom_site_type_symbol
 _atom_site_label
 _atom_site_symmetry_multiplicity
 _atom_site_fract_x
 _atom_site_fract_y
 _atom_site_fract_z
 _atom_site_occupancy
  Ta  Ta0  1  0.333334  0.666668  0.937829  1
  Nb  Nb1  1  0.666668  0.333334  0.061072  1
  Nb  Nb2  1  0.666668  0.333334  0.438382  1
  Nb  Nb3  1  0.333334  0.666668  0.562328  1
  V  V4  1  0.000000  0.000000  0.000032  1
  V  V5  1  0.169306  0.338612  0.249652  1
  V  V6  1  0.169305  0.830693  0.249652  1
  V  V7  1  0.661388  0.830693  0.249652  1
  V  V8  1  0.000000  0.000000  0.500125  1
  V  V9  1  0.338357  0.169178  0.750425  1
  V  V10  1  0.830821  0.169178  0.750425  1
  V  V11  1  0.830822  0.661642  0.750425  1
