# generated using pymatgen
data_Eu2Ga5GePd2
_symmetry_space_group_name_H-M   'P 1'
_cell_length_a   6.18737351
_cell_length_b   6.18737386
_cell_length_c   5.91125700
_cell_angle_alpha   90.00000000
_cell_angle_beta   90.00000000
_cell_angle_gamma   116.27896751
_symmetry_Int_Tables_number   1
_chemical_formula_structural   Eu2Ga5GePd2
_chemical_formula_sum   'Eu2 Ga5 Ge1 Pd2'
_cell_volume   202.91540027
_cell_formula_units_Z   1
loop_
 _symmetry_equiv_pos_site_id
 _symmetry_equiv_pos_as_xyz
  1  'x, y, z'
loop_
 _atom_site_type_symbol
 _atom_site_label
 _atom_site_symmetry_multiplicity
 _atom_site_fract_x
 _atom_site_fract_y
 _atom_site_fract_z
 _atom_site_occupancy
  Eu  Eu0  1  0.232029  0.767971  0.750000  1
  Eu  Eu1  1  0.767240  0.232760  0.250000  1
  Ga  Ga2  1  0.335666  0.664334  0.250000  1
  Ga  Ga3  1  0.718030  0.718342  0.000714  1
  Ga  Ga4  1  0.718030  0.718342  0.499286  1
  Ga  Ga5  1  0.281658  0.281970  0.000714  1
  Ga  Ga6  1  0.281658  0.281970  0.499286  1
  Ge  Ge7  1  0.664940  0.335060  0.750000  1
  Pd  Pd8  1  0.903888  0.096112  0.750000  1
  Pd  Pd9  1  0.096861  0.903139  0.250000  1
