# generated using pymatgen
data_Pr12Al2I17
_symmetry_space_group_name_H-M   'P 1'
_cell_length_a   10.09611534
_cell_length_b   12.05880672
_cell_length_c   11.88490932
_cell_angle_alpha   94.06836460
_cell_angle_beta   104.51893964
_cell_angle_gamma   115.04976389
_symmetry_Int_Tables_number   1
_chemical_formula_structural   Pr12Al2I17
_chemical_formula_sum   'Pr12 Al2 I17'
_cell_volume   1242.84981002
_cell_formula_units_Z   1
loop_
 _symmetry_equiv_pos_site_id
 _symmetry_equiv_pos_as_xyz
  1  'x, y, z'
loop_
 _atom_site_type_symbol
 _atom_site_label
 _atom_site_symmetry_multiplicity
 _atom_site_fract_x
 _atom_site_fract_y
 _atom_site_fract_z
 _atom_site_occupancy
  Pr  Pr0  1  0.066362  0.528630  0.332527  1
  Pr  Pr1  1  0.986675  0.812258  0.571026  1
  Pr  Pr2  1  0.628549  0.239252  0.285707  1
  Pr  Pr3  1  0.013325  0.187742  0.428974  1
  Pr  Pr4  1  0.225288  0.663119  0.006000  1
  Pr  Pr5  1  0.276741  0.001035  0.906359  1
  Pr  Pr6  1  0.371451  0.760748  0.714293  1
  Pr  Pr7  1  0.933638  0.471370  0.667473  1
  Pr  Pr8  1  0.723259  0.998965  0.093641  1
  Pr  Pr9  1  0.163042  0.289798  0.144159  1
  Pr  Pr10  1  0.774712  0.336881  0.994000  1
  Pr  Pr11  1  0.836958  0.710202  0.855841  1
  Al  Al12  1  0.105450  0.736395  0.786612  1
  Al  Al13  1  0.894550  0.263605  0.213388  1
  I  I14  1  0.777594  0.527916  0.416650  1
  I  I15  1  0.629953  0.417215  0.744685  1
  I  I16  1  0.840736  0.894011  0.320369  1
  I  I17  1  0.322508  0.211415  0.370887  1
  I  I18  1  0.159264  0.105989  0.679631  1
  I  I19  1  0.587481  0.054475  0.834973  1
  I  I20  1  0.741973  0.167809  0.536609  1
  I  I21  1  0.538354  0.690976  0.954086  1
  I  I22  1  0.370047  0.582785  0.255315  1
  I  I23  1  0.222406  0.472084  0.583350  1
  I  I24  1  0.057791  0.364386  0.891132  1
  I  I25  1  0.461646  0.309024  0.045914  1
  I  I26  1  0.000000  0.000000  0.000000  1
  I  I27  1  0.258027  0.832191  0.463391  1
  I  I28  1  0.412519  0.945525  0.165027  1
  I  I29  1  0.677492  0.788585  0.629113  1
  I  I30  1  0.942209  0.635614  0.108868  1
