# generated using pymatgen
data_Tb2DyZnSi2Ag3
_symmetry_space_group_name_H-M   'P 1'
_cell_length_a   7.15164203
_cell_length_b   7.15274176
_cell_length_c   4.17034900
_cell_angle_alpha   90.00000000
_cell_angle_beta   90.00000000
_cell_angle_gamma   120.00509647
_symmetry_Int_Tables_number   1
_chemical_formula_structural   Tb2DyZnSi2Ag3
_chemical_formula_sum   'Tb2 Dy1 Zn1 Si2 Ag3'
_cell_volume   184.73919230
_cell_formula_units_Z   1
loop_
 _symmetry_equiv_pos_site_id
 _symmetry_equiv_pos_as_xyz
  1  'x, y, z'
loop_
 _atom_site_type_symbol
 _atom_site_label
 _atom_site_symmetry_multiplicity
 _atom_site_fract_x
 _atom_site_fract_y
 _atom_site_fract_z
 _atom_site_occupancy
  Tb  Tb0  1  0.419574  0.419590  0.500000  1
  Tb  Tb1  1  0.580426  0.000016  0.500000  1
  Dy  Dy2  1  0.000000  0.580364  0.500000  1
  Zn  Zn3  1  0.000000  0.999940  0.500000  1
  Si  Si4  1  0.666883  0.333477  0.000000  1
  Si  Si5  1  0.333117  0.666594  0.000000  1
  Ag  Ag6  1  0.748256  0.748161  0.000000  1
  Ag  Ag7  1  0.251744  0.999905  0.000000  1
  Ag  Ag8  1  0.000000  0.251953  0.000000  1
