# generated using pymatgen
data_CuBiPt2O7
_symmetry_space_group_name_H-M   'P 1'
_cell_length_a   7.20315561
_cell_length_b   7.07276104
_cell_length_c   7.20315508
_cell_angle_alpha   60.59703144
_cell_angle_beta   61.46378251
_cell_angle_gamma   60.59703320
_symmetry_Int_Tables_number   1
_chemical_formula_structural   CuBiPt2O7
_chemical_formula_sum   'Cu2 Bi2 Pt4 O14'
_cell_volume   264.63213235
_cell_formula_units_Z   2
loop_
 _symmetry_equiv_pos_site_id
 _symmetry_equiv_pos_as_xyz
  1  'x, y, z'
loop_
 _atom_site_type_symbol
 _atom_site_label
 _atom_site_symmetry_multiplicity
 _atom_site_fract_x
 _atom_site_fract_y
 _atom_site_fract_z
 _atom_site_occupancy
  Cu  Cu0  1  0.125000  0.625000  0.125000  1
  Cu  Cu1  1  0.125000  0.125000  0.125000  1
  Bi  Bi2  1  0.125000  0.125000  0.625000  1
  Bi  Bi3  1  0.625000  0.125000  0.125000  1
  Pt  Pt4  1  0.625000  0.625000  0.125000  1
  Pt  Pt5  1  0.625000  0.125000  0.625000  1
  Pt  Pt6  1  0.125000  0.625000  0.625000  1
  Pt  Pt7  1  0.625000  0.625000  0.625000  1
  O  O8  1  0.227534  0.272466  0.227534  1
  O  O9  1  0.022466  0.977534  0.022466  1
  O  O10  1  0.535269  0.964731  0.535269  1
  O  O11  1  0.291243  0.708757  0.291243  1
  O  O12  1  0.535571  0.541451  0.959734  1
  O  O13  1  0.959734  0.541451  0.535571  1
  O  O14  1  0.535571  0.963243  0.959734  1
  O  O15  1  0.959734  0.963243  0.535571  1
  O  O16  1  0.958757  0.541243  0.958757  1
  O  O17  1  0.714429  0.286757  0.290266  1
  O  O18  1  0.290266  0.708549  0.714429  1
  O  O19  1  0.714731  0.285269  0.714731  1
  O  O20  1  0.290266  0.286757  0.714429  1
  O  O21  1  0.714429  0.708549  0.290266  1
