# generated using pymatgen
data_YbAl3Hg
_symmetry_space_group_name_H-M   'P 1'
_cell_length_a   4.26066562
_cell_length_b   4.26066505
_cell_length_c   6.61498338
_cell_angle_alpha   71.21326815
_cell_angle_beta   71.21325661
_cell_angle_gamma   89.99998893
_symmetry_Int_Tables_number   1
_chemical_formula_structural   YbAl3Hg
_chemical_formula_sum   'Yb1 Al3 Hg1'
_cell_volume   106.90622192
_cell_formula_units_Z   1
loop_
 _symmetry_equiv_pos_site_id
 _symmetry_equiv_pos_as_xyz
  1  'x, y, z'
loop_
 _atom_site_type_symbol
 _atom_site_label
 _atom_site_symmetry_multiplicity
 _atom_site_fract_x
 _atom_site_fract_y
 _atom_site_fract_z
 _atom_site_occupancy
  Yb  Yb0  1  0.998991  0.998991  0.002017  1
  Al  Al1  1  0.753542  0.253542  0.492914  1
  Al  Al2  1  0.253542  0.753542  0.492914  1
  Al  Al3  1  0.387638  0.387638  0.224721  1
  Hg  Hg4  1  0.606284  0.606284  0.787432  1
