# generated using pymatgen
data_Li6NbCrO8
_symmetry_space_group_name_H-M   'P 1'
_cell_length_a   6.44693300
_cell_length_b   5.56789715
_cell_length_c   5.02602351
_cell_angle_alpha   89.95811705
_cell_angle_beta   90.00028379
_cell_angle_gamma   90.00010176
_symmetry_Int_Tables_number   1
_chemical_formula_structural   Li6NbCrO8
_chemical_formula_sum   'Li6 Nb1 Cr1 O8'
_cell_volume   180.41338738
_cell_formula_units_Z   1
loop_
 _symmetry_equiv_pos_site_id
 _symmetry_equiv_pos_as_xyz
  1  'x, y, z'
loop_
 _atom_site_type_symbol
 _atom_site_label
 _atom_site_symmetry_multiplicity
 _atom_site_fract_x
 _atom_site_fract_y
 _atom_site_fract_z
 _atom_site_occupancy
  Li  Li0  1  0.000004  0.175245  0.495749  1
  Li  Li1  1  0.256991  0.331667  0.984141  1
  Li  Li2  1  0.260799  0.663981  0.496901  1
  Li  Li3  1  0.500007  0.831322  0.986202  1
  Li  Li4  1  0.739193  0.663997  0.496905  1
  Li  Li5  1  0.743024  0.331659  0.984153  1
  Nb  Nb6  1  0.000000  0.831829  0.000895  1
  Cr  Cr7  1  0.499999  0.167983  0.491988  1
  O  O8  1  0.000001  0.154350  0.889663  1
  O  O9  1  0.000001  0.826904  0.375878  1
  O  O10  1  0.240938  0.671465  0.887942  1
  O  O11  1  0.281416  0.321306  0.382423  1
  O  O12  1  0.500022  0.163915  0.836290  1
  O  O13  1  0.499964  0.871565  0.389917  1
  O  O14  1  0.718571  0.321353  0.382481  1
  O  O15  1  0.759069  0.671459  0.887940  1
