# generated using pymatgen
data_Ce5(Hg2Pd)2
_symmetry_space_group_name_H-M   'P 1'
_cell_length_a   3.70133700
_cell_length_b   8.14788400
_cell_length_c   18.65654300
_cell_angle_alpha   90.00000000
_cell_angle_beta   90.00000000
_cell_angle_gamma   90.00000000
_symmetry_Int_Tables_number   1
_chemical_formula_structural   Ce5(Hg2Pd)2
_chemical_formula_sum   'Ce10 Hg8 Pd4'
_cell_volume   562.64522753
_cell_formula_units_Z   2
loop_
 _symmetry_equiv_pos_site_id
 _symmetry_equiv_pos_as_xyz
  1  'x, y, z'
loop_
 _atom_site_type_symbol
 _atom_site_label
 _atom_site_symmetry_multiplicity
 _atom_site_fract_x
 _atom_site_fract_y
 _atom_site_fract_z
 _atom_site_occupancy
  Ce  Ce0  1  0.000000  0.500000  0.500000  1
  Ce  Ce1  1  0.000000  0.000000  0.000000  1
  Ce  Ce2  1  0.000000  0.735671  0.282443  1
  Ce  Ce3  1  0.000000  0.264329  0.717557  1
  Ce  Ce4  1  0.000000  0.764329  0.782443  1
  Ce  Ce5  1  0.000000  0.235671  0.217557  1
  Ce  Ce6  1  0.000000  0.627695  0.076196  1
  Ce  Ce7  1  0.000000  0.372305  0.923804  1
  Ce  Ce8  1  0.000000  0.872305  0.576196  1
  Ce  Ce9  1  0.000000  0.127695  0.423804  1
  Hg  Hg10  1  0.500000  0.708772  0.929188  1
  Hg  Hg11  1  0.500000  0.291228  0.070812  1
  Hg  Hg12  1  0.500000  0.791228  0.429188  1
  Hg  Hg13  1  0.500000  0.208772  0.570812  1
  Hg  Hg14  1  0.500000  0.582120  0.651546  1
  Hg  Hg15  1  0.500000  0.417880  0.348454  1
  Hg  Hg16  1  0.500000  0.917880  0.151546  1
  Hg  Hg17  1  0.500000  0.082120  0.848454  1
  Pd  Pd18  1  0.500000  0.527046  0.194924  1
  Pd  Pd19  1  0.500000  0.472954  0.805076  1
  Pd  Pd20  1  0.500000  0.972954  0.694924  1
  Pd  Pd21  1  0.500000  0.027046  0.305076  1
