# generated using pymatgen
data_Ho12Th4Mg4Fe3Co
_symmetry_space_group_name_H-M   'P 1'
_cell_length_a   9.58527497
_cell_length_b   9.60376337
_cell_length_c   9.60376300
_cell_angle_alpha   59.99999782
_cell_angle_beta   59.93617199
_cell_angle_gamma   59.93617360
_symmetry_Int_Tables_number   1
_chemical_formula_structural   Ho12Th4Mg4Fe3Co
_chemical_formula_sum   'Ho12 Th4 Mg4 Fe3 Co1'
_cell_volume   624.52926893
_cell_formula_units_Z   1
loop_
 _symmetry_equiv_pos_site_id
 _symmetry_equiv_pos_as_xyz
  1  'x, y, z'
loop_
 _atom_site_type_symbol
 _atom_site_label
 _atom_site_symmetry_multiplicity
 _atom_site_fract_x
 _atom_site_fract_y
 _atom_site_fract_z
 _atom_site_occupancy
  Ho  Ho0  1  0.814725  0.186370  0.186370  1
  Ho  Ho1  1  0.185777  0.813837  0.813837  1
  Ho  Ho2  1  0.185777  0.813837  0.186548  1
  Ho  Ho3  1  0.814725  0.186370  0.812535  1
  Ho  Ho4  1  0.185777  0.186548  0.813837  1
  Ho  Ho5  1  0.814725  0.812535  0.186370  1
  Ho  Ho6  1  0.935681  0.563754  0.563754  1
  Ho  Ho7  1  0.562066  0.936366  0.936366  1
  Ho  Ho8  1  0.562066  0.936366  0.565202  1
  Ho  Ho9  1  0.935681  0.563754  0.936812  1
  Ho  Ho10  1  0.562066  0.565202  0.936366  1
  Ho  Ho11  1  0.935681  0.936812  0.563754  1
  Th  Th12  1  0.341906  0.344921  0.344921  1
  Th  Th13  1  0.341906  0.344921  0.968254  1
  Th  Th14  1  0.341906  0.968254  0.344921  1
  Th  Th15  1  0.970041  0.343320  0.343320  1
  Mg  Mg16  1  0.579244  0.579865  0.579865  1
  Mg  Mg17  1  0.579244  0.579865  0.261024  1
  Mg  Mg18  1  0.579244  0.261024  0.579865  1
  Mg  Mg19  1  0.260495  0.579834  0.579834  1
  Fe  Fe20  1  0.146904  0.143702  0.143702  1
  Fe  Fe21  1  0.146904  0.143702  0.565692  1
  Fe  Fe22  1  0.146904  0.565692  0.143702  1
  Co  Co23  1  0.570551  0.143149  0.143149  1
