# generated using pymatgen
data_LuScTcB6
_symmetry_space_group_name_H-M   'P 1'
_cell_length_a   3.55215800
_cell_length_b   8.96133600
_cell_length_c   11.29944000
_cell_angle_alpha   90.00000000
_cell_angle_beta   90.00000000
_cell_angle_gamma   90.00000000
_symmetry_Int_Tables_number   1
_chemical_formula_structural   LuScTcB6
_chemical_formula_sum   'Lu4 Sc4 Tc4 B24'
_cell_volume   359.68469344
_cell_formula_units_Z   4
loop_
 _symmetry_equiv_pos_site_id
 _symmetry_equiv_pos_as_xyz
  1  'x, y, z'
loop_
 _atom_site_type_symbol
 _atom_site_label
 _atom_site_symmetry_multiplicity
 _atom_site_fract_x
 _atom_site_fract_y
 _atom_site_fract_z
 _atom_site_occupancy
  Lu  Lu0  1  0.500000  0.322348  0.414110  1
  Lu  Lu1  1  0.500000  0.677652  0.585890  1
  Lu  Lu2  1  0.500000  0.177652  0.914110  1
  Lu  Lu3  1  0.500000  0.822348  0.085890  1
  Sc  Sc4  1  0.500000  0.444028  0.130065  1
  Sc  Sc5  1  0.500000  0.555972  0.869935  1
  Sc  Sc6  1  0.500000  0.055972  0.630065  1
  Sc  Sc7  1  0.500000  0.944028  0.369935  1
  Tc  Tc8  1  0.500000  0.140674  0.181189  1
  Tc  Tc9  1  0.500000  0.859326  0.818811  1
  Tc  Tc10  1  0.500000  0.359326  0.681189  1
  Tc  Tc11  1  0.500000  0.640674  0.318811  1
  B  B12  1  0.000000  0.096520  0.473503  1
  B  B13  1  0.000000  0.903480  0.526497  1
  B  B14  1  0.000000  0.403480  0.973503  1
  B  B15  1  0.000000  0.596520  0.026497  1
  B  B16  1  0.000000  0.129994  0.317505  1
  B  B17  1  0.000000  0.870006  0.682495  1
  B  B18  1  0.000000  0.370006  0.817505  1
  B  B19  1  0.000000  0.629994  0.182495  1
  B  B20  1  0.000000  0.053887  0.066459  1
  B  B21  1  0.000000  0.946113  0.933541  1
  B  B22  1  0.000000  0.446113  0.566459  1
  B  B23  1  0.000000  0.553887  0.433541  1
  B  B24  1  0.000000  0.481006  0.286896  1
  B  B25  1  0.000000  0.518994  0.713104  1
  B  B26  1  0.000000  0.018994  0.786896  1
  B  B27  1  0.000000  0.981006  0.213104  1
  B  B28  1  0.000000  0.254019  0.080357  1
  B  B29  1  0.000000  0.745981  0.919643  1
  B  B30  1  0.000000  0.245981  0.580357  1
  B  B31  1  0.000000  0.754019  0.419643  1
  B  B32  1  0.000000  0.295495  0.235670  1
  B  B33  1  0.000000  0.704505  0.764330  1
  B  B34  1  0.000000  0.204505  0.735670  1
  B  B35  1  0.000000  0.795495  0.264330  1
