# generated using pymatgen
data_Sc3Mn8FeP6
_symmetry_space_group_name_H-M   'P 1'
_cell_length_a   3.49722000
_cell_length_b   10.82341400
_cell_length_c   12.44378600
_cell_angle_alpha   90.00000000
_cell_angle_beta   90.00000000
_cell_angle_gamma   90.00000000
_symmetry_Int_Tables_number   1
_chemical_formula_structural   Sc3Mn8FeP6
_chemical_formula_sum   'Sc6 Mn16 Fe2 P12'
_cell_volume   471.02044441
_cell_formula_units_Z   2
loop_
 _symmetry_equiv_pos_site_id
 _symmetry_equiv_pos_as_xyz
  1  'x, y, z'
loop_
 _atom_site_type_symbol
 _atom_site_label
 _atom_site_symmetry_multiplicity
 _atom_site_fract_x
 _atom_site_fract_y
 _atom_site_fract_z
 _atom_site_occupancy
  Sc  Sc0  1  0.000000  0.500000  0.533085  1
  Sc  Sc1  1  0.500000  0.000000  0.466915  1
  Sc  Sc2  1  0.500000  0.825233  0.207742  1
  Sc  Sc3  1  0.500000  0.174767  0.207742  1
  Sc  Sc4  1  0.000000  0.674767  0.792258  1
  Sc  Sc5  1  0.000000  0.325233  0.792258  1
  Mn  Mn6  1  0.500000  0.500000  0.165360  1
  Mn  Mn7  1  0.000000  0.000000  0.834640  1
  Mn  Mn8  1  0.000000  0.500000  0.993746  1
  Mn  Mn9  1  0.500000  0.000000  0.006254  1
  Mn  Mn10  1  0.500000  0.332540  0.995125  1
  Mn  Mn11  1  0.500000  0.667460  0.995125  1
  Mn  Mn12  1  0.000000  0.167460  0.004875  1
  Mn  Mn13  1  0.000000  0.832540  0.004875  1
  Mn  Mn14  1  0.500000  0.299127  0.433604  1
  Mn  Mn15  1  0.500000  0.700873  0.433604  1
  Mn  Mn16  1  0.000000  0.200873  0.566396  1
  Mn  Mn17  1  0.000000  0.799127  0.566396  1
  Mn  Mn18  1  0.500000  0.878292  0.701388  1
  Mn  Mn19  1  0.500000  0.121708  0.701388  1
  Mn  Mn20  1  0.000000  0.621708  0.298612  1
  Mn  Mn21  1  0.000000  0.378292  0.298612  1
  Fe  Fe22  1  0.500000  0.500000  0.703226  1
  Fe  Fe23  1  0.000000  0.000000  0.296774  1
  P  P24  1  0.500000  0.500000  0.877090  1
  P  P25  1  0.000000  0.000000  0.122910  1
  P  P26  1  0.500000  0.500000  0.363315  1
  P  P27  1  0.000000  0.000000  0.636685  1
  P  P28  1  0.500000  0.321356  0.620388  1
  P  P29  1  0.500000  0.678644  0.620388  1
  P  P30  1  0.000000  0.178644  0.379612  1
  P  P31  1  0.000000  0.821356  0.379612  1
  P  P32  1  0.500000  0.841042  0.882184  1
  P  P33  1  0.500000  0.158958  0.882184  1
  P  P34  1  0.000000  0.658958  0.117816  1
  P  P35  1  0.000000  0.341042  0.117816  1
