# generated using pymatgen
data_Cs3VF7
_symmetry_space_group_name_H-M   'P 1'
_cell_length_a   8.70415100
_cell_length_b   8.70415100
_cell_length_c   6.26122300
_cell_angle_alpha   90.00000000
_cell_angle_beta   90.00000000
_cell_angle_gamma   90.00000000
_symmetry_Int_Tables_number   1
_chemical_formula_structural   Cs3VF7
_chemical_formula_sum   'Cs6 V2 F14'
_cell_volume   474.36430861
_cell_formula_units_Z   2
loop_
 _symmetry_equiv_pos_site_id
 _symmetry_equiv_pos_as_xyz
  1  'x, y, z'
loop_
 _atom_site_type_symbol
 _atom_site_label
 _atom_site_symmetry_multiplicity
 _atom_site_fract_x
 _atom_site_fract_y
 _atom_site_fract_z
 _atom_site_occupancy
  Cs  Cs0  1  0.305543  0.805543  0.500000  1
  Cs  Cs1  1  0.805543  0.694457  0.500000  1
  Cs  Cs2  1  0.194457  0.305543  0.500000  1
  Cs  Cs3  1  0.694457  0.194457  0.500000  1
  Cs  Cs4  1  0.500000  0.500000  0.000000  1
  Cs  Cs5  1  0.000000  0.000000  0.000000  1
  V  V6  1  0.000000  0.500000  0.000000  1
  V  V7  1  0.500000  0.000000  0.000000  1
  F  F8  1  0.108100  0.608100  0.788166  1
  F  F9  1  0.891900  0.391900  0.788166  1
  F  F10  1  0.391900  0.108100  0.788166  1
  F  F11  1  0.608100  0.891900  0.788166  1
  F  F12  1  0.108100  0.608100  0.211834  1
  F  F13  1  0.608100  0.891900  0.211834  1
  F  F14  1  0.391900  0.108100  0.211834  1
  F  F15  1  0.891900  0.391900  0.211834  1
  F  F16  1  0.000000  0.000000  0.500000  1
  F  F17  1  0.500000  0.500000  0.500000  1
  F  F18  1  0.654533  0.154533  0.000000  1
  F  F19  1  0.154533  0.345467  0.000000  1
  F  F20  1  0.845467  0.654533  0.000000  1
  F  F21  1  0.345467  0.845467  0.000000  1
