# generated using pymatgen
data_La3GeSe2
_symmetry_space_group_name_H-M   'P 1'
_cell_length_a   7.54786614
_cell_length_b   7.54786594
_cell_length_c   7.54786590
_cell_angle_alpha   146.21737522
_cell_angle_beta   131.99475375
_cell_angle_gamma   59.98573089
_symmetry_Int_Tables_number   1
_chemical_formula_structural   La3GeSe2
_chemical_formula_sum   'La3 Ge1 Se2'
_cell_volume   176.06938506
_cell_formula_units_Z   1
loop_
 _symmetry_equiv_pos_site_id
 _symmetry_equiv_pos_as_xyz
  1  'x, y, z'
loop_
 _atom_site_type_symbol
 _atom_site_label
 _atom_site_symmetry_multiplicity
 _atom_site_fract_x
 _atom_site_fract_y
 _atom_site_fract_z
 _atom_site_occupancy
  La  La0  1  0.337589  0.337589  0.000000  1
  La  La1  1  0.000000  0.000000  0.000000  1
  La  La2  1  0.662411  0.662411  0.000000  1
  Ge  Ge3  1  0.500000  0.000000  0.500000  1
  Se  Se4  1  0.166500  0.666500  0.500000  1
  Se  Se5  1  0.833500  0.333500  0.500000  1
