# generated using pymatgen
data_Pm4Sc(MoO4)3
_symmetry_space_group_name_H-M   'P 1'
_cell_length_a   5.59054990
_cell_length_b   5.91990688
_cell_length_c   8.09881289
_cell_angle_alpha   89.83661656
_cell_angle_beta   89.82303092
_cell_angle_gamma   90.01491969
_symmetry_Int_Tables_number   1
_chemical_formula_structural   Pm4Sc(MoO4)3
_chemical_formula_sum   'Pm4 Sc1 Mo3 O12'
_cell_volume   268.03216602
_cell_formula_units_Z   1
loop_
 _symmetry_equiv_pos_site_id
 _symmetry_equiv_pos_as_xyz
  1  'x, y, z'
loop_
 _atom_site_type_symbol
 _atom_site_label
 _atom_site_symmetry_multiplicity
 _atom_site_fract_x
 _atom_site_fract_y
 _atom_site_fract_z
 _atom_site_occupancy
  Pm  Pm0  1  0.977818  0.063891  0.251576  1
  Pm  Pm1  1  0.518025  0.563445  0.252281  1
  Pm  Pm2  1  0.481973  0.436554  0.747719  1
  Pm  Pm3  1  0.022182  0.936110  0.748424  1
  Sc  Sc4  1  0.000000  0.500000  0.500001  1
  Mo  Mo5  1  0.500000  0.000000  0.000000  1
  Mo  Mo6  1  0.000000  0.500000  0.000000  1
  Mo  Mo7  1  0.500000  0.000000  0.500001  1
  O  O8  1  0.689058  0.304648  0.068060  1
  O  O9  1  0.810460  0.805301  0.066659  1
  O  O10  1  0.121072  0.448562  0.252285  1
  O  O11  1  0.372433  0.945728  0.249955  1
  O  O12  1  0.696084  0.306323  0.440432  1
  O  O13  1  0.808794  0.798901  0.437688  1
  O  O14  1  0.191206  0.201098  0.562312  1
  O  O15  1  0.303918  0.693678  0.559568  1
  O  O16  1  0.627568  0.054271  0.750045  1
  O  O17  1  0.878928  0.551437  0.747715  1
  O  O18  1  0.189540  0.194698  0.933341  1
  O  O19  1  0.310944  0.695353  0.931940  1
