# generated using pymatgen
data_YbLu3(MnB4)4
_symmetry_space_group_name_H-M   'P 1'
_cell_length_a   3.35151300
_cell_length_b   5.86565239
_cell_length_c   11.33925576
_cell_angle_alpha   90.04195852
_cell_angle_beta   90.00000000
_cell_angle_gamma   90.00000000
_symmetry_Int_Tables_number   1
_chemical_formula_structural   YbLu3(MnB4)4
_chemical_formula_sum   'Yb1 Lu3 Mn4 B16'
_cell_volume   222.91621758
_cell_formula_units_Z   1
loop_
 _symmetry_equiv_pos_site_id
 _symmetry_equiv_pos_as_xyz
  1  'x, y, z'
loop_
 _atom_site_type_symbol
 _atom_site_label
 _atom_site_symmetry_multiplicity
 _atom_site_fract_x
 _atom_site_fract_y
 _atom_site_fract_z
 _atom_site_occupancy
  Yb  Yb0  1  0.500000  0.874061  0.349684  1
  Lu  Lu1  1  0.500000  0.373048  0.150791  1
  Lu  Lu2  1  0.500000  0.626301  0.849070  1
  Lu  Lu3  1  0.500000  0.125748  0.650081  1
  Mn  Mn4  1  0.500000  0.373110  0.417988  1
  Mn  Mn5  1  0.500000  0.625872  0.584504  1
  Mn  Mn6  1  0.500000  0.127729  0.915693  1
  Mn  Mn7  1  0.500000  0.871948  0.082388  1
  B  B8  1  0.000000  0.113713  0.046266  1
  B  B9  1  0.000000  0.887283  0.952257  1
  B  B10  1  0.000000  0.387072  0.547784  1
  B  B11  1  0.000000  0.613224  0.454030  1
  B  B12  1  0.000000  0.136957  0.468424  1
  B  B13  1  0.000000  0.862931  0.533220  1
  B  B14  1  0.000000  0.363095  0.967481  1
  B  B15  1  0.000000  0.636379  0.031438  1
  B  B16  1  0.000000  0.025704  0.191196  1
  B  B17  1  0.000000  0.975281  0.807709  1
  B  B18  1  0.000000  0.475249  0.692363  1
  B  B19  1  0.000000  0.523654  0.308401  1
  B  B20  1  0.000000  0.218656  0.315872  1
  B  B21  1  0.000000  0.782836  0.684256  1
  B  B22  1  0.000000  0.282497  0.815479  1
  B  B23  1  0.000000  0.717649  0.183628  1
