# generated using pymatgen
data_Ta2AuF15
_symmetry_space_group_name_H-M   'P 1'
_cell_length_a   9.45777000
_cell_length_b   9.42284202
_cell_length_c   8.62738200
_cell_angle_alpha   90.00000000
_cell_angle_beta   90.00000000
_cell_angle_gamma   119.95463942
_symmetry_Int_Tables_number   1
_chemical_formula_structural   Ta2AuF15
_chemical_formula_sum   'Ta4 Au2 F30'
_cell_volume   666.16014377
_cell_formula_units_Z   2
loop_
 _symmetry_equiv_pos_site_id
 _symmetry_equiv_pos_as_xyz
  1  'x, y, z'
loop_
 _atom_site_type_symbol
 _atom_site_label
 _atom_site_symmetry_multiplicity
 _atom_site_fract_x
 _atom_site_fract_y
 _atom_site_fract_z
 _atom_site_occupancy
  Ta  Ta0  1  0.905902  0.601110  0.750000  1
  Ta  Ta1  1  0.309992  0.909351  0.250000  1
  Ta  Ta2  1  0.601893  0.696158  0.250000  1
  Ta  Ta3  1  0.400580  0.309638  0.750000  1
  Au  Au4  1  0.692963  0.112410  0.750000  1
  Au  Au5  1  0.113775  0.419246  0.250000  1
  F  F6  1  0.884431  0.337729  0.250000  1
  F  F7  1  0.126485  0.672045  0.750000  1
  F  F8  1  0.464634  0.128917  0.250000  1
  F  F9  1  0.672279  0.545278  0.250000  1
  F  F10  1  0.335572  0.464257  0.750000  1
  F  F11  1  0.545135  0.882277  0.750000  1
  F  F12  1  0.118028  0.422350  0.475548  1
  F  F13  1  0.871574  0.566516  0.965216  1
  F  F14  1  0.305013  0.873175  0.465322  1
  F  F15  1  0.563742  0.687832  0.465260  1
  F  F16  1  0.433314  0.307082  0.965510  1
  F  F17  1  0.692873  0.115424  0.975598  1
  F  F18  1  0.080858  0.202280  0.250000  1
  F  F19  1  0.875573  0.078420  0.750000  1
  F  F20  1  0.197972  0.120293  0.750000  1
  F  F21  1  0.801669  0.886466  0.250000  1
  F  F22  1  0.122318  0.925577  0.250000  1
  F  F23  1  0.915313  0.801744  0.750000  1
  F  F24  1  0.356436  0.498582  0.250000  1
  F  F25  1  0.856280  0.356103  0.750000  1
  F  F26  1  0.496812  0.144524  0.750000  1
  F  F27  1  0.481531  0.833455  0.250000  1
  F  F28  1  0.145195  0.647841  0.250000  1
  F  F29  1  0.647307  0.481540  0.750000  1
  F  F30  1  0.118028  0.422350  0.024452  1
  F  F31  1  0.692873  0.115424  0.524402  1
  F  F32  1  0.433314  0.307082  0.534490  1
  F  F33  1  0.563742  0.687832  0.034740  1
  F  F34  1  0.305013  0.873175  0.034678  1
  F  F35  1  0.871574  0.566516  0.534784  1
