# generated using pymatgen
data_SrNd6TcBr12
_symmetry_space_group_name_H-M   'P 1'
_cell_length_a   9.58941126
_cell_length_b   9.59458319
_cell_length_c   9.59357973
_cell_angle_alpha   106.31542706
_cell_angle_beta   106.30610226
_cell_angle_gamma   106.22668106
_symmetry_Int_Tables_number   1
_chemical_formula_structural   SrNd6TcBr12
_chemical_formula_sum   'Sr1 Nd6 Tc1 Br12'
_cell_volume   749.01401355
_cell_formula_units_Z   1
loop_
 _symmetry_equiv_pos_site_id
 _symmetry_equiv_pos_as_xyz
  1  'x, y, z'
loop_
 _atom_site_type_symbol
 _atom_site_label
 _atom_site_symmetry_multiplicity
 _atom_site_fract_x
 _atom_site_fract_y
 _atom_site_fract_z
 _atom_site_occupancy
  Sr  Sr0  1  0.500000  0.500000  0.500000  1
  Nd  Nd1  1  0.101530  0.309649  0.020244  1
  Nd  Nd2  1  0.310368  0.020415  0.102243  1
  Nd  Nd3  1  0.020138  0.102239  0.310163  1
  Nd  Nd4  1  0.979861  0.897761  0.689837  1
  Nd  Nd5  1  0.689632  0.979584  0.897756  1
  Nd  Nd6  1  0.898470  0.690351  0.979756  1
  Tc  Tc7  1  0.000000  0.000000  0.000000  1
  Br  Br8  1  0.219101  0.681172  0.071421  1
  Br  Br9  1  0.447953  0.366801  0.150240  1
  Br  Br10  1  0.680672  0.071312  0.218540  1
  Br  Br11  1  0.928598  0.781546  0.318897  1
  Br  Br12  1  0.150070  0.448206  0.366645  1
  Br  Br13  1  0.366580  0.150018  0.448076  1
  Br  Br14  1  0.633420  0.849982  0.551924  1
  Br  Br15  1  0.849929  0.551794  0.633355  1
  Br  Br16  1  0.071403  0.218455  0.681104  1
  Br  Br17  1  0.319329  0.928689  0.781460  1
  Br  Br18  1  0.552046  0.633198  0.849760  1
  Br  Br19  1  0.780899  0.318829  0.928579  1
