# generated using pymatgen
data_SmErPa2(NiAs)4
_symmetry_space_group_name_H-M   'P 1'
_cell_length_a   4.09682600
_cell_length_b   4.09682480
_cell_length_c   15.30834800
_cell_angle_alpha   90.00000000
_cell_angle_beta   90.00000000
_cell_angle_gamma   120.00000973
_symmetry_Int_Tables_number   1
_chemical_formula_structural   SmErPa2(NiAs)4
_chemical_formula_sum   'Sm1 Er1 Pa2 Ni4 As4'
_cell_volume   222.51219907
_cell_formula_units_Z   1
loop_
 _symmetry_equiv_pos_site_id
 _symmetry_equiv_pos_as_xyz
  1  'x, y, z'
loop_
 _atom_site_type_symbol
 _atom_site_label
 _atom_site_symmetry_multiplicity
 _atom_site_fract_x
 _atom_site_fract_y
 _atom_site_fract_z
 _atom_site_occupancy
  Sm  Sm0  1  0.000000  0.000000  0.000000  1
  Er  Er1  1  0.000000  0.000000  0.500000  1
  Pa  Pa2  1  0.000000  0.000000  0.253217  1
  Pa  Pa3  1  0.000000  0.000000  0.746783  1
  Ni  Ni4  1  0.333333  0.666667  0.155301  1
  Ni  Ni5  1  0.666667  0.333333  0.844699  1
  Ni  Ni6  1  0.666667  0.333333  0.647261  1
  Ni  Ni7  1  0.333333  0.666667  0.352739  1
  As  As8  1  0.333333  0.666667  0.616505  1
  As  As9  1  0.666667  0.333333  0.383495  1
  As  As10  1  0.666667  0.333333  0.123255  1
  As  As11  1  0.333333  0.666667  0.876745  1
