# generated using pymatgen
data_Li3Hf2Ni9As4P3
_symmetry_space_group_name_H-M   'P 1'
_cell_length_a   9.32939842
_cell_length_b   9.36465714
_cell_length_c   3.70237300
_cell_angle_alpha   90.00000000
_cell_angle_beta   90.00000000
_cell_angle_gamma   119.64961852
_symmetry_Int_Tables_number   1
_chemical_formula_structural   Li3Hf2Ni9As4P3
_chemical_formula_sum   'Li3 Hf2 Ni9 As4 P3'
_cell_volume   281.11166971
_cell_formula_units_Z   1
loop_
 _symmetry_equiv_pos_site_id
 _symmetry_equiv_pos_as_xyz
  1  'x, y, z'
loop_
 _atom_site_type_symbol
 _atom_site_label
 _atom_site_symmetry_multiplicity
 _atom_site_fract_x
 _atom_site_fract_y
 _atom_site_fract_z
 _atom_site_occupancy
  Li  Li0  1  0.439522  0.207836  0.500000  1
  Li  Li1  1  0.786898  0.226521  0.500000  1
  Li  Li2  1  0.004227  0.007815  0.500000  1
  Hf  Hf3  1  0.766718  0.555443  0.500000  1
  Hf  Hf4  1  0.328729  0.666701  0.000000  1
  Ni  Ni5  1  0.275486  0.394501  0.500000  1
  Ni  Ni6  1  0.607872  0.883628  0.500000  1
  Ni  Ni7  1  0.121203  0.719789  0.500000  1
  Ni  Ni8  1  0.497265  0.462957  0.000000  1
  Ni  Ni9  1  0.538619  0.030036  0.000000  1
  Ni  Ni10  1  0.962852  0.499847  0.000000  1
  Ni  Ni11  1  0.713983  0.758442  0.000000  1
  Ni  Ni12  1  0.250704  0.965208  0.000000  1
  Ni  Ni13  1  0.042637  0.286215  0.000000  1
  As  As14  1  0.978074  0.769159  0.000000  1
  As  As15  1  0.244008  0.212932  0.000000  1
  As  As16  1  0.791636  0.033877  0.000000  1
  As  As17  1  0.661626  0.321964  0.000000  1
  P  P18  1  0.526363  0.620009  0.500000  1
  P  P19  1  0.380967  0.914856  0.500000  1
  P  P20  1  0.080613  0.462266  0.500000  1
