# generated using pymatgen
data_Ca5La8Y7Si16
_symmetry_space_group_name_H-M   'P 1'
_cell_length_a   7.55094402
_cell_length_b   7.94070633
_cell_length_c   15.12565937
_cell_angle_alpha   89.96931047
_cell_angle_beta   90.11740655
_cell_angle_gamma   90.08287618
_symmetry_Int_Tables_number   1
_chemical_formula_structural   Ca5La8Y7Si16
_chemical_formula_sum   'Ca5 La8 Y7 Si16'
_cell_volume   906.92896745
_cell_formula_units_Z   1
loop_
 _symmetry_equiv_pos_site_id
 _symmetry_equiv_pos_as_xyz
  1  'x, y, z'
loop_
 _atom_site_type_symbol
 _atom_site_label
 _atom_site_symmetry_multiplicity
 _atom_site_fract_x
 _atom_site_fract_y
 _atom_site_fract_z
 _atom_site_occupancy
  Ca  Ca0  1  0.323354  0.179480  0.621786  1
  Ca  Ca1  1  0.654524  0.990623  0.749487  1
  Ca  Ca2  1  0.843535  0.489617  0.249937  1
  Ca  Ca3  1  0.343390  0.010386  0.249850  1
  Ca  Ca4  1  0.156914  0.508818  0.749316  1
  La  La5  1  0.020356  0.179755  0.401257  1
  La  La6  1  0.520741  0.319806  0.401361  1
  La  La7  1  0.479036  0.679754  0.901869  1
  La  La8  1  0.478960  0.679545  0.598521  1
  La  La9  1  0.979385  0.820115  0.598608  1
  La  La10  1  0.979520  0.820583  0.902519  1
  La  La11  1  0.520833  0.321004  0.098271  1
  La  La12  1  0.020884  0.179641  0.098773  1
  Y  Y13  1  0.675703  0.819567  0.376330  1
  Y  Y14  1  0.176236  0.680299  0.376637  1
  Y  Y15  1  0.825240  0.318239  0.877463  1
  Y  Y16  1  0.824552  0.319740  0.623401  1
  Y  Y17  1  0.324462  0.181376  0.877407  1
  Y  Y18  1  0.175870  0.680733  0.122879  1
  Y  Y19  1  0.675869  0.819366  0.122694  1
  Si  Si20  1  0.265918  0.885759  0.752376  1
  Si  Si21  1  0.465952  0.608439  0.249929  1
  Si  Si22  1  0.032453  0.107732  0.752273  1
  Si  Si23  1  0.536951  0.395406  0.751934  1
  Si  Si24  1  0.142056  0.473687  0.535282  1
  Si  Si25  1  0.965874  0.890579  0.250050  1
  Si  Si26  1  0.731988  0.109608  0.249690  1
  Si  Si27  1  0.851650  0.532506  0.034808  1
  Si  Si28  1  0.351430  0.968053  0.035062  1
  Si  Si29  1  0.148658  0.466905  0.965191  1
  Si  Si30  1  0.652356  0.031509  0.533620  1
  Si  Si31  1  0.356039  0.965741  0.461967  1
  Si  Si32  1  0.850949  0.532889  0.464303  1
  Si  Si33  1  0.769552  0.610437  0.750524  1
  Si  Si34  1  0.230860  0.390228  0.249851  1
  Si  Si35  1  0.647949  0.032074  0.964772  1
