# generated using pymatgen
data_Pa4Nb(GeIr)6
_symmetry_space_group_name_H-M   'P 1'
_cell_length_a   7.34157450
_cell_length_b   7.34157375
_cell_length_c   7.34157400
_cell_angle_alpha   109.47121856
_cell_angle_beta   109.47121648
_cell_angle_gamma   109.47122297
_symmetry_Int_Tables_number   1
_chemical_formula_structural   Pa4Nb(GeIr)6
_chemical_formula_sum   'Pa4 Nb1 Ge6 Ir6'
_cell_volume   304.61107351
_cell_formula_units_Z   1
loop_
 _symmetry_equiv_pos_site_id
 _symmetry_equiv_pos_as_xyz
  1  'x, y, z'
loop_
 _atom_site_type_symbol
 _atom_site_label
 _atom_site_symmetry_multiplicity
 _atom_site_fract_x
 _atom_site_fract_y
 _atom_site_fract_z
 _atom_site_occupancy
  Pa  Pa0  1  0.500000  0.500000  0.500000  1
  Pa  Pa1  1  0.000000  0.500000  0.000000  1
  Pa  Pa2  1  0.500000  0.000000  0.000000  1
  Pa  Pa3  1  0.000000  0.000000  0.500000  1
  Nb  Nb4  1  0.000000  0.000000  0.000000  1
  Ge  Ge5  1  0.683421  0.000000  0.683421  1
  Ge  Ge6  1  0.683421  0.683421  0.000000  1
  Ge  Ge7  1  0.316579  0.316579  0.000000  1
  Ge  Ge8  1  0.000000  0.683421  0.683421  1
  Ge  Ge9  1  0.000000  0.316579  0.316579  1
  Ge  Ge10  1  0.316579  0.000000  0.316579  1
  Ir  Ir11  1  0.750000  0.500000  0.250000  1
  Ir  Ir12  1  0.500000  0.250000  0.750000  1
  Ir  Ir13  1  0.750000  0.250000  0.500000  1
  Ir  Ir14  1  0.250000  0.750000  0.500000  1
  Ir  Ir15  1  0.250000  0.500000  0.750000  1
  Ir  Ir16  1  0.500000  0.750000  0.250000  1
