# generated using pymatgen
data_Th6Mg3Cd20Pb
_symmetry_space_group_name_H-M   'P 1'
_cell_length_a   9.97687917
_cell_length_b   10.01973995
_cell_length_c   10.01974100
_cell_angle_alpha   60.32080054
_cell_angle_beta   60.47723574
_cell_angle_gamma   60.47723567
_symmetry_Int_Tables_number   1
_chemical_formula_structural   Th6Mg3Cd20Pb
_chemical_formula_sum   'Th6 Mg3 Cd20 Pb1'
_cell_volume   715.06398203
_cell_formula_units_Z   1
loop_
 _symmetry_equiv_pos_site_id
 _symmetry_equiv_pos_as_xyz
  1  'x, y, z'
loop_
 _atom_site_type_symbol
 _atom_site_label
 _atom_site_symmetry_multiplicity
 _atom_site_fract_x
 _atom_site_fract_y
 _atom_site_fract_z
 _atom_site_occupancy
  Th  Th0  1  0.775025  0.776587  0.225162  1
  Th  Th1  1  0.224975  0.774838  0.223413  1
  Th  Th2  1  0.774968  0.222973  0.222973  1
  Th  Th3  1  0.224975  0.223413  0.774838  1
  Th  Th4  1  0.775025  0.225162  0.776587  1
  Th  Th5  1  0.225032  0.777027  0.777027  1
  Mg  Mg6  1  0.000000  0.000000  0.500000  1
  Mg  Mg7  1  0.000000  0.500000  0.000000  1
  Mg  Mg8  1  0.500000  0.500000  0.500000  1
  Cd  Cd9  1  0.840259  0.838692  0.486146  1
  Cd  Cd10  1  0.840259  0.486146  0.838692  1
  Cd  Cd11  1  0.489625  0.837383  0.837383  1
  Cd  Cd12  1  0.841130  0.837962  0.837962  1
  Cd  Cd13  1  0.159741  0.161308  0.513854  1
  Cd  Cd14  1  0.159741  0.513854  0.161308  1
  Cd  Cd15  1  0.510375  0.162617  0.162617  1
  Cd  Cd16  1  0.158870  0.162038  0.162038  1
  Cd  Cd17  1  0.626439  0.621210  0.131335  1
  Cd  Cd18  1  0.626439  0.131335  0.621210  1
  Cd  Cd19  1  0.129713  0.624702  0.624702  1
  Cd  Cd20  1  0.623958  0.622125  0.622125  1
  Cd  Cd21  1  0.373561  0.378790  0.868665  1
  Cd  Cd22  1  0.373561  0.868665  0.378790  1
  Cd  Cd23  1  0.870287  0.375298  0.375298  1
  Cd  Cd24  1  0.376042  0.377875  0.377875  1
  Cd  Cd25  1  0.500000  0.000000  0.500000  1
  Cd  Cd26  1  0.000000  0.500000  0.500000  1
  Cd  Cd27  1  0.500000  0.500000  0.000000  1
  Cd  Cd28  1  0.500000  0.000000  0.000000  1
  Pb  Pb29  1  0.000000  0.000000  0.000000  1
