# generated using pymatgen
data_Hf5Sc(Co2Sn)6
_symmetry_space_group_name_H-M   'P 1'
_cell_length_a   4.41584000
_cell_length_b   6.25459000
_cell_length_c   13.30631000
_cell_angle_alpha   90.00166895
_cell_angle_beta   89.99896430
_cell_angle_gamma   89.99862528
_symmetry_Int_Tables_number   1
_chemical_formula_structural   Hf5Sc(Co2Sn)6
_chemical_formula_sum   'Hf5 Sc1 Co12 Sn6'
_cell_volume   367.51055121
_cell_formula_units_Z   1
loop_
 _symmetry_equiv_pos_site_id
 _symmetry_equiv_pos_as_xyz
  1  'x, y, z'
loop_
 _atom_site_type_symbol
 _atom_site_label
 _atom_site_symmetry_multiplicity
 _atom_site_fract_x
 _atom_site_fract_y
 _atom_site_fract_z
 _atom_site_occupancy
  Hf  Hf0  1  0.000014  0.500010  0.999496  1
  Hf  Hf1  1  0.500194  0.999989  0.165903  1
  Hf  Hf2  1  0.000187  0.499969  0.333329  1
  Hf  Hf3  1  0.499988  0.000042  0.500763  1
  Hf  Hf4  1  0.999816  0.499972  0.667188  1
  Sc  Sc5  1  0.499775  0.000001  0.833324  1
  Co  Co6  1  0.500065  0.251781  0.001927  1
  Co  Co7  1  0.499962  0.748232  0.001913  1
  Co  Co8  1  0.000188  0.249862  0.166633  1
  Co  Co9  1  0.000270  0.750131  0.166638  1
  Co  Co10  1  0.500279  0.249912  0.333343  1
  Co  Co11  1  0.500199  0.750071  0.333339  1
  Co  Co12  1  0.999970  0.249928  0.500033  1
  Co  Co13  1  0.000046  0.750074  0.500033  1
  Co  Co14  1  0.499798  0.251828  0.664730  1
  Co  Co15  1  0.499694  0.748172  0.664743  1
  Co  Co16  1  0.999738  0.256246  0.833315  1
  Co  Co17  1  0.999819  0.743758  0.833313  1
  Sn  Sn18  1  0.000007  0.999961  0.997624  1
  Sn  Sn19  1  0.500205  0.500032  0.166614  1
  Sn  Sn20  1  0.000226  0.000020  0.333460  1
  Sn  Sn21  1  0.500008  0.500003  0.500014  1
  Sn  Sn22  1  0.999764  0.999993  0.668873  1
  Sn  Sn23  1  0.499782  0.500017  0.833453  1
