# generated using pymatgen
data_SmDy4Hf3(Co4P3)4
_symmetry_space_group_name_H-M   'P 1'
_cell_length_a   12.29472200
_cell_length_b   12.29472136
_cell_length_c   3.71282300
_cell_angle_alpha   90.00000000
_cell_angle_beta   90.00000000
_cell_angle_gamma   119.99999096
_symmetry_Int_Tables_number   1
_chemical_formula_structural   SmDy4Hf3(Co4P3)4
_chemical_formula_sum   'Sm1 Dy4 Hf3 Co16 P12'
_cell_volume   486.04034541
_cell_formula_units_Z   1
loop_
 _symmetry_equiv_pos_site_id
 _symmetry_equiv_pos_as_xyz
  1  'x, y, z'
loop_
 _atom_site_type_symbol
 _atom_site_label
 _atom_site_symmetry_multiplicity
 _atom_site_fract_x
 _atom_site_fract_y
 _atom_site_fract_z
 _atom_site_occupancy
  Sm  Sm0  1  0.666667  0.333333  0.000000  1
  Dy  Dy1  1  0.333333  0.666667  0.000000  1
  Dy  Dy2  1  0.182560  0.182581  0.500000  1
  Dy  Dy3  1  0.817419  0.999979  0.500000  1
  Dy  Dy4  1  0.000021  0.817440  0.500000  1
  Hf  Hf5  1  0.558609  0.559346  0.000000  1
  Hf  Hf6  1  0.440654  0.999263  0.000000  1
  Hf  Hf7  1  0.000737  0.441391  0.000000  1
  Co  Co8  1  0.822716  0.195286  0.000000  1
  Co  Co9  1  0.804714  0.627430  0.000000  1
  Co  Co10  1  0.372570  0.177284  0.000000  1
  Co  Co11  1  0.195563  0.821870  0.000000  1
  Co  Co12  1  0.626307  0.804437  0.000000  1
  Co  Co13  1  0.178130  0.373693  0.000000  1
  Co  Co14  1  0.644372  0.122623  0.500000  1
  Co  Co15  1  0.877377  0.521749  0.500000  1
  Co  Co16  1  0.478251  0.355628  0.500000  1
  Co  Co17  1  0.124749  0.644195  0.500000  1
  Co  Co18  1  0.519446  0.875251  0.500000  1
  Co  Co19  1  0.355805  0.480554  0.500000  1
  Co  Co20  1  0.721356  0.721937  0.500000  1
  Co  Co21  1  0.278063  0.999419  0.500000  1
  Co  Co22  1  0.000581  0.278644  0.500000  1
  Co  Co23  1  0.000000  0.000000  0.000000  1
  P  P24  1  0.352208  0.352104  0.000000  1
  P  P25  1  0.647896  0.000105  0.000000  1
  P  P26  1  0.999895  0.647792  0.000000  1
  P  P27  1  0.830385  0.306587  0.500000  1
  P  P28  1  0.693413  0.523798  0.500000  1
  P  P29  1  0.476202  0.169615  0.500000  1
  P  P30  1  0.307238  0.828452  0.500000  1
  P  P31  1  0.521213  0.692762  0.500000  1
  P  P32  1  0.171548  0.478787  0.500000  1
  P  P33  1  0.821904  0.822191  0.000000  1
  P  P34  1  0.177809  0.999713  0.000000  1
  P  P35  1  0.000287  0.178096  0.000000  1
