# generated using pymatgen
data_Tb2Lu(Ga2Co3)3
_symmetry_space_group_name_H-M   'P 1'
_cell_length_a   4.04919400
_cell_length_b   8.73038658
_cell_length_c   8.73038803
_cell_angle_alpha   59.99765050
_cell_angle_beta   90.00000000
_cell_angle_gamma   90.00000000
_symmetry_Int_Tables_number   1
_chemical_formula_structural   Tb2Lu(Ga2Co3)3
_chemical_formula_sum   'Tb2 Lu1 Ga6 Co9'
_cell_volume   267.27353364
_cell_formula_units_Z   1
loop_
 _symmetry_equiv_pos_site_id
 _symmetry_equiv_pos_as_xyz
  1  'x, y, z'
loop_
 _atom_site_type_symbol
 _atom_site_label
 _atom_site_symmetry_multiplicity
 _atom_site_fract_x
 _atom_site_fract_y
 _atom_site_fract_z
 _atom_site_occupancy
  Tb  Tb0  1  0.500000  0.333329  0.333389  1
  Tb  Tb1  1  0.500000  0.666611  0.666671  1
  Lu  Lu2  1  0.000000  0.000219  0.999781  1
  Ga  Ga3  1  0.000000  0.495933  0.504067  1
  Ga  Ga4  1  0.000000  0.503701  0.000014  1
  Ga  Ga5  1  0.000000  0.999986  0.496299  1
  Ga  Ga6  1  0.500000  0.730193  0.269807  1
  Ga  Ga7  1  0.500000  0.269936  0.999954  1
  Ga  Ga8  1  0.500000  0.000046  0.730064  1
  Co  Co9  1  0.000000  0.178603  0.179601  1
  Co  Co10  1  0.000000  0.179654  0.641822  1
  Co  Co11  1  0.000000  0.641865  0.178491  1
  Co  Co12  1  0.000000  0.820399  0.821397  1
  Co  Co13  1  0.000000  0.358178  0.820346  1
  Co  Co14  1  0.000000  0.821509  0.358135  1
  Co  Co15  1  0.500000  0.296274  0.703726  1
  Co  Co16  1  0.500000  0.703524  0.000060  1
  Co  Co17  1  0.500000  0.999940  0.296476  1
