# generated using pymatgen
data_La5Nd3(HoIr3)2
_symmetry_space_group_name_H-M   'P 1'
_cell_length_a   11.29645962
_cell_length_b   11.30021500
_cell_length_c   6.53492540
_cell_angle_alpha   90.00000000
_cell_angle_beta   89.76008967
_cell_angle_gamma   90.00000000
_symmetry_Int_Tables_number   1
_chemical_formula_structural   La5Nd3(HoIr3)2
_chemical_formula_sum   'La10 Nd6 Ho4 Ir12'
_cell_volume   834.19174509
_cell_formula_units_Z   2
loop_
 _symmetry_equiv_pos_site_id
 _symmetry_equiv_pos_as_xyz
  1  'x, y, z'
loop_
 _atom_site_type_symbol
 _atom_site_label
 _atom_site_symmetry_multiplicity
 _atom_site_fract_x
 _atom_site_fract_y
 _atom_site_fract_z
 _atom_site_occupancy
  La  La0  1  0.287212  0.088894  0.382209  1
  La  La1  1  0.287212  0.911106  0.882209  1
  La  La2  1  0.712870  0.089139  0.883262  1
  La  La3  1  0.712870  0.910861  0.383262  1
  La  La4  1  0.589869  0.787219  0.883283  1
  La  La5  1  0.589869  0.212781  0.383283  1
  La  La6  1  0.411110  0.787607  0.383228  1
  La  La7  1  0.411110  0.212393  0.883228  1
  La  La8  1  0.210400  0.412270  0.616563  1
  La  La9  1  0.210400  0.587730  0.116563  1
  Nd  Nd10  1  0.790207  0.413702  0.116518  1
  Nd  Nd11  1  0.790207  0.586298  0.616518  1
  Nd  Nd12  1  0.912594  0.710290  0.116725  1
  Nd  Nd13  1  0.912594  0.289710  0.616725  1
  Nd  Nd14  1  0.085085  0.711510  0.616885  1
  Nd  Nd15  1  0.085085  0.288490  0.116885  1
  Ho  Ho16  1  0.999584  0.000043  0.500657  1
  Ho  Ho17  1  0.999584  0.999957  0.000657  1
  Ho  Ho18  1  0.501227  0.499412  0.001188  1
  Ho  Ho19  1  0.501227  0.500588  0.501188  1
  Ir  Ir20  1  0.851633  0.148375  0.249168  1
  Ir  Ir21  1  0.851633  0.851625  0.749168  1
  Ir  Ir22  1  0.148186  0.147854  0.748774  1
  Ir  Ir23  1  0.148186  0.852146  0.248774  1
  Ir  Ir24  1  0.648492  0.351745  0.749068  1
  Ir  Ir25  1  0.648492  0.648255  0.249068  1
  Ir  Ir26  1  0.351497  0.351143  0.250282  1
  Ir  Ir27  1  0.351497  0.648857  0.750282  1
  Ir  Ir28  1  0.500088  0.000349  0.119185  1
  Ir  Ir29  1  0.500088  0.999651  0.619185  1
  Ir  Ir30  1  0.999947  0.499527  0.883005  1
  Ir  Ir31  1  0.999947  0.500473  0.383005  1
