# generated using pymatgen
data_Dy2TmHf(Al3Rh)6
_symmetry_space_group_name_H-M   'P 1'
_cell_length_a   7.53092475
_cell_length_b   7.51420361
_cell_length_c   9.38563200
_cell_angle_alpha   90.00000000
_cell_angle_beta   90.00000000
_cell_angle_gamma   119.50619371
_symmetry_Int_Tables_number   1
_chemical_formula_structural   Dy2TmHf(Al3Rh)6
_chemical_formula_sum   'Dy2 Tm1 Hf1 Al18 Rh6'
_cell_volume   462.23731279
_cell_formula_units_Z   1
loop_
 _symmetry_equiv_pos_site_id
 _symmetry_equiv_pos_as_xyz
  1  'x, y, z'
loop_
 _atom_site_type_symbol
 _atom_site_label
 _atom_site_symmetry_multiplicity
 _atom_site_fract_x
 _atom_site_fract_y
 _atom_site_fract_z
 _atom_site_occupancy
  Dy  Dy0  1  0.006359  0.327347  0.750000  1
  Dy  Dy1  1  0.328191  0.006501  0.750000  1
  Tm  Tm2  1  0.672640  0.995916  0.250000  1
  Hf  Hf3  1  0.996303  0.672731  0.250000  1
  Al  Al4  1  0.124389  0.122092  0.250000  1
  Al  Al5  1  0.870766  0.869684  0.750000  1
  Al  Al6  1  0.999653  0.338589  0.081014  1
  Al  Al7  1  0.999425  0.664624  0.928430  1
  Al  Al8  1  0.999425  0.664624  0.571570  1
  Al  Al9  1  0.332784  0.997344  0.418929  1
  Al  Al10  1  0.999653  0.338589  0.418986  1
  Al  Al11  1  0.664210  0.998352  0.574642  1
  Al  Al12  1  0.664210  0.998352  0.925358  1
  Al  Al13  1  0.332784  0.997344  0.081071  1
  Al  Al14  1  0.333764  0.333739  0.547747  1
  Al  Al15  1  0.669761  0.667656  0.442192  1
  Al  Al16  1  0.669761  0.667656  0.057808  1
  Al  Al17  1  0.333764  0.333739  0.952253  1
  Al  Al18  1  0.336396  0.552226  0.250000  1
  Al  Al19  1  0.660871  0.450824  0.750000  1
  Al  Al20  1  0.557015  0.344297  0.250000  1
  Al  Al21  1  0.449483  0.659121  0.750000  1
  Rh  Rh22  1  0.672819  0.327871  0.001925  1
  Rh  Rh23  1  0.327422  0.672743  0.002161  1
  Rh  Rh24  1  0.327422  0.672743  0.497839  1
  Rh  Rh25  1  0.672819  0.327871  0.498075  1
  Rh  Rh26  1  0.998957  0.998710  0.002180  1
  Rh  Rh27  1  0.998957  0.998710  0.497820  1
