# generated using pymatgen
data_Li5B4Ru5
_symmetry_space_group_name_H-M   'P 1'
_cell_length_a   2.92432200
_cell_length_b   5.85874299
_cell_length_c   9.12931262
_cell_angle_alpha   91.00593150
_cell_angle_beta   90.00000000
_cell_angle_gamma   90.00000000
_symmetry_Int_Tables_number   1
_chemical_formula_structural   Li5B4Ru5
_chemical_formula_sum   'Li5 B4 Ru5'
_cell_volume   156.38704739
_cell_formula_units_Z   1
loop_
 _symmetry_equiv_pos_site_id
 _symmetry_equiv_pos_as_xyz
  1  'x, y, z'
loop_
 _atom_site_type_symbol
 _atom_site_label
 _atom_site_symmetry_multiplicity
 _atom_site_fract_x
 _atom_site_fract_y
 _atom_site_fract_z
 _atom_site_occupancy
  Li  Li0  1  0.500000  0.338122  0.068700  1
  Li  Li1  1  0.500000  0.661878  0.931300  1
  Li  Li2  1  0.500000  0.172011  0.556627  1
  Li  Li3  1  0.500000  0.827989  0.443373  1
  Li  Li4  1  0.000000  0.000000  0.000000  1
  B  B5  1  0.500000  0.080462  0.794598  1
  B  B6  1  0.500000  0.568971  0.673277  1
  B  B7  1  0.500000  0.431029  0.326723  1
  B  B8  1  0.500000  0.919538  0.205402  1
  Ru  Ru9  1  0.000000  0.336579  0.785107  1
  Ru  Ru10  1  0.000000  0.159460  0.274675  1
  Ru  Ru11  1  0.000000  0.500000  0.500000  1
  Ru  Ru12  1  0.000000  0.663421  0.214893  1
  Ru  Ru13  1  0.000000  0.840540  0.725325  1
