# generated using pymatgen
data_Tm4InPt8Rh3
_symmetry_space_group_name_H-M   'P 1'
_cell_length_a   4.18247200
_cell_length_b   5.74617059
_cell_length_c   11.50732538
_cell_angle_alpha   87.34292499
_cell_angle_beta   90.00000000
_cell_angle_gamma   90.00000000
_symmetry_Int_Tables_number   1
_chemical_formula_structural   Tm4InPt8Rh3
_chemical_formula_sum   'Tm4 In1 Pt8 Rh3'
_cell_volume   276.26049336
_cell_formula_units_Z   1
loop_
 _symmetry_equiv_pos_site_id
 _symmetry_equiv_pos_as_xyz
  1  'x, y, z'
loop_
 _atom_site_type_symbol
 _atom_site_label
 _atom_site_symmetry_multiplicity
 _atom_site_fract_x
 _atom_site_fract_y
 _atom_site_fract_z
 _atom_site_occupancy
  Tm  Tm0  1  0.500000  0.755388  0.372128  1
  Tm  Tm1  1  0.500000  0.717070  0.865501  1
  Tm  Tm2  1  0.500000  0.282285  0.137220  1
  Tm  Tm3  1  0.500000  0.245186  0.625661  1
  In  In4  1  0.000000  0.000719  0.000224  1
  Pt  Pt5  1  0.000000  0.012974  0.250310  1
  Pt  Pt6  1  0.000000  0.986597  0.750063  1
  Pt  Pt7  1  0.000000  0.499871  0.000424  1
  Pt  Pt8  1  0.000000  0.499430  0.499186  1
  Pt  Pt9  1  0.000000  0.516283  0.250670  1
  Pt  Pt10  1  0.000000  0.483104  0.749763  1
  Pt  Pt11  1  0.500000  0.747331  0.621506  1
  Pt  Pt12  1  0.000000  0.000698  0.499318  1
  Rh  Rh13  1  0.500000  0.252789  0.378100  1
  Rh  Rh14  1  0.500000  0.226500  0.881159  1
  Rh  Rh15  1  0.500000  0.773771  0.118766  1
