# generated using pymatgen
data_Tb4YHo7Co5Hg
_symmetry_space_group_name_H-M   'P 1'
_cell_length_a   8.28883338
_cell_length_b   8.28883345
_cell_length_c   8.27640203
_cell_angle_alpha   110.70327150
_cell_angle_beta   109.85072292
_cell_angle_gamma   107.93516085
_symmetry_Int_Tables_number   1
_chemical_formula_structural   Tb4YHo7Co5Hg
_chemical_formula_sum   'Tb4 Y1 Ho7 Co5 Hg1'
_cell_volume   437.12197611
_cell_formula_units_Z   1
loop_
 _symmetry_equiv_pos_site_id
 _symmetry_equiv_pos_as_xyz
  1  'x, y, z'
loop_
 _atom_site_type_symbol
 _atom_site_label
 _atom_site_symmetry_multiplicity
 _atom_site_fract_x
 _atom_site_fract_y
 _atom_site_fract_z
 _atom_site_occupancy
  Tb  Tb0  1  0.595797  0.790108  0.806514  1
  Tb  Tb1  1  0.401581  0.208474  0.192449  1
  Tb  Tb2  1  0.983976  0.790870  0.192449  1
  Tb  Tb3  1  0.016408  0.210717  0.806514  1
  Y  Y4  1  0.815455  0.708204  0.523658  1
  Ho  Ho5  1  0.183247  0.291583  0.474830  1
  Ho  Ho6  1  0.183526  0.707241  0.890768  1
  Ho  Ho7  1  0.817027  0.292138  0.109161  1
  Ho  Ho8  1  0.682669  0.379277  0.696721  1
  Ho  Ho9  1  0.316055  0.620309  0.302753  1
  Ho  Ho10  1  0.682443  0.986697  0.302753  1
  Ho  Ho11  1  0.317444  0.014052  0.696721  1
  Co  Co12  1  0.621392  0.000132  0.621524  1
  Co  Co13  1  0.379043  0.000033  0.379077  1
  Co  Co14  1  0.115990  0.613158  0.501492  1
  Co  Co15  1  0.888335  0.385502  0.501492  1
  Co  Co16  1  0.998979  0.001479  0.000459  1
  Hg  Hg17  1  0.500634  0.500030  0.000666  1
