# generated using pymatgen
data_Y2Cd(P3Pd10)2
_symmetry_space_group_name_H-M   'P 1'
_cell_length_a   8.67419369
_cell_length_b   8.67419254
_cell_length_c   8.67419300
_cell_angle_alpha   59.99999444
_cell_angle_beta   59.99999881
_cell_angle_gamma   59.99999484
_symmetry_Int_Tables_number   1
_chemical_formula_structural   Y2Cd(P3Pd10)2
_chemical_formula_sum   'Y2 Cd1 P6 Pd20'
_cell_volume   461.50054402
_cell_formula_units_Z   1
loop_
 _symmetry_equiv_pos_site_id
 _symmetry_equiv_pos_as_xyz
  1  'x, y, z'
loop_
 _atom_site_type_symbol
 _atom_site_label
 _atom_site_symmetry_multiplicity
 _atom_site_fract_x
 _atom_site_fract_y
 _atom_site_fract_z
 _atom_site_occupancy
  Y  Y0  1  0.000000  0.000000  0.000000  1
  Y  Y1  1  0.250000  0.250000  0.250000  1
  Cd  Cd2  1  0.750000  0.750000  0.750000  1
  P  P3  1  0.734617  0.265383  0.265383  1
  P  P4  1  0.734617  0.734617  0.265383  1
  P  P5  1  0.734617  0.265383  0.734617  1
  P  P6  1  0.265383  0.734617  0.265383  1
  P  P7  1  0.265383  0.734617  0.734617  1
  P  P8  1  0.265383  0.265383  0.734617  1
  Pd  Pd9  1  0.343167  0.001413  0.001413  1
  Pd  Pd10  1  0.001413  0.654006  0.343167  1
  Pd  Pd11  1  0.343167  0.001413  0.654006  1
  Pd  Pd12  1  0.001413  0.654006  0.001413  1
  Pd  Pd13  1  0.654006  0.343167  0.001413  1
  Pd  Pd14  1  0.617579  0.617579  0.147264  1
  Pd  Pd15  1  0.386065  0.841807  0.386065  1
  Pd  Pd16  1  0.147264  0.617579  0.617579  1
  Pd  Pd17  1  0.654006  0.001413  0.343167  1
  Pd  Pd18  1  0.001413  0.343167  0.654006  1
  Pd  Pd19  1  0.654006  0.001413  0.001413  1
  Pd  Pd20  1  0.001413  0.001413  0.343167  1
  Pd  Pd21  1  0.617579  0.147264  0.617579  1
  Pd  Pd22  1  0.343167  0.654006  0.001413  1
  Pd  Pd23  1  0.386065  0.386065  0.386065  1
  Pd  Pd24  1  0.617579  0.617579  0.617579  1
  Pd  Pd25  1  0.386065  0.386065  0.841807  1
  Pd  Pd26  1  0.001413  0.001413  0.654006  1
  Pd  Pd27  1  0.841807  0.386065  0.386065  1
  Pd  Pd28  1  0.001413  0.343167  0.001413  1
