# generated using pymatgen
data_LaTh2In3Pt2Rh
_symmetry_space_group_name_H-M   'P 1'
_cell_length_a   7.71035300
_cell_length_b   7.72713200
_cell_length_c   4.11918100
_cell_angle_alpha   90.00000000
_cell_angle_beta   90.00000000
_cell_angle_gamma   119.92819958
_symmetry_Int_Tables_number   1
_chemical_formula_structural   LaTh2In3Pt2Rh
_chemical_formula_sum   'La1 Th2 In3 Pt2 Rh1'
_cell_volume   212.69038712
_cell_formula_units_Z   1
loop_
 _symmetry_equiv_pos_site_id
 _symmetry_equiv_pos_as_xyz
  1  'x, y, z'
loop_
 _atom_site_type_symbol
 _atom_site_label
 _atom_site_symmetry_multiplicity
 _atom_site_fract_x
 _atom_site_fract_y
 _atom_site_fract_z
 _atom_site_occupancy
  La  La0  1  0.588938  0.000000  0.500000  1
  Th  Th1  1  0.409172  0.410615  0.500000  1
  Th  Th2  1  0.998558  0.589385  0.500000  1
  In  In3  1  0.754495  0.759612  0.000000  1
  In  In4  1  0.251146  0.000000  0.000000  1
  In  In5  1  0.994884  0.240388  0.000000  1
  Pt  Pt6  1  0.668843  0.347900  0.000000  1
  Pt  Pt7  1  0.320943  0.652100  0.000000  1
  Rh  Rh8  1  0.013023  0.000000  0.500000  1
