# generated using pymatgen
data_AlCr4GaPt10
_symmetry_space_group_name_H-M   'P 1'
_cell_length_a   4.03374300
_cell_length_b   5.48600181
_cell_length_c   10.88831660
_cell_angle_alpha   89.93769413
_cell_angle_beta   90.00000000
_cell_angle_gamma   90.00000000
_symmetry_Int_Tables_number   1
_chemical_formula_structural   AlCr4GaPt10
_chemical_formula_sum   'Al1 Cr4 Ga1 Pt10'
_cell_volume   240.94873766
_cell_formula_units_Z   1
loop_
 _symmetry_equiv_pos_site_id
 _symmetry_equiv_pos_as_xyz
  1  'x, y, z'
loop_
 _atom_site_type_symbol
 _atom_site_label
 _atom_site_symmetry_multiplicity
 _atom_site_fract_x
 _atom_site_fract_y
 _atom_site_fract_z
 _atom_site_occupancy
  Al  Al0  1  0.000000  0.000000  0.000000  1
  Cr  Cr1  1  0.500000  0.200668  0.636464  1
  Cr  Cr2  1  0.500000  0.799332  0.363536  1
  Cr  Cr3  1  0.500000  0.698640  0.864174  1
  Cr  Cr4  1  0.500000  0.301360  0.135826  1
  Ga  Ga5  1  0.000000  0.500000  0.500000  1
  Pt  Pt6  1  0.500000  0.293230  0.387364  1
  Pt  Pt7  1  0.500000  0.706770  0.612636  1
  Pt  Pt8  1  0.500000  0.797386  0.109735  1
  Pt  Pt9  1  0.500000  0.202614  0.890265  1
  Pt  Pt10  1  0.000000  0.448801  0.744051  1
  Pt  Pt11  1  0.000000  0.551199  0.255949  1
  Pt  Pt12  1  0.000000  0.948688  0.758437  1
  Pt  Pt13  1  0.000000  0.051312  0.241563  1
  Pt  Pt14  1  0.000000  0.500000  0.000000  1
  Pt  Pt15  1  0.000000  0.000000  0.500000  1
