# generated using pymatgen
data_LuMg3Pa4(ReB6)4
_symmetry_space_group_name_H-M   'P 1'
_cell_length_a   3.65113100
_cell_length_b   8.98609051
_cell_length_c   11.34979489
_cell_angle_alpha   89.93373194
_cell_angle_beta   90.00000000
_cell_angle_gamma   90.00000000
_symmetry_Int_Tables_number   1
_chemical_formula_structural   LuMg3Pa4(ReB6)4
_chemical_formula_sum   'Lu1 Mg3 Pa4 Re4 B24'
_cell_volume   372.37963905
_cell_formula_units_Z   1
loop_
 _symmetry_equiv_pos_site_id
 _symmetry_equiv_pos_as_xyz
  1  'x, y, z'
loop_
 _atom_site_type_symbol
 _atom_site_label
 _atom_site_symmetry_multiplicity
 _atom_site_fract_x
 _atom_site_fract_y
 _atom_site_fract_z
 _atom_site_occupancy
  Lu  Lu0  1  0.000000  0.553851  0.876539  1
  Mg  Mg1  1  0.000000  0.948073  0.379540  1
  Mg  Mg2  1  0.000000  0.051845  0.618634  1
  Mg  Mg3  1  0.000000  0.445965  0.124307  1
  Pa  Pa4  1  0.000000  0.320179  0.412535  1
  Pa  Pa5  1  0.000000  0.681393  0.583904  1
  Pa  Pa6  1  0.000000  0.821311  0.088855  1
  Pa  Pa7  1  0.000000  0.178756  0.914540  1
  Re  Re8  1  0.000000  0.641114  0.319317  1
  Re  Re9  1  0.000000  0.358219  0.679432  1
  Re  Re10  1  0.000000  0.140006  0.180412  1
  Re  Re11  1  0.000000  0.861990  0.819020  1
  B  B12  1  0.500000  0.554895  0.432674  1
  B  B13  1  0.500000  0.444662  0.566517  1
  B  B14  1  0.500000  0.054369  0.067594  1
  B  B15  1  0.500000  0.945983  0.933103  1
  B  B16  1  0.500000  0.754144  0.419355  1
  B  B17  1  0.500000  0.245882  0.579463  1
  B  B18  1  0.500000  0.251891  0.081357  1
  B  B19  1  0.500000  0.748717  0.920653  1
  B  B20  1  0.500000  0.793241  0.264221  1
  B  B21  1  0.500000  0.205527  0.735557  1
  B  B22  1  0.500000  0.292733  0.236317  1
  B  B23  1  0.500000  0.707897  0.764299  1
  B  B24  1  0.500000  0.629943  0.183766  1
  B  B25  1  0.500000  0.368103  0.816588  1
  B  B26  1  0.500000  0.128919  0.317531  1
  B  B27  1  0.500000  0.871648  0.682328  1
  B  B28  1  0.500000  0.981825  0.213894  1
  B  B29  1  0.500000  0.018774  0.786591  1
  B  B30  1  0.500000  0.481790  0.286565  1
  B  B31  1  0.500000  0.517502  0.713019  1
  B  B32  1  0.500000  0.602819  0.029783  1
  B  B33  1  0.500000  0.395672  0.972714  1
  B  B34  1  0.500000  0.101016  0.471574  1
  B  B35  1  0.500000  0.899344  0.527505  1
