# generated using pymatgen
data_Tb3NdZr4F28
_symmetry_space_group_name_H-M   'P 1'
_cell_length_a   5.80540875
_cell_length_b   9.19630326
_cell_length_c   12.35323309
_cell_angle_alpha   62.26830827
_cell_angle_beta   89.96931202
_cell_angle_gamma   90.02149281
_symmetry_Int_Tables_number   1
_chemical_formula_structural   Tb3NdZr4F28
_chemical_formula_sum   'Tb3 Nd1 Zr4 F28'
_cell_volume   583.76323752
_cell_formula_units_Z   1
loop_
 _symmetry_equiv_pos_site_id
 _symmetry_equiv_pos_as_xyz
  1  'x, y, z'
loop_
 _atom_site_type_symbol
 _atom_site_label
 _atom_site_symmetry_multiplicity
 _atom_site_fract_x
 _atom_site_fract_y
 _atom_site_fract_z
 _atom_site_occupancy
  Tb  Tb0  1  0.743472  0.816642  0.266221  1
  Tb  Tb1  1  0.243343  0.185003  0.233813  1
  Tb  Tb2  1  0.257013  0.188697  0.733292  1
  Nd  Nd3  1  0.756756  0.816049  0.766565  1
  Zr  Zr4  1  0.743936  0.277254  0.453148  1
  Zr  Zr5  1  0.244845  0.725593  0.048621  1
  Zr  Zr6  1  0.255028  0.725807  0.541232  1
  Zr  Zr7  1  0.755301  0.270548  0.956848  1
  F  F8  1  0.461352  0.709623  0.924975  1
  F  F9  1  0.965423  0.288457  0.577132  1
  F  F10  1  0.532872  0.286497  0.078632  1
  F  F11  1  0.031950  0.711533  0.419428  1
  F  F12  1  0.456416  0.281753  0.548931  1
  F  F13  1  0.957420  0.715901  0.956106  1
  F  F14  1  0.545960  0.719246  0.448650  1
  F  F15  1  0.043230  0.279012  0.050973  1
  F  F16  1  0.768170  0.519342  0.860198  1
  F  F17  1  0.267203  0.475653  0.639753  1
  F  F18  1  0.234437  0.474906  0.142900  1
  F  F19  1  0.733003  0.526594  0.357254  1
  F  F20  1  0.759580  0.021610  0.059519  1
  F  F21  1  0.259403  0.975108  0.440327  1
  F  F22  1  0.239914  0.974024  0.942745  1
  F  F23  1  0.739810  0.027975  0.554292  1
  F  F24  1  0.986579  0.731748  0.645096  1
  F  F25  1  0.486270  0.265642  0.851855  1
  F  F26  1  0.012068  0.265628  0.349784  1
  F  F27  1  0.514435  0.734748  0.151363  1
  F  F28  1  0.032821  0.746850  0.173889  1
  F  F29  1  0.531966  0.253963  0.328091  1
  F  F30  1  0.966645  0.251715  0.829641  1
  F  F31  1  0.459588  0.743892  0.669615  1
  F  F32  1  0.430872  0.974756  0.235482  1
  F  F33  1  0.931681  0.026142  0.264549  1
  F  F34  1  0.569183  0.035003  0.765509  1
  F  F35  1  0.082055  0.977087  0.733569  1
