# generated using pymatgen
data_CaYb(SiPt2)2
_symmetry_space_group_name_H-M   'P 1'
_cell_length_a   5.55957000
_cell_length_b   6.93259900
_cell_length_c   7.36053600
_cell_angle_alpha   90.00000000
_cell_angle_beta   90.00000000
_cell_angle_gamma   90.00000000
_symmetry_Int_Tables_number   1
_chemical_formula_structural   CaYb(SiPt2)2
_chemical_formula_sum   'Ca2 Yb2 Si4 Pt8'
_cell_volume   283.69176161
_cell_formula_units_Z   2
loop_
 _symmetry_equiv_pos_site_id
 _symmetry_equiv_pos_as_xyz
  1  'x, y, z'
loop_
 _atom_site_type_symbol
 _atom_site_label
 _atom_site_symmetry_multiplicity
 _atom_site_fract_x
 _atom_site_fract_y
 _atom_site_fract_z
 _atom_site_occupancy
  Ca  Ca0  1  0.127008  0.750000  0.478882  1
  Ca  Ca1  1  0.372992  0.750000  0.978882  1
  Yb  Yb2  1  0.629734  0.250000  0.021225  1
  Yb  Yb3  1  0.870266  0.250000  0.521225  1
  Si  Si4  1  0.128719  0.250000  0.875901  1
  Si  Si5  1  0.371281  0.250000  0.375901  1
  Si  Si6  1  0.626462  0.750000  0.624173  1
  Si  Si7  1  0.873538  0.750000  0.124173  1
  Pt  Pt8  1  0.100759  0.053600  0.172224  1
  Pt  Pt9  1  0.100759  0.446400  0.172224  1
  Pt  Pt10  1  0.399241  0.053600  0.672224  1
  Pt  Pt11  1  0.399241  0.446400  0.672224  1
  Pt  Pt12  1  0.603639  0.551137  0.327685  1
  Pt  Pt13  1  0.603639  0.948863  0.327685  1
  Pt  Pt14  1  0.896361  0.551137  0.827685  1
  Pt  Pt15  1  0.896361  0.948863  0.827685  1
