# generated using pymatgen
data_KPrPt4
_symmetry_space_group_name_H-M   'P 1'
_cell_length_a   5.53002513
_cell_length_b   5.53002492
_cell_length_c   5.53002600
_cell_angle_alpha   59.99999355
_cell_angle_beta   59.99999482
_cell_angle_gamma   59.99999182
_symmetry_Int_Tables_number   1
_chemical_formula_structural   KPrPt4
_chemical_formula_sum   'K1 Pr1 Pt4'
_cell_volume   119.58213528
_cell_formula_units_Z   1
loop_
 _symmetry_equiv_pos_site_id
 _symmetry_equiv_pos_as_xyz
  1  'x, y, z'
loop_
 _atom_site_type_symbol
 _atom_site_label
 _atom_site_symmetry_multiplicity
 _atom_site_fract_x
 _atom_site_fract_y
 _atom_site_fract_z
 _atom_site_occupancy
  K  K0  1  0.750000  0.750000  0.750000  1
  Pr  Pr1  1  0.500000  0.500000  0.500000  1
  Pt  Pt2  1  0.124967  0.625099  0.124967  1
  Pt  Pt3  1  0.124967  0.124967  0.625099  1
  Pt  Pt4  1  0.625099  0.124967  0.124967  1
  Pt  Pt5  1  0.124967  0.124967  0.124967  1
