# generated using pymatgen
data_YbZr(UH6)2
_symmetry_space_group_name_H-M   'P 1'
_cell_length_a   6.47621200
_cell_length_b   6.46959900
_cell_length_c   6.46959900
_cell_angle_alpha   90.00000000
_cell_angle_beta   90.00000000
_cell_angle_gamma   90.00000000
_symmetry_Int_Tables_number   1
_chemical_formula_structural   YbZr(UH6)2
_chemical_formula_sum   'Yb2 Zr2 U4 H24'
_cell_volume   271.06645928
_cell_formula_units_Z   2
loop_
 _symmetry_equiv_pos_site_id
 _symmetry_equiv_pos_as_xyz
  1  'x, y, z'
loop_
 _atom_site_type_symbol
 _atom_site_label
 _atom_site_symmetry_multiplicity
 _atom_site_fract_x
 _atom_site_fract_y
 _atom_site_fract_z
 _atom_site_occupancy
  Yb  Yb0  1  0.250000  0.000000  0.500000  1
  Yb  Yb1  1  0.750000  0.000000  0.500000  1
  Zr  Zr2  1  0.000000  0.000000  0.000000  1
  Zr  Zr3  1  0.500000  0.500000  0.500000  1
  U  U4  1  0.000000  0.500000  0.251230  1
  U  U5  1  0.000000  0.500000  0.748770  1
  U  U6  1  0.500000  0.751230  0.000000  1
  U  U7  1  0.500000  0.248770  0.000000  1
  H  H8  1  0.000000  0.155968  0.281837  1
  H  H9  1  0.500000  0.218163  0.655968  1
  H  H10  1  0.500000  0.781837  0.344032  1
  H  H11  1  0.800807  0.648430  0.500000  1
  H  H12  1  0.199193  0.648430  0.500000  1
  H  H13  1  0.348048  0.500000  0.795033  1
  H  H14  1  0.651952  0.500000  0.795033  1
  H  H15  1  0.300807  0.000000  0.148430  1
  H  H16  1  0.151952  0.295033  0.000000  1
  H  H17  1  0.848048  0.704967  0.000000  1
  H  H18  1  0.300807  0.000000  0.851570  1
  H  H19  1  0.848048  0.295033  0.000000  1
  H  H20  1  0.699193  0.000000  0.148430  1
  H  H21  1  0.699193  0.000000  0.851570  1
  H  H22  1  0.151952  0.704967  0.000000  1
  H  H23  1  0.000000  0.844032  0.718163  1
  H  H24  1  0.000000  0.155968  0.718163  1
  H  H25  1  0.000000  0.844032  0.281837  1
  H  H26  1  0.651952  0.500000  0.204967  1
  H  H27  1  0.348048  0.500000  0.204967  1
  H  H28  1  0.800807  0.351570  0.500000  1
  H  H29  1  0.199193  0.351570  0.500000  1
  H  H30  1  0.500000  0.781837  0.655968  1
  H  H31  1  0.500000  0.218163  0.344032  1
