# generated using pymatgen
data_Y3Ho2Co(P2Ru3)6
_symmetry_space_group_name_H-M   'P 1'
_cell_length_a   12.47426850
_cell_length_b   12.47426780
_cell_length_c   3.97814000
_cell_angle_alpha   90.00000000
_cell_angle_beta   90.00000000
_cell_angle_gamma   119.88302414
_symmetry_Int_Tables_number   1
_chemical_formula_structural   Y3Ho2Co(P2Ru3)6
_chemical_formula_sum   'Y3 Ho2 Co1 P12 Ru18'
_cell_volume   536.72466573
_cell_formula_units_Z   1
loop_
 _symmetry_equiv_pos_site_id
 _symmetry_equiv_pos_as_xyz
  1  'x, y, z'
loop_
 _atom_site_type_symbol
 _atom_site_label
 _atom_site_symmetry_multiplicity
 _atom_site_fract_x
 _atom_site_fract_y
 _atom_site_fract_z
 _atom_site_occupancy
  Y  Y0  1  0.666541  0.333263  0.000000  1
  Y  Y1  1  0.333263  0.666541  0.000000  1
  Y  Y2  1  0.817284  0.817284  0.500000  1
  Ho  Ho3  1  0.182844  0.000023  0.500000  1
  Ho  Ho4  1  0.000023  0.182844  0.500000  1
  Co  Co5  1  0.000413  0.000413  0.000000  1
  P  P6  1  0.693277  0.169544  0.500000  1
  P  P7  1  0.830588  0.524017  0.500000  1
  P  P8  1  0.475894  0.306561  0.500000  1
  P  P9  1  0.169544  0.693277  0.500000  1
  P  P10  1  0.524017  0.830588  0.500000  1
  P  P11  1  0.306561  0.475894  0.500000  1
  P  P12  1  0.176914  0.176914  0.000000  1
  P  P13  1  0.823158  0.000475  0.000000  1
  P  P14  1  0.000475  0.823158  0.000000  1
  P  P15  1  0.627014  0.627014  0.000000  1
  P  P16  1  0.372659  0.000058  0.000000  1
  P  P17  1  0.000058  0.372659  0.000000  1
  Ru  Ru18  1  0.873933  0.365180  0.500000  1
  Ru  Ru19  1  0.634614  0.508519  0.500000  1
  Ru  Ru20  1  0.491092  0.126018  0.500000  1
  Ru  Ru21  1  0.365180  0.873933  0.500000  1
  Ru  Ru22  1  0.508519  0.634614  0.500000  1
  Ru  Ru23  1  0.126018  0.491092  0.500000  1
  Ru  Ru24  1  0.443813  0.443813  0.000000  1
  Ru  Ru25  1  0.556009  0.000270  0.000000  1
  Ru  Ru26  1  0.000270  0.556009  0.000000  1
  Ru  Ru27  1  0.809375  0.184139  0.000000  1
  Ru  Ru28  1  0.816293  0.625005  0.000000  1
  Ru  Ru29  1  0.374519  0.190661  0.000000  1
  Ru  Ru30  1  0.184139  0.809375  0.000000  1
  Ru  Ru31  1  0.625005  0.816293  0.000000  1
  Ru  Ru32  1  0.190661  0.374519  0.000000  1
  Ru  Ru33  1  0.278953  0.278953  0.500000  1
  Ru  Ru34  1  0.720858  0.000220  0.500000  1
  Ru  Ru35  1  0.000220  0.720858  0.500000  1
