# generated using pymatgen
data_Pr2Nd2GaSe3
_symmetry_space_group_name_H-M   'P 1'
_cell_length_a   7.41630970
_cell_length_b   7.41630979
_cell_length_c   7.41631121
_cell_angle_alpha   131.95355760
_cell_angle_beta   131.97198957
_cell_angle_gamma   70.28783697
_symmetry_Int_Tables_number   1
_chemical_formula_structural   Pr2Nd2GaSe3
_chemical_formula_sum   'Pr2 Nd2 Ga1 Se3'
_cell_volume   221.04584769
_cell_formula_units_Z   1
loop_
 _symmetry_equiv_pos_site_id
 _symmetry_equiv_pos_as_xyz
  1  'x, y, z'
loop_
 _atom_site_type_symbol
 _atom_site_label
 _atom_site_symmetry_multiplicity
 _atom_site_fract_x
 _atom_site_fract_y
 _atom_site_fract_z
 _atom_site_occupancy
  Pr  Pr0  1  0.999955  0.999955  0.000000  1
  Pr  Pr1  1  0.749123  0.249123  0.500000  1
  Nd  Nd2  1  0.250972  0.750972  0.500000  1
  Nd  Nd3  1  0.499958  0.499958  0.000000  1
  Ga  Ga4  1  0.499140  0.999140  0.500000  1
  Se  Se5  1  0.001012  0.501012  0.500000  1
  Se  Se6  1  0.749015  0.749015  0.000000  1
  Se  Se7  1  0.250824  0.250824  0.000000  1
