# generated using pymatgen
data_Dy3Al12FeOs3
_symmetry_space_group_name_H-M   'P 1'
_cell_length_a   8.77323900
_cell_length_b   8.77323938
_cell_length_c   9.51618400
_cell_angle_alpha   90.00000000
_cell_angle_beta   90.00000000
_cell_angle_gamma   120.00000233
_symmetry_Int_Tables_number   1
_chemical_formula_structural   Dy3Al12FeOs3
_chemical_formula_sum   'Dy6 Al24 Fe2 Os6'
_cell_volume   634.32728451
_cell_formula_units_Z   2
loop_
 _symmetry_equiv_pos_site_id
 _symmetry_equiv_pos_as_xyz
  1  'x, y, z'
loop_
 _atom_site_type_symbol
 _atom_site_label
 _atom_site_symmetry_multiplicity
 _atom_site_fract_x
 _atom_site_fract_y
 _atom_site_fract_z
 _atom_site_occupancy
  Dy  Dy0  1  0.193568  0.387134  0.250000  1
  Dy  Dy1  1  0.806432  0.612866  0.750000  1
  Dy  Dy2  1  0.612866  0.806432  0.250000  1
  Dy  Dy3  1  0.387134  0.193568  0.750000  1
  Dy  Dy4  1  0.193568  0.806432  0.250000  1
  Dy  Dy5  1  0.806432  0.193568  0.750000  1
  Al  Al6  1  0.333333  0.666667  0.015483  1
  Al  Al7  1  0.666667  0.333333  0.984517  1
  Al  Al8  1  0.666667  0.333333  0.515483  1
  Al  Al9  1  0.333333  0.666667  0.484517  1
  Al  Al10  1  0.159440  0.318880  0.575410  1
  Al  Al11  1  0.840560  0.681120  0.424590  1
  Al  Al12  1  0.681120  0.840560  0.575410  1
  Al  Al13  1  0.840560  0.681120  0.075410  1
  Al  Al14  1  0.318880  0.159440  0.424590  1
  Al  Al15  1  0.159440  0.318880  0.924590  1
  Al  Al16  1  0.159440  0.840560  0.575410  1
  Al  Al17  1  0.318880  0.159440  0.075410  1
  Al  Al18  1  0.840560  0.159440  0.424590  1
  Al  Al19  1  0.681120  0.840560  0.924590  1
  Al  Al20  1  0.840560  0.159440  0.075410  1
  Al  Al21  1  0.159440  0.840560  0.924590  1
  Al  Al22  1  0.561507  0.123016  0.250000  1
  Al  Al23  1  0.438493  0.876984  0.750000  1
  Al  Al24  1  0.876984  0.438493  0.250000  1
  Al  Al25  1  0.123016  0.561507  0.750000  1
  Al  Al26  1  0.561507  0.438493  0.250000  1
  Al  Al27  1  0.438493  0.561507  0.750000  1
  Al  Al28  1  0.000000  0.000000  0.250000  1
  Al  Al29  1  0.000000  0.000000  0.750000  1
  Fe  Fe30  1  0.000000  0.000000  0.000000  1
  Fe  Fe31  1  0.000000  0.000000  0.500000  1
  Os  Os32  1  0.500000  0.000000  0.000000  1
  Os  Os33  1  0.000000  0.500000  0.000000  1
  Os  Os34  1  0.500000  0.000000  0.500000  1
  Os  Os35  1  0.500000  0.500000  0.000000  1
  Os  Os36  1  0.000000  0.500000  0.500000  1
  Os  Os37  1  0.500000  0.500000  0.500000  1
