# generated using pymatgen
data_Eu8Be4Si11Sn
_symmetry_space_group_name_H-M   'P 1'
_cell_length_a   8.06160301
_cell_length_b   8.06160298
_cell_length_c   8.69487200
_cell_angle_alpha   90.00348255
_cell_angle_beta   89.99651745
_cell_angle_gamma   119.80680028
_symmetry_Int_Tables_number   1
_chemical_formula_structural   Eu8Be4Si11Sn
_chemical_formula_sum   'Eu8 Be4 Si11 Sn1'
_cell_volume   490.31913030
_cell_formula_units_Z   1
loop_
 _symmetry_equiv_pos_site_id
 _symmetry_equiv_pos_as_xyz
  1  'x, y, z'
loop_
 _atom_site_type_symbol
 _atom_site_label
 _atom_site_symmetry_multiplicity
 _atom_site_fract_x
 _atom_site_fract_y
 _atom_site_fract_z
 _atom_site_occupancy
  Eu  Eu0  1  0.500707  0.499293  0.747470  1
  Eu  Eu1  1  0.501030  0.498970  0.252278  1
  Eu  Eu2  1  0.005166  0.507103  0.746098  1
  Eu  Eu3  1  0.004690  0.506880  0.254072  1
  Eu  Eu4  1  0.492897  0.994834  0.746098  1
  Eu  Eu5  1  0.493120  0.995310  0.254072  1
  Eu  Eu6  1  0.002748  0.997252  0.746795  1
  Eu  Eu7  1  0.002828  0.997172  0.253299  1
  Be  Be8  1  0.656761  0.343239  0.998369  1
  Be  Be9  1  0.332580  0.667420  0.001924  1
  Be  Be10  1  0.333781  0.666219  0.498459  1
  Be  Be11  1  0.667021  0.332979  0.500888  1
  Si  Si12  1  0.172228  0.827772  0.999814  1
  Si  Si13  1  0.344487  0.171284  0.000005  1
  Si  Si14  1  0.172209  0.827791  0.500233  1
  Si  Si15  1  0.645507  0.809209  0.999733  1
  Si  Si16  1  0.827561  0.172439  0.500066  1
  Si  Si17  1  0.828716  0.655513  0.000005  1
  Si  Si18  1  0.655467  0.828162  0.500188  1
  Si  Si19  1  0.190791  0.354493  0.999733  1
  Si  Si20  1  0.345153  0.173008  0.500042  1
  Si  Si21  1  0.171838  0.344533  0.500188  1
  Si  Si22  1  0.826992  0.654847  0.500042  1
  Sn  Sn23  1  0.825719  0.174281  0.000133  1
