# generated using pymatgen
data_La4LuZn2Sn
_symmetry_space_group_name_H-M   'P 1'
_cell_length_a   8.54079563
_cell_length_b   8.54079556
_cell_length_c   8.80524439
_cell_angle_alpha   119.01138092
_cell_angle_beta   119.01138172
_cell_angle_gamma   90.00000329
_symmetry_Int_Tables_number   1
_chemical_formula_structural   La4LuZn2Sn
_chemical_formula_sum   'La8 Lu2 Zn4 Sn2'
_cell_volume   467.41731182
_cell_formula_units_Z   2
loop_
 _symmetry_equiv_pos_site_id
 _symmetry_equiv_pos_as_xyz
  1  'x, y, z'
loop_
 _atom_site_type_symbol
 _atom_site_label
 _atom_site_symmetry_multiplicity
 _atom_site_fract_x
 _atom_site_fract_y
 _atom_site_fract_z
 _atom_site_occupancy
  La  La0  1  0.807665  0.307665  0.291529  1
  La  La1  1  0.307665  0.483863  0.291529  1
  La  La2  1  0.983862  0.807665  0.291529  1
  La  La3  1  0.483863  0.983862  0.291529  1
  La  La4  1  0.516137  0.016137  0.708471  1
  La  La5  1  0.016137  0.192335  0.708471  1
  La  La6  1  0.692335  0.516137  0.708471  1
  La  La7  1  0.192335  0.692335  0.708471  1
  Lu  Lu8  1  0.000000  0.000000  0.000000  1
  Lu  Lu9  1  0.500001  0.500001  0.000000  1
  Zn  Zn10  1  0.365458  0.134541  0.000000  1
  Zn  Zn11  1  0.865459  0.365458  0.000000  1
  Zn  Zn12  1  0.134541  0.634541  0.000000  1
  Zn  Zn13  1  0.634541  0.865459  0.000000  1
  Sn  Sn14  1  0.250000  0.250000  0.500001  1
  Sn  Sn15  1  0.750001  0.750001  0.500001  1
