# generated using pymatgen
data_YHo4Er7(GaCo2)2
_symmetry_space_group_name_H-M   'P 1'
_cell_length_a   8.23630047
_cell_length_b   8.23733370
_cell_length_c   8.23321958
_cell_angle_alpha   106.99496330
_cell_angle_beta   109.36837332
_cell_angle_gamma   112.08524563
_symmetry_Int_Tables_number   1
_chemical_formula_structural   YHo4Er7(GaCo2)2
_chemical_formula_sum   'Y1 Ho4 Er7 Ga2 Co4'
_cell_volume   429.17488210
_cell_formula_units_Z   1
loop_
 _symmetry_equiv_pos_site_id
 _symmetry_equiv_pos_as_xyz
  1  'x, y, z'
loop_
 _atom_site_type_symbol
 _atom_site_label
 _atom_site_symmetry_multiplicity
 _atom_site_fract_x
 _atom_site_fract_y
 _atom_site_fract_z
 _atom_site_occupancy
  Y  Y0  1  0.695948  0.261673  0.957382  1
  Ho  Ho1  1  0.300918  0.738760  0.039805  1
  Ho  Ho2  1  0.697713  0.738482  0.436348  1
  Ho  Ho3  1  0.302132  0.261054  0.562902  1
  Ho  Ho4  1  0.811763  0.138041  0.326816  1
  Er  Er5  1  0.811876  0.485596  0.672405  1
  Er  Er6  1  0.186990  0.860343  0.672212  1
  Er  Er7  1  0.188295  0.514534  0.326809  1
  Er  Er8  1  0.601091  0.780372  0.819891  1
  Er  Er9  1  0.960801  0.780811  0.180025  1
  Er  Er10  1  0.039896  0.219112  0.820637  1
  Er  Er11  1  0.398955  0.219580  0.180136  1
  Ga  Ga12  1  0.497773  0.501576  0.999312  1
  Ga  Ga13  1  0.498939  0.999554  0.499069  1
  Co  Co14  1  0.840709  0.501580  0.341658  1
  Co  Co15  1  0.163955  0.500209  0.663641  1
  Co  Co16  1  0.003803  0.114499  0.118107  1
  Co  Co17  1  0.998440  0.884225  0.882847  1
