# generated using pymatgen
data_Dy3Y(MgRh)4
_symmetry_space_group_name_H-M   'P 1'
_cell_length_a   4.13070400
_cell_length_b   7.11030444
_cell_length_c   8.51987414
_cell_angle_alpha   89.94934841
_cell_angle_beta   90.00000000
_cell_angle_gamma   90.00000000
_symmetry_Int_Tables_number   1
_chemical_formula_structural   Dy3Y(MgRh)4
_chemical_formula_sum   'Dy3 Y1 Mg4 Rh4'
_cell_volume   250.23340233
_cell_formula_units_Z   1
loop_
 _symmetry_equiv_pos_site_id
 _symmetry_equiv_pos_as_xyz
  1  'x, y, z'
loop_
 _atom_site_type_symbol
 _atom_site_label
 _atom_site_symmetry_multiplicity
 _atom_site_fract_x
 _atom_site_fract_y
 _atom_site_fract_z
 _atom_site_occupancy
  Dy  Dy0  1  0.750000  0.462154  0.822974  1
  Dy  Dy1  1  0.250000  0.038194  0.323599  1
  Dy  Dy2  1  0.750000  0.962421  0.676882  1
  Y  Y3  1  0.250000  0.537199  0.176825  1
  Mg  Mg4  1  0.250000  0.135001  0.940481  1
  Mg  Mg5  1  0.750000  0.863996  0.059193  1
  Mg  Mg6  1  0.250000  0.636093  0.559276  1
  Mg  Mg7  1  0.750000  0.364858  0.440606  1
  Rh  Rh8  1  0.750000  0.750656  0.373003  1
  Rh  Rh9  1  0.250000  0.252083  0.628519  1
  Rh  Rh10  1  0.750000  0.245750  0.128435  1
  Rh  Rh11  1  0.250000  0.751593  0.870208  1
