# generated using pymatgen
data_Y4Al24CuPd8
_symmetry_space_group_name_H-M   'P 1'
_cell_length_a   7.55549779
_cell_length_b   7.57564812
_cell_length_c   13.14711203
_cell_angle_alpha   84.59532796
_cell_angle_beta   79.02308162
_cell_angle_gamma   59.91641307
_symmetry_Int_Tables_number   1
_chemical_formula_structural   Y4Al24CuPd8
_chemical_formula_sum   'Y4 Al24 Cu1 Pd8'
_cell_volume   639.23056357
_cell_formula_units_Z   1
loop_
 _symmetry_equiv_pos_site_id
 _symmetry_equiv_pos_as_xyz
  1  'x, y, z'
loop_
 _atom_site_type_symbol
 _atom_site_label
 _atom_site_symmetry_multiplicity
 _atom_site_fract_x
 _atom_site_fract_y
 _atom_site_fract_z
 _atom_site_occupancy
  Y  Y0  1  0.392532  0.169166  0.807800  1
  Y  Y1  1  0.606515  0.831693  0.191833  1
  Y  Y2  1  0.734545  0.498320  0.807606  1
  Y  Y3  1  0.266783  0.501499  0.191893  1
  Al  Al4  1  0.684280  0.833357  0.944513  1
  Al  Al5  1  0.315809  0.166121  0.055422  1
  Al  Al6  1  0.145342  0.834865  0.562165  1
  Al  Al7  1  0.854969  0.166629  0.436513  1
  Al  Al8  1  0.479373  0.167695  0.560053  1
  Al  Al9  1  0.520450  0.833594  0.439791  1
  Al  Al10  1  0.217748  0.165345  0.329284  1
  Al  Al11  1  0.785138  0.831910  0.670984  1
  Al  Al12  1  0.433328  0.506981  0.671315  1
  Al  Al13  1  0.563622  0.493395  0.328621  1
  Al  Al14  1  0.109232  0.162759  0.669639  1
  Al  Al15  1  0.890641  0.840256  0.330200  1
  Al  Al16  1  0.353055  0.499046  0.944283  1
  Al  Al17  1  0.647340  0.500484  0.055515  1
  Al  Al18  1  0.015058  0.167409  0.954728  1
  Al  Al19  1  0.984619  0.832055  0.045925  1
  Al  Al20  1  0.186367  0.500616  0.442061  1
  Al  Al21  1  0.813694  0.500149  0.559903  1
  Al  Al22  1  0.733363  0.163944  0.184184  1
  Al  Al23  1  0.266019  0.835693  0.816050  1
  Al  Al24  1  0.062145  0.628641  0.813122  1
  Al  Al25  1  0.938700  0.369570  0.185342  1
  Al  Al26  1  0.855130  0.041361  0.815744  1
  Al  Al27  1  0.144792  0.957698  0.184162  1
  Cu  Cu28  1  0.119309  0.491878  0.639251  1
  Pd  Pd29  1  0.880246  0.507950  0.362775  1
  Pd  Pd30  1  0.657103  0.171315  0.999603  1
  Pd  Pd31  1  0.343228  0.828042  0.999671  1
  Pd  Pd32  1  0.536694  0.167794  0.362890  1
  Pd  Pd33  1  0.462208  0.833284  0.637748  1
  Pd  Pd34  1  0.778699  0.175295  0.637087  1
  Pd  Pd35  1  0.221507  0.824340  0.362965  1
  Pd  Pd36  1  0.000412  0.499849  0.999358  1
