# generated using pymatgen
data_Dy6LuRh3
_symmetry_space_group_name_H-M   'P 1'
_cell_length_a   9.78683800
_cell_length_b   9.78683821
_cell_length_c   6.14884300
_cell_angle_alpha   90.00000000
_cell_angle_beta   90.00000000
_cell_angle_gamma   120.00000604
_symmetry_Int_Tables_number   1
_chemical_formula_structural   Dy6LuRh3
_chemical_formula_sum   'Dy12 Lu2 Rh6'
_cell_volume   510.04538006
_cell_formula_units_Z   2
loop_
 _symmetry_equiv_pos_site_id
 _symmetry_equiv_pos_as_xyz
  1  'x, y, z'
loop_
 _atom_site_type_symbol
 _atom_site_label
 _atom_site_symmetry_multiplicity
 _atom_site_fract_x
 _atom_site_fract_y
 _atom_site_fract_z
 _atom_site_occupancy
  Dy  Dy0  1  0.876049  0.752098  0.741352  1
  Dy  Dy1  1  0.247902  0.123951  0.741352  1
  Dy  Dy2  1  0.876049  0.123951  0.741352  1
  Dy  Dy3  1  0.123951  0.247902  0.241352  1
  Dy  Dy4  1  0.752098  0.876049  0.241352  1
  Dy  Dy5  1  0.123951  0.876049  0.241352  1
  Dy  Dy6  1  0.458970  0.917942  0.547101  1
  Dy  Dy7  1  0.082058  0.541030  0.547101  1
  Dy  Dy8  1  0.458970  0.541030  0.547101  1
  Dy  Dy9  1  0.541030  0.082058  0.047101  1
  Dy  Dy10  1  0.917942  0.458970  0.047101  1
  Dy  Dy11  1  0.541030  0.458970  0.047101  1
  Lu  Lu12  1  0.666667  0.333333  0.533360  1
  Lu  Lu13  1  0.333333  0.666667  0.033360  1
  Rh  Rh14  1  0.190864  0.381726  0.814000  1
  Rh  Rh15  1  0.618274  0.809136  0.814000  1
  Rh  Rh16  1  0.190864  0.809136  0.814000  1
  Rh  Rh17  1  0.809136  0.618274  0.314000  1
  Rh  Rh18  1  0.381726  0.190864  0.314000  1
  Rh  Rh19  1  0.809136  0.190864  0.314000  1
