# generated using pymatgen
data_Tb12AlInCo4
_symmetry_space_group_name_H-M   'P 1'
_cell_length_a   8.36290643
_cell_length_b   8.36290583
_cell_length_c   8.36290626
_cell_angle_alpha   112.15704686
_cell_angle_beta   109.70394435
_cell_angle_gamma   106.60030372
_symmetry_Int_Tables_number   1
_chemical_formula_structural   Tb12AlInCo4
_chemical_formula_sum   'Tb12 Al1 In1 Co4'
_cell_volume   449.18603518
_cell_formula_units_Z   1
loop_
 _symmetry_equiv_pos_site_id
 _symmetry_equiv_pos_as_xyz
  1  'x, y, z'
loop_
 _atom_site_type_symbol
 _atom_site_label
 _atom_site_symmetry_multiplicity
 _atom_site_fract_x
 _atom_site_fract_y
 _atom_site_fract_z
 _atom_site_occupancy
  Tb  Tb0  1  0.434133  0.233524  0.200609  1
  Tb  Tb1  1  0.565867  0.766476  0.799391  1
  Tb  Tb2  1  0.032916  0.233524  0.799391  1
  Tb  Tb3  1  0.967084  0.766476  0.200609  1
  Tb  Tb4  1  0.181305  0.284286  0.465591  1
  Tb  Tb5  1  0.818695  0.715714  0.534409  1
  Tb  Tb6  1  0.181305  0.715714  0.897019  1
  Tb  Tb7  1  0.818695  0.284286  0.102981  1
  Tb  Tb8  1  0.324124  0.637000  0.312877  1
  Tb  Tb9  1  0.675876  0.363000  0.687123  1
  Tb  Tb10  1  0.324124  0.011248  0.687123  1
  Tb  Tb11  1  0.675876  0.988752  0.312877  1
  Al  Al12  1  0.000000  0.000000  0.000000  1
  In  In13  1  0.500000  0.500000  0.000000  1
  Co  Co14  1  0.330544  0.000000  0.330544  1
  Co  Co15  1  0.669456  0.000000  0.669456  1
  Co  Co16  1  0.113643  0.613643  0.500000  1
  Co  Co17  1  0.886357  0.386357  0.500000  1
