# generated using pymatgen
data_La4DyInSn2
_symmetry_space_group_name_H-M   'P 1'
_cell_length_a   9.42126776
_cell_length_b   9.42126654
_cell_length_c   9.42126700
_cell_angle_alpha   96.46111768
_cell_angle_beta   96.46112296
_cell_angle_gamma   140.79976682
_symmetry_Int_Tables_number   1
_chemical_formula_structural   La4DyInSn2
_chemical_formula_sum   'La8 Dy2 In2 Sn4'
_cell_volume   497.90265241
_cell_formula_units_Z   2
loop_
 _symmetry_equiv_pos_site_id
 _symmetry_equiv_pos_as_xyz
  1  'x, y, z'
loop_
 _atom_site_type_symbol
 _atom_site_label
 _atom_site_symmetry_multiplicity
 _atom_site_fract_x
 _atom_site_fract_y
 _atom_site_fract_z
 _atom_site_occupancy
  La  La0  1  0.910627  0.224277  0.134910  1
  La  La1  1  0.224250  0.089311  0.313591  1
  La  La2  1  0.775750  0.910689  0.686409  1
  La  La3  1  0.089373  0.775723  0.865090  1
  La  La4  1  0.724279  0.410689  0.134939  1
  La  La5  1  0.275721  0.589311  0.865061  1
  La  La6  1  0.589367  0.724277  0.313651  1
  La  La7  1  0.410633  0.275723  0.686349  1
  Dy  Dy8  1  0.749997  0.250000  0.499997  1
  Dy  Dy9  1  0.250003  0.750000  0.500003  1
  In  In10  1  0.749967  0.750000  0.999967  1
  In  In11  1  0.250033  0.250000  0.000033  1
  Sn  Sn12  1  0.845744  0.654228  0.500010  1
  Sn  Sn13  1  0.654219  0.154228  0.808486  1
  Sn  Sn14  1  0.345781  0.845772  0.191514  1
  Sn  Sn15  1  0.154256  0.345772  0.499990  1
