# generated using pymatgen
data_Pr5Nd(CBr5)2
_symmetry_space_group_name_H-M   'P 1'
_cell_length_a   7.70029540
_cell_length_b   9.27180743
_cell_length_c   9.38156516
_cell_angle_alpha   107.68458130
_cell_angle_beta   97.03476669
_cell_angle_gamma   105.15314909
_symmetry_Int_Tables_number   1
_chemical_formula_structural   Pr5Nd(CBr5)2
_chemical_formula_sum   'Pr5 Nd1 C2 Br10'
_cell_volume   600.93694278
_cell_formula_units_Z   1
loop_
 _symmetry_equiv_pos_site_id
 _symmetry_equiv_pos_as_xyz
  1  'x, y, z'
loop_
 _atom_site_type_symbol
 _atom_site_label
 _atom_site_symmetry_multiplicity
 _atom_site_fract_x
 _atom_site_fract_y
 _atom_site_fract_z
 _atom_site_occupancy
  Pr  Pr0  1  0.886415  0.955461  0.230111  1
  Pr  Pr1  1  0.114215  0.045135  0.770252  1
  Pr  Pr2  1  0.030411  0.721890  0.917135  1
  Pr  Pr3  1  0.970500  0.278400  0.083419  1
  Pr  Pr4  1  0.613225  0.852535  0.802493  1
  Nd  Nd5  1  0.385182  0.146309  0.196367  1
  C  C6  1  0.909700  0.967884  0.955650  1
  C  C7  1  0.090996  0.032280  0.044595  1
  Br  Br8  1  0.753081  0.915872  0.539662  1
  Br  Br9  1  0.248503  0.085419  0.459275  1
  Br  Br10  1  0.457668  0.820264  0.085230  1
  Br  Br11  1  0.541545  0.181046  0.916789  1
  Br  Br12  1  0.811140  0.263465  0.353027  1
  Br  Br13  1  0.184923  0.735654  0.645159  1
  Br  Br14  1  0.910404  0.628800  0.172588  1
  Br  Br15  1  0.090329  0.371703  0.827924  1
  Br  Br16  1  0.656701  0.540047  0.724291  1
  Br  Br17  1  0.345062  0.457836  0.276032  1
