# generated using pymatgen
data_Dy2Tm2SiBr6
_symmetry_space_group_name_H-M   'P 1'
_cell_length_a   4.02885000
_cell_length_b   13.15429600
_cell_length_c   13.90889600
_cell_angle_alpha   90.00000000
_cell_angle_beta   90.00000000
_cell_angle_gamma   90.00000000
_symmetry_Int_Tables_number   1
_chemical_formula_structural   Dy2Tm2SiBr6
_chemical_formula_sum   'Dy4 Tm4 Si2 Br12'
_cell_volume   737.12538612
_cell_formula_units_Z   2
loop_
 _symmetry_equiv_pos_site_id
 _symmetry_equiv_pos_as_xyz
  1  'x, y, z'
loop_
 _atom_site_type_symbol
 _atom_site_label
 _atom_site_symmetry_multiplicity
 _atom_site_fract_x
 _atom_site_fract_y
 _atom_site_fract_z
 _atom_site_occupancy
  Dy  Dy0  1  0.000000  0.118707  0.578963  1
  Dy  Dy1  1  0.000000  0.881293  0.421037  1
  Dy  Dy2  1  0.000000  0.618707  0.921037  1
  Dy  Dy3  1  0.000000  0.381293  0.078963  1
  Tm  Tm4  1  0.500000  0.117473  0.341879  1
  Tm  Tm5  1  0.500000  0.882527  0.658121  1
  Tm  Tm6  1  0.500000  0.617473  0.158121  1
  Tm  Tm7  1  0.500000  0.382527  0.841879  1
  Si  Si8  1  0.500000  0.000000  0.500000  1
  Si  Si9  1  0.500000  0.500000  0.000000  1
  Br  Br10  1  0.500000  0.241619  0.164894  1
  Br  Br11  1  0.500000  0.758381  0.835106  1
  Br  Br12  1  0.500000  0.741619  0.335106  1
  Br  Br13  1  0.500000  0.258381  0.664894  1
  Br  Br14  1  0.000000  0.254537  0.408818  1
  Br  Br15  1  0.000000  0.745463  0.591182  1
  Br  Br16  1  0.000000  0.754537  0.091182  1
  Br  Br17  1  0.000000  0.245463  0.908818  1
  Br  Br18  1  0.000000  0.004656  0.242661  1
  Br  Br19  1  0.000000  0.995344  0.757339  1
  Br  Br20  1  0.000000  0.504656  0.257339  1
  Br  Br21  1  0.000000  0.495344  0.742661  1
