# generated using pymatgen
data_CaEu7Pd4
_symmetry_space_group_name_H-M   'P 1'
_cell_length_a   4.99254500
_cell_length_b   7.27868017
_cell_length_c   9.55422000
_cell_angle_alpha   89.98757054
_cell_angle_beta   90.00000000
_cell_angle_gamma   90.00000000
_symmetry_Int_Tables_number   1
_chemical_formula_structural   CaEu7Pd4
_chemical_formula_sum   'Ca1 Eu7 Pd4'
_cell_volume   347.19211372
_cell_formula_units_Z   1
loop_
 _symmetry_equiv_pos_site_id
 _symmetry_equiv_pos_as_xyz
  1  'x, y, z'
loop_
 _atom_site_type_symbol
 _atom_site_label
 _atom_site_symmetry_multiplicity
 _atom_site_fract_x
 _atom_site_fract_y
 _atom_site_fract_z
 _atom_site_occupancy
  Ca  Ca0  1  0.750000  0.352925  0.925955  1
  Eu  Eu1  1  0.250000  0.024277  0.828699  1
  Eu  Eu2  1  0.250000  0.525389  0.673398  1
  Eu  Eu3  1  0.750000  0.978013  0.168850  1
  Eu  Eu4  1  0.750000  0.476771  0.329468  1
  Eu  Eu5  1  0.250000  0.148139  0.426536  1
  Eu  Eu6  1  0.250000  0.643078  0.075955  1
  Eu  Eu7  1  0.750000  0.854195  0.573598  1
  Pd  Pd8  1  0.250000  0.740050  0.392307  1
  Pd  Pd9  1  0.250000  0.232355  0.107400  1
  Pd  Pd10  1  0.750000  0.267471  0.610189  1
  Pd  Pd11  1  0.750000  0.757337  0.887647  1
