# generated using pymatgen
data_Tm16MgZn3Co4
_symmetry_space_group_name_H-M   'P 1'
_cell_length_a   9.31198080
_cell_length_b   9.27245430
_cell_length_c   9.27245400
_cell_angle_alpha   60.00000108
_cell_angle_beta   60.14031533
_cell_angle_gamma   60.14030967
_symmetry_Int_Tables_number   1
_chemical_formula_structural   Tm16MgZn3Co4
_chemical_formula_sum   'Tm16 Mg1 Zn3 Co4'
_cell_volume   567.32808067
_cell_formula_units_Z   1
loop_
 _symmetry_equiv_pos_site_id
 _symmetry_equiv_pos_as_xyz
  1  'x, y, z'
loop_
 _atom_site_type_symbol
 _atom_site_label
 _atom_site_symmetry_multiplicity
 _atom_site_fract_x
 _atom_site_fract_y
 _atom_site_fract_z
 _atom_site_occupancy
  Tm  Tm0  1  0.599429  0.596234  0.596234  1
  Tm  Tm1  1  0.599429  0.596234  0.208103  1
  Tm  Tm2  1  0.599429  0.208103  0.596234  1
  Tm  Tm3  1  0.195352  0.601550  0.601550  1
  Tm  Tm4  1  0.058467  0.440830  0.440830  1
  Tm  Tm5  1  0.437484  0.062456  0.062456  1
  Tm  Tm6  1  0.437484  0.062456  0.437603  1
  Tm  Tm7  1  0.058467  0.440830  0.059872  1
  Tm  Tm8  1  0.437484  0.437603  0.062456  1
  Tm  Tm9  1  0.058467  0.059872  0.440830  1
  Tm  Tm10  1  0.183335  0.812379  0.812379  1
  Tm  Tm11  1  0.811576  0.187206  0.187206  1
  Tm  Tm12  1  0.811576  0.187206  0.814011  1
  Tm  Tm13  1  0.183335  0.812379  0.191907  1
  Tm  Tm14  1  0.811576  0.814011  0.187206  1
  Tm  Tm15  1  0.183335  0.191907  0.812379  1
  Mg  Mg16  1  0.537966  0.820678  0.820678  1
  Zn  Zn17  1  0.835081  0.828628  0.828628  1
  Zn  Zn18  1  0.835081  0.828628  0.507663  1
  Zn  Zn19  1  0.835081  0.507663  0.828628  1
  Co  Co20  1  0.388235  0.393600  0.393600  1
  Co  Co21  1  0.388235  0.393600  0.824567  1
  Co  Co22  1  0.388235  0.824567  0.393600  1
  Co  Co23  1  0.825859  0.391381  0.391381  1
