# generated using pymatgen
data_MnTc3Sn8
_symmetry_space_group_name_H-M   'P 1'
_cell_length_a   5.46011400
_cell_length_b   5.45787584
_cell_length_c   9.49469200
_cell_angle_alpha   90.00000000
_cell_angle_beta   90.00000000
_cell_angle_gamma   120.01354201
_symmetry_Int_Tables_number   1
_chemical_formula_structural   MnTc3Sn8
_chemical_formula_sum   'Mn1 Tc3 Sn8'
_cell_volume   245.00649377
_cell_formula_units_Z   1
loop_
 _symmetry_equiv_pos_site_id
 _symmetry_equiv_pos_as_xyz
  1  'x, y, z'
loop_
 _atom_site_type_symbol
 _atom_site_label
 _atom_site_symmetry_multiplicity
 _atom_site_fract_x
 _atom_site_fract_y
 _atom_site_fract_z
 _atom_site_occupancy
  Mn  Mn0  1  0.750000  0.000000  0.000000  1
  Tc  Tc1  1  0.250000  0.000000  0.500000  1
  Tc  Tc2  1  0.250000  0.000000  0.000000  1
  Tc  Tc3  1  0.750000  0.000000  0.500000  1
  Sn  Sn4  1  0.250000  0.500000  0.405164  1
  Sn  Sn5  1  0.750000  0.500000  0.911532  1
  Sn  Sn6  1  0.250000  0.500000  0.088468  1
  Sn  Sn7  1  0.750000  0.500000  0.594836  1
  Sn  Sn8  1  0.910223  0.817513  0.249440  1
  Sn  Sn9  1  0.407291  0.817513  0.750560  1
  Sn  Sn10  1  0.589777  0.182487  0.249440  1
  Sn  Sn11  1  0.092709  0.182487  0.750560  1
