# generated using pymatgen
data_Er5Tm5(InBi2)2
_symmetry_space_group_name_H-M   'P 1'
_cell_length_a   6.45245501
_cell_length_b   9.01928811
_cell_length_c   8.98767676
_cell_angle_alpha   119.93778040
_cell_angle_beta   89.99508512
_cell_angle_gamma   90.00281634
_symmetry_Int_Tables_number   1
_chemical_formula_structural   Er5Tm5(InBi2)2
_chemical_formula_sum   'Er5 Tm5 In2 Bi4'
_cell_volume   453.25986640
_cell_formula_units_Z   1
loop_
 _symmetry_equiv_pos_site_id
 _symmetry_equiv_pos_as_xyz
  1  'x, y, z'
loop_
 _atom_site_type_symbol
 _atom_site_label
 _atom_site_symmetry_multiplicity
 _atom_site_fract_x
 _atom_site_fract_y
 _atom_site_fract_z
 _atom_site_occupancy
  Er  Er0  1  0.749984  0.236069  0.999243  1
  Er  Er1  1  0.749992  0.761799  0.759235  1
  Er  Er2  1  0.750014  0.001178  0.236412  1
  Er  Er3  1  0.250030  0.765686  0.000122  1
  Er  Er4  1  0.250024  0.234122  0.243858  1
  Tm  Tm5  1  0.496893  0.332850  0.661042  1
  Tm  Tm6  1  0.497061  0.673325  0.340570  1
  Tm  Tm7  1  0.002912  0.673529  0.340613  1
  Tm  Tm8  1  0.003059  0.332646  0.660924  1
  Tm  Tm9  1  0.249969  0.990135  0.758506  1
  In  In10  1  0.249847  0.604715  0.605846  1
  In  In11  1  0.250342  0.999113  0.396005  1
  Bi  Bi12  1  0.749981  0.606587  0.000582  1
  Bi  Bi13  1  0.750056  0.394227  0.390505  1
  Bi  Bi14  1  0.749897  0.004883  0.606785  1
  Bi  Bi15  1  0.249938  0.389137  0.999753  1
