# generated using pymatgen
data_KScB14
_symmetry_space_group_name_H-M   'P 1'
_cell_length_a   7.50239237
_cell_length_b   7.50239341
_cell_length_c   7.50239369
_cell_angle_alpha   132.81053888
_cell_angle_beta   112.37323383
_cell_angle_gamma   86.54786227
_symmetry_Int_Tables_number   1
_chemical_formula_structural   KScB14
_chemical_formula_sum   'K2 Sc2 B28'
_cell_volume   273.93394183
_cell_formula_units_Z   2
loop_
 _symmetry_equiv_pos_site_id
 _symmetry_equiv_pos_as_xyz
  1  'x, y, z'
loop_
 _atom_site_type_symbol
 _atom_site_label
 _atom_site_symmetry_multiplicity
 _atom_site_fract_x
 _atom_site_fract_y
 _atom_site_fract_z
 _atom_site_occupancy
  K  K0  1  0.098755  0.750000  0.348755  1
  K  K1  1  0.901245  0.250000  0.651245  1
  Sc  Sc2  1  0.500000  0.500000  0.500000  1
  Sc  Sc3  1  0.500000  0.000000  0.000000  1
  B  B4  1  0.895600  0.215756  0.995801  1
  B  B5  1  0.469510  0.179667  0.799314  1
  B  B6  1  0.880353  0.170197  0.200686  1
  B  B7  1  0.719957  0.399799  0.004199  1
  B  B8  1  0.587331  0.419452  0.167879  1
  B  B9  1  0.749208  0.370280  0.378927  1
  B  B10  1  0.310565  0.335880  0.974685  1
  B  B11  1  0.719957  0.715756  0.320157  1
  B  B12  1  0.880353  0.679667  0.710156  1
  B  B13  1  0.469510  0.670197  0.289844  1
  B  B14  1  0.104400  0.100201  0.320157  1
  B  B15  1  0.895600  0.899799  0.679843  1
  B  B16  1  0.530490  0.329803  0.710156  1
  B  B17  1  0.119647  0.320333  0.289844  1
  B  B18  1  0.280043  0.284244  0.679843  1
  B  B19  1  0.751572  0.919452  0.832121  1
  B  B20  1  0.491354  0.870280  0.621073  1
  B  B21  1  0.861194  0.835880  0.025315  1
  B  B22  1  0.689435  0.664120  0.025315  1
  B  B23  1  0.250792  0.629720  0.621073  1
  B  B24  1  0.412669  0.580548  0.832121  1
  B  B25  1  0.280043  0.600201  0.995801  1
  B  B26  1  0.119647  0.829803  0.799314  1
  B  B27  1  0.530490  0.820333  0.200686  1
  B  B28  1  0.104400  0.784244  0.004199  1
  B  B29  1  0.138806  0.164120  0.974685  1
  B  B30  1  0.508646  0.129720  0.378927  1
  B  B31  1  0.248428  0.080548  0.167879  1
