# generated using pymatgen
data_Y20Cd6FeCo
_symmetry_space_group_name_H-M   'P 1'
_cell_length_a   9.64891700
_cell_length_b   9.64891827
_cell_length_c   9.79120100
_cell_angle_alpha   90.00000000
_cell_angle_beta   90.00000000
_cell_angle_gamma   119.99999221
_symmetry_Int_Tables_number   1
_chemical_formula_structural   Y20Cd6FeCo
_chemical_formula_sum   'Y20 Cd6 Fe1 Co1'
_cell_volume   789.44854834
_cell_formula_units_Z   1
loop_
 _symmetry_equiv_pos_site_id
 _symmetry_equiv_pos_as_xyz
  1  'x, y, z'
loop_
 _atom_site_type_symbol
 _atom_site_label
 _atom_site_symmetry_multiplicity
 _atom_site_fract_x
 _atom_site_fract_y
 _atom_site_fract_z
 _atom_site_occupancy
  Y  Y0  1  0.000000  0.000000  0.500038  1
  Y  Y1  1  0.000000  0.000000  0.999962  1
  Y  Y2  1  0.542599  0.457401  0.250000  1
  Y  Y3  1  0.542599  0.085196  0.250000  1
  Y  Y4  1  0.914804  0.457401  0.250000  1
  Y  Y5  1  0.457968  0.542032  0.750000  1
  Y  Y6  1  0.457968  0.915935  0.750000  1
  Y  Y7  1  0.084065  0.542032  0.750000  1
  Y  Y8  1  0.211830  0.788170  0.435934  1
  Y  Y9  1  0.211830  0.423660  0.435934  1
  Y  Y10  1  0.576340  0.788170  0.435934  1
  Y  Y11  1  0.788193  0.211807  0.564217  1
  Y  Y12  1  0.788193  0.576386  0.564217  1
  Y  Y13  1  0.423614  0.211807  0.564217  1
  Y  Y14  1  0.788193  0.211807  0.935783  1
  Y  Y15  1  0.788193  0.576386  0.935783  1
  Y  Y16  1  0.423614  0.211807  0.935783  1
  Y  Y17  1  0.211830  0.788170  0.064066  1
  Y  Y18  1  0.211830  0.423660  0.064066  1
  Y  Y19  1  0.576340  0.788170  0.064066  1
  Cd  Cd20  1  0.884760  0.115240  0.250000  1
  Cd  Cd21  1  0.884760  0.769521  0.250000  1
  Cd  Cd22  1  0.230479  0.115240  0.250000  1
  Cd  Cd23  1  0.115276  0.884724  0.750000  1
  Cd  Cd24  1  0.115276  0.230551  0.750000  1
  Cd  Cd25  1  0.769449  0.884724  0.750000  1
  Fe  Fe26  1  0.666667  0.333333  0.750000  1
  Co  Co27  1  0.333333  0.666667  0.250000  1
