# generated using pymatgen
data_YEr4Mn2O12
_symmetry_space_group_name_H-M   'P 1'
_cell_length_a   6.77681250
_cell_length_b   6.77681328
_cell_length_c   7.18663701
_cell_angle_alpha   74.54742645
_cell_angle_beta   74.54742702
_cell_angle_gamma   50.07007068
_symmetry_Int_Tables_number   1
_chemical_formula_structural   YEr4Mn2O12
_chemical_formula_sum   'Y1 Er4 Mn2 O12'
_cell_volume   241.89989331
_cell_formula_units_Z   1
loop_
 _symmetry_equiv_pos_site_id
 _symmetry_equiv_pos_as_xyz
  1  'x, y, z'
loop_
 _atom_site_type_symbol
 _atom_site_label
 _atom_site_symmetry_multiplicity
 _atom_site_fract_x
 _atom_site_fract_y
 _atom_site_fract_z
 _atom_site_occupancy
  Y  Y0  1  0.000000  0.000000  0.500000  1
  Er  Er1  1  0.304682  0.304682  0.356763  1
  Er  Er2  1  0.695318  0.695318  0.643237  1
  Er  Er3  1  0.307568  0.307568  0.835374  1
  Er  Er4  1  0.692432  0.692432  0.164626  1
  Mn  Mn5  1  0.753680  0.246320  0.000000  1
  Mn  Mn6  1  0.246320  0.753680  0.000000  1
  O  O7  1  0.901854  0.423316  0.917752  1
  O  O8  1  0.423316  0.901854  0.917752  1
  O  O9  1  0.098146  0.576684  0.082248  1
  O  O10  1  0.576684  0.098146  0.082248  1
  O  O11  1  0.097561  0.595606  0.574779  1
  O  O12  1  0.595606  0.097561  0.574779  1
  O  O13  1  0.902439  0.404394  0.425221  1
  O  O14  1  0.404394  0.902439  0.425221  1
  O  O15  1  0.999716  0.999716  0.821784  1
  O  O16  1  0.000284  0.000284  0.178216  1
  O  O17  1  0.499987  0.499987  0.817638  1
  O  O18  1  0.500013  0.500013  0.182362  1
