# generated using pymatgen
data_Y2Lu5Cd(Co3Sn11)2
_symmetry_space_group_name_H-M   'P 1'
_cell_length_a   9.62161786
_cell_length_b   9.62161935
_cell_length_c   9.96995701
_cell_angle_alpha   89.98977919
_cell_angle_beta   90.01021571
_cell_angle_gamma   119.98860710
_symmetry_Int_Tables_number   1
_chemical_formula_structural   Y2Lu5Cd(Co3Sn11)2
_chemical_formula_sum   'Y2 Lu5 Cd1 Co6 Sn22'
_cell_volume   799.41083462
_cell_formula_units_Z   1
loop_
 _symmetry_equiv_pos_site_id
 _symmetry_equiv_pos_as_xyz
  1  'x, y, z'
loop_
 _atom_site_type_symbol
 _atom_site_label
 _atom_site_symmetry_multiplicity
 _atom_site_fract_x
 _atom_site_fract_y
 _atom_site_fract_z
 _atom_site_occupancy
  Y  Y0  1  0.999341  0.000659  0.000830  1
  Y  Y1  1  0.521498  0.478502  0.692536  1
  Lu  Lu2  1  0.038974  0.519535  0.305987  1
  Lu  Lu3  1  0.480465  0.961026  0.305987  1
  Lu  Lu4  1  0.480872  0.519128  0.305763  1
  Lu  Lu5  1  0.961289  0.481339  0.693654  1
  Lu  Lu6  1  0.518661  0.038711  0.693654  1
  Cd  Cd7  1  0.999571  0.000429  0.499678  1
  Co  Co8  1  0.169313  0.830687  0.802299  1
  Co  Co9  1  0.663462  0.833285  0.802663  1
  Co  Co10  1  0.166715  0.336538  0.802663  1
  Co  Co11  1  0.831322  0.168678  0.198223  1
  Co  Co12  1  0.337374  0.168664  0.197570  1
  Co  Co13  1  0.831336  0.662626  0.197570  1
  Sn  Sn14  1  0.117641  0.882359  0.271967  1
  Sn  Sn15  1  0.764209  0.882068  0.272360  1
  Sn  Sn16  1  0.117932  0.235791  0.272360  1
  Sn  Sn17  1  0.881542  0.118458  0.728088  1
  Sn  Sn18  1  0.233289  0.115886  0.728326  1
  Sn  Sn19  1  0.884114  0.766711  0.728326  1
  Sn  Sn20  1  0.346421  0.999860  0.000061  1
  Sn  Sn21  1  0.653487  0.653504  0.999872  1
  Sn  Sn22  1  0.999748  0.346770  0.000324  1
  Sn  Sn23  1  0.346496  0.346513  0.999872  1
  Sn  Sn24  1  0.000140  0.653579  0.000061  1
  Sn  Sn25  1  0.653230  0.000252  0.000324  1
  Sn  Sn26  1  0.782992  0.563663  0.452790  1
  Sn  Sn27  1  0.781264  0.218736  0.453887  1
  Sn  Sn28  1  0.436337  0.217008  0.452790  1
  Sn  Sn29  1  0.217361  0.437213  0.545770  1
  Sn  Sn30  1  0.218291  0.781709  0.545642  1
  Sn  Sn31  1  0.562787  0.782639  0.545770  1
  Sn  Sn32  1  0.666541  0.333459  0.179554  1
  Sn  Sn33  1  0.333430  0.666570  0.820770  1
  Sn  Sn34  1  0.669090  0.330910  0.876640  1
  Sn  Sn35  1  0.333468  0.666532  0.125370  1
