# generated using pymatgen
data_Na3Cu2(CO3)4
_symmetry_space_group_name_H-M   'P 1'
_cell_length_a   5.67402100
_cell_length_b   6.96943997
_cell_length_c   8.16637799
_cell_angle_alpha   90.73502248
_cell_angle_beta   88.73336336
_cell_angle_gamma   115.85045106
_symmetry_Int_Tables_number   1
_chemical_formula_structural   Na3Cu2(CO3)4
_chemical_formula_sum   'Na3 Cu2 C4 O12'
_cell_volume   290.54985827
_cell_formula_units_Z   1
loop_
 _symmetry_equiv_pos_site_id
 _symmetry_equiv_pos_as_xyz
  1  'x, y, z'
loop_
 _atom_site_type_symbol
 _atom_site_label
 _atom_site_symmetry_multiplicity
 _atom_site_fract_x
 _atom_site_fract_y
 _atom_site_fract_z
 _atom_site_occupancy
  Na  Na0  1  0.304215  0.693398  0.062840  1
  Na  Na1  1  0.689559  0.304930  0.928182  1
  Na  Na2  1  0.788493  0.182907  0.447128  1
  Cu  Cu3  1  0.996244  0.995013  0.003258  1
  Cu  Cu4  1  0.498240  0.509024  0.500252  1
  C  C5  1  0.777627  0.909941  0.753891  1
  C  C6  1  0.258050  0.410036  0.748274  1
  C  C7  1  0.733757  0.584011  0.249777  1
  C  C8  1  0.239174  0.095974  0.246203  1
  O  O9  1  0.673771  0.943958  0.894431  1
  O  O10  1  0.670174  0.885786  0.619059  1
  O  O11  1  0.507862  0.593263  0.269941  1
  O  O12  1  0.006455  0.913259  0.779570  1
  O  O13  1  0.850108  0.605917  0.112413  1
  O  O14  1  0.821672  0.545469  0.386396  1
  O  O15  1  0.157136  0.428071  0.609846  1
  O  O16  1  0.142152  0.383845  0.885931  1
  O  O17  1  0.003832  0.087571  0.229803  1
  O  O18  1  0.498695  0.428796  0.729656  1
  O  O19  1  0.365358  0.138054  0.374407  1
  O  O20  1  0.326460  0.051020  0.103965  1
