# generated using pymatgen
data_YbDy2Y2(In2Pt)2
_symmetry_space_group_name_H-M   'P 1'
_cell_length_a   3.61151500
_cell_length_b   8.21129000
_cell_length_c   18.42288000
_cell_angle_alpha   90.00000000
_cell_angle_beta   90.00000000
_cell_angle_gamma   90.00000000
_symmetry_Int_Tables_number   1
_chemical_formula_structural   YbDy2Y2(In2Pt)2
_chemical_formula_sum   'Yb2 Dy4 Y4 In8 Pt4'
_cell_volume   546.33413579
_cell_formula_units_Z   2
loop_
 _symmetry_equiv_pos_site_id
 _symmetry_equiv_pos_as_xyz
  1  'x, y, z'
loop_
 _atom_site_type_symbol
 _atom_site_label
 _atom_site_symmetry_multiplicity
 _atom_site_fract_x
 _atom_site_fract_y
 _atom_site_fract_z
 _atom_site_occupancy
  Yb  Yb0  1  0.000000  0.000000  0.000000  1
  Yb  Yb1  1  0.000000  0.500000  0.500000  1
  Dy  Dy2  1  0.000000  0.243257  0.221096  1
  Dy  Dy3  1  0.000000  0.756743  0.778904  1
  Dy  Dy4  1  0.000000  0.256743  0.721096  1
  Dy  Dy5  1  0.000000  0.743257  0.278904  1
  Y  Y6  1  0.000000  0.120412  0.414672  1
  Y  Y7  1  0.000000  0.879588  0.585328  1
  Y  Y8  1  0.000000  0.379588  0.914672  1
  Y  Y9  1  0.000000  0.620412  0.085328  1
  In  In10  1  0.500000  0.426008  0.351143  1
  In  In11  1  0.500000  0.573992  0.648857  1
  In  In12  1  0.500000  0.073992  0.851143  1
  In  In13  1  0.500000  0.926008  0.148857  1
  In  In14  1  0.500000  0.292475  0.068083  1
  In  In15  1  0.500000  0.707525  0.931917  1
  In  In16  1  0.500000  0.207525  0.568083  1
  In  In17  1  0.500000  0.792475  0.431917  1
  Pt  Pt18  1  0.500000  0.021157  0.302358  1
  Pt  Pt19  1  0.500000  0.978843  0.697642  1
  Pt  Pt20  1  0.500000  0.478843  0.802358  1
  Pt  Pt21  1  0.500000  0.521157  0.197642  1
