# generated using pymatgen
data_TbEr11(TcIr)2
_symmetry_space_group_name_H-M   'P 1'
_cell_length_a   6.28838026
_cell_length_b   7.30431031
_cell_length_c   9.08408400
_cell_angle_alpha   90.00000000
_cell_angle_beta   90.00000000
_cell_angle_gamma   89.96681260
_symmetry_Int_Tables_number   1
_chemical_formula_structural   TbEr11(TcIr)2
_chemical_formula_sum   'Tb1 Er11 Tc2 Ir2'
_cell_volume   417.25262683
_cell_formula_units_Z   1
loop_
 _symmetry_equiv_pos_site_id
 _symmetry_equiv_pos_as_xyz
  1  'x, y, z'
loop_
 _atom_site_type_symbol
 _atom_site_label
 _atom_site_symmetry_multiplicity
 _atom_site_fract_x
 _atom_site_fract_y
 _atom_site_fract_z
 _atom_site_occupancy
  Tb  Tb0  1  0.873680  0.538481  0.250000  1
  Er  Er1  1  0.330347  0.676592  0.064842  1
  Er  Er2  1  0.170774  0.176276  0.434870  1
  Er  Er3  1  0.668108  0.323259  0.561299  1
  Er  Er4  1  0.831521  0.824229  0.938831  1
  Er  Er5  1  0.668108  0.323259  0.938701  1
  Er  Er6  1  0.831521  0.824229  0.561169  1
  Er  Er7  1  0.330347  0.676592  0.435158  1
  Er  Er8  1  0.170774  0.176276  0.065130  1
  Er  Er9  1  0.626311  0.038305  0.250000  1
  Er  Er10  1  0.133374  0.459939  0.750000  1
  Er  Er11  1  0.366603  0.960044  0.750000  1
  Tc  Tc12  1  0.035880  0.886379  0.250000  1
  Tc  Tc13  1  0.462922  0.385671  0.250000  1
  Ir  Ir14  1  0.956468  0.115153  0.750000  1
  Ir  Ir15  1  0.543262  0.615315  0.750000  1
