# generated using pymatgen
data_Ti3V5(GaSn2)4
_symmetry_space_group_name_H-M   'P 1'
_cell_length_a   9.94994243
_cell_length_b   5.68947717
_cell_length_c   6.84811723
_cell_angle_alpha   89.99999790
_cell_angle_beta   89.97180370
_cell_angle_gamma   106.61294555
_symmetry_Int_Tables_number   1
_chemical_formula_structural   Ti3V5(GaSn2)4
_chemical_formula_sum   'Ti3 V5 Ga4 Sn8'
_cell_volume   371.48947167
_cell_formula_units_Z   1
loop_
 _symmetry_equiv_pos_site_id
 _symmetry_equiv_pos_as_xyz
  1  'x, y, z'
loop_
 _atom_site_type_symbol
 _atom_site_label
 _atom_site_symmetry_multiplicity
 _atom_site_fract_x
 _atom_site_fract_y
 _atom_site_fract_z
 _atom_site_occupancy
  Ti  Ti0  1  0.848646  0.924322  0.030795  1
  Ti  Ti1  1  0.317346  0.408687  0.250438  1
  Ti  Ti2  1  0.317346  0.908659  0.250438  1
  V  V3  1  0.848930  0.424466  0.468757  1
  V  V4  1  0.150143  0.575071  0.528838  1
  V  V5  1  0.683749  0.095441  0.749410  1
  V  V6  1  0.683749  0.588309  0.749410  1
  V  V7  1  0.149329  0.074664  0.970955  1
  Ga  Ga8  1  0.036259  0.268976  0.252800  1
  Ga  Ga9  1  0.036259  0.767283  0.252800  1
  Ga  Ga10  1  0.964939  0.234367  0.746521  1
  Ga  Ga11  1  0.964939  0.730573  0.746521  1
  Sn  Sn12  1  0.778295  0.389147  0.073537  1
  Sn  Sn13  1  0.555621  0.777810  0.070265  1
  Sn  Sn14  1  0.557481  0.278740  0.429276  1
  Sn  Sn15  1  0.777234  0.888616  0.428912  1
  Sn  Sn16  1  0.218984  0.109493  0.580741  1
  Sn  Sn17  1  0.446847  0.723422  0.583057  1
  Sn  Sn18  1  0.446036  0.223019  0.916585  1
  Sn  Sn19  1  0.217864  0.608932  0.919945  1
