# generated using pymatgen
data_LaNdB4Ir3Os
_symmetry_space_group_name_H-M   'P 1'
_cell_length_a   7.06064216
_cell_length_b   6.13555449
_cell_length_c   5.63550124
_cell_angle_alpha   73.57733409
_cell_angle_beta   56.46279835
_cell_angle_gamma   49.58810218
_symmetry_Int_Tables_number   1
_chemical_formula_structural   LaNdB4Ir3Os
_chemical_formula_sum   'La1 Nd1 B4 Ir3 Os1'
_cell_volume   153.84216141
_cell_formula_units_Z   1
loop_
 _symmetry_equiv_pos_site_id
 _symmetry_equiv_pos_as_xyz
  1  'x, y, z'
loop_
 _atom_site_type_symbol
 _atom_site_label
 _atom_site_symmetry_multiplicity
 _atom_site_fract_x
 _atom_site_fract_y
 _atom_site_fract_z
 _atom_site_occupancy
  La  La0  1  0.501024  0.501024  0.498976  1
  Nd  Nd1  1  0.750438  0.750438  0.749562  1
  B  B2  1  0.161311  0.829074  0.189403  1
  B  B3  1  0.075699  0.430869  0.059704  1
  B  B4  1  0.829074  0.161311  0.820212  1
  B  B5  1  0.430869  0.075699  0.433727  1
  Ir  Ir6  1  0.131658  0.131658  0.868342  1
  Ir  Ir7  1  0.383016  0.383016  0.116984  1
  Ir  Ir8  1  0.120549  0.120549  0.379451  1
  Os  Os9  1  0.866362  0.866362  0.133638  1
