# generated using pymatgen
data_Dy4LuSn3Pb
_symmetry_space_group_name_H-M   'P 1'
_cell_length_a   8.04764900
_cell_length_b   8.13782500
_cell_length_c   15.48336300
_cell_angle_alpha   90.00000000
_cell_angle_beta   90.00000000
_cell_angle_gamma   90.00000000
_symmetry_Int_Tables_number   1
_chemical_formula_structural   Dy4LuSn3Pb
_chemical_formula_sum   'Dy16 Lu4 Sn12 Pb4'
_cell_volume   1014.01100486
_cell_formula_units_Z   4
loop_
 _symmetry_equiv_pos_site_id
 _symmetry_equiv_pos_as_xyz
  1  'x, y, z'
loop_
 _atom_site_type_symbol
 _atom_site_label
 _atom_site_symmetry_multiplicity
 _atom_site_fract_x
 _atom_site_fract_y
 _atom_site_fract_z
 _atom_site_occupancy
  Dy  Dy0  1  0.375388  0.840232  0.878584  1
  Dy  Dy1  1  0.875388  0.659768  0.621416  1
  Dy  Dy2  1  0.624612  0.159768  0.378584  1
  Dy  Dy3  1  0.124612  0.340232  0.121416  1
  Dy  Dy4  1  0.621529  0.158462  0.122502  1
  Dy  Dy5  1  0.121529  0.341538  0.377498  1
  Dy  Dy6  1  0.378471  0.841538  0.622502  1
  Dy  Dy7  1  0.878471  0.658462  0.877498  1
  Dy  Dy8  1  0.532377  0.324085  0.899089  1
  Dy  Dy9  1  0.032377  0.175915  0.600911  1
  Dy  Dy10  1  0.467623  0.675915  0.399089  1
  Dy  Dy11  1  0.967623  0.824085  0.100911  1
  Dy  Dy12  1  0.462991  0.677629  0.100478  1
  Dy  Dy13  1  0.962991  0.822371  0.399522  1
  Dy  Dy14  1  0.537009  0.322371  0.600478  1
  Dy  Dy15  1  0.037009  0.177629  0.899522  1
  Lu  Lu16  1  0.209020  0.504532  0.751151  1
  Lu  Lu17  1  0.709020  0.995468  0.748849  1
  Lu  Lu18  1  0.790980  0.495468  0.251151  1
  Lu  Lu19  1  0.290980  0.004532  0.248849  1
  Sn  Sn20  1  0.282730  0.032715  0.043931  1
  Sn  Sn21  1  0.782730  0.467285  0.456069  1
  Sn  Sn22  1  0.717270  0.967285  0.543931  1
  Sn  Sn23  1  0.217270  0.532715  0.956069  1
  Sn  Sn24  1  0.573818  0.622657  0.750003  1
  Sn  Sn25  1  0.073818  0.877343  0.749997  1
  Sn  Sn26  1  0.426182  0.377343  0.250003  1
  Sn  Sn27  1  0.926182  0.122657  0.249997  1
  Sn  Sn28  1  0.343523  0.151170  0.749868  1
  Sn  Sn29  1  0.843523  0.348830  0.750132  1
  Sn  Sn30  1  0.656477  0.848830  0.249868  1
  Sn  Sn31  1  0.156477  0.651170  0.250132  1
  Pb  Pb32  1  0.717429  0.966738  0.956598  1
  Pb  Pb33  1  0.217429  0.533262  0.543402  1
  Pb  Pb34  1  0.282571  0.033262  0.456598  1
  Pb  Pb35  1  0.782571  0.466738  0.043402  1
