# generated using pymatgen
data_TmFe3P3Ru2
_symmetry_space_group_name_H-M   'P 1'
_cell_length_a   3.74470200
_cell_length_b   10.43585300
_cell_length_c   11.94943500
_cell_angle_alpha   90.00000000
_cell_angle_beta   90.00000000
_cell_angle_gamma   90.00000000
_symmetry_Int_Tables_number   1
_chemical_formula_structural   TmFe3P3Ru2
_chemical_formula_sum   'Tm4 Fe12 P12 Ru8'
_cell_volume   466.97387750
_cell_formula_units_Z   4
loop_
 _symmetry_equiv_pos_site_id
 _symmetry_equiv_pos_as_xyz
  1  'x, y, z'
loop_
 _atom_site_type_symbol
 _atom_site_label
 _atom_site_symmetry_multiplicity
 _atom_site_fract_x
 _atom_site_fract_y
 _atom_site_fract_z
 _atom_site_occupancy
  Tm  Tm0  1  0.250000  0.583195  0.709462  1
  Tm  Tm1  1  0.250000  0.916805  0.209462  1
  Tm  Tm2  1  0.750000  0.416805  0.290538  1
  Tm  Tm3  1  0.750000  0.083195  0.790538  1
  Fe  Fe4  1  0.250000  0.224832  0.176146  1
  Fe  Fe5  1  0.250000  0.275168  0.676146  1
  Fe  Fe6  1  0.750000  0.775168  0.823854  1
  Fe  Fe7  1  0.750000  0.724832  0.323854  1
  Fe  Fe8  1  0.250000  0.880797  0.699037  1
  Fe  Fe9  1  0.250000  0.619203  0.199037  1
  Fe  Fe10  1  0.750000  0.119203  0.300963  1
  Fe  Fe11  1  0.750000  0.380797  0.800963  1
  Fe  Fe12  1  0.250000  0.462193  0.934355  1
  Fe  Fe13  1  0.250000  0.037807  0.434355  1
  Fe  Fe14  1  0.750000  0.537807  0.065645  1
  Fe  Fe15  1  0.750000  0.962193  0.565645  1
  P  P16  1  0.250000  0.425123  0.113938  1
  P  P17  1  0.250000  0.074877  0.613938  1
  P  P18  1  0.750000  0.574877  0.886062  1
  P  P19  1  0.750000  0.925123  0.386062  1
  P  P20  1  0.250000  0.271863  0.861713  1
  P  P21  1  0.250000  0.228137  0.361713  1
  P  P22  1  0.750000  0.728137  0.138287  1
  P  P23  1  0.750000  0.771863  0.638287  1
  P  P24  1  0.250000  0.605393  0.384657  1
  P  P25  1  0.250000  0.894607  0.884657  1
  P  P26  1  0.750000  0.394607  0.615343  1
  P  P27  1  0.750000  0.105393  0.115343  1
  Ru  Ru28  1  0.250000  0.702561  0.984189  1
  Ru  Ru29  1  0.250000  0.797439  0.484189  1
  Ru  Ru30  1  0.750000  0.297439  0.015811  1
  Ru  Ru31  1  0.750000  0.202561  0.515811  1
  Ru  Ru32  1  0.250000  0.403301  0.485442  1
  Ru  Ru33  1  0.250000  0.096699  0.985442  1
  Ru  Ru34  1  0.750000  0.596699  0.514558  1
  Ru  Ru35  1  0.750000  0.903301  0.014558  1
