# generated using pymatgen
data_Nd2Tm2ReB12Os
_symmetry_space_group_name_H-M   'P 1'
_cell_length_a   3.69603100
_cell_length_b   9.20442913
_cell_length_c   11.65896216
_cell_angle_alpha   90.12166035
_cell_angle_beta   90.00000000
_cell_angle_gamma   90.00000000
_symmetry_Int_Tables_number   1
_chemical_formula_structural   Nd2Tm2ReB12Os
_chemical_formula_sum   'Nd4 Tm4 Re2 B24 Os2'
_cell_volume   396.63531269
_cell_formula_units_Z   2
loop_
 _symmetry_equiv_pos_site_id
 _symmetry_equiv_pos_as_xyz
  1  'x, y, z'
loop_
 _atom_site_type_symbol
 _atom_site_label
 _atom_site_symmetry_multiplicity
 _atom_site_fract_x
 _atom_site_fract_y
 _atom_site_fract_z
 _atom_site_occupancy
  Nd  Nd0  1  0.000000  0.320981  0.413169  1
  Nd  Nd1  1  0.000000  0.679019  0.586831  1
  Nd  Nd2  1  0.000000  0.823574  0.084979  1
  Nd  Nd3  1  0.000000  0.176426  0.915021  1
  Tm  Tm4  1  0.000000  0.943751  0.370432  1
  Tm  Tm5  1  0.000000  0.056249  0.629568  1
  Tm  Tm6  1  0.000000  0.442399  0.129101  1
  Tm  Tm7  1  0.000000  0.557601  0.870899  1
  Re  Re8  1  0.000000  0.139661  0.181309  1
  Re  Re9  1  0.000000  0.860339  0.818691  1
  B  B10  1  0.500000  0.555765  0.430274  1
  B  B11  1  0.500000  0.444235  0.569726  1
  B  B12  1  0.500000  0.054948  0.069485  1
  B  B13  1  0.500000  0.945052  0.930515  1
  B  B14  1  0.500000  0.750325  0.416332  1
  B  B15  1  0.500000  0.249675  0.583668  1
  B  B16  1  0.500000  0.250322  0.083595  1
  B  B17  1  0.500000  0.749678  0.916405  1
  B  B18  1  0.500000  0.790582  0.266607  1
  B  B19  1  0.500000  0.209418  0.733393  1
  B  B20  1  0.500000  0.291369  0.233840  1
  B  B21  1  0.500000  0.708631  0.766160  1
  B  B22  1  0.500000  0.629283  0.186333  1
  B  B23  1  0.500000  0.370717  0.813667  1
  B  B24  1  0.500000  0.129750  0.314515  1
  B  B25  1  0.500000  0.870250  0.685485  1
  B  B26  1  0.500000  0.984008  0.214165  1
  B  B27  1  0.500000  0.015992  0.785835  1
  B  B28  1  0.500000  0.484329  0.286508  1
  B  B29  1  0.500000  0.515671  0.713492  1
  B  B30  1  0.500000  0.597896  0.027025  1
  B  B31  1  0.500000  0.402104  0.972975  1
  B  B32  1  0.500000  0.098697  0.473144  1
  B  B33  1  0.500000  0.901303  0.526856  1
  Os  Os34  1  0.000000  0.638999  0.319466  1
  Os  Os35  1  0.000000  0.361001  0.680534  1
