# generated using pymatgen
data_Lu3Sc5Cr(FeB8)3
_symmetry_space_group_name_H-M   'P 1'
_cell_length_a   3.38342600
_cell_length_b   8.86326725
_cell_length_c   11.20720801
_cell_angle_alpha   89.88809653
_cell_angle_beta   90.00000000
_cell_angle_gamma   90.00000000
_symmetry_Int_Tables_number   1
_chemical_formula_structural   Lu3Sc5Cr(FeB8)3
_chemical_formula_sum   'Lu3 Sc5 Cr1 Fe3 B24'
_cell_volume   336.08345352
_cell_formula_units_Z   1
loop_
 _symmetry_equiv_pos_site_id
 _symmetry_equiv_pos_as_xyz
  1  'x, y, z'
loop_
 _atom_site_type_symbol
 _atom_site_label
 _atom_site_symmetry_multiplicity
 _atom_site_fract_x
 _atom_site_fract_y
 _atom_site_fract_z
 _atom_site_occupancy
  Lu  Lu0  1  0.000000  0.822167  0.085031  1
  Lu  Lu1  1  0.000000  0.178773  0.913605  1
  Lu  Lu2  1  0.000000  0.321864  0.414926  1
  Sc  Sc3  1  0.000000  0.677884  0.586260  1
  Sc  Sc4  1  0.000000  0.443468  0.130520  1
  Sc  Sc5  1  0.000000  0.557498  0.870637  1
  Sc  Sc6  1  0.000000  0.941283  0.370595  1
  Sc  Sc7  1  0.000000  0.054741  0.628759  1
  Cr  Cr8  1  0.000000  0.361671  0.680441  1
  Fe  Fe9  1  0.000000  0.139882  0.181469  1
  Fe  Fe10  1  0.000000  0.859765  0.818964  1
  Fe  Fe11  1  0.000000  0.640606  0.318594  1
  B  B12  1  0.500000  0.054952  0.067280  1
  B  B13  1  0.500000  0.945427  0.932215  1
  B  B14  1  0.500000  0.555175  0.433046  1
  B  B15  1  0.500000  0.448841  0.566014  1
  B  B16  1  0.500000  0.250631  0.082145  1
  B  B17  1  0.500000  0.749833  0.917869  1
  B  B18  1  0.500000  0.749341  0.419393  1
  B  B19  1  0.500000  0.248193  0.580639  1
  B  B20  1  0.500000  0.291998  0.235505  1
  B  B21  1  0.500000  0.707920  0.764577  1
  B  B22  1  0.500000  0.792159  0.265360  1
  B  B23  1  0.500000  0.205540  0.735442  1
  B  B24  1  0.500000  0.129127  0.315977  1
  B  B25  1  0.500000  0.868864  0.683742  1
  B  B26  1  0.500000  0.630187  0.184269  1
  B  B27  1  0.500000  0.371152  0.816537  1
  B  B28  1  0.500000  0.483479  0.287521  1
  B  B29  1  0.500000  0.521967  0.712218  1
  B  B30  1  0.500000  0.982948  0.212533  1
  B  B31  1  0.500000  0.016347  0.786890  1
  B  B32  1  0.500000  0.098329  0.472104  1
  B  B33  1  0.500000  0.896830  0.527494  1
  B  B34  1  0.500000  0.600146  0.027574  1
  B  B35  1  0.500000  0.401011  0.973858  1
