# generated using pymatgen
data_NdY4Mn2O12
_symmetry_space_group_name_H-M   'P 1'
_cell_length_a   6.88361194
_cell_length_b   6.88361051
_cell_length_c   7.33297005
_cell_angle_alpha   74.60324407
_cell_angle_beta   74.60324803
_cell_angle_gamma   49.64974794
_symmetry_Int_Tables_number   1
_chemical_formula_structural   NdY4Mn2O12
_chemical_formula_sum   'Nd1 Y4 Mn2 O12'
_cell_volume   253.22052220
_cell_formula_units_Z   1
loop_
 _symmetry_equiv_pos_site_id
 _symmetry_equiv_pos_as_xyz
  1  'x, y, z'
loop_
 _atom_site_type_symbol
 _atom_site_label
 _atom_site_symmetry_multiplicity
 _atom_site_fract_x
 _atom_site_fract_y
 _atom_site_fract_z
 _atom_site_occupancy
  Nd  Nd0  1  0.000000  0.000000  0.500000  1
  Y  Y1  1  0.306080  0.306080  0.356487  1
  Y  Y2  1  0.693920  0.693920  0.643513  1
  Y  Y3  1  0.693821  0.693821  0.163719  1
  Y  Y4  1  0.306179  0.306179  0.836281  1
  Mn  Mn5  1  0.752908  0.247092  0.000000  1
  Mn  Mn6  1  0.247092  0.752908  0.000000  1
  O  O7  1  0.095741  0.589027  0.579335  1
  O  O8  1  0.999300  0.999300  0.173755  1
  O  O9  1  0.410973  0.904259  0.420665  1
  O  O10  1  0.500183  0.500183  0.179971  1
  O  O11  1  0.100687  0.579259  0.078803  1
  O  O12  1  0.904259  0.410973  0.420665  1
  O  O13  1  0.000700  0.000700  0.826245  1
  O  O14  1  0.589027  0.095740  0.579335  1
  O  O15  1  0.499817  0.499817  0.820029  1
  O  O16  1  0.579259  0.100687  0.078803  1
  O  O17  1  0.420741  0.899313  0.921197  1
  O  O18  1  0.899313  0.420741  0.921197  1
