# generated using pymatgen
data_Nd4YEr5Pb6
_symmetry_space_group_name_H-M   'P 1'
_cell_length_a   9.16581200
_cell_length_b   9.16581246
_cell_length_c   6.70983900
_cell_angle_alpha   90.00000000
_cell_angle_beta   90.00000000
_cell_angle_gamma   119.53738999
_symmetry_Int_Tables_number   1
_chemical_formula_structural   Nd4YEr5Pb6
_chemical_formula_sum   'Nd4 Y1 Er5 Pb6'
_cell_volume   490.44500904
_cell_formula_units_Z   1
loop_
 _symmetry_equiv_pos_site_id
 _symmetry_equiv_pos_as_xyz
  1  'x, y, z'
loop_
 _atom_site_type_symbol
 _atom_site_label
 _atom_site_symmetry_multiplicity
 _atom_site_fract_x
 _atom_site_fract_y
 _atom_site_fract_z
 _atom_site_occupancy
  Nd  Nd0  1  0.238055  0.001107  0.750000  1
  Nd  Nd1  1  0.001107  0.238055  0.750000  1
  Nd  Nd2  1  0.761900  0.998335  0.250000  1
  Nd  Nd3  1  0.998335  0.761900  0.250000  1
  Y  Y4  1  0.243908  0.243908  0.250000  1
  Er  Er5  1  0.666806  0.333005  0.999929  1
  Er  Er6  1  0.333005  0.666806  0.999929  1
  Er  Er7  1  0.333005  0.666806  0.500071  1
  Er  Er8  1  0.666806  0.333005  0.500071  1
  Er  Er9  1  0.757235  0.757235  0.750000  1
  Pb  Pb10  1  0.402802  0.402802  0.750000  1
  Pb  Pb11  1  0.603291  0.996498  0.750000  1
  Pb  Pb12  1  0.996498  0.603291  0.750000  1
  Pb  Pb13  1  0.597905  0.597905  0.250000  1
  Pb  Pb14  1  0.396968  0.002373  0.250000  1
  Pb  Pb15  1  0.002373  0.396968  0.250000  1
