# generated using pymatgen
data_Pr4Co16Si11PRu4
_symmetry_space_group_name_H-M   'P 1'
_cell_length_a   3.78725400
_cell_length_b   10.71187927
_cell_length_c   12.11980540
_cell_angle_alpha   89.94457740
_cell_angle_beta   90.00000000
_cell_angle_gamma   90.00000000
_symmetry_Int_Tables_number   1
_chemical_formula_structural   Pr4Co16Si11PRu4
_chemical_formula_sum   'Pr4 Co16 Si11 P1 Ru4'
_cell_volume   491.68339952
_cell_formula_units_Z   1
loop_
 _symmetry_equiv_pos_site_id
 _symmetry_equiv_pos_as_xyz
  1  'x, y, z'
loop_
 _atom_site_type_symbol
 _atom_site_label
 _atom_site_symmetry_multiplicity
 _atom_site_fract_x
 _atom_site_fract_y
 _atom_site_fract_z
 _atom_site_occupancy
  Pr  Pr0  1  0.250000  0.583902  0.703416  1
  Pr  Pr1  1  0.250000  0.916591  0.201827  1
  Pr  Pr2  1  0.750000  0.416934  0.297521  1
  Pr  Pr3  1  0.750000  0.084166  0.795928  1
  Co  Co4  1  0.250000  0.405687  0.490555  1
  Co  Co5  1  0.250000  0.094254  0.993689  1
  Co  Co6  1  0.750000  0.594598  0.509785  1
  Co  Co7  1  0.750000  0.910014  0.010720  1
  Co  Co8  1  0.250000  0.213094  0.172992  1
  Co  Co9  1  0.250000  0.284967  0.673671  1
  Co  Co10  1  0.750000  0.786197  0.827166  1
  Co  Co11  1  0.750000  0.714828  0.326056  1
  Co  Co12  1  0.250000  0.886839  0.699315  1
  Co  Co13  1  0.250000  0.613566  0.199724  1
  Co  Co14  1  0.750000  0.113302  0.296340  1
  Co  Co15  1  0.750000  0.386042  0.801349  1
  Co  Co16  1  0.250000  0.469109  0.933193  1
  Co  Co17  1  0.250000  0.029938  0.430409  1
  Co  Co18  1  0.750000  0.528807  0.068059  1
  Co  Co19  1  0.750000  0.970591  0.566814  1
  Si  Si20  1  0.250000  0.414877  0.109345  1
  Si  Si21  1  0.250000  0.085045  0.607077  1
  Si  Si22  1  0.750000  0.585215  0.892236  1
  Si  Si23  1  0.750000  0.914734  0.390844  1
  Si  Si24  1  0.250000  0.277542  0.867572  1
  Si  Si25  1  0.250000  0.222702  0.367191  1
  Si  Si26  1  0.750000  0.721561  0.132457  1
  Si  Si27  1  0.750000  0.778329  0.632627  1
  Si  Si28  1  0.250000  0.604714  0.395183  1
  Si  Si29  1  0.250000  0.896508  0.894677  1
  Si  Si30  1  0.750000  0.395327  0.605206  1
  P  P31  1  0.750000  0.103135  0.105944  1
  Ru  Ru32  1  0.250000  0.703472  0.990843  1
  Ru  Ru33  1  0.250000  0.797574  0.490640  1
  Ru  Ru34  1  0.750000  0.292988  0.011874  1
  Ru  Ru35  1  0.750000  0.202851  0.507753  1
