# generated using pymatgen
data_GdCd3Sb(PN2)6
_symmetry_space_group_name_H-M   'P 1'
_cell_length_a   7.52651727
_cell_length_b   7.56621400
_cell_length_c   7.56621443
_cell_angle_alpha   109.57725731
_cell_angle_beta   109.36498610
_cell_angle_gamma   109.36497489
_symmetry_Int_Tables_number   1
_chemical_formula_structural   GdCd3Sb(PN2)6
_chemical_formula_sum   'Gd1 Cd3 Sb1 P6 N12'
_cell_volume   332.12162244
_cell_formula_units_Z   1
loop_
 _symmetry_equiv_pos_site_id
 _symmetry_equiv_pos_as_xyz
  1  'x, y, z'
loop_
 _atom_site_type_symbol
 _atom_site_label
 _atom_site_symmetry_multiplicity
 _atom_site_fract_x
 _atom_site_fract_y
 _atom_site_fract_z
 _atom_site_occupancy
  Gd  Gd0  1  0.607329  0.000000  0.000000  1
  Cd  Cd1  1  0.998628  0.000000  0.644275  1
  Cd  Cd2  1  0.998628  0.644275  0.000000  1
  Cd  Cd3  1  0.354353  0.355725  0.355725  1
  Sb  Sb4  1  0.002604  0.000000  0.000000  1
  P  P5  1  0.249132  0.749053  0.495570  1
  P  P6  1  0.753563  0.253483  0.504430  1
  P  P7  1  0.753563  0.504430  0.253483  1
  P  P8  1  0.249132  0.495570  0.749053  1
  P  P9  1  0.500080  0.746517  0.250947  1
  P  P10  1  0.500080  0.250947  0.746517  1
  N  N11  1  0.717530  0.305226  0.305226  1
  N  N12  1  0.293123  0.701420  0.291476  1
  N  N13  1  0.309561  0.605429  0.605429  1
  N  N14  1  0.591703  0.590056  0.298580  1
  N  N15  1  0.412304  0.694774  0.000000  1
  N  N16  1  0.001648  0.708524  0.409944  1
  N  N17  1  0.591703  0.298580  0.590056  1
  N  N18  1  0.704131  0.000000  0.394571  1
  N  N19  1  0.412304  0.000000  0.694774  1
  N  N20  1  0.704131  0.394571  0.000000  1
  N  N21  1  0.293123  0.291476  0.701420  1
  N  N22  1  0.001648  0.409944  0.708524  1
