# generated using pymatgen
data_Lu4SiAsSe2
_symmetry_space_group_name_H-M   'P 1'
_cell_length_a   6.98702610
_cell_length_b   6.98702629
_cell_length_c   6.98702516
_cell_angle_alpha   132.21977243
_cell_angle_beta   132.21976024
_cell_angle_gamma   69.88214974
_symmetry_Int_Tables_number   1
_chemical_formula_structural   Lu4SiAsSe2
_chemical_formula_sum   'Lu4 Si1 As1 Se2'
_cell_volume   183.43805279
_cell_formula_units_Z   1
loop_
 _symmetry_equiv_pos_site_id
 _symmetry_equiv_pos_as_xyz
  1  'x, y, z'
loop_
 _atom_site_type_symbol
 _atom_site_label
 _atom_site_symmetry_multiplicity
 _atom_site_fract_x
 _atom_site_fract_y
 _atom_site_fract_z
 _atom_site_occupancy
  Lu  Lu0  1  0.245446  0.245446  0.000000  1
  Lu  Lu1  1  0.754554  0.754554  0.000000  1
  Lu  Lu2  1  0.508564  0.008564  0.500000  1
  Lu  Lu3  1  0.991436  0.491436  0.500000  1
  Si  Si4  1  0.750000  0.250000  0.500000  1
  As  As5  1  0.000000  0.000000  0.000000  1
  Se  Se6  1  0.250000  0.750000  0.500000  1
  Se  Se7  1  0.500000  0.500000  0.000000  1
