# generated using pymatgen
data_Lu12Mn2In2Cu
_symmetry_space_group_name_H-M   'P 1'
_cell_length_a   8.21627002
_cell_length_b   8.21627096
_cell_length_c   8.21627048
_cell_angle_alpha   108.81714794
_cell_angle_beta   108.81715075
_cell_angle_gamma   110.78743415
_symmetry_Int_Tables_number   1
_chemical_formula_structural   Lu12Mn2In2Cu
_chemical_formula_sum   'Lu12 Mn2 In2 Cu1'
_cell_volume   426.80541953
_cell_formula_units_Z   1
loop_
 _symmetry_equiv_pos_site_id
 _symmetry_equiv_pos_as_xyz
  1  'x, y, z'
loop_
 _atom_site_type_symbol
 _atom_site_label
 _atom_site_symmetry_multiplicity
 _atom_site_fract_x
 _atom_site_fract_y
 _atom_site_fract_z
 _atom_site_occupancy
  Lu  Lu0  1  0.306270  0.306270  0.612540  1
  Lu  Lu1  1  0.693730  0.693730  0.387460  1
  Lu  Lu2  1  0.693730  0.306270  0.000000  1
  Lu  Lu3  1  0.306270  0.693730  0.000000  1
  Lu  Lu4  1  0.197378  0.437924  0.240546  1
  Lu  Lu5  1  0.802622  0.562076  0.759454  1
  Lu  Lu6  1  0.197378  0.956831  0.759454  1
  Lu  Lu7  1  0.956831  0.197378  0.759454  1
  Lu  Lu8  1  0.802622  0.043169  0.240546  1
  Lu  Lu9  1  0.043169  0.802622  0.240546  1
  Lu  Lu10  1  0.437924  0.197378  0.240546  1
  Lu  Lu11  1  0.562076  0.802622  0.759454  1
  Mn  Mn12  1  0.387203  0.387203  0.000000  1
  Mn  Mn13  1  0.612797  0.612797  0.000000  1
  In  In14  1  0.000000  0.500000  0.500000  1
  In  In15  1  0.500000  0.000000  0.500000  1
  Cu  Cu16  1  0.000000  0.000000  0.000000  1
