# generated using pymatgen
data_LaTl(SO4)2
_symmetry_space_group_name_H-M   'P 1'
_cell_length_a   5.50985700
_cell_length_b   9.72887400
_cell_length_c   14.54291500
_cell_angle_alpha   90.00000000
_cell_angle_beta   90.00000000
_cell_angle_gamma   90.00000000
_symmetry_Int_Tables_number   1
_chemical_formula_structural   LaTl(SO4)2
_chemical_formula_sum   'La4 Tl4 S8 O32'
_cell_volume   779.56866130
_cell_formula_units_Z   4
loop_
 _symmetry_equiv_pos_site_id
 _symmetry_equiv_pos_as_xyz
  1  'x, y, z'
loop_
 _atom_site_type_symbol
 _atom_site_label
 _atom_site_symmetry_multiplicity
 _atom_site_fract_x
 _atom_site_fract_y
 _atom_site_fract_z
 _atom_site_occupancy
  La  La0  1  0.680180  0.250000  0.500000  1
  La  La1  1  0.819820  0.250000  0.000000  1
  La  La2  1  0.319820  0.750000  0.500000  1
  La  La3  1  0.180180  0.750000  0.000000  1
  Tl  Tl4  1  0.250000  0.077638  0.250000  1
  Tl  Tl5  1  0.250000  0.422362  0.750000  1
  Tl  Tl6  1  0.750000  0.922362  0.750000  1
  Tl  Tl7  1  0.750000  0.577638  0.250000  1
  S  S8  1  0.236470  0.414185  0.413677  1
  S  S9  1  0.236470  0.085815  0.586323  1
  S  S10  1  0.263530  0.414185  0.086323  1
  S  S11  1  0.263530  0.085815  0.913677  1
  S  S12  1  0.763530  0.585815  0.586323  1
  S  S13  1  0.763530  0.914185  0.413677  1
  S  S14  1  0.736470  0.585815  0.913677  1
  S  S15  1  0.736470  0.914185  0.086323  1
  O  O16  1  0.302008  0.403959  0.513429  1
  O  O17  1  0.302008  0.096041  0.486571  1
  O  O18  1  0.197992  0.403959  0.986571  1
  O  O19  1  0.197992  0.096041  0.013429  1
  O  O20  1  0.697992  0.596041  0.486571  1
  O  O21  1  0.697992  0.903959  0.513429  1
  O  O22  1  0.802008  0.596041  0.013429  1
  O  O23  1  0.802008  0.903959  0.986571  1
  O  O24  1  0.225106  0.561653  0.385494  1
  O  O25  1  0.225106  0.938347  0.614506  1
  O  O26  1  0.274894  0.561653  0.114506  1
  O  O27  1  0.274894  0.938347  0.885494  1
  O  O28  1  0.774894  0.438347  0.614506  1
  O  O29  1  0.774894  0.061653  0.385494  1
  O  O30  1  0.725106  0.438347  0.885494  1
  O  O31  1  0.725106  0.061653  0.114506  1
  O  O32  1  0.432084  0.340972  0.361249  1
  O  O33  1  0.432084  0.159028  0.638751  1
  O  O34  1  0.067916  0.340972  0.138751  1
  O  O35  1  0.067916  0.159028  0.861249  1
  O  O36  1  0.567916  0.659028  0.638751  1
  O  O37  1  0.567916  0.840972  0.361249  1
  O  O38  1  0.932084  0.659028  0.861249  1
  O  O39  1  0.932084  0.840972  0.138751  1
  O  O40  1  0.996381  0.348895  0.396328  1
  O  O41  1  0.996381  0.151105  0.603672  1
  O  O42  1  0.503619  0.348895  0.103672  1
  O  O43  1  0.503619  0.151105  0.896328  1
  O  O44  1  0.003619  0.651105  0.603672  1
  O  O45  1  0.003619  0.848895  0.396328  1
  O  O46  1  0.496381  0.651105  0.896328  1
  O  O47  1  0.496381  0.848895  0.103672  1
