# generated using pymatgen
data_Pr2Re4Tc13C3
_symmetry_space_group_name_H-M   'P 1'
_cell_length_a   7.03500956
_cell_length_b   7.03163560
_cell_length_c   7.03163581
_cell_angle_alpha   82.97067222
_cell_angle_beta   83.02075444
_cell_angle_gamma   83.02075822
_symmetry_Int_Tables_number   1
_chemical_formula_structural   Pr2Re4Tc13C3
_chemical_formula_sum   'Pr2 Re4 Tc13 C3'
_cell_volume   340.65222451
_cell_formula_units_Z   1
loop_
 _symmetry_equiv_pos_site_id
 _symmetry_equiv_pos_as_xyz
  1  'x, y, z'
loop_
 _atom_site_type_symbol
 _atom_site_label
 _atom_site_symmetry_multiplicity
 _atom_site_fract_x
 _atom_site_fract_y
 _atom_site_fract_z
 _atom_site_occupancy
  Pr  Pr0  1  0.648867  0.649326  0.649431  1
  Pr  Pr1  1  0.351133  0.350569  0.350674  1
  Re  Re2  1  0.000037  0.000174  0.500410  1
  Re  Re3  1  0.500000  0.999917  0.000083  1
  Re  Re4  1  0.999963  0.499590  0.999826  1
  Re  Re5  1  0.000000  0.721884  0.278116  1
  Tc  Tc6  1  0.721730  0.278468  0.999783  1
  Tc  Tc7  1  0.278270  0.000217  0.721532  1
  Tc  Tc8  1  0.000000  0.278318  0.721682  1
  Tc  Tc9  1  0.721284  0.000070  0.278318  1
  Tc  Tc10  1  0.278716  0.721682  0.999930  1
  Tc  Tc11  1  0.347579  0.347253  0.867066  1
  Tc  Tc12  1  0.866838  0.347078  0.347425  1
  Tc  Tc13  1  0.347552  0.867177  0.347243  1
  Tc  Tc14  1  0.652448  0.652757  0.132823  1
  Tc  Tc15  1  0.133162  0.652575  0.652922  1
  Tc  Tc16  1  0.652421  0.132934  0.652747  1
  Tc  Tc17  1  0.903058  0.903105  0.902942  1
  Tc  Tc18  1  0.096942  0.097058  0.096895  1
  C  C19  1  0.500032  0.499803  0.000050  1
  C  C20  1  0.000000  0.500097  0.499903  1
  C  C21  1  0.499968  0.999950  0.500197  1
