# generated using pymatgen
data_Sc4P4IrRh3
_symmetry_space_group_name_H-M   'P 1'
_cell_length_a   3.88917800
_cell_length_b   6.44086279
_cell_length_c   7.34968946
_cell_angle_alpha   90.06304270
_cell_angle_beta   90.00000000
_cell_angle_gamma   90.00000000
_symmetry_Int_Tables_number   1
_chemical_formula_structural   Sc4P4IrRh3
_chemical_formula_sum   'Sc4 P4 Ir1 Rh3'
_cell_volume   184.10712428
_cell_formula_units_Z   1
loop_
 _symmetry_equiv_pos_site_id
 _symmetry_equiv_pos_as_xyz
  1  'x, y, z'
loop_
 _atom_site_type_symbol
 _atom_site_label
 _atom_site_symmetry_multiplicity
 _atom_site_fract_x
 _atom_site_fract_y
 _atom_site_fract_z
 _atom_site_occupancy
  Sc  Sc0  1  0.250000  0.027041  0.820756  1
  Sc  Sc1  1  0.250000  0.528600  0.679569  1
  Sc  Sc2  1  0.750000  0.972376  0.179310  1
  Sc  Sc3  1  0.750000  0.471425  0.319585  1
  P  P4  1  0.250000  0.769825  0.377665  1
  P  P5  1  0.250000  0.267401  0.122218  1
  P  P6  1  0.750000  0.231824  0.621605  1
  P  P7  1  0.750000  0.732334  0.879094  1
  Ir  Ir8  1  0.250000  0.154768  0.440967  1
  Rh  Rh9  1  0.250000  0.651151  0.061121  1
  Rh  Rh10  1  0.750000  0.846966  0.559336  1
  Rh  Rh11  1  0.750000  0.346287  0.938774  1
