# generated using pymatgen
data_Nd2NiPBr2
_symmetry_space_group_name_H-M   'P 1'
_cell_length_a   4.02961800
_cell_length_b   4.02961815
_cell_length_c   11.56417900
_cell_angle_alpha   89.99994630
_cell_angle_beta   90.00005321
_cell_angle_gamma   120.00010487
_symmetry_Int_Tables_number   1
_chemical_formula_structural   Nd2NiPBr2
_chemical_formula_sum   'Nd2 Ni1 P1 Br2'
_cell_volume   162.61954824
_cell_formula_units_Z   1
loop_
 _symmetry_equiv_pos_site_id
 _symmetry_equiv_pos_as_xyz
  1  'x, y, z'
loop_
 _atom_site_type_symbol
 _atom_site_label
 _atom_site_symmetry_multiplicity
 _atom_site_fract_x
 _atom_site_fract_y
 _atom_site_fract_z
 _atom_site_occupancy
  Nd  Nd0  1  0.000000  0.000001  0.332684  1
  Nd  Nd1  1  0.000000  0.000000  0.665613  1
  Ni  Ni2  1  0.666666  0.333333  0.510101  1
  P  P3  1  0.333333  0.666667  0.491564  1
  Br  Br4  1  0.666667  0.333334  0.166627  1
  Br  Br5  1  0.333333  0.666666  0.833412  1
