# generated using pymatgen
data_Tm6Al24ReRu4Au3
_symmetry_space_group_name_H-M   'P 1'
_cell_length_a   8.90101777
_cell_length_b   8.84242776
_cell_length_c   9.55337537
_cell_angle_alpha   89.98753206
_cell_angle_beta   89.71574828
_cell_angle_gamma   119.53176439
_symmetry_Int_Tables_number   1
_chemical_formula_structural   Tm6Al24ReRu4Au3
_chemical_formula_sum   'Tm6 Al24 Re1 Ru4 Au3'
_cell_volume   654.21593581
_cell_formula_units_Z   1
loop_
 _symmetry_equiv_pos_site_id
 _symmetry_equiv_pos_as_xyz
  1  'x, y, z'
loop_
 _atom_site_type_symbol
 _atom_site_label
 _atom_site_symmetry_multiplicity
 _atom_site_fract_x
 _atom_site_fract_y
 _atom_site_fract_z
 _atom_site_occupancy
  Tm  Tm0  1  0.809528  0.199165  0.747786  1
  Tm  Tm1  1  0.190472  0.800835  0.252214  1
  Tm  Tm2  1  0.385038  0.191441  0.751444  1
  Tm  Tm3  1  0.614962  0.808559  0.248556  1
  Tm  Tm4  1  0.811746  0.612174  0.743330  1
  Tm  Tm5  1  0.188254  0.387826  0.256670  1
  Al  Al6  1  0.678146  0.339537  0.967123  1
  Al  Al7  1  0.321854  0.660463  0.032877  1
  Al  Al8  1  0.330365  0.673443  0.470835  1
  Al  Al9  1  0.669635  0.326557  0.529165  1
  Al  Al10  1  0.836076  0.162880  0.421436  1
  Al  Al11  1  0.163924  0.837120  0.578564  1
  Al  Al12  1  0.320985  0.149958  0.423527  1
  Al  Al13  1  0.152880  0.829763  0.917317  1
  Al  Al14  1  0.679015  0.850042  0.576473  1
  Al  Al15  1  0.847120  0.170237  0.082683  1
  Al  Al16  1  0.847697  0.678028  0.420928  1
  Al  Al17  1  0.683757  0.841305  0.915703  1
  Al  Al18  1  0.152303  0.321972  0.579072  1
  Al  Al19  1  0.316243  0.158695  0.084297  1
  Al  Al20  1  0.151581  0.321924  0.919994  1
  Al  Al21  1  0.848419  0.678076  0.080006  1
  Al  Al22  1  0.433178  0.565498  0.750534  1
  Al  Al23  1  0.566822  0.434502  0.249466  1
  Al  Al24  1  0.121648  0.560958  0.751364  1
  Al  Al25  1  0.878352  0.439042  0.248636  1
  Al  Al26  1  0.436136  0.874530  0.742782  1
  Al  Al27  1  0.563864  0.125470  0.257218  1
  Al  Al28  1  0.004123  0.000674  0.749243  1
  Al  Al29  1  0.995877  0.999326  0.250757  1
  Re  Re30  1  0.000000  0.500000  0.500000  1
  Ru  Ru31  1  0.000000  0.500000  0.000000  1
  Ru  Ru32  1  0.500000  0.000000  0.500000  1
  Ru  Ru33  1  0.000000  0.000000  0.000000  1
  Ru  Ru34  1  0.000000  0.000000  0.500000  1
  Au  Au35  1  0.500000  0.500000  0.000000  1
  Au  Au36  1  0.500000  0.500000  0.500000  1
  Au  Au37  1  0.500000  0.000000  0.000000  1
