# generated using pymatgen
data_Li3Nd8Tm9Si16
_symmetry_space_group_name_H-M   'P 1'
_cell_length_a   7.69691464
_cell_length_b   7.69691464
_cell_length_c   13.86122306
_cell_angle_alpha   90.26757539
_cell_angle_beta   89.73242461
_cell_angle_gamma   89.98650527
_symmetry_Int_Tables_number   1
_chemical_formula_structural   Li3Nd8Tm9Si16
_chemical_formula_sum   'Li3 Nd8 Tm9 Si16'
_cell_volume   821.15550025
_cell_formula_units_Z   1
loop_
 _symmetry_equiv_pos_site_id
 _symmetry_equiv_pos_as_xyz
  1  'x, y, z'
loop_
 _atom_site_type_symbol
 _atom_site_label
 _atom_site_symmetry_multiplicity
 _atom_site_fract_x
 _atom_site_fract_y
 _atom_site_fract_z
 _atom_site_occupancy
  Li  Li0  1  0.314778  0.314778  0.500000  1
  Li  Li1  1  0.184497  0.814765  0.748847  1
  Li  Li2  1  0.814765  0.184497  0.251153  1
  Nd  Nd3  1  0.638382  0.999082  0.458271  1
  Nd  Nd4  1  0.355523  0.005873  0.957630  1
  Nd  Nd5  1  0.999082  0.638382  0.541729  1
  Nd  Nd6  1  0.497970  0.863937  0.213126  1
  Nd  Nd7  1  0.499653  0.137289  0.705946  1
  Nd  Nd8  1  0.863937  0.497970  0.786874  1
  Nd  Nd9  1  0.137289  0.499653  0.294054  1
  Nd  Nd10  1  0.005873  0.355523  0.042370  1
  Tm  Tm11  1  0.501792  0.361397  0.126467  1
  Tm  Tm12  1  0.002879  0.132377  0.624641  1
  Tm  Tm13  1  0.870148  0.002940  0.870385  1
  Tm  Tm14  1  0.132377  0.002879  0.375359  1
  Tm  Tm15  1  0.496267  0.635574  0.623619  1
  Tm  Tm16  1  0.361397  0.501792  0.873533  1
  Tm  Tm17  1  0.635574  0.496267  0.376381  1
  Tm  Tm18  1  0.002940  0.870148  0.129615  1
  Tm  Tm19  1  0.683442  0.683442  0.000000  1
  Si  Si20  1  0.288440  0.923863  0.559524  1
  Si  Si21  1  0.708875  0.065744  0.059018  1
  Si  Si22  1  0.923863  0.288440  0.440476  1
  Si  Si23  1  0.423029  0.214301  0.312633  1
  Si  Si24  1  0.573292  0.791321  0.810143  1
  Si  Si25  1  0.214301  0.423029  0.687367  1
  Si  Si26  1  0.791321  0.573292  0.189857  1
  Si  Si27  1  0.065744  0.708875  0.940982  1
  Si  Si28  1  0.783725  0.852915  0.681421  1
  Si  Si29  1  0.216721  0.148716  0.185957  1
  Si  Si30  1  0.852915  0.783725  0.318579  1
  Si  Si31  1  0.352229  0.713915  0.433693  1
  Si  Si32  1  0.651119  0.293231  0.935628  1
  Si  Si33  1  0.713915  0.352229  0.566307  1
  Si  Si34  1  0.293231  0.651119  0.064372  1
  Si  Si35  1  0.148716  0.216721  0.814043  1
