# generated using pymatgen
data_DyY2CI3
_symmetry_space_group_name_H-M   'P 1'
_cell_length_a   3.91729700
_cell_length_b   8.73183247
_cell_length_c   11.90944036
_cell_angle_alpha   92.31773079
_cell_angle_beta   90.00000000
_cell_angle_gamma   90.00000000
_symmetry_Int_Tables_number   1
_chemical_formula_structural   DyY2CI3
_chemical_formula_sum   'Dy2 Y4 C2 I6'
_cell_volume   407.03131096
_cell_formula_units_Z   2
loop_
 _symmetry_equiv_pos_site_id
 _symmetry_equiv_pos_as_xyz
  1  'x, y, z'
loop_
 _atom_site_type_symbol
 _atom_site_label
 _atom_site_symmetry_multiplicity
 _atom_site_fract_x
 _atom_site_fract_y
 _atom_site_fract_z
 _atom_site_occupancy
  Dy  Dy0  1  0.250000  0.919167  0.598807  1
  Dy  Dy1  1  0.750000  0.080833  0.401193  1
  Y  Y2  1  0.250000  0.886928  0.187064  1
  Y  Y3  1  0.750000  0.113072  0.812936  1
  Y  Y4  1  0.250000  0.292046  0.615129  1
  Y  Y5  1  0.750000  0.707954  0.384871  1
  C  C6  1  0.250000  0.883667  0.387296  1
  C  C7  1  0.750000  0.116333  0.612704  1
  I  I8  1  0.250000  0.859293  0.872952  1
  I  I9  1  0.750000  0.140707  0.127048  1
  I  I10  1  0.250000  0.375263  0.871641  1
  I  I11  1  0.750000  0.624737  0.128359  1
  I  I12  1  0.250000  0.382510  0.367637  1
  I  I13  1  0.750000  0.617490  0.632363  1
