# generated using pymatgen
data_PrY(IrO4)2
_symmetry_space_group_name_H-M   'P 1'
_cell_length_a   5.46288352
_cell_length_b   7.70907910
_cell_length_c   7.49740692
_cell_angle_alpha   80.17801238
_cell_angle_beta   90.58528634
_cell_angle_gamma   93.05698556
_symmetry_Int_Tables_number   1
_chemical_formula_structural   PrY(IrO4)2
_chemical_formula_sum   'Pr2 Y2 Ir4 O16'
_cell_volume   310.67336180
_cell_formula_units_Z   2
loop_
 _symmetry_equiv_pos_site_id
 _symmetry_equiv_pos_as_xyz
  1  'x, y, z'
loop_
 _atom_site_type_symbol
 _atom_site_label
 _atom_site_symmetry_multiplicity
 _atom_site_fract_x
 _atom_site_fract_y
 _atom_site_fract_z
 _atom_site_occupancy
  Pr  Pr0  1  0.262715  0.135246  0.609127  1
  Pr  Pr1  1  0.737395  0.864880  0.390872  1
  Y  Y2  1  0.198090  0.169799  0.102619  1
  Y  Y3  1  0.801908  0.830241  0.897355  1
  Ir  Ir4  1  0.240360  0.658343  0.202553  1
  Ir  Ir5  1  0.759603  0.341654  0.797460  1
  Ir  Ir6  1  0.717915  0.340192  0.296178  1
  Ir  Ir7  1  0.282151  0.659838  0.703842  1
  O  O8  1  0.074460  0.448670  0.694679  1
  O  O9  1  0.925561  0.551224  0.305252  1
  O  O10  1  0.624072  0.334247  0.550697  1
  O  O11  1  0.375814  0.665842  0.449230  1
  O  O12  1  0.858864  0.336362  0.053023  1
  O  O13  1  0.141153  0.663583  0.947000  1
  O  O14  1  0.404251  0.439350  0.194799  1
  O  O15  1  0.595710  0.560581  0.805231  1
  O  O16  1  0.056591  0.885451  0.165172  1
  O  O17  1  0.943443  0.114554  0.834810  1
  O  O18  1  0.497221  0.116048  0.316542  1
  O  O19  1  0.502780  0.883990  0.683461  1
  O  O20  1  0.461363  0.205812  0.879552  1
  O  O21  1  0.538658  0.794141  0.120508  1
  O  O22  1  0.976048  0.170728  0.371598  1
  O  O23  1  0.023873  0.829218  0.628438  1
