# generated using pymatgen
data_YNi3BIr
_symmetry_space_group_name_H-M   'P 1'
_cell_length_a   5.16614285
_cell_length_b   5.16614341
_cell_length_c   7.09487500
_cell_angle_alpha   90.00000000
_cell_angle_beta   90.00000000
_cell_angle_gamma   122.06505325
_symmetry_Int_Tables_number   1
_chemical_formula_structural   YNi3BIr
_chemical_formula_sum   'Y2 Ni6 B2 Ir2'
_cell_volume   160.46842519
_cell_formula_units_Z   2
loop_
 _symmetry_equiv_pos_site_id
 _symmetry_equiv_pos_as_xyz
  1  'x, y, z'
loop_
 _atom_site_type_symbol
 _atom_site_label
 _atom_site_symmetry_multiplicity
 _atom_site_fract_x
 _atom_site_fract_y
 _atom_site_fract_z
 _atom_site_occupancy
  Y  Y0  1  0.000000  0.000000  0.500000  1
  Y  Y1  1  0.000000  0.000000  0.000000  1
  Ni  Ni2  1  0.332457  0.667543  0.000000  1
  Ni  Ni3  1  0.667543  0.332457  0.000000  1
  Ni  Ni4  1  0.500000  0.000000  0.291657  1
  Ni  Ni5  1  0.000000  0.500000  0.291657  1
  Ni  Ni6  1  0.500000  0.000000  0.708343  1
  Ni  Ni7  1  0.000000  0.500000  0.708343  1
  B  B8  1  0.672654  0.327346  0.500000  1
  B  B9  1  0.327346  0.672654  0.500000  1
  Ir  Ir10  1  0.500000  0.500000  0.290270  1
  Ir  Ir11  1  0.500000  0.500000  0.709730  1
