# generated using pymatgen
data_Pa2Mn5(CoP)7
_symmetry_space_group_name_H-M   'P 1'
_cell_length_a   9.08507941
_cell_length_b   9.09159607
_cell_length_c   3.64873500
_cell_angle_alpha   90.00000000
_cell_angle_beta   90.00000000
_cell_angle_gamma   120.19601522
_symmetry_Int_Tables_number   1
_chemical_formula_structural   Pa2Mn5(CoP)7
_chemical_formula_sum   'Pa2 Mn5 Co7 P7'
_cell_volume   260.48373548
_cell_formula_units_Z   1
loop_
 _symmetry_equiv_pos_site_id
 _symmetry_equiv_pos_as_xyz
  1  'x, y, z'
loop_
 _atom_site_type_symbol
 _atom_site_label
 _atom_site_symmetry_multiplicity
 _atom_site_fract_x
 _atom_site_fract_y
 _atom_site_fract_z
 _atom_site_occupancy
  Pa  Pa0  1  0.667678  0.332503  0.500000  1
  Pa  Pa1  1  0.331714  0.668822  0.000000  1
  Mn  Mn2  1  0.561210  0.944747  0.500000  1
  Mn  Mn3  1  0.223036  0.102324  0.500000  1
  Mn  Mn4  1  0.882860  0.782402  0.500000  1
  Mn  Mn5  1  0.900307  0.117578  0.500000  1
  Mn  Mn6  1  0.052484  0.616185  0.500000  1
  Co  Co7  1  0.120416  0.846966  0.000000  1
  Co  Co8  1  0.384933  0.437671  0.500000  1
  Co  Co9  1  0.724257  0.876745  0.000000  1
  Co  Co10  1  0.930601  0.364415  0.000000  1
  Co  Co11  1  0.630872  0.561320  0.000000  1
  Co  Co12  1  0.435666  0.070096  0.000000  1
  Co  Co13  1  0.157815  0.279559  0.000000  1
  P  P14  1  0.001659  0.002651  0.000000  1
  P  P15  1  0.599607  0.710412  0.500000  1
  P  P16  1  0.699380  0.103953  0.000000  1
  P  P17  1  0.894057  0.592930  0.000000  1
  P  P18  1  0.405032  0.298666  0.000000  1
  P  P19  1  0.288273  0.890117  0.500000  1
  P  P20  1  0.108142  0.399940  0.500000  1
