# generated using pymatgen
data_YbDy3(ReN3)4
_symmetry_space_group_name_H-M   'P 1'
_cell_length_a   7.36626333
_cell_length_b   7.36626477
_cell_length_c   6.28111303
_cell_angle_alpha   73.35407413
_cell_angle_beta   73.35407694
_cell_angle_gamma   82.68372043
_symmetry_Int_Tables_number   1
_chemical_formula_structural   YbDy3(ReN3)4
_chemical_formula_sum   'Yb1 Dy3 Re4 N12'
_cell_volume   312.47662468
_cell_formula_units_Z   1
loop_
 _symmetry_equiv_pos_site_id
 _symmetry_equiv_pos_as_xyz
  1  'x, y, z'
loop_
 _atom_site_type_symbol
 _atom_site_label
 _atom_site_symmetry_multiplicity
 _atom_site_fract_x
 _atom_site_fract_y
 _atom_site_fract_z
 _atom_site_occupancy
  Yb  Yb0  1  0.705337  0.294663  0.250000  1
  Dy  Dy1  1  0.909066  0.090934  0.750000  1
  Dy  Dy2  1  0.292403  0.707597  0.750000  1
  Dy  Dy3  1  0.091298  0.908702  0.250000  1
  Re  Re4  1  0.622046  0.795404  0.272662  1
  Re  Re5  1  0.204596  0.377954  0.227338  1
  Re  Re6  1  0.379282  0.201956  0.727676  1
  Re  Re7  1  0.798044  0.620718  0.772324  1
  N  N8  1  0.341247  0.361308  0.929460  1
  N  N9  1  0.009565  0.218217  0.343091  1
  N  N10  1  0.781783  0.990435  0.156909  1
  N  N11  1  0.219730  0.002764  0.840642  1
  N  N12  1  0.655941  0.646309  0.064307  1
  N  N13  1  0.878016  0.377266  0.832511  1
  N  N14  1  0.126013  0.626718  0.158506  1
  N  N15  1  0.997236  0.780270  0.659358  1
  N  N16  1  0.373282  0.873987  0.341494  1
  N  N17  1  0.638692  0.658753  0.570540  1
  N  N18  1  0.622734  0.121984  0.667489  1
  N  N19  1  0.353691  0.344059  0.435693  1
