# generated using pymatgen
data_Ba4Ac3(US4)5
_symmetry_space_group_name_H-M   'P 1'
_cell_length_a   7.67412353
_cell_length_b   8.41160390
_cell_length_c   12.05263400
_cell_angle_alpha   89.58683707
_cell_angle_beta   90.11149882
_cell_angle_gamma   90.34205557
_symmetry_Int_Tables_number   1
_chemical_formula_structural   Ba4Ac3(US4)5
_chemical_formula_sum   'Ba4 Ac3 U5 S20'
_cell_volume   777.98236115
_cell_formula_units_Z   1
loop_
 _symmetry_equiv_pos_site_id
 _symmetry_equiv_pos_as_xyz
  1  'x, y, z'
loop_
 _atom_site_type_symbol
 _atom_site_label
 _atom_site_symmetry_multiplicity
 _atom_site_fract_x
 _atom_site_fract_y
 _atom_site_fract_z
 _atom_site_occupancy
  Ba  Ba0  1  0.053570  0.496192  0.328114  1
  Ba  Ba1  1  0.553290  0.506176  0.164463  1
  Ba  Ba2  1  0.944671  0.506127  0.672058  1
  Ba  Ba3  1  0.442169  0.493898  0.831668  1
  Ac  Ac4  1  0.046571  0.004152  0.326365  1
  Ac  Ac5  1  0.548493  0.998364  0.173679  1
  Ac  Ac6  1  0.951893  0.996892  0.671866  1
  U  U7  1  0.459559  0.000465  0.823811  1
  U  U8  1  0.055162  0.753855  0.001764  1
  U  U9  1  0.555484  0.249828  0.498596  1
  U  U10  1  0.946643  0.245424  0.991805  1
  U  U11  1  0.439413  0.750273  0.508074  1
  S  S12  1  0.666843  0.962855  0.424149  1
  S  S13  1  0.164026  0.037746  0.083099  1
  S  S14  1  0.338121  0.035980  0.594276  1
  S  S15  1  0.826154  0.958302  0.914940  1
  S  S16  1  0.438342  0.783700  0.992814  1
  S  S17  1  0.928866  0.239767  0.495814  1
  S  S18  1  0.557915  0.217631  0.982904  1
  S  S19  1  0.070402  0.764083  0.505812  1
  S  S20  1  0.856961  0.762666  0.184343  1
  S  S21  1  0.359355  0.237995  0.315335  1
  S  S22  1  0.157649  0.221101  0.815670  1
  S  S23  1  0.631703  0.772404  0.696654  1
  S  S24  1  0.336225  0.760505  0.294664  1
  S  S25  1  0.832077  0.242314  0.199865  1
  S  S26  1  0.661062  0.227609  0.712107  1
  S  S27  1  0.176903  0.772252  0.794664  1
  S  S28  1  0.174321  0.467542  0.067113  1
  S  S29  1  0.666382  0.537724  0.429323  1
  S  S30  1  0.828866  0.533302  0.925518  1
  S  S31  1  0.330907  0.462875  0.578671  1
