# generated using pymatgen
data_Tb8Y4Co5Bi
_symmetry_space_group_name_H-M   'P 1'
_cell_length_a   8.39433758
_cell_length_b   8.39433774
_cell_length_c   8.39433826
_cell_angle_alpha   110.67060373
_cell_angle_beta   110.60636298
_cell_angle_gamma   107.16111105
_symmetry_Int_Tables_number   1
_chemical_formula_structural   Tb8Y4Co5Bi
_chemical_formula_sum   'Tb8 Y4 Co5 Bi1'
_cell_volume   454.78918948
_cell_formula_units_Z   1
loop_
 _symmetry_equiv_pos_site_id
 _symmetry_equiv_pos_as_xyz
  1  'x, y, z'
loop_
 _atom_site_type_symbol
 _atom_site_label
 _atom_site_symmetry_multiplicity
 _atom_site_fract_x
 _atom_site_fract_y
 _atom_site_fract_z
 _atom_site_occupancy
  Tb  Tb0  1  0.688385  0.378184  0.689800  1
  Tb  Tb1  1  0.311615  0.621816  0.310200  1
  Tb  Tb2  1  0.688385  0.998585  0.310200  1
  Tb  Tb3  1  0.311615  0.001415  0.689800  1
  Tb  Tb4  1  0.602322  0.796141  0.806182  1
  Tb  Tb5  1  0.397678  0.203859  0.193818  1
  Tb  Tb6  1  0.989959  0.796141  0.193818  1
  Tb  Tb7  1  0.010041  0.203859  0.806182  1
  Y  Y8  1  0.816014  0.708423  0.524436  1
  Y  Y9  1  0.183986  0.291577  0.475564  1
  Y  Y10  1  0.183986  0.708423  0.892410  1
  Y  Y11  1  0.816014  0.291577  0.107590  1
  Co  Co12  1  0.622436  0.000000  0.622436  1
  Co  Co13  1  0.377564  0.000000  0.377564  1
  Co  Co14  1  0.110786  0.610786  0.500000  1
  Co  Co15  1  0.889214  0.389214  0.500000  1
  Co  Co16  1  0.000000  0.000000  0.000000  1
  Bi  Bi17  1  0.500000  0.500000  0.000000  1
