# generated using pymatgen
data_Y8Ho2IrOs3
_symmetry_space_group_name_H-M   'P 1'
_cell_length_a   6.41121710
_cell_length_b   7.36920423
_cell_length_c   8.42960853
_cell_angle_alpha   96.79131687
_cell_angle_beta   112.21987493
_cell_angle_gamma   90.01432005
_symmetry_Int_Tables_number   1
_chemical_formula_structural   Y8Ho2IrOs3
_chemical_formula_sum   'Y8 Ho2 Ir1 Os3'
_cell_volume   365.66128893
_cell_formula_units_Z   1
loop_
 _symmetry_equiv_pos_site_id
 _symmetry_equiv_pos_as_xyz
  1  'x, y, z'
loop_
 _atom_site_type_symbol
 _atom_site_label
 _atom_site_symmetry_multiplicity
 _atom_site_fract_x
 _atom_site_fract_y
 _atom_site_fract_z
 _atom_site_occupancy
  Y  Y0  1  0.971889  0.914907  0.180401  1
  Y  Y1  1  0.790546  0.582789  0.817108  1
  Y  Y2  1  0.023849  0.083952  0.814035  1
  Y  Y3  1  0.207596  0.418285  0.180844  1
  Y  Y4  1  0.648876  0.816736  0.438673  1
  Y  Y5  1  0.210233  0.682179  0.562879  1
  Y  Y6  1  0.351992  0.181795  0.564236  1
  Y  Y7  1  0.793215  0.319455  0.438248  1
  Ho  Ho8  1  0.423036  0.748854  0.999345  1
  Ho  Ho9  1  0.577191  0.250461  0.999616  1
  Ir  Ir10  1  0.396085  0.076287  0.220421  1
  Os  Os11  1  0.821694  0.575738  0.217132  1
  Os  Os12  1  0.606100  0.924862  0.782987  1
  Os  Os13  1  0.177699  0.423695  0.784073  1
