# generated using pymatgen
data_Tb6Th4Sn7Sb
_symmetry_space_group_name_H-M   'P 1'
_cell_length_a   8.16695700
_cell_length_b   8.25803663
_cell_length_c   15.56729708
_cell_angle_alpha   90.07203667
_cell_angle_beta   90.00000000
_cell_angle_gamma   90.00000000
_symmetry_Int_Tables_number   1
_chemical_formula_structural   Tb6Th4Sn7Sb
_chemical_formula_sum   'Tb12 Th8 Sn14 Sb2'
_cell_volume   1049.90485508
_cell_formula_units_Z   2
loop_
 _symmetry_equiv_pos_site_id
 _symmetry_equiv_pos_as_xyz
  1  'x, y, z'
loop_
 _atom_site_type_symbol
 _atom_site_label
 _atom_site_symmetry_multiplicity
 _atom_site_fract_x
 _atom_site_fract_y
 _atom_site_fract_z
 _atom_site_occupancy
  Tb  Tb0  1  0.363931  0.836518  0.877134  1
  Tb  Tb1  1  0.863931  0.663482  0.622866  1
  Tb  Tb2  1  0.635647  0.162623  0.376392  1
  Tb  Tb3  1  0.135647  0.337377  0.123608  1
  Tb  Tb4  1  0.636917  0.163744  0.123034  1
  Tb  Tb5  1  0.136917  0.336256  0.376966  1
  Tb  Tb6  1  0.363859  0.836540  0.623353  1
  Tb  Tb7  1  0.863859  0.663460  0.876647  1
  Tb  Tb8  1  0.192179  0.497004  0.749635  1
  Tb  Tb9  1  0.692179  0.002996  0.750365  1
  Tb  Tb10  1  0.807825  0.504044  0.249373  1
  Tb  Tb11  1  0.307825  0.995956  0.250627  1
  Th  Th12  1  0.519222  0.321659  0.903639  1
  Th  Th13  1  0.019222  0.178341  0.596361  1
  Th  Th14  1  0.479726  0.679893  0.403434  1
  Th  Th15  1  0.979726  0.820107  0.096566  1
  Th  Th16  1  0.481598  0.679392  0.095951  1
  Th  Th17  1  0.981598  0.820608  0.404049  1
  Th  Th18  1  0.518324  0.320240  0.596445  1
  Th  Th19  1  0.018324  0.179760  0.903555  1
  Sn  Sn20  1  0.703573  0.961417  0.541854  1
  Sn  Sn21  1  0.203573  0.538583  0.958146  1
  Sn  Sn22  1  0.705579  0.961691  0.957624  1
  Sn  Sn23  1  0.205579  0.538309  0.542376  1
  Sn  Sn24  1  0.296869  0.038097  0.457542  1
  Sn  Sn25  1  0.796869  0.461903  0.042458  1
  Sn  Sn26  1  0.559448  0.620069  0.749937  1
  Sn  Sn27  1  0.059448  0.879931  0.750063  1
  Sn  Sn28  1  0.441048  0.379849  0.250084  1
  Sn  Sn29  1  0.941048  0.120151  0.249916  1
  Sn  Sn30  1  0.325099  0.141804  0.750145  1
  Sn  Sn31  1  0.825099  0.358196  0.749855  1
  Sn  Sn32  1  0.674306  0.857868  0.250038  1
  Sn  Sn33  1  0.174306  0.642132  0.249962  1
  Sb  Sb34  1  0.294851  0.038443  0.042900  1
  Sb  Sb35  1  0.794851  0.461557  0.457100  1
