# generated using pymatgen
data_GdPa(ReN3)2
_symmetry_space_group_name_H-M   'P 1'
_cell_length_a   5.35283900
_cell_length_b   5.76946000
_cell_length_c   7.78858700
_cell_angle_alpha   90.00000000
_cell_angle_beta   90.00000000
_cell_angle_gamma   90.00000000
_symmetry_Int_Tables_number   1
_chemical_formula_structural   GdPa(ReN3)2
_chemical_formula_sum   'Gd2 Pa2 Re4 N12'
_cell_volume   240.53485831
_cell_formula_units_Z   2
loop_
 _symmetry_equiv_pos_site_id
 _symmetry_equiv_pos_as_xyz
  1  'x, y, z'
loop_
 _atom_site_type_symbol
 _atom_site_label
 _atom_site_symmetry_multiplicity
 _atom_site_fract_x
 _atom_site_fract_y
 _atom_site_fract_z
 _atom_site_occupancy
  Gd  Gd0  1  0.484362  0.433964  0.250000  1
  Gd  Gd1  1  0.015638  0.933964  0.250000  1
  Pa  Pa2  1  0.522811  0.575485  0.750000  1
  Pa  Pa3  1  0.977189  0.075485  0.750000  1
  Re  Re4  1  0.489892  0.998173  0.491245  1
  Re  Re5  1  0.010108  0.498173  0.008755  1
  Re  Re6  1  0.010108  0.498173  0.491245  1
  Re  Re7  1  0.489892  0.998173  0.008755  1
  N  N8  1  0.688856  0.304670  0.562858  1
  N  N9  1  0.300609  0.707859  0.043179  1
  N  N10  1  0.199391  0.207859  0.043179  1
  N  N11  1  0.384157  0.956896  0.750000  1
  N  N12  1  0.921687  0.512252  0.250000  1
  N  N13  1  0.300609  0.707859  0.456821  1
  N  N14  1  0.811144  0.804670  0.937142  1
  N  N15  1  0.688856  0.304670  0.937142  1
  N  N16  1  0.811144  0.804670  0.562858  1
  N  N17  1  0.115843  0.456896  0.750000  1
  N  N18  1  0.199391  0.207859  0.456821  1
  N  N19  1  0.578313  0.012252  0.250000  1
