# generated using pymatgen
data_Rb6Mn(IrBr6)3
_symmetry_space_group_name_H-M   'P 1'
_cell_length_a   7.52609602
_cell_length_b   7.52648692
_cell_length_c   19.40212002
_cell_angle_alpha   90.00221600
_cell_angle_beta   89.99511156
_cell_angle_gamma   119.99184451
_symmetry_Int_Tables_number   1
_chemical_formula_structural   Rb6Mn(IrBr6)3
_chemical_formula_sum   'Rb6 Mn1 Ir3 Br18'
_cell_volume   951.86984214
_cell_formula_units_Z   1
loop_
 _symmetry_equiv_pos_site_id
 _symmetry_equiv_pos_as_xyz
  1  'x, y, z'
loop_
 _atom_site_type_symbol
 _atom_site_label
 _atom_site_symmetry_multiplicity
 _atom_site_fract_x
 _atom_site_fract_y
 _atom_site_fract_z
 _atom_site_occupancy
  Rb  Rb0  1  0.333378  0.666640  0.061857  1
  Rb  Rb1  1  0.666670  0.333324  0.938806  1
  Rb  Rb2  1  0.666669  0.333314  0.566307  1
  Rb  Rb3  1  0.333330  0.666656  0.440346  1
  Rb  Rb4  1  0.999988  0.999991  0.250992  1
  Rb  Rb5  1  0.999968  0.999997  0.745660  1
  Mn  Mn6  1  0.333550  0.666767  0.840238  1
  Ir  Ir7  1  0.333263  0.666680  0.666887  1
  Ir  Ir8  1  0.666675  0.333318  0.335392  1
  Ir  Ir9  1  0.666644  0.333330  0.164894  1
  Br  Br10  1  0.176484  0.352917  0.592974  1
  Br  Br11  1  0.823735  0.647451  0.408171  1
  Br  Br12  1  0.647083  0.823531  0.592981  1
  Br  Br13  1  0.823840  0.647619  0.092069  1
  Br  Br14  1  0.352532  0.176246  0.408168  1
  Br  Br15  1  0.170293  0.340624  0.906751  1
  Br  Br16  1  0.176492  0.823537  0.592943  1
  Br  Br17  1  0.352347  0.176156  0.092060  1
  Br  Br18  1  0.823728  0.176262  0.408186  1
  Br  Br19  1  0.659701  0.829887  0.906820  1
  Br  Br20  1  0.823785  0.176221  0.092102  1
  Br  Br21  1  0.170494  0.829513  0.906664  1
  Br  Br22  1  0.517092  0.034246  0.250100  1
  Br  Br23  1  0.487491  0.975162  0.746138  1
  Br  Br24  1  0.965745  0.482890  0.250106  1
  Br  Br25  1  0.024550  0.512329  0.746043  1
  Br  Br26  1  0.517155  0.482819  0.250047  1
  Br  Br27  1  0.487318  0.512576  0.746298  1
