# generated using pymatgen
data_Er4Tm5Lu3TlCo5
_symmetry_space_group_name_H-M   'P 1'
_cell_length_a   8.12928340
_cell_length_b   8.12685376
_cell_length_c   8.12685287
_cell_angle_alpha   110.79898134
_cell_angle_beta   110.95181776
_cell_angle_gamma   106.68646365
_symmetry_Int_Tables_number   1
_chemical_formula_structural   Er4Tm5Lu3TlCo5
_chemical_formula_sum   'Er4 Tm5 Lu3 Tl1 Co5'
_cell_volume   412.64255576
_cell_formula_units_Z   1
loop_
 _symmetry_equiv_pos_site_id
 _symmetry_equiv_pos_as_xyz
  1  'x, y, z'
loop_
 _atom_site_type_symbol
 _atom_site_label
 _atom_site_symmetry_multiplicity
 _atom_site_fract_x
 _atom_site_fract_y
 _atom_site_fract_z
 _atom_site_occupancy
  Er  Er0  1  0.213503  0.406466  0.192297  1
  Er  Er1  1  0.786436  0.594083  0.808113  1
  Er  Er2  1  0.213503  0.021206  0.807037  1
  Er  Er3  1  0.786436  0.978323  0.192353  1
  Tm  Tm4  1  0.287712  0.184816  0.473180  1
  Tm  Tm5  1  0.712008  0.815697  0.527155  1
  Tm  Tm6  1  0.287712  0.814532  0.102896  1
  Tm  Tm7  1  0.712008  0.184853  0.896310  1
  Tm  Tm8  1  0.620395  0.314765  0.305629  1
  Lu  Lu9  1  0.378771  0.684985  0.693785  1
  Lu  Lu10  1  0.008818  0.315087  0.693729  1
  Lu  Lu11  1  0.991381  0.685027  0.306354  1
  Tl  Tl12  1  0.500107  0.500316  0.999791  1
  Co  Co13  1  0.000843  0.376733  0.376964  1
  Co  Co14  1  0.000843  0.623878  0.624109  1
  Co  Co15  1  0.385779  0.885955  0.499824  1
  Co  Co16  1  0.613377  0.113129  0.500248  1
  Co  Co17  1  0.000369  0.000143  0.000225  1
