# generated using pymatgen
data_Tb4Lu8ZnCo4Bi
_symmetry_space_group_name_H-M   'P 1'
_cell_length_a   8.25803379
_cell_length_b   8.25803449
_cell_length_c   8.25803467
_cell_angle_alpha   111.88217920
_cell_angle_beta   109.59639255
_cell_angle_gamma   106.97225593
_symmetry_Int_Tables_number   1
_chemical_formula_structural   Tb4Lu8ZnCo4Bi
_chemical_formula_sum   'Tb4 Lu8 Zn1 Co4 Bi1'
_cell_volume   432.72335325
_cell_formula_units_Z   1
loop_
 _symmetry_equiv_pos_site_id
 _symmetry_equiv_pos_as_xyz
  1  'x, y, z'
loop_
 _atom_site_type_symbol
 _atom_site_label
 _atom_site_symmetry_multiplicity
 _atom_site_fract_x
 _atom_site_fract_y
 _atom_site_fract_z
 _atom_site_occupancy
  Tb  Tb0  1  0.571233  0.778841  0.792394  1
  Tb  Tb1  1  0.428767  0.221159  0.207606  1
  Tb  Tb2  1  0.986447  0.778841  0.207606  1
  Tb  Tb3  1  0.013553  0.221159  0.792394  1
  Lu  Lu4  1  0.820506  0.713350  0.533857  1
  Lu  Lu5  1  0.179494  0.286650  0.466143  1
  Lu  Lu6  1  0.179494  0.713350  0.892845  1
  Lu  Lu7  1  0.820506  0.286650  0.107155  1
  Lu  Lu8  1  0.685347  0.377277  0.691930  1
  Lu  Lu9  1  0.314653  0.622723  0.308070  1
  Lu  Lu10  1  0.685347  0.993416  0.308070  1
  Lu  Lu11  1  0.314653  0.006584  0.691930  1
  Zn  Zn12  1  0.000000  0.000000  0.000000  1
  Co  Co13  1  0.621645  0.000000  0.621645  1
  Co  Co14  1  0.378355  0.000000  0.378355  1
  Co  Co15  1  0.112658  0.612658  0.500000  1
  Co  Co16  1  0.887342  0.387342  0.500000  1
  Bi  Bi17  1  0.500000  0.500000  0.000000  1
