# generated using pymatgen
data_K3Ho(IO3)6
_symmetry_space_group_name_H-M   'P 1'
_cell_length_a   7.15471301
_cell_length_b   7.23683179
_cell_length_c   10.91551612
_cell_angle_alpha   98.74207669
_cell_angle_beta   108.13927587
_cell_angle_gamma   103.10505995
_symmetry_Int_Tables_number   1
_chemical_formula_structural   K3Ho(IO3)6
_chemical_formula_sum   'K3 Ho1 I6 O18'
_cell_volume   507.75093939
_cell_formula_units_Z   1
loop_
 _symmetry_equiv_pos_site_id
 _symmetry_equiv_pos_as_xyz
  1  'x, y, z'
loop_
 _atom_site_type_symbol
 _atom_site_label
 _atom_site_symmetry_multiplicity
 _atom_site_fract_x
 _atom_site_fract_y
 _atom_site_fract_z
 _atom_site_occupancy
  K  K0  1  0.378421  0.540171  0.294093  1
  K  K1  1  0.621579  0.459829  0.705907  1
  K  K2  1  0.000000  0.500000  0.500000  1
  Ho  Ho3  1  0.000000  0.000000  0.000000  1
  I  I4  1  0.559401  0.034469  0.194963  1
  I  I5  1  0.440599  0.965531  0.805037  1
  I  I6  1  0.778738  0.533884  0.104313  1
  I  I7  1  0.221262  0.466116  0.895687  1
  I  I8  1  0.134098  0.061236  0.382694  1
  I  I9  1  0.865902  0.938764  0.617306  1
  O  O10  1  0.589454  0.655327  0.126964  1
  O  O11  1  0.410546  0.344673  0.873036  1
  O  O12  1  0.008768  0.358076  0.736968  1
  O  O13  1  0.991232  0.641924  0.263032  1
  O  O14  1  0.612385  0.301477  0.236033  1
  O  O15  1  0.387615  0.698523  0.763967  1
  O  O16  1  0.056122  0.105585  0.213571  1
  O  O17  1  0.943878  0.894415  0.786429  1
  O  O18  1  0.318403  0.964987  0.044363  1
  O  O19  1  0.681597  0.035013  0.955637  1
  O  O20  1  0.293210  0.308335  0.471260  1
  O  O21  1  0.706790  0.691665  0.528740  1
  O  O22  1  0.889939  0.079243  0.403151  1
  O  O23  1  0.110061  0.920757  0.596849  1
  O  O24  1  0.559398  0.036275  0.687042  1
  O  O25  1  0.440602  0.963725  0.312958  1
  O  O26  1  0.120822  0.322175  0.001243  1
  O  O27  1  0.879178  0.677825  0.998757  1
