# generated using pymatgen
data_Sr2Si2AsPt3
_symmetry_space_group_name_H-M   'P 1'
_cell_length_a   4.37550711
_cell_length_b   4.31957000
_cell_length_c   8.96284454
_cell_angle_alpha   90.00000000
_cell_angle_beta   104.12814459
_cell_angle_gamma   90.00000000
_symmetry_Int_Tables_number   1
_chemical_formula_structural   Sr2Si2AsPt3
_chemical_formula_sum   'Sr2 Si2 As1 Pt3'
_cell_volume   164.27654522
_cell_formula_units_Z   1
loop_
 _symmetry_equiv_pos_site_id
 _symmetry_equiv_pos_as_xyz
  1  'x, y, z'
loop_
 _atom_site_type_symbol
 _atom_site_label
 _atom_site_symmetry_multiplicity
 _atom_site_fract_x
 _atom_site_fract_y
 _atom_site_fract_z
 _atom_site_occupancy
  Sr  Sr0  1  0.599909  0.250000  0.199816  1
  Sr  Sr1  1  0.399432  0.750000  0.798865  1
  Si  Si2  1  0.817075  0.250000  0.634148  1
  Si  Si3  1  0.178446  0.750000  0.356892  1
  As  As4  1  0.961693  0.250000  0.923387  1
  Pt  Pt5  1  0.042626  0.750000  0.085250  1
  Pt  Pt6  1  0.250019  0.250000  0.500037  1
  Pt  Pt7  1  0.750801  0.750000  0.501604  1
