# generated using pymatgen
data_Tb2TcB6
_symmetry_space_group_name_H-M   'P 1'
_cell_length_a   3.70698900
_cell_length_b   9.19938500
_cell_length_c   11.59524900
_cell_angle_alpha   90.00000000
_cell_angle_beta   90.00000000
_cell_angle_gamma   90.00000000
_symmetry_Int_Tables_number   1
_chemical_formula_structural   Tb2TcB6
_chemical_formula_sum   'Tb8 Tc4 B24'
_cell_volume   395.42140173
_cell_formula_units_Z   4
loop_
 _symmetry_equiv_pos_site_id
 _symmetry_equiv_pos_as_xyz
  1  'x, y, z'
loop_
 _atom_site_type_symbol
 _atom_site_label
 _atom_site_symmetry_multiplicity
 _atom_site_fract_x
 _atom_site_fract_y
 _atom_site_fract_z
 _atom_site_occupancy
  Tb  Tb0  1  0.000000  0.324375  0.414160  1
  Tb  Tb1  1  0.000000  0.675625  0.585840  1
  Tb  Tb2  1  0.000000  0.824375  0.085840  1
  Tb  Tb3  1  0.000000  0.175625  0.914160  1
  Tb  Tb4  1  0.000000  0.943115  0.369476  1
  Tb  Tb5  1  0.000000  0.056885  0.630524  1
  Tb  Tb6  1  0.000000  0.443115  0.130524  1
  Tb  Tb7  1  0.000000  0.556885  0.869476  1
  Tc  Tc8  1  0.000000  0.638987  0.320553  1
  Tc  Tc9  1  0.000000  0.361013  0.679447  1
  Tc  Tc10  1  0.000000  0.138987  0.179447  1
  Tc  Tc11  1  0.000000  0.861013  0.820553  1
  B  B12  1  0.500000  0.553568  0.432507  1
  B  B13  1  0.500000  0.446432  0.567493  1
  B  B14  1  0.500000  0.053568  0.067493  1
  B  B15  1  0.500000  0.946432  0.932507  1
  B  B16  1  0.500000  0.748061  0.418270  1
  B  B17  1  0.500000  0.251939  0.581730  1
  B  B18  1  0.500000  0.248061  0.081730  1
  B  B19  1  0.500000  0.751939  0.918270  1
  B  B20  1  0.500000  0.791606  0.265819  1
  B  B21  1  0.500000  0.208394  0.734181  1
  B  B22  1  0.500000  0.291606  0.234181  1
  B  B23  1  0.500000  0.708394  0.765819  1
  B  B24  1  0.500000  0.631537  0.186266  1
  B  B25  1  0.500000  0.368463  0.813734  1
  B  B26  1  0.500000  0.131537  0.313734  1
  B  B27  1  0.500000  0.868463  0.686266  1
  B  B28  1  0.500000  0.983238  0.211711  1
  B  B29  1  0.500000  0.016762  0.788289  1
  B  B30  1  0.500000  0.483238  0.288289  1
  B  B31  1  0.500000  0.516762  0.711711  1
  B  B32  1  0.500000  0.601249  0.028332  1
  B  B33  1  0.500000  0.398751  0.971668  1
  B  B34  1  0.500000  0.101249  0.471668  1
  B  B35  1  0.500000  0.898751  0.528332  1
