# generated using pymatgen
data_La2SiNiBr
_symmetry_space_group_name_H-M   'P 1'
_cell_length_a   4.17235300
_cell_length_b   4.17235265
_cell_length_c   16.63618400
_cell_angle_alpha   90.00000000
_cell_angle_beta   90.00000000
_cell_angle_gamma   120.00001069
_symmetry_Int_Tables_number   1
_chemical_formula_structural   La2SiNiBr
_chemical_formula_sum   'La4 Si2 Ni2 Br2'
_cell_volume   250.81086898
_cell_formula_units_Z   2
loop_
 _symmetry_equiv_pos_site_id
 _symmetry_equiv_pos_as_xyz
  1  'x, y, z'
loop_
 _atom_site_type_symbol
 _atom_site_label
 _atom_site_symmetry_multiplicity
 _atom_site_fract_x
 _atom_site_fract_y
 _atom_site_fract_z
 _atom_site_occupancy
  La  La0  1  0.000000  0.000000  0.386727  1
  La  La1  1  0.000000  0.000000  0.886727  1
  La  La2  1  0.000000  0.000000  0.610528  1
  La  La3  1  0.000000  0.000000  0.110528  1
  Si  Si4  1  0.666667  0.333333  0.494606  1
  Si  Si5  1  0.333333  0.666667  0.994606  1
  Ni  Ni6  1  0.333333  0.666667  0.507241  1
  Ni  Ni7  1  0.666667  0.333333  0.007241  1
  Br  Br8  1  0.333333  0.666667  0.250898  1
  Br  Br9  1  0.666667  0.333333  0.750898  1
