# generated using pymatgen
data_TbNd6PI12
_symmetry_space_group_name_H-M   'P 1'
_cell_length_a   9.96929652
_cell_length_b   9.96929631
_cell_length_c   9.96929675
_cell_angle_alpha   107.75002391
_cell_angle_beta   107.75001975
_cell_angle_gamma   107.75002542
_symmetry_Int_Tables_number   1
_chemical_formula_structural   TbNd6PI12
_chemical_formula_sum   'Tb1 Nd6 P1 I12'
_cell_volume   807.68488644
_cell_formula_units_Z   1
loop_
 _symmetry_equiv_pos_site_id
 _symmetry_equiv_pos_as_xyz
  1  'x, y, z'
loop_
 _atom_site_type_symbol
 _atom_site_label
 _atom_site_symmetry_multiplicity
 _atom_site_fract_x
 _atom_site_fract_y
 _atom_site_fract_z
 _atom_site_occupancy
  Tb  Tb0  1  0.500000  0.500000  0.500000  1
  Nd  Nd1  1  0.900000  0.971561  0.697011  1
  Nd  Nd2  1  0.971561  0.697011  0.900000  1
  Nd  Nd3  1  0.697011  0.900000  0.971561  1
  Nd  Nd4  1  0.100000  0.028439  0.302989  1
  Nd  Nd5  1  0.028439  0.302989  0.100000  1
  Nd  Nd6  1  0.302989  0.100000  0.028439  1
  P  P7  1  0.000000  0.000000  0.000000  1
  I  I8  1  0.532195  0.837963  0.611829  1
  I  I9  1  0.837963  0.611829  0.532195  1
  I  I10  1  0.611829  0.532195  0.837963  1
  I  I11  1  0.467805  0.162037  0.388171  1
  I  I12  1  0.162037  0.388171  0.467805  1
  I  I13  1  0.388171  0.467805  0.162037  1
  I  I14  1  0.683522  0.226967  0.072450  1
  I  I15  1  0.226967  0.072450  0.683522  1
  I  I16  1  0.072450  0.683522  0.226967  1
  I  I17  1  0.316478  0.773033  0.927550  1
  I  I18  1  0.773033  0.927550  0.316478  1
  I  I19  1  0.927550  0.316478  0.773033  1
