# generated using pymatgen
data_Er4AgPt11
_symmetry_space_group_name_H-M   'P 1'
_cell_length_a   4.12479000
_cell_length_b   5.82035469
_cell_length_c   11.64864478
_cell_angle_alpha   89.89406977
_cell_angle_beta   90.00000000
_cell_angle_gamma   90.00000000
_symmetry_Int_Tables_number   1
_chemical_formula_structural   Er4AgPt11
_chemical_formula_sum   'Er4 Ag1 Pt11'
_cell_volume   279.65716678
_cell_formula_units_Z   1
loop_
 _symmetry_equiv_pos_site_id
 _symmetry_equiv_pos_as_xyz
  1  'x, y, z'
loop_
 _atom_site_type_symbol
 _atom_site_label
 _atom_site_symmetry_multiplicity
 _atom_site_fract_x
 _atom_site_fract_y
 _atom_site_fract_z
 _atom_site_occupancy
  Er  Er0  1  0.500000  0.752126  0.375154  1
  Er  Er1  1  0.500000  0.738191  0.870492  1
  Er  Er2  1  0.500000  0.261809  0.129508  1
  Er  Er3  1  0.500000  0.247874  0.624846  1
  Ag  Ag4  1  0.000000  0.000000  0.000000  1
  Pt  Pt5  1  0.000000  0.004825  0.250528  1
  Pt  Pt6  1  0.000000  0.995175  0.749472  1
  Pt  Pt7  1  0.000000  0.500000  0.000000  1
  Pt  Pt8  1  0.000000  0.500000  0.500000  1
  Pt  Pt9  1  0.000000  0.505672  0.249626  1
  Pt  Pt10  1  0.000000  0.494328  0.750374  1
  Pt  Pt11  1  0.500000  0.251420  0.375877  1
  Pt  Pt12  1  0.500000  0.244434  0.875055  1
  Pt  Pt13  1  0.500000  0.755566  0.124945  1
  Pt  Pt14  1  0.500000  0.748580  0.624123  1
  Pt  Pt15  1  0.000000  0.000000  0.500000  1
