# generated using pymatgen
data_Cs4V(PSe3)4
_symmetry_space_group_name_H-M   'P 1'
_cell_length_a   8.13415780
_cell_length_b   8.13415756
_cell_length_c   25.95691200
_cell_angle_alpha   79.90135639
_cell_angle_beta   79.90135670
_cell_angle_gamma   66.70472424
_symmetry_Int_Tables_number   1
_chemical_formula_structural   Cs4V(PSe3)4
_chemical_formula_sum   'Cs8 V2 P8 Se24'
_cell_volume   1542.27468245
_cell_formula_units_Z   2
loop_
 _symmetry_equiv_pos_site_id
 _symmetry_equiv_pos_as_xyz
  1  'x, y, z'
loop_
 _atom_site_type_symbol
 _atom_site_label
 _atom_site_symmetry_multiplicity
 _atom_site_fract_x
 _atom_site_fract_y
 _atom_site_fract_z
 _atom_site_occupancy
  Cs  Cs0  1  0.826682  0.784913  0.050473  1
  Cs  Cs1  1  0.215087  0.173318  0.449527  1
  Cs  Cs2  1  0.173318  0.215087  0.949527  1
  Cs  Cs3  1  0.784913  0.826682  0.550473  1
  Cs  Cs4  1  0.645346  0.532630  0.320631  1
  Cs  Cs5  1  0.467370  0.354654  0.179369  1
  Cs  Cs6  1  0.354654  0.467370  0.679369  1
  Cs  Cs7  1  0.532630  0.645346  0.820631  1
  V  V8  1  0.080369  0.919631  0.250000  1
  V  V9  1  0.919631  0.080369  0.750000  1
  P  P10  1  0.101770  0.773104  0.371610  1
  P  P11  1  0.226896  0.898230  0.128390  1
  P  P12  1  0.898230  0.226896  0.628390  1
  P  P13  1  0.773104  0.101770  0.871610  1
  P  P14  1  0.055208  0.199578  0.115736  1
  P  P15  1  0.800422  0.944792  0.384264  1
  P  P16  1  0.944792  0.800422  0.884264  1
  P  P17  1  0.199578  0.055208  0.615736  1
  Se  Se18  1  0.213088  0.638170  0.443111  1
  Se  Se19  1  0.361830  0.786912  0.056889  1
  Se  Se20  1  0.786912  0.361830  0.556889  1
  Se  Se21  1  0.638170  0.213088  0.943111  1
  Se  Se22  1  0.114252  0.618424  0.305348  1
  Se  Se23  1  0.381576  0.885748  0.194652  1
  Se  Se24  1  0.885748  0.381576  0.694652  1
  Se  Se25  1  0.618424  0.114252  0.805348  1
  Se  Se26  1  0.038329  0.774871  0.177888  1
  Se  Se27  1  0.225129  0.961671  0.322112  1
  Se  Se28  1  0.961671  0.225129  0.822112  1
  Se  Se29  1  0.774871  0.038329  0.677888  1
  Se  Se30  1  0.227918  0.342641  0.079422  1
  Se  Se31  1  0.657359  0.772082  0.420578  1
  Se  Se32  1  0.772082  0.657359  0.920578  1
  Se  Se33  1  0.342641  0.227918  0.579422  1
  Se  Se34  1  0.838208  0.237088  0.071580  1
  Se  Se35  1  0.762912  0.161792  0.428420  1
  Se  Se36  1  0.161792  0.762912  0.928420  1
  Se  Se37  1  0.237088  0.838208  0.571580  1
  Se  Se38  1  0.949257  0.234962  0.203266  1
  Se  Se39  1  0.765038  0.050743  0.296734  1
  Se  Se40  1  0.050743  0.765038  0.796734  1
  Se  Se41  1  0.234962  0.949257  0.703266  1
