# generated using pymatgen
data_Mg4Sc2Co15Si7Ni
_symmetry_space_group_name_H-M   'P 1'
_cell_length_a   7.99666102
_cell_length_b   8.01413502
_cell_length_c   8.01413420
_cell_angle_alpha   59.91115024
_cell_angle_beta   60.00343588
_cell_angle_gamma   60.00343223
_symmetry_Int_Tables_number   1
_chemical_formula_structural   Mg4Sc2Co15Si7Ni
_chemical_formula_sum   'Mg4 Sc2 Co15 Si7 Ni1'
_cell_volume   362.94180541
_cell_formula_units_Z   1
loop_
 _symmetry_equiv_pos_site_id
 _symmetry_equiv_pos_as_xyz
  1  'x, y, z'
loop_
 _atom_site_type_symbol
 _atom_site_label
 _atom_site_symmetry_multiplicity
 _atom_site_fract_x
 _atom_site_fract_y
 _atom_site_fract_z
 _atom_site_occupancy
  Mg  Mg0  1  0.203749  0.795326  0.795326  1
  Mg  Mg1  1  0.795825  0.205114  0.793094  1
  Mg  Mg2  1  0.795387  0.205773  0.205773  1
  Mg  Mg3  1  0.795825  0.793094  0.205114  1
  Sc  Sc4  1  0.212359  0.214468  0.786123  1
  Sc  Sc5  1  0.212359  0.786123  0.214468  1
  Co  Co6  1  0.173879  0.480218  0.173137  1
  Co  Co7  1  0.380800  0.854959  0.383306  1
  Co  Co8  1  0.617223  0.618936  0.618936  1
  Co  Co9  1  0.173879  0.173137  0.480218  1
  Co  Co10  1  0.619449  0.142420  0.618471  1
  Co  Co11  1  0.619449  0.618471  0.142420  1
  Co  Co12  1  0.826576  0.521205  0.826305  1
  Co  Co13  1  0.139815  0.620751  0.620751  1
  Co  Co14  1  0.381917  0.380495  0.380495  1
  Co  Co15  1  0.172743  0.172101  0.172101  1
  Co  Co16  1  0.824804  0.824964  0.824964  1
  Co  Co17  1  0.826576  0.826305  0.521205  1
  Co  Co18  1  0.380800  0.383306  0.854959  1
  Co  Co19  1  0.519437  0.827148  0.827148  1
  Co  Co20  1  0.851301  0.382613  0.382613  1
  Si  Si21  1  0.498786  0.501109  0.998231  1
  Si  Si22  1  0.999067  0.003323  0.499848  1
  Si  Si23  1  0.496291  0.500027  0.500027  1
  Si  Si24  1  0.999067  0.499848  0.003323  1
  Si  Si25  1  0.499346  0.000617  0.000617  1
  Si  Si26  1  0.498786  0.998231  0.501109  1
  Si  Si27  1  0.996277  0.499201  0.499201  1
  Ni  Ni28  1  0.488230  0.170718  0.170718  1
