# generated using pymatgen
data_Dy3Er9InCuNi4
_symmetry_space_group_name_H-M   'P 1'
_cell_length_a   8.30130886
_cell_length_b   8.30130859
_cell_length_c   8.30388947
_cell_angle_alpha   112.23934701
_cell_angle_beta   109.27554805
_cell_angle_gamma   106.92931469
_symmetry_Int_Tables_number   1
_chemical_formula_structural   Dy3Er9InCuNi4
_chemical_formula_sum   'Dy3 Er9 In1 Cu1 Ni4'
_cell_volume   439.62671221
_cell_formula_units_Z   1
loop_
 _symmetry_equiv_pos_site_id
 _symmetry_equiv_pos_as_xyz
  1  'x, y, z'
loop_
 _atom_site_type_symbol
 _atom_site_label
 _atom_site_symmetry_multiplicity
 _atom_site_fract_x
 _atom_site_fract_y
 _atom_site_fract_z
 _atom_site_occupancy
  Dy  Dy0  1  0.819084  0.207491  0.026574  1
  Dy  Dy1  1  0.181583  0.793462  0.975047  1
  Dy  Dy2  1  0.818204  0.793245  0.611449  1
  Er  Er3  1  0.026372  0.720972  0.306172  1
  Er  Er4  1  0.973836  0.280710  0.693072  1
  Er  Er5  1  0.585200  0.279801  0.306172  1
  Er  Er6  1  0.412361  0.719234  0.693072  1
  Er  Er7  1  0.676598  0.869765  0.193194  1
  Er  Er8  1  0.323429  0.516594  0.193194  1
  Er  Er9  1  0.323065  0.130599  0.806276  1
  Er  Er10  1  0.675676  0.483211  0.806276  1
  Er  Er11  1  0.181902  0.207391  0.389293  1
  In  In12  1  0.500074  0.999893  0.499968  1
  Cu  Cu13  1  0.999141  0.497807  0.496948  1
  Ni  Ni14  1  0.640481  0.500275  0.140756  1
  Ni  Ni15  1  0.359076  0.498607  0.857683  1
  Ni  Ni16  1  0.876390  0.874905  0.002428  1
  Ni  Ni17  1  0.127523  0.126038  0.002428  1
