# generated using pymatgen
data_Ba10NbTcN10
_symmetry_space_group_name_H-M   'P 1'
_cell_length_a   8.19960272
_cell_length_b   8.19960233
_cell_length_c   9.63169825
_cell_angle_alpha   76.18003517
_cell_angle_beta   76.18003616
_cell_angle_gamma   96.98526833
_symmetry_Int_Tables_number   1
_chemical_formula_structural   Ba10NbTcN10
_chemical_formula_sum   'Ba10 Nb1 Tc1 N10'
_cell_volume   599.55990074
_cell_formula_units_Z   1
loop_
 _symmetry_equiv_pos_site_id
 _symmetry_equiv_pos_as_xyz
  1  'x, y, z'
loop_
 _atom_site_type_symbol
 _atom_site_label
 _atom_site_symmetry_multiplicity
 _atom_site_fract_x
 _atom_site_fract_y
 _atom_site_fract_z
 _atom_site_occupancy
  Ba  Ba0  1  0.390762  0.391590  0.383518  1
  Ba  Ba1  1  0.608410  0.609238  0.616482  1
  Ba  Ba2  1  0.666749  0.665983  0.009477  1
  Ba  Ba3  1  0.334017  0.333251  0.990523  1
  Ba  Ba4  1  0.921787  0.917102  0.202667  1
  Ba  Ba5  1  0.082898  0.078213  0.797333  1
  Ba  Ba6  1  0.559902  0.094774  0.754038  1
  Ba  Ba7  1  0.905226  0.440098  0.245962  1
  Ba  Ba8  1  0.433649  0.900031  0.246929  1
  Ba  Ba9  1  0.099969  0.566351  0.753071  1
  Nb  Nb10  1  0.243834  0.756166  0.000000  1
  Tc  Tc11  1  0.757034  0.242966  0.000000  1
  N  N12  1  0.654190  0.654417  0.309467  1
  N  N13  1  0.345583  0.345810  0.690533  1
  N  N14  1  0.713638  0.020871  0.991153  1
  N  N15  1  0.979129  0.286362  0.008847  1
  N  N16  1  0.286912  0.994507  0.009161  1
  N  N17  1  0.005493  0.713088  0.990839  1
  N  N18  1  0.401623  0.731785  0.819437  1
  N  N19  1  0.268215  0.598377  0.180562  1
  N  N20  1  0.609905  0.268922  0.166069  1
  N  N21  1  0.731078  0.390095  0.833930  1
