# generated using pymatgen
data_DyHo3Al18Ir5Pt
_symmetry_space_group_name_H-M   'P 1'
_cell_length_a   7.55986397
_cell_length_b   7.56013315
_cell_length_c   9.44496917
_cell_angle_alpha   89.96594733
_cell_angle_beta   89.96543397
_cell_angle_gamma   119.63447113
_symmetry_Int_Tables_number   1
_chemical_formula_structural   DyHo3Al18Ir5Pt
_chemical_formula_sum   'Dy1 Ho3 Al18 Ir5 Pt1'
_cell_volume   469.20451263
_cell_formula_units_Z   1
loop_
 _symmetry_equiv_pos_site_id
 _symmetry_equiv_pos_as_xyz
  1  'x, y, z'
loop_
 _atom_site_type_symbol
 _atom_site_label
 _atom_site_symmetry_multiplicity
 _atom_site_fract_x
 _atom_site_fract_y
 _atom_site_fract_z
 _atom_site_occupancy
  Dy  Dy0  1  0.994798  0.670421  0.250629  1
  Ho  Ho1  1  0.004829  0.329493  0.749495  1
  Ho  Ho2  1  0.670495  0.995202  0.250501  1
  Ho  Ho3  1  0.329516  0.005145  0.749362  1
  Al  Al4  1  0.127840  0.127073  0.250486  1
  Al  Al5  1  0.872976  0.872170  0.749511  1
  Al  Al6  1  0.004148  0.335328  0.076503  1
  Al  Al7  1  0.002280  0.668352  0.923355  1
  Al  Al8  1  0.000245  0.665039  0.574765  1
  Al  Al9  1  0.335039  0.999810  0.425325  1
  Al  Al10  1  0.000446  0.334410  0.424840  1
  Al  Al11  1  0.665523  0.999549  0.575163  1
  Al  Al12  1  0.664611  0.995844  0.923495  1
  Al  Al13  1  0.331717  0.997773  0.076567  1
  Al  Al14  1  0.332951  0.332815  0.552263  1
  Al  Al15  1  0.667143  0.667042  0.447768  1
  Al  Al16  1  0.666427  0.669660  0.055638  1
  Al  Al17  1  0.330335  0.333535  0.944328  1
  Al  Al18  1  0.340405  0.549628  0.250382  1
  Al  Al19  1  0.660086  0.453109  0.747419  1
  Al  Al20  1  0.546813  0.339850  0.252583  1
  Al  Al21  1  0.450381  0.659646  0.749619  1
  Ir  Ir22  1  0.328027  0.671923  0.999994  1
  Ir  Ir23  1  0.328293  0.671649  0.500006  1
  Ir  Ir24  1  0.672127  0.327908  0.500017  1
  Ir  Ir25  1  0.999835  0.000232  0.999980  1
  Ir  Ir26  1  0.000357  0.999708  0.500016  1
  Pt  Pt27  1  0.672355  0.327686  0.999992  1
