# generated using pymatgen
data_Sm4GeI5
_symmetry_space_group_name_H-M   'P 1'
_cell_length_a   10.00638167
_cell_length_b   10.00638252
_cell_length_c   8.94308988
_cell_angle_alpha   78.21550018
_cell_angle_beta   78.21549757
_cell_angle_gamma   24.79157136
_symmetry_Int_Tables_number   1
_chemical_formula_structural   Sm4GeI5
_chemical_formula_sum   'Sm4 Ge1 I5'
_cell_volume   367.17842854
_cell_formula_units_Z   1
loop_
 _symmetry_equiv_pos_site_id
 _symmetry_equiv_pos_as_xyz
  1  'x, y, z'
loop_
 _atom_site_type_symbol
 _atom_site_label
 _atom_site_symmetry_multiplicity
 _atom_site_fract_x
 _atom_site_fract_y
 _atom_site_fract_z
 _atom_site_occupancy
  Sm  Sm0  1  0.853788  0.853788  0.073586  1
  Sm  Sm1  1  0.146212  0.146212  0.926414  1
  Sm  Sm2  1  0.501645  0.501645  0.214386  1
  Sm  Sm3  1  0.498355  0.498355  0.785614  1
  Ge  Ge4  1  0.000000  0.000000  0.000000  1
  I  I5  1  0.671960  0.671960  0.171135  1
  I  I6  1  0.328040  0.328040  0.828865  1
  I  I7  1  0.663494  0.663494  0.664322  1
  I  I8  1  0.336506  0.336506  0.335678  1
  I  I9  1  0.000000  0.000000  0.500000  1
