# generated using pymatgen
data_Dy3Co6SiB2
_symmetry_space_group_name_H-M   'P 1'
_cell_length_a   5.14598100
_cell_length_b   5.14598151
_cell_length_c   13.65756800
_cell_angle_alpha   90.00000000
_cell_angle_beta   90.00000000
_cell_angle_gamma   120.00001599
_symmetry_Int_Tables_number   1
_chemical_formula_structural   Dy3Co6SiB2
_chemical_formula_sum   'Dy6 Co12 Si2 B4'
_cell_volume   313.21339957
_cell_formula_units_Z   2
loop_
 _symmetry_equiv_pos_site_id
 _symmetry_equiv_pos_as_xyz
  1  'x, y, z'
loop_
 _atom_site_type_symbol
 _atom_site_label
 _atom_site_symmetry_multiplicity
 _atom_site_fract_x
 _atom_site_fract_y
 _atom_site_fract_z
 _atom_site_occupancy
  Dy  Dy0  1  0.666667  0.333333  0.532988  1
  Dy  Dy1  1  0.333333  0.666667  0.467012  1
  Dy  Dy2  1  0.333333  0.666667  0.032988  1
  Dy  Dy3  1  0.666667  0.333333  0.750000  1
  Dy  Dy4  1  0.666667  0.333333  0.967012  1
  Dy  Dy5  1  0.333333  0.666667  0.250000  1
  Co  Co6  1  0.165270  0.330541  0.647469  1
  Co  Co7  1  0.330541  0.165270  0.352531  1
  Co  Co8  1  0.330541  0.165270  0.147469  1
  Co  Co9  1  0.165270  0.834730  0.852531  1
  Co  Co10  1  0.834730  0.669459  0.352531  1
  Co  Co11  1  0.834730  0.165270  0.147469  1
  Co  Co12  1  0.669459  0.834730  0.647469  1
  Co  Co13  1  0.669459  0.834730  0.852531  1
  Co  Co14  1  0.165270  0.834730  0.647469  1
  Co  Co15  1  0.834730  0.669459  0.147469  1
  Co  Co16  1  0.165270  0.330541  0.852531  1
  Co  Co17  1  0.834730  0.165270  0.352531  1
  Si  Si18  1  0.000000  0.000000  0.000000  1
  Si  Si19  1  0.000000  0.000000  0.500000  1
  B  B20  1  0.666667  0.333333  0.250000  1
  B  B21  1  0.000000  0.000000  0.750000  1
  B  B22  1  0.333333  0.666667  0.750000  1
  B  B23  1  0.000000  0.000000  0.250000  1
