# generated using pymatgen
data_Tb3Y13(HgPd)4
_symmetry_space_group_name_H-M   'P 1'
_cell_length_a   9.71199259
_cell_length_b   9.70902332
_cell_length_c   9.70902300
_cell_angle_alpha   59.99999768
_cell_angle_beta   60.01011071
_cell_angle_gamma   60.01010822
_symmetry_Int_Tables_number   1
_chemical_formula_structural   Tb3Y13(HgPd)4
_chemical_formula_sum   'Tb3 Y13 Hg4 Pd4'
_cell_volume   647.45674013
_cell_formula_units_Z   1
loop_
 _symmetry_equiv_pos_site_id
 _symmetry_equiv_pos_as_xyz
  1  'x, y, z'
loop_
 _atom_site_type_symbol
 _atom_site_label
 _atom_site_symmetry_multiplicity
 _atom_site_fract_x
 _atom_site_fract_y
 _atom_site_fract_z
 _atom_site_occupancy
  Tb  Tb0  1  0.357575  0.357769  0.357769  1
  Tb  Tb1  1  0.357575  0.357769  0.926888  1
  Tb  Tb2  1  0.357575  0.926888  0.357769  1
  Y  Y3  1  0.924802  0.358400  0.358400  1
  Y  Y4  1  0.812292  0.187761  0.187761  1
  Y  Y5  1  0.188074  0.812168  0.812168  1
  Y  Y6  1  0.188074  0.812168  0.187589  1
  Y  Y7  1  0.812292  0.187761  0.812185  1
  Y  Y8  1  0.188074  0.187589  0.812168  1
  Y  Y9  1  0.812292  0.812185  0.187761  1
  Y  Y10  1  0.934602  0.565398  0.565398  1
  Y  Y11  1  0.564943  0.934744  0.934744  1
  Y  Y12  1  0.564943  0.934744  0.565569  1
  Y  Y13  1  0.934602  0.565398  0.934603  1
  Y  Y14  1  0.564943  0.565569  0.934744  1
  Y  Y15  1  0.934602  0.934603  0.565398  1
  Hg  Hg16  1  0.587883  0.587339  0.587339  1
  Hg  Hg17  1  0.587883  0.587339  0.237440  1
  Hg  Hg18  1  0.587883  0.237440  0.587339  1
  Hg  Hg19  1  0.237793  0.587403  0.587403  1
  Pd  Pd20  1  0.146886  0.146123  0.146123  1
  Pd  Pd21  1  0.146886  0.146123  0.560869  1
  Pd  Pd22  1  0.146886  0.560869  0.146123  1
  Pd  Pd23  1  0.560641  0.146453  0.146453  1
