# generated using pymatgen
data_LiYbEu2Cd2Pb3
_symmetry_space_group_name_H-M   'P 1'
_cell_length_a   7.77576904
_cell_length_b   7.84367652
_cell_length_c   4.82984600
_cell_angle_alpha   90.00000000
_cell_angle_beta   90.00000000
_cell_angle_gamma   120.75460953
_symmetry_Int_Tables_number   1
_chemical_formula_structural   LiYbEu2Cd2Pb3
_chemical_formula_sum   'Li1 Yb1 Eu2 Cd2 Pb3'
_cell_volume   253.14777321
_cell_formula_units_Z   1
loop_
 _symmetry_equiv_pos_site_id
 _symmetry_equiv_pos_as_xyz
  1  'x, y, z'
loop_
 _atom_site_type_symbol
 _atom_site_label
 _atom_site_symmetry_multiplicity
 _atom_site_fract_x
 _atom_site_fract_y
 _atom_site_fract_z
 _atom_site_occupancy
  Li  Li0  1  0.767243  0.766922  0.000000  1
  Yb  Yb1  1  0.005971  0.566905  0.500000  1
  Eu  Eu2  1  0.423845  0.424692  0.500000  1
  Eu  Eu3  1  0.566396  0.006858  0.500000  1
  Cd  Cd4  1  0.240263  0.998931  0.000000  1
  Cd  Cd5  1  0.999054  0.242148  0.000000  1
  Pb  Pb6  1  0.674372  0.350706  0.000000  1
  Pb  Pb7  1  0.345335  0.669035  0.000000  1
  Pb  Pb8  1  0.977520  0.973804  0.500000  1
