# generated using pymatgen
data_Pr9NdPdRu3
_symmetry_space_group_name_H-M   'P 1'
_cell_length_a   9.13965676
_cell_length_b   9.07791572
_cell_length_c   7.43791928
_cell_angle_alpha   83.22825511
_cell_angle_beta   83.22133431
_cell_angle_gamma   42.78673215
_symmetry_Int_Tables_number   1
_chemical_formula_structural   Pr9NdPdRu3
_chemical_formula_sum   'Pr9 Nd1 Pd1 Ru3'
_cell_volume   415.81143812
_cell_formula_units_Z   1
loop_
 _symmetry_equiv_pos_site_id
 _symmetry_equiv_pos_as_xyz
  1  'x, y, z'
loop_
 _atom_site_type_symbol
 _atom_site_label
 _atom_site_symmetry_multiplicity
 _atom_site_fract_x
 _atom_site_fract_y
 _atom_site_fract_z
 _atom_site_occupancy
  Pr  Pr0  1  0.003282  0.805965  0.927106  1
  Pr  Pr1  1  0.199355  0.989746  0.583630  1
  Pr  Pr2  1  0.989026  0.195728  0.085548  1
  Pr  Pr3  1  0.786729  0.028214  0.413382  1
  Pr  Pr4  1  0.368253  0.194889  0.815181  1
  Pr  Pr5  1  0.790358  0.633355  0.687174  1
  Pr  Pr6  1  0.649190  0.783743  0.191442  1
  Pr  Pr7  1  0.210146  0.352842  0.305131  1
  Pr  Pr8  1  0.571637  0.430312  0.752842  1
  Nd  Nd9  1  0.426231  0.580191  0.240312  1
  Pd  Pd10  1  0.188310  0.595827  0.572094  1
  Ru  Ru11  1  0.412913  0.822207  0.923198  1
  Ru  Ru12  1  0.817595  0.397551  0.428285  1
  Ru  Ru13  1  0.586977  0.189430  0.074675  1
