# generated using pymatgen
data_Ca3Yb3AgIr2
_symmetry_space_group_name_H-M   'P 1'
_cell_length_a   7.78956500
_cell_length_b   7.78956510
_cell_length_c   4.46646400
_cell_angle_alpha   90.00000000
_cell_angle_beta   90.00000000
_cell_angle_gamma   120.00000383
_symmetry_Int_Tables_number   1
_chemical_formula_structural   Ca3Yb3AgIr2
_chemical_formula_sum   'Ca3 Yb3 Ag1 Ir2'
_cell_volume   234.70420450
_cell_formula_units_Z   1
loop_
 _symmetry_equiv_pos_site_id
 _symmetry_equiv_pos_as_xyz
  1  'x, y, z'
loop_
 _atom_site_type_symbol
 _atom_site_label
 _atom_site_symmetry_multiplicity
 _atom_site_fract_x
 _atom_site_fract_y
 _atom_site_fract_z
 _atom_site_occupancy
  Ca  Ca0  1  0.606700  0.029421  0.500000  1
  Ca  Ca1  1  0.422721  0.393300  0.500000  1
  Ca  Ca2  1  0.970579  0.577279  0.500000  1
  Yb  Yb3  1  0.253711  0.010514  0.000000  1
  Yb  Yb4  1  0.989486  0.243197  0.000000  1
  Yb  Yb5  1  0.756803  0.746289  0.000000  1
  Ag  Ag6  1  0.333334  0.666667  0.000000  1
  Ir  Ir7  1  0.666666  0.333333  0.000000  1
  Ir  Ir8  1  0.000000  0.000000  0.500000  1
