# generated using pymatgen
data_MgZr12NbCu2(Ir2N)4
_symmetry_space_group_name_H-M   'P 1'
_cell_length_a   8.58012404
_cell_length_b   8.58012438
_cell_length_c   8.62320500
_cell_angle_alpha   59.83376405
_cell_angle_beta   59.83376275
_cell_angle_gamma   59.65629934
_symmetry_Int_Tables_number   1
_chemical_formula_structural   MgZr12NbCu2(Ir2N)4
_chemical_formula_sum   'Mg1 Zr12 Nb1 Cu2 Ir8 N4'
_cell_volume   446.59094523
_cell_formula_units_Z   1
loop_
 _symmetry_equiv_pos_site_id
 _symmetry_equiv_pos_as_xyz
  1  'x, y, z'
loop_
 _atom_site_type_symbol
 _atom_site_label
 _atom_site_symmetry_multiplicity
 _atom_site_fract_x
 _atom_site_fract_y
 _atom_site_fract_z
 _atom_site_occupancy
  Mg  Mg0  1  0.625000  0.125000  0.625000  1
  Zr  Zr1  1  0.808038  0.806280  0.192841  1
  Zr  Zr2  1  0.191720  0.186015  0.811133  1
  Zr  Zr3  1  0.809256  0.193200  0.808044  1
  Zr  Zr4  1  0.196082  0.808557  0.186724  1
  Zr  Zr5  1  0.196082  0.808557  0.808637  1
  Zr  Zr6  1  0.809256  0.193200  0.189500  1
  Zr  Zr7  1  0.441962  0.443720  0.057159  1
  Zr  Zr8  1  0.058280  0.063985  0.438867  1
  Zr  Zr9  1  0.440744  0.056800  0.441956  1
  Zr  Zr10  1  0.053918  0.441443  0.063276  1
  Zr  Zr11  1  0.053918  0.441443  0.441363  1
  Zr  Zr12  1  0.440744  0.056800  0.060500  1
  Nb  Nb13  1  0.125000  0.625000  0.625000  1
  Cu  Cu14  1  0.625000  0.625000  0.125000  1
  Cu  Cu15  1  0.625000  0.625000  0.625000  1
  Ir  Ir16  1  0.751325  0.419232  0.414722  1
  Ir  Ir17  1  0.417570  0.751055  0.415688  1
  Ir  Ir18  1  0.415985  0.419920  0.753350  1
  Ir  Ir19  1  0.415985  0.419920  0.410745  1
  Ir  Ir20  1  0.498675  0.830768  0.835278  1
  Ir  Ir21  1  0.832430  0.498945  0.834312  1
  Ir  Ir22  1  0.834015  0.830080  0.496650  1
  Ir  Ir23  1  0.834015  0.830080  0.839255  1
  N  N24  1  0.625000  0.125000  0.125000  1
  N  N25  1  0.125000  0.625000  0.125000  1
  N  N26  1  0.125000  0.125000  0.625000  1
  N  N27  1  0.125000  0.125000  0.125000  1
