# generated using pymatgen
data_Tb2Ho2Cd2Cu3Ni
_symmetry_space_group_name_H-M   'P 1'
_cell_length_a   7.50432134
_cell_length_b   7.50432134
_cell_length_c   3.68915000
_cell_angle_alpha   90.00000000
_cell_angle_beta   90.00000000
_cell_angle_gamma   89.23290612
_symmetry_Int_Tables_number   1
_chemical_formula_structural   Tb2Ho2Cd2Cu3Ni
_chemical_formula_sum   'Tb2 Ho2 Cd2 Cu3 Ni1'
_cell_volume   207.73526830
_cell_formula_units_Z   1
loop_
 _symmetry_equiv_pos_site_id
 _symmetry_equiv_pos_as_xyz
  1  'x, y, z'
loop_
 _atom_site_type_symbol
 _atom_site_label
 _atom_site_symmetry_multiplicity
 _atom_site_fract_x
 _atom_site_fract_y
 _atom_site_fract_z
 _atom_site_occupancy
  Tb  Tb0  1  0.182562  0.317438  0.500000  1
  Tb  Tb1  1  0.828062  0.671938  0.500000  1
  Ho  Ho2  1  0.662043  0.176676  0.500000  1
  Ho  Ho3  1  0.323324  0.837957  0.500000  1
  Cd  Cd4  1  0.997436  0.000431  0.000000  1
  Cd  Cd5  1  0.499569  0.502564  0.000000  1
  Cu  Cu6  1  0.122988  0.617907  0.000000  1
  Cu  Cu7  1  0.882093  0.377012  0.000000  1
  Cu  Cu8  1  0.619096  0.880904  0.000000  1
  Ni  Ni9  1  0.382824  0.117176  0.000000  1
