# generated using pymatgen
data_Pr20Ir5Ru4Au3
_symmetry_space_group_name_H-M   'P 1'
_cell_length_a   11.45866855
_cell_length_b   11.45866855
_cell_length_c   6.70455274
_cell_angle_alpha   90.07334743
_cell_angle_beta   90.07334743
_cell_angle_gamma   90.19845491
_symmetry_Int_Tables_number   1
_chemical_formula_structural   Pr20Ir5Ru4Au3
_chemical_formula_sum   'Pr20 Ir5 Ru4 Au3'
_cell_volume   880.30832039
_cell_formula_units_Z   1
loop_
 _symmetry_equiv_pos_site_id
 _symmetry_equiv_pos_as_xyz
  1  'x, y, z'
loop_
 _atom_site_type_symbol
 _atom_site_label
 _atom_site_symmetry_multiplicity
 _atom_site_fract_x
 _atom_site_fract_y
 _atom_site_fract_z
 _atom_site_occupancy
  Pr  Pr0  1  0.299350  0.084747  0.365892  1
  Pr  Pr1  1  0.297327  0.904548  0.880315  1
  Pr  Pr2  1  0.698802  0.091146  0.866983  1
  Pr  Pr3  1  0.695567  0.906840  0.367832  1
  Pr  Pr4  1  0.580756  0.791614  0.884007  1
  Pr  Pr5  1  0.581425  0.209186  0.382718  1
  Pr  Pr6  1  0.407556  0.791733  0.383648  1
  Pr  Pr7  1  0.417017  0.208073  0.882470  1
  Pr  Pr8  1  0.208386  0.419244  0.615993  1
  Pr  Pr9  1  0.208267  0.592444  0.116352  1
  Pr  Pr10  1  0.790814  0.418575  0.117282  1
  Pr  Pr11  1  0.791927  0.582983  0.617530  1
  Pr  Pr12  1  0.915253  0.700650  0.134108  1
  Pr  Pr13  1  0.908854  0.301198  0.633017  1
  Pr  Pr14  1  0.095452  0.702673  0.619685  1
  Pr  Pr15  1  0.093160  0.304433  0.132168  1
  Pr  Pr16  1  0.005079  0.994224  0.498203  1
  Pr  Pr17  1  0.005776  0.994921  0.001797  1
  Pr  Pr18  1  0.498535  0.500368  0.000943  1
  Pr  Pr19  1  0.499632  0.501465  0.499057  1
  Ir  Ir20  1  0.151452  0.848548  0.250000  1
  Ir  Ir21  1  0.652437  0.347563  0.750000  1
  Ir  Ir22  1  0.654282  0.651815  0.248775  1
  Ir  Ir23  1  0.348185  0.345718  0.251225  1
  Ir  Ir24  1  0.347670  0.652330  0.750000  1
  Ru  Ru25  1  0.501716  0.000410  0.117093  1
  Ru  Ru26  1  0.500764  0.000809  0.617556  1
  Ru  Ru27  1  0.999191  0.499236  0.882444  1
  Ru  Ru28  1  0.999590  0.498284  0.382907  1
  Au  Au29  1  0.845547  0.154453  0.250000  1
  Au  Au30  1  0.843142  0.842913  0.749054  1
  Au  Au31  1  0.157087  0.156858  0.750946  1
