# generated using pymatgen
data_CaBeAsH
_symmetry_space_group_name_H-M   'P 1'
_cell_length_a   3.79584200
_cell_length_b   3.79584200
_cell_length_c   8.41433100
_cell_angle_alpha   90.00000000
_cell_angle_beta   90.00000000
_cell_angle_gamma   90.00000000
_symmetry_Int_Tables_number   1
_chemical_formula_structural   CaBeAsH
_chemical_formula_sum   'Ca2 Be2 As2 H2'
_cell_volume   121.23718552
_cell_formula_units_Z   2
loop_
 _symmetry_equiv_pos_site_id
 _symmetry_equiv_pos_as_xyz
  1  'x, y, z'
loop_
 _atom_site_type_symbol
 _atom_site_label
 _atom_site_symmetry_multiplicity
 _atom_site_fract_x
 _atom_site_fract_y
 _atom_site_fract_z
 _atom_site_occupancy
  Ca  Ca0  1  0.000000  0.500000  0.847791  1
  Ca  Ca1  1  0.500000  0.000000  0.152209  1
  Be  Be2  1  0.000000  0.000000  0.500000  1
  Be  Be3  1  0.500000  0.500000  0.500000  1
  As  As4  1  0.000000  0.500000  0.337936  1
  As  As5  1  0.500000  0.000000  0.662064  1
  H  H6  1  0.000000  0.000000  0.000000  1
  H  H7  1  0.500000  0.500000  0.000000  1
