# generated using pymatgen
data_LiTb16Cd3Ir4
_symmetry_space_group_name_H-M   'P 1'
_cell_length_a   9.69093428
_cell_length_b   9.69093384
_cell_length_c   9.69093503
_cell_angle_alpha   59.99235369
_cell_angle_beta   59.99235242
_cell_angle_gamma   59.99235466
_symmetry_Int_Tables_number   1
_chemical_formula_structural   LiTb16Cd3Ir4
_chemical_formula_sum   'Li1 Tb16 Cd3 Ir4'
_cell_volume   643.43793280
_cell_formula_units_Z   1
loop_
 _symmetry_equiv_pos_site_id
 _symmetry_equiv_pos_as_xyz
  1  'x, y, z'
loop_
 _atom_site_type_symbol
 _atom_site_label
 _atom_site_symmetry_multiplicity
 _atom_site_fract_x
 _atom_site_fract_y
 _atom_site_fract_z
 _atom_site_occupancy
  Li  Li0  1  0.821554  0.821554  0.821554  1
  Tb  Tb1  1  0.600258  0.600258  0.600258  1
  Tb  Tb2  1  0.597181  0.597181  0.205999  1
  Tb  Tb3  1  0.597181  0.205999  0.597181  1
  Tb  Tb4  1  0.205999  0.597181  0.597181  1
  Tb  Tb5  1  0.060955  0.439672  0.439672  1
  Tb  Tb6  1  0.436750  0.063324  0.063324  1
  Tb  Tb7  1  0.439672  0.060955  0.439672  1
  Tb  Tb8  1  0.063324  0.436750  0.063324  1
  Tb  Tb9  1  0.439672  0.439672  0.060955  1
  Tb  Tb10  1  0.063324  0.063324  0.436750  1
  Tb  Tb11  1  0.187270  0.813289  0.813289  1
  Tb  Tb12  1  0.814388  0.185690  0.185690  1
  Tb  Tb13  1  0.813289  0.187270  0.813289  1
  Tb  Tb14  1  0.185690  0.814388  0.185690  1
  Tb  Tb15  1  0.813289  0.813289  0.187270  1
  Tb  Tb16  1  0.185690  0.185690  0.814388  1
  Cd  Cd17  1  0.831807  0.831807  0.509232  1
  Cd  Cd18  1  0.831807  0.509232  0.831807  1
  Cd  Cd19  1  0.509232  0.831807  0.831807  1
  Ir  Ir20  1  0.391702  0.391702  0.391702  1
  Ir  Ir21  1  0.392713  0.392713  0.824541  1
  Ir  Ir22  1  0.392713  0.824541  0.392713  1
  Ir  Ir23  1  0.824541  0.392713  0.392713  1
