# generated using pymatgen
data_Pm4PdPt3
_symmetry_space_group_name_H-M   'P 1'
_cell_length_a   7.27485998
_cell_length_b   5.71601961
_cell_length_c   4.62209300
_cell_angle_alpha   90.00000000
_cell_angle_beta   90.00000000
_cell_angle_gamma   90.09415741
_symmetry_Int_Tables_number   1
_chemical_formula_structural   Pm4PdPt3
_chemical_formula_sum   'Pm4 Pd1 Pt3'
_cell_volume   192.20135371
_cell_formula_units_Z   1
loop_
 _symmetry_equiv_pos_site_id
 _symmetry_equiv_pos_as_xyz
  1  'x, y, z'
loop_
 _atom_site_type_symbol
 _atom_site_label
 _atom_site_symmetry_multiplicity
 _atom_site_fract_x
 _atom_site_fract_y
 _atom_site_fract_z
 _atom_site_occupancy
  Pm  Pm0  1  0.101996  0.510776  0.000000  1
  Pm  Pm1  1  0.594395  0.737300  0.000000  1
  Pm  Pm2  1  0.234937  0.018030  0.499999  1
  Pm  Pm3  1  0.733430  0.233877  0.499999  1
  Pd  Pd4  1  0.875252  0.722305  0.499999  1
  Pt  Pt5  1  0.462870  0.223994  0.000000  1
  Pt  Pt6  1  0.958744  0.020910  0.000000  1
  Pt  Pt7  1  0.371709  0.532809  0.499999  1
