# generated using pymatgen
data_Y3Ho2Tm15Pt16
_symmetry_space_group_name_H-M   'P 1'
_cell_length_a   7.40853242
_cell_length_b   7.48581315
_cell_length_c   14.59799000
_cell_angle_alpha   90.00904693
_cell_angle_beta   90.03542834
_cell_angle_gamma   89.99276146
_symmetry_Int_Tables_number   1
_chemical_formula_structural   Y3Ho2Tm15Pt16
_chemical_formula_sum   'Y3 Ho2 Tm15 Pt16'
_cell_volume   809.58814165
_cell_formula_units_Z   1
loop_
 _symmetry_equiv_pos_site_id
 _symmetry_equiv_pos_as_xyz
  1  'x, y, z'
loop_
 _atom_site_type_symbol
 _atom_site_label
 _atom_site_symmetry_multiplicity
 _atom_site_fract_x
 _atom_site_fract_y
 _atom_site_fract_z
 _atom_site_occupancy
  Y  Y0  1  0.999365  0.179772  0.407030  1
  Y  Y1  1  0.499356  0.321100  0.407637  1
  Y  Y2  1  0.999117  0.178751  0.092309  1
  Ho  Ho3  1  0.500465  0.678845  0.907561  1
  Ho  Ho4  1  0.000895  0.820181  0.592987  1
  Tm  Tm5  1  0.655847  0.167036  0.622870  1
  Tm  Tm6  1  0.155928  0.333094  0.877384  1
  Tm  Tm7  1  0.344800  0.832971  0.122244  1
  Tm  Tm8  1  0.844866  0.667075  0.377452  1
  Tm  Tm9  1  0.345929  0.832225  0.377685  1
  Tm  Tm10  1  0.845015  0.667476  0.121583  1
  Tm  Tm11  1  0.655405  0.167412  0.877840  1
  Tm  Tm12  1  0.156132  0.332746  0.622494  1
  Tm  Tm13  1  0.501117  0.680356  0.593376  1
  Tm  Tm14  1  0.001303  0.819579  0.906657  1
  Tm  Tm15  1  0.498878  0.320184  0.092808  1
  Tm  Tm16  1  0.818414  0.509702  0.750101  1
  Tm  Tm17  1  0.318417  0.990109  0.750299  1
  Tm  Tm18  1  0.181511  0.490258  0.249401  1
  Tm  Tm19  1  0.681778  0.009794  0.249517  1
  Pt  Pt20  1  0.682866  0.963462  0.459626  1
  Pt  Pt21  1  0.186280  0.534563  0.040875  1
  Pt  Pt22  1  0.315014  0.032624  0.957851  1
  Pt  Pt23  1  0.814835  0.468730  0.542784  1
  Pt  Pt24  1  0.316968  0.030951  0.543120  1
  Pt  Pt25  1  0.816494  0.467741  0.957730  1
  Pt  Pt26  1  0.681834  0.965916  0.041131  1
  Pt  Pt27  1  0.182988  0.536885  0.459855  1
  Pt  Pt28  1  0.452604  0.386682  0.749901  1
  Pt  Pt29  1  0.952508  0.113375  0.750505  1
  Pt  Pt30  1  0.547139  0.614767  0.249034  1
  Pt  Pt31  1  0.048082  0.884432  0.249859  1
  Pt  Pt32  1  0.680471  0.855597  0.750167  1
  Pt  Pt33  1  0.180553  0.644283  0.750741  1
  Pt  Pt34  1  0.319824  0.143618  0.248524  1
  Pt  Pt35  1  0.816999  0.357712  0.249062  1
