# generated using pymatgen
data_Zr6Al13Zn3Pt7
_symmetry_space_group_name_H-M   'P 1'
_cell_length_a   8.80203102
_cell_length_b   8.80203142
_cell_length_c   8.80203201
_cell_angle_alpha   60.00501289
_cell_angle_beta   60.00501280
_cell_angle_gamma   60.00501269
_symmetry_Int_Tables_number   1
_chemical_formula_structural   Zr6Al13Zn3Pt7
_chemical_formula_sum   'Zr6 Al13 Zn3 Pt7'
_cell_volume   482.26207390
_cell_formula_units_Z   1
loop_
 _symmetry_equiv_pos_site_id
 _symmetry_equiv_pos_as_xyz
  1  'x, y, z'
loop_
 _atom_site_type_symbol
 _atom_site_label
 _atom_site_symmetry_multiplicity
 _atom_site_fract_x
 _atom_site_fract_y
 _atom_site_fract_z
 _atom_site_occupancy
  Zr  Zr0  1  0.684427  0.684427  0.316322  1
  Zr  Zr1  1  0.314658  0.685705  0.314658  1
  Zr  Zr2  1  0.685705  0.314658  0.314658  1
  Zr  Zr3  1  0.314658  0.314658  0.685705  1
  Zr  Zr4  1  0.684427  0.316322  0.684427  1
  Zr  Zr5  1  0.316322  0.684427  0.684427  1
  Al  Al6  1  0.879217  0.879217  0.879217  1
  Al  Al7  1  0.120623  0.120623  0.642900  1
  Al  Al8  1  0.120623  0.642900  0.120623  1
  Al  Al9  1  0.642900  0.120623  0.120623  1
  Al  Al10  1  0.117974  0.117974  0.117974  1
  Al  Al11  1  0.663149  0.663149  0.005417  1
  Al  Al12  1  0.663149  0.005417  0.663149  1
  Al  Al13  1  0.005417  0.663149  0.663149  1
  Al  Al14  1  0.666020  0.666020  0.666020  1
  Al  Al15  1  0.335319  0.335319  0.991722  1
  Al  Al16  1  0.335319  0.991722  0.335319  1
  Al  Al17  1  0.991722  0.335319  0.335319  1
  Al  Al18  1  0.336478  0.336478  0.336478  1
  Zn  Zn19  1  0.880224  0.880224  0.360786  1
  Zn  Zn20  1  0.880224  0.360786  0.880224  1
  Zn  Zn21  1  0.360786  0.880224  0.880224  1
  Pt  Pt22  1  0.996556  0.996556  0.996556  1
  Pt  Pt23  1  0.001166  0.001166  0.506583  1
  Pt  Pt24  1  0.496271  0.002644  0.496271  1
  Pt  Pt25  1  0.002644  0.496271  0.496271  1
  Pt  Pt26  1  0.496271  0.496271  0.002644  1
  Pt  Pt27  1  0.001166  0.506583  0.001166  1
  Pt  Pt28  1  0.506583  0.001166  0.001166  1
