# generated using pymatgen
data_Li5AgAsP
_symmetry_space_group_name_H-M   'P 1'
_cell_length_a   4.35720100
_cell_length_b   4.35720096
_cell_length_c   7.71762900
_cell_angle_alpha   90.00000000
_cell_angle_beta   90.00000000
_cell_angle_gamma   119.99999270
_symmetry_Int_Tables_number   1
_chemical_formula_structural   Li5AgAsP
_chemical_formula_sum   'Li5 Ag1 As1 P1'
_cell_volume   126.89068637
_cell_formula_units_Z   1
loop_
 _symmetry_equiv_pos_site_id
 _symmetry_equiv_pos_as_xyz
  1  'x, y, z'
loop_
 _atom_site_type_symbol
 _atom_site_label
 _atom_site_symmetry_multiplicity
 _atom_site_fract_x
 _atom_site_fract_y
 _atom_site_fract_z
 _atom_site_occupancy
  Li  Li0  1  0.000000  0.000000  0.750000  1
  Li  Li1  1  0.333333  0.666667  0.582468  1
  Li  Li2  1  0.666667  0.333333  0.083724  1
  Li  Li3  1  0.666667  0.333333  0.416276  1
  Li  Li4  1  0.333333  0.666667  0.917532  1
  Ag  Ag5  1  0.000000  0.000000  0.250000  1
  As  As6  1  0.666667  0.333333  0.750000  1
  P  P7  1  0.333333  0.666667  0.250000  1
