# generated using pymatgen
data_Hf16TlCo4Mo3
_symmetry_space_group_name_H-M   'P 1'
_cell_length_a   8.73466285
_cell_length_b   8.73466288
_cell_length_c   8.73466300
_cell_angle_alpha   59.74819924
_cell_angle_beta   59.74819151
_cell_angle_gamma   59.74819922
_symmetry_Int_Tables_number   1
_chemical_formula_structural   Hf16TlCo4Mo3
_chemical_formula_sum   'Hf16 Tl1 Co4 Mo3'
_cell_volume   468.52528494
_cell_formula_units_Z   1
loop_
 _symmetry_equiv_pos_site_id
 _symmetry_equiv_pos_as_xyz
  1  'x, y, z'
loop_
 _atom_site_type_symbol
 _atom_site_label
 _atom_site_symmetry_multiplicity
 _atom_site_fract_x
 _atom_site_fract_y
 _atom_site_fract_z
 _atom_site_occupancy
  Hf  Hf0  1  0.708216  0.094679  0.094679  1
  Hf  Hf1  1  0.094679  0.708216  0.094679  1
  Hf  Hf2  1  0.094679  0.094679  0.708216  1
  Hf  Hf3  1  0.101864  0.101864  0.101864  1
  Hf  Hf4  1  0.314164  0.314164  0.697129  1
  Hf  Hf5  1  0.685282  0.685282  0.315500  1
  Hf  Hf6  1  0.314164  0.697129  0.314164  1
  Hf  Hf7  1  0.685282  0.315500  0.685282  1
  Hf  Hf8  1  0.697129  0.314164  0.314164  1
  Hf  Hf9  1  0.315500  0.685282  0.685282  1
  Hf  Hf10  1  0.953003  0.953003  0.545569  1
  Hf  Hf11  1  0.556977  0.556977  0.937597  1
  Hf  Hf12  1  0.953003  0.545569  0.953003  1
  Hf  Hf13  1  0.556977  0.937597  0.556977  1
  Hf  Hf14  1  0.545569  0.953003  0.953003  1
  Hf  Hf15  1  0.937597  0.556977  0.556977  1
  Tl  Tl16  1  0.330436  0.330436  0.330436  1
  Co  Co17  1  0.327486  0.889945  0.889945  1
  Co  Co18  1  0.889945  0.327486  0.889945  1
  Co  Co19  1  0.889945  0.889945  0.327486  1
  Co  Co20  1  0.888969  0.888969  0.888969  1
  Mo  Mo21  1  0.994409  0.332361  0.332361  1
  Mo  Mo22  1  0.332361  0.994409  0.332361  1
  Mo  Mo23  1  0.332361  0.332361  0.994409  1
