# generated using pymatgen
data_FeSi3Cl16
_symmetry_space_group_name_H-M   'P 1'
_cell_length_a   6.78592794
_cell_length_b   10.55601404
_cell_length_c   10.68235005
_cell_angle_alpha   75.67877260
_cell_angle_beta   88.73963706
_cell_angle_gamma   91.92534843
_symmetry_Int_Tables_number   1
_chemical_formula_structural   FeSi3Cl16
_chemical_formula_sum   'Fe1 Si3 Cl16'
_cell_volume   740.64100758
_cell_formula_units_Z   1
loop_
 _symmetry_equiv_pos_site_id
 _symmetry_equiv_pos_as_xyz
  1  'x, y, z'
loop_
 _atom_site_type_symbol
 _atom_site_label
 _atom_site_symmetry_multiplicity
 _atom_site_fract_x
 _atom_site_fract_y
 _atom_site_fract_z
 _atom_site_occupancy
  Fe  Fe0  1  0.928808  0.249544  0.643705  1
  Si  Si1  1  0.429047  0.750659  0.856287  1
  Si  Si2  1  0.071198  0.750521  0.356362  1
  Si  Si3  1  0.571111  0.249463  0.143639  1
  Cl  Cl4  1  0.046579  0.404698  0.716957  1
  Cl  Cl5  1  0.568344  0.602684  0.804339  1
  Cl  Cl6  1  0.926454  0.598532  0.307157  1
  Cl  Cl7  1  0.430849  0.397255  0.195452  1
  Cl  Cl8  1  0.971592  0.085075  0.799980  1
  Cl  Cl9  1  0.438398  0.911145  0.703983  1
  Cl  Cl10  1  0.075137  0.910555  0.203956  1
  Cl  Cl11  1  0.562464  0.089116  0.295894  1
  Cl  Cl12  1  0.042007  0.183979  0.484987  1
  Cl  Cl13  1  0.567635  0.795488  0.007766  1
  Cl  Cl14  1  0.930290  0.791343  0.511032  1
  Cl  Cl15  1  0.433081  0.204708  0.991856  1
  Cl  Cl16  1  0.654474  0.324115  0.573684  1
  Cl  Cl17  1  0.143174  0.693212  0.908496  1
  Cl  Cl18  1  0.352530  0.700656  0.402989  1
  Cl  Cl19  1  0.856829  0.307252  0.091479  1
