# generated using pymatgen
data_Y12Tc2IrRh
_symmetry_space_group_name_H-M   'P 1'
_cell_length_a   6.36669433
_cell_length_b   7.35700063
_cell_length_c   9.25349800
_cell_angle_alpha   90.00000000
_cell_angle_beta   90.00000000
_cell_angle_gamma   90.10784827
_symmetry_Int_Tables_number   1
_chemical_formula_structural   Y12Tc2IrRh
_chemical_formula_sum   'Y12 Tc2 Ir1 Rh1'
_cell_volume   433.43098861
_cell_formula_units_Z   1
loop_
 _symmetry_equiv_pos_site_id
 _symmetry_equiv_pos_as_xyz
  1  'x, y, z'
loop_
 _atom_site_type_symbol
 _atom_site_label
 _atom_site_symmetry_multiplicity
 _atom_site_fract_x
 _atom_site_fract_y
 _atom_site_fract_z
 _atom_site_occupancy
  Y  Y0  1  0.636531  0.041728  0.250000  1
  Y  Y1  1  0.371137  0.960255  0.750000  1
  Y  Y2  1  0.127557  0.460786  0.750000  1
  Y  Y3  1  0.863005  0.541452  0.250000  1
  Y  Y4  1  0.168908  0.177957  0.061030  1
  Y  Y5  1  0.827561  0.823118  0.932400  1
  Y  Y6  1  0.671482  0.322443  0.933540  1
  Y  Y7  1  0.827561  0.823118  0.567600  1
  Y  Y8  1  0.332709  0.675468  0.060268  1
  Y  Y9  1  0.168908  0.177957  0.438970  1
  Y  Y10  1  0.332709  0.675468  0.439732  1
  Y  Y11  1  0.671482  0.322443  0.566460  1
  Tc  Tc12  1  0.535278  0.612977  0.750000  1
  Tc  Tc13  1  0.964749  0.113556  0.750000  1
  Ir  Ir14  1  0.455370  0.384926  0.250000  1
  Rh  Rh15  1  0.045051  0.886348  0.250000  1
