# generated using pymatgen
data_Sc22Tc7Hg
_symmetry_space_group_name_H-M   'P 1'
_cell_length_a   9.60739780
_cell_length_b   9.60739817
_cell_length_c   9.45945500
_cell_angle_alpha   60.50809339
_cell_angle_beta   60.50809212
_cell_angle_gamma   59.58753863
_symmetry_Int_Tables_number   1
_chemical_formula_structural   Sc22Tc7Hg
_chemical_formula_sum   'Sc22 Tc7 Hg1'
_cell_volume   620.10230923
_cell_formula_units_Z   1
loop_
 _symmetry_equiv_pos_site_id
 _symmetry_equiv_pos_as_xyz
  1  'x, y, z'
loop_
 _atom_site_type_symbol
 _atom_site_label
 _atom_site_symmetry_multiplicity
 _atom_site_fract_x
 _atom_site_fract_y
 _atom_site_fract_z
 _atom_site_occupancy
  Sc  Sc0  1  0.802994  0.802994  0.197006  1
  Sc  Sc1  1  0.195118  0.804882  0.197140  1
  Sc  Sc2  1  0.804882  0.195118  0.197140  1
  Sc  Sc3  1  0.197006  0.197006  0.802994  1
  Sc  Sc4  1  0.804882  0.195118  0.802860  1
  Sc  Sc5  1  0.195118  0.804882  0.802860  1
  Sc  Sc6  1  0.613124  0.613124  0.149965  1
  Sc  Sc7  1  0.601821  0.151485  0.623347  1
  Sc  Sc8  1  0.151485  0.601821  0.623347  1
  Sc  Sc9  1  0.613124  0.613124  0.623788  1
  Sc  Sc10  1  0.386876  0.386876  0.850035  1
  Sc  Sc11  1  0.398179  0.848515  0.376653  1
  Sc  Sc12  1  0.848515  0.398179  0.376653  1
  Sc  Sc13  1  0.386876  0.386876  0.376212  1
  Sc  Sc14  1  0.832811  0.832811  0.475987  1
  Sc  Sc15  1  0.843842  0.465369  0.845394  1
  Sc  Sc16  1  0.465369  0.843842  0.845394  1
  Sc  Sc17  1  0.832811  0.832811  0.858390  1
  Sc  Sc18  1  0.167189  0.167189  0.524013  1
  Sc  Sc19  1  0.156158  0.534631  0.154606  1
  Sc  Sc20  1  0.534631  0.156158  0.154606  1
  Sc  Sc21  1  0.167189  0.167189  0.141610  1
  Tc  Tc22  1  0.000000  0.000000  0.000000  1
  Tc  Tc23  1  0.500000  0.500000  0.500000  1
  Tc  Tc24  1  0.500000  0.000000  0.500000  1
  Tc  Tc25  1  0.000000  0.500000  0.500000  1
  Tc  Tc26  1  0.500000  0.500000  0.000000  1
  Tc  Tc27  1  0.000000  0.500000  0.000000  1
  Tc  Tc28  1  0.500000  0.000000  0.000000  1
  Hg  Hg29  1  0.000000  0.000000  0.500000  1
