# generated using pymatgen
data_Li12ReRuN8
_symmetry_space_group_name_H-M   'P 1'
_cell_length_a   6.68677800
_cell_length_b   6.68677800
_cell_length_c   4.89555700
_cell_angle_alpha   90.00000000
_cell_angle_beta   90.00000000
_cell_angle_gamma   90.00000000
_symmetry_Int_Tables_number   1
_chemical_formula_structural   Li12ReRuN8
_chemical_formula_sum   'Li12 Re1 Ru1 N8'
_cell_volume   218.89504025
_cell_formula_units_Z   1
loop_
 _symmetry_equiv_pos_site_id
 _symmetry_equiv_pos_as_xyz
  1  'x, y, z'
loop_
 _atom_site_type_symbol
 _atom_site_label
 _atom_site_symmetry_multiplicity
 _atom_site_fract_x
 _atom_site_fract_y
 _atom_site_fract_z
 _atom_site_occupancy
  Li  Li0  1  0.000000  0.500000  0.590460  1
  Li  Li1  1  0.500000  0.000000  0.897135  1
  Li  Li2  1  0.500000  0.000000  0.409540  1
  Li  Li3  1  0.000000  0.500000  0.102865  1
  Li  Li4  1  0.220060  0.220060  0.500000  1
  Li  Li5  1  0.779940  0.779940  0.500000  1
  Li  Li6  1  0.706106  0.706106  0.000000  1
  Li  Li7  1  0.293894  0.293894  0.000000  1
  Li  Li8  1  0.779940  0.220060  0.500000  1
  Li  Li9  1  0.220060  0.779940  0.500000  1
  Li  Li10  1  0.293894  0.706106  0.000000  1
  Li  Li11  1  0.706106  0.293894  0.000000  1
  Re  Re12  1  0.000000  0.000000  0.000000  1
  Ru  Ru13  1  0.500000  0.500000  0.500000  1
  N  N14  1  0.245672  0.500000  0.312697  1
  N  N15  1  0.754328  0.500000  0.312697  1
  N  N16  1  0.764863  0.000000  0.198313  1
  N  N17  1  0.235137  0.000000  0.198313  1
  N  N18  1  0.500000  0.245672  0.687303  1
  N  N19  1  0.500000  0.754328  0.687303  1
  N  N20  1  0.000000  0.764863  0.801687  1
  N  N21  1  0.000000  0.235137  0.801687  1
