# generated using pymatgen
data_Dy3LuAl2
_symmetry_space_group_name_H-M   'P 1'
_cell_length_a   5.07857400
_cell_length_b   6.54686960
_cell_length_c   9.38316358
_cell_angle_alpha   90.29204770
_cell_angle_beta   90.00000000
_cell_angle_gamma   90.00000000
_symmetry_Int_Tables_number   1
_chemical_formula_structural   Dy3LuAl2
_chemical_formula_sum   'Dy6 Lu2 Al4'
_cell_volume   311.97451749
_cell_formula_units_Z   2
loop_
 _symmetry_equiv_pos_site_id
 _symmetry_equiv_pos_as_xyz
  1  'x, y, z'
loop_
 _atom_site_type_symbol
 _atom_site_label
 _atom_site_symmetry_multiplicity
 _atom_site_fract_x
 _atom_site_fract_y
 _atom_site_fract_z
 _atom_site_occupancy
  Dy  Dy0  1  0.750000  0.689196  0.427212  1
  Dy  Dy1  1  0.250000  0.310804  0.572788  1
  Dy  Dy2  1  0.750000  0.186078  0.072727  1
  Dy  Dy3  1  0.250000  0.813922  0.927273  1
  Dy  Dy4  1  0.750000  0.527793  0.789927  1
  Dy  Dy5  1  0.250000  0.472207  0.210073  1
  Lu  Lu6  1  0.750000  0.028080  0.710989  1
  Lu  Lu7  1  0.250000  0.971920  0.289011  1
  Al  Al8  1  0.750000  0.207579  0.398066  1
  Al  Al9  1  0.250000  0.792421  0.601934  1
  Al  Al10  1  0.750000  0.708921  0.103066  1
  Al  Al11  1  0.250000  0.291079  0.896934  1
