# generated using pymatgen
data_Yb5PrCu2Sn7
_symmetry_space_group_name_H-M   'P 1'
_cell_length_a   7.46531265
_cell_length_b   7.46531309
_cell_length_c   12.29915835
_cell_angle_alpha   86.16732776
_cell_angle_beta   86.16732663
_cell_angle_gamma   35.76115311
_symmetry_Int_Tables_number   1
_chemical_formula_structural   Yb5PrCu2Sn7
_chemical_formula_sum   'Yb5 Pr1 Cu2 Sn7'
_cell_volume   399.58894214
_cell_formula_units_Z   1
loop_
 _symmetry_equiv_pos_site_id
 _symmetry_equiv_pos_as_xyz
  1  'x, y, z'
loop_
 _atom_site_type_symbol
 _atom_site_label
 _atom_site_symmetry_multiplicity
 _atom_site_fract_x
 _atom_site_fract_y
 _atom_site_fract_z
 _atom_site_occupancy
  Yb  Yb0  1  0.802529  0.802529  0.297181  1
  Yb  Yb1  1  0.196248  0.196248  0.702573  1
  Yb  Yb2  1  0.365141  0.365141  0.003931  1
  Yb  Yb3  1  0.539957  0.539957  0.299446  1
  Yb  Yb4  1  0.633888  0.633888  0.999214  1
  Pr  Pr5  1  0.464227  0.464227  0.700123  1
  Cu  Cu6  1  0.171712  0.171712  0.386506  1
  Cu  Cu7  1  0.826902  0.826902  0.612027  1
  Sn  Sn8  1  0.341488  0.341488  0.480984  1
  Sn  Sn9  1  0.184485  0.184485  0.173418  1
  Sn  Sn10  1  0.987446  0.987446  0.121957  1
  Sn  Sn11  1  0.815553  0.815553  0.825532  1
  Sn  Sn12  1  0.000237  0.000237  0.498200  1
  Sn  Sn13  1  0.012424  0.012424  0.880866  1
  Sn  Sn14  1  0.657763  0.657763  0.518042  1
