# generated using pymatgen
data_Gd6PtCl10
_symmetry_space_group_name_H-M   'P 1'
_cell_length_a   7.23795427
_cell_length_b   9.06847449
_cell_length_c   9.10599079
_cell_angle_alpha   109.36891867
_cell_angle_beta   96.61136571
_cell_angle_gamma   107.07854634
_symmetry_Int_Tables_number   1
_chemical_formula_structural   Gd6PtCl10
_chemical_formula_sum   'Gd6 Pt1 Cl10'
_cell_volume   523.81652608
_cell_formula_units_Z   1
loop_
 _symmetry_equiv_pos_site_id
 _symmetry_equiv_pos_as_xyz
  1  'x, y, z'
loop_
 _atom_site_type_symbol
 _atom_site_label
 _atom_site_symmetry_multiplicity
 _atom_site_fract_x
 _atom_site_fract_y
 _atom_site_fract_z
 _atom_site_occupancy
  Gd  Gd0  1  0.141662  0.055295  0.748764  1
  Gd  Gd1  1  0.621392  0.847913  0.803289  1
  Gd  Gd2  1  0.858338  0.944705  0.251236  1
  Gd  Gd3  1  0.025045  0.685701  0.895936  1
  Gd  Gd4  1  0.378608  0.152087  0.196711  1
  Gd  Gd5  1  0.974955  0.314299  0.104064  1
  Pt  Pt6  1  0.000000  0.000000  0.000000  1
  Cl  Cl7  1  0.203067  0.745112  0.652724  1
  Cl  Cl8  1  0.640342  0.538168  0.725735  1
  Cl  Cl9  1  0.242371  0.078775  0.450885  1
  Cl  Cl10  1  0.796933  0.254888  0.347276  1
  Cl  Cl11  1  0.551429  0.168556  0.924793  1
  Cl  Cl12  1  0.757629  0.921225  0.549115  1
  Cl  Cl13  1  0.910955  0.630511  0.162482  1
  Cl  Cl14  1  0.359658  0.461832  0.274265  1
  Cl  Cl15  1  0.089045  0.369489  0.837518  1
  Cl  Cl16  1  0.448571  0.831444  0.075207  1
