# generated using pymatgen
data_Ho16In5HgPt2
_symmetry_space_group_name_H-M   'P 1'
_cell_length_a   10.42551900
_cell_length_b   10.43650696
_cell_length_c   6.96856513
_cell_angle_alpha   90.01922951
_cell_angle_beta   90.00000000
_cell_angle_gamma   119.96517530
_symmetry_Int_Tables_number   1
_chemical_formula_structural   Ho16In5HgPt2
_chemical_formula_sum   'Ho16 In5 Hg1 Pt2'
_cell_volume   656.86951673
_cell_formula_units_Z   1
loop_
 _symmetry_equiv_pos_site_id
 _symmetry_equiv_pos_as_xyz
  1  'x, y, z'
loop_
 _atom_site_type_symbol
 _atom_site_label
 _atom_site_symmetry_multiplicity
 _atom_site_fract_x
 _atom_site_fract_y
 _atom_site_fract_z
 _atom_site_occupancy
  Ho  Ho0  1  0.530363  0.060724  0.508457  1
  Ho  Ho1  1  0.936651  0.471182  0.509398  1
  Ho  Ho2  1  0.534532  0.471182  0.509398  1
  Ho  Ho3  1  0.469286  0.938572  0.006581  1
  Ho  Ho4  1  0.062371  0.530319  0.009050  1
  Ho  Ho5  1  0.467946  0.530319  0.009050  1
  Ho  Ho6  1  0.175070  0.350140  0.714974  1
  Ho  Ho7  1  0.653211  0.822201  0.717043  1
  Ho  Ho8  1  0.168990  0.822201  0.717043  1
  Ho  Ho9  1  0.824879  0.649758  0.205627  1
  Ho  Ho10  1  0.350866  0.175221  0.215851  1
  Ho  Ho11  1  0.824354  0.175221  0.215851  1
  Ho  Ho12  1  0.668956  0.337911  0.881260  1
  Ho  Ho13  1  0.333391  0.666783  0.383080  1
  Ho  Ho14  1  0.999513  0.999026  0.489551  1
  Ho  Ho15  1  0.000237  0.000474  0.990268  1
  In  In16  1  0.325769  0.162510  0.751394  1
  In  In17  1  0.836741  0.162510  0.751394  1
  In  In18  1  0.162706  0.325412  0.251573  1
  In  In19  1  0.674663  0.837394  0.251402  1
  In  In20  1  0.162731  0.837394  0.251402  1
  Hg  Hg21  1  0.836279  0.672559  0.756380  1
  Pt  Pt22  1  0.666818  0.333636  0.280989  1
  Pt  Pt23  1  0.333675  0.667352  0.781029  1
