# generated using pymatgen
data_LaNd4Sm3(B4Br5)2
_symmetry_space_group_name_H-M   'P 1'
_cell_length_a   9.25806766
_cell_length_b   9.25806848
_cell_length_c   19.39505714
_cell_angle_alpha   75.11001080
_cell_angle_beta   75.11000844
_cell_angle_gamma   26.72271589
_symmetry_Int_Tables_number   1
_chemical_formula_structural   LaNd4Sm3(B4Br5)2
_chemical_formula_sum   'La1 Nd4 Sm3 B8 Br10'
_cell_volume   720.98674526
_cell_formula_units_Z   1
loop_
 _symmetry_equiv_pos_site_id
 _symmetry_equiv_pos_as_xyz
  1  'x, y, z'
loop_
 _atom_site_type_symbol
 _atom_site_label
 _atom_site_symmetry_multiplicity
 _atom_site_fract_x
 _atom_site_fract_y
 _atom_site_fract_z
 _atom_site_occupancy
  La  La0  1  0.033240  0.033240  0.113846  1
  Nd  Nd1  1  0.023151  0.023151  0.374583  1
  Nd  Nd2  1  0.332046  0.332046  0.786948  1
  Nd  Nd3  1  0.668598  0.668598  0.213377  1
  Nd  Nd4  1  0.967433  0.967433  0.883288  1
  Sm  Sm5  1  0.609416  0.609416  0.719865  1
  Sm  Sm6  1  0.390950  0.390950  0.279414  1
  Sm  Sm7  1  0.976436  0.976436  0.628324  1
  B  B8  1  0.157148  0.786404  0.754678  1
  B  B9  1  0.214152  0.843473  0.245481  1
  B  B10  1  0.843473  0.214152  0.245481  1
  B  B11  1  0.786404  0.157148  0.754678  1
  B  B12  1  0.471324  0.471324  0.804192  1
  B  B13  1  0.529427  0.529427  0.195585  1
  B  B14  1  0.471935  0.471935  0.704948  1
  B  B15  1  0.528292  0.528292  0.295843  1
  Br  Br16  1  0.146173  0.146173  0.605153  1
  Br  Br17  1  0.851798  0.851798  0.393675  1
  Br  Br18  1  0.146415  0.146415  0.819163  1
  Br  Br19  1  0.853691  0.853691  0.180175  1
  Br  Br20  1  0.795770  0.795770  0.905942  1
  Br  Br21  1  0.206884  0.206884  0.094767  1
  Br  Br22  1  0.799723  0.799723  0.680336  1
  Br  Br23  1  0.202163  0.202163  0.318579  1
  Br  Br24  1  0.497409  0.497409  0.503835  1
  Br  Br25  1  0.496551  0.496551  0.997847  1
