# generated using pymatgen
data_Dy3Er5(Lu3Pb4)4
_symmetry_space_group_name_H-M   'P 1'
_cell_length_a   8.11590308
_cell_length_b   8.17735368
_cell_length_c   15.39722100
_cell_angle_alpha   90.02190977
_cell_angle_beta   90.00807629
_cell_angle_gamma   89.99187622
_symmetry_Int_Tables_number   1
_chemical_formula_structural   Dy3Er5(Lu3Pb4)4
_chemical_formula_sum   'Dy3 Er5 Lu12 Pb16'
_cell_volume   1021.86126488
_cell_formula_units_Z   1
loop_
 _symmetry_equiv_pos_site_id
 _symmetry_equiv_pos_as_xyz
  1  'x, y, z'
loop_
 _atom_site_type_symbol
 _atom_site_label
 _atom_site_symmetry_multiplicity
 _atom_site_fract_x
 _atom_site_fract_y
 _atom_site_fract_z
 _atom_site_occupancy
  Dy  Dy0  1  0.539202  0.323502  0.900761  1
  Dy  Dy1  1  0.039004  0.176437  0.599185  1
  Dy  Dy2  1  0.460941  0.676576  0.400650  1
  Er  Er3  1  0.960430  0.823672  0.099586  1
  Er  Er4  1  0.460378  0.676489  0.099921  1
  Er  Er5  1  0.960547  0.823733  0.400262  1
  Er  Er6  1  0.539554  0.323541  0.599462  1
  Er  Er7  1  0.039577  0.176199  0.900661  1
  Lu  Lu8  1  0.377054  0.842642  0.878051  1
  Lu  Lu9  1  0.876733  0.657146  0.621890  1
  Lu  Lu10  1  0.623014  0.157267  0.377998  1
  Lu  Lu11  1  0.123143  0.342959  0.121886  1
  Lu  Lu12  1  0.623082  0.157095  0.122027  1
  Lu  Lu13  1  0.123144  0.342908  0.377932  1
  Lu  Lu14  1  0.377027  0.842644  0.622033  1
  Lu  Lu15  1  0.877021  0.657266  0.878177  1
  Lu  Lu16  1  0.208485  0.505592  0.750002  1
  Lu  Lu17  1  0.708571  0.994460  0.750008  1
  Lu  Lu18  1  0.791456  0.494391  0.249961  1
  Lu  Lu19  1  0.291309  0.005507  0.249926  1
  Pb  Pb20  1  0.282348  0.034733  0.043090  1
  Pb  Pb21  1  0.783122  0.464635  0.457138  1
  Pb  Pb22  1  0.717040  0.964764  0.542808  1
  Pb  Pb23  1  0.217128  0.535274  0.957043  1
  Pb  Pb24  1  0.718875  0.964669  0.956790  1
  Pb  Pb25  1  0.218128  0.534381  0.543611  1
  Pb  Pb26  1  0.282093  0.034281  0.456368  1
  Pb  Pb27  1  0.782390  0.466158  0.043770  1
  Pb  Pb28  1  0.570893  0.626679  0.749982  1
  Pb  Pb29  1  0.070560  0.873426  0.750010  1
  Pb  Pb30  1  0.428845  0.373507  0.250030  1
  Pb  Pb31  1  0.929519  0.126523  0.249869  1
  Pb  Pb32  1  0.350150  0.155372  0.749464  1
  Pb  Pb33  1  0.850043  0.344397  0.750531  1
  Pb  Pb34  1  0.650092  0.844586  0.249497  1
  Pb  Pb35  1  0.149103  0.656588  0.249619  1
