# generated using pymatgen
data_Ho7Tm13Rh12
_symmetry_space_group_name_H-M   'P 1'
_cell_length_a   10.83853901
_cell_length_b   10.83746628
_cell_length_c   6.31825500
_cell_angle_alpha   90.01264608
_cell_angle_beta   90.00289689
_cell_angle_gamma   89.99712862
_symmetry_Int_Tables_number   1
_chemical_formula_structural   Ho7Tm13Rh12
_chemical_formula_sum   'Ho7 Tm13 Rh12'
_cell_volume   742.15675103
_cell_formula_units_Z   1
loop_
 _symmetry_equiv_pos_site_id
 _symmetry_equiv_pos_as_xyz
  1  'x, y, z'
loop_
 _atom_site_type_symbol
 _atom_site_label
 _atom_site_symmetry_multiplicity
 _atom_site_fract_x
 _atom_site_fract_y
 _atom_site_fract_z
 _atom_site_occupancy
  Ho  Ho0  1  0.289946  0.090375  0.376873  1
  Ho  Ho1  1  0.289816  0.910983  0.876992  1
  Ho  Ho2  1  0.709827  0.089989  0.876919  1
  Ho  Ho3  1  0.709983  0.910550  0.377024  1
  Ho  Ho4  1  0.589532  0.789822  0.876928  1
  Ho  Ho5  1  0.589151  0.210477  0.376921  1
  Ho  Ho6  1  0.410238  0.790053  0.376923  1
  Tm  Tm7  1  0.410723  0.208982  0.878009  1
  Tm  Tm8  1  0.208837  0.412528  0.621082  1
  Tm  Tm9  1  0.208156  0.586650  0.120886  1
  Tm  Tm10  1  0.791739  0.413321  0.120264  1
  Tm  Tm11  1  0.791835  0.586622  0.620437  1
  Tm  Tm12  1  0.913335  0.708147  0.120741  1
  Tm  Tm13  1  0.913468  0.291912  0.620590  1
  Tm  Tm14  1  0.086853  0.707986  0.620413  1
  Tm  Tm15  1  0.086679  0.291917  0.120311  1
  Tm  Tm16  1  0.000204  0.000124  0.503113  1
  Tm  Tm17  1  0.999824  0.000210  0.002819  1
  Tm  Tm18  1  0.499594  0.499322  0.002348  1
  Tm  Tm19  1  0.499859  0.500052  0.502606  1
  Rh  Rh20  1  0.849056  0.155316  0.251462  1
  Rh  Rh21  1  0.849311  0.844885  0.750946  1
  Rh  Rh22  1  0.152341  0.155443  0.752173  1
  Rh  Rh23  1  0.150989  0.844745  0.251359  1
  Rh  Rh24  1  0.654002  0.348635  0.751699  1
  Rh  Rh25  1  0.655063  0.650940  0.251295  1
  Rh  Rh26  1  0.345053  0.348076  0.248529  1
  Rh  Rh27  1  0.345014  0.650674  0.750818  1
  Rh  Rh28  1  0.499707  0.000797  0.122676  1
  Rh  Rh29  1  0.499558  0.000871  0.624186  1
  Rh  Rh30  1  0.000191  0.499865  0.876146  1
  Rh  Rh31  1  0.000115  0.499730  0.376514  1
