# generated using pymatgen
data_Ce3Er13Mg2(Co2Hg)2
_symmetry_space_group_name_H-M   'P 1'
_cell_length_a   9.41736039
_cell_length_b   9.45088627
_cell_length_c   9.46201700
_cell_angle_alpha   59.96102938
_cell_angle_beta   59.84300982
_cell_angle_gamma   60.01283011
_symmetry_Int_Tables_number   1
_chemical_formula_structural   Ce3Er13Mg2(Co2Hg)2
_chemical_formula_sum   'Ce3 Er13 Mg2 Co4 Hg2'
_cell_volume   594.65726914
_cell_formula_units_Z   1
loop_
 _symmetry_equiv_pos_site_id
 _symmetry_equiv_pos_as_xyz
  1  'x, y, z'
loop_
 _atom_site_type_symbol
 _atom_site_label
 _atom_site_symmetry_multiplicity
 _atom_site_fract_x
 _atom_site_fract_y
 _atom_site_fract_z
 _atom_site_occupancy
  Ce  Ce0  1  0.586812  0.594109  0.595489  1
  Ce  Ce1  1  0.586812  0.594109  0.223590  1
  Ce  Ce2  1  0.590062  0.218050  0.595944  1
  Er  Er3  1  0.199772  0.602189  0.599019  1
  Er  Er4  1  0.064119  0.436039  0.436992  1
  Er  Er5  1  0.437695  0.062411  0.062918  1
  Er  Er6  1  0.437695  0.062411  0.436976  1
  Er  Er7  1  0.064119  0.436039  0.062849  1
  Er  Er8  1  0.438194  0.435252  0.063277  1
  Er  Er9  1  0.062020  0.060664  0.438657  1
  Er  Er10  1  0.185391  0.813896  0.815151  1
  Er  Er11  1  0.811363  0.185594  0.189783  1
  Er  Er12  1  0.811363  0.185594  0.813261  1
  Er  Er13  1  0.185391  0.813896  0.185562  1
  Er  Er14  1  0.811260  0.812440  0.188150  1
  Er  Er15  1  0.186154  0.184930  0.814459  1
  Mg  Mg16  1  0.826963  0.519942  0.826547  1
  Mg  Mg17  1  0.518523  0.831594  0.824941  1
  Co  Co18  1  0.405727  0.389739  0.388584  1
  Co  Co19  1  0.405727  0.389739  0.815952  1
  Co  Co20  1  0.406582  0.814775  0.389322  1
  Co  Co21  1  0.812805  0.394683  0.396256  1
  Hg  Hg22  1  0.832725  0.830953  0.837716  1
  Hg  Hg23  1  0.832725  0.830953  0.498604  1
