# generated using pymatgen
data_Ho3Er2Lu3(CdPt)2
_symmetry_space_group_name_H-M   'P 1'
_cell_length_a   9.56493465
_cell_length_b   9.56493550
_cell_length_c   9.56493500
_cell_angle_alpha   59.99999829
_cell_angle_beta   59.99999532
_cell_angle_gamma   59.99999785
_symmetry_Int_Tables_number   1
_chemical_formula_structural   Ho3Er2Lu3(CdPt)2
_chemical_formula_sum   'Ho6 Er4 Lu6 Cd4 Pt4'
_cell_volume   618.77256558
_cell_formula_units_Z   2
loop_
 _symmetry_equiv_pos_site_id
 _symmetry_equiv_pos_as_xyz
  1  'x, y, z'
loop_
 _atom_site_type_symbol
 _atom_site_label
 _atom_site_symmetry_multiplicity
 _atom_site_fract_x
 _atom_site_fract_y
 _atom_site_fract_z
 _atom_site_occupancy
  Ho  Ho0  1  0.185556  0.814444  0.814444  1
  Ho  Ho1  1  0.814444  0.185556  0.185556  1
  Ho  Ho2  1  0.814444  0.185556  0.814444  1
  Ho  Ho3  1  0.185556  0.814444  0.185556  1
  Ho  Ho4  1  0.814444  0.814444  0.185556  1
  Ho  Ho5  1  0.185556  0.185556  0.814444  1
  Er  Er6  1  0.602415  0.602415  0.602415  1
  Er  Er7  1  0.602415  0.602415  0.192754  1
  Er  Er8  1  0.602415  0.192754  0.602415  1
  Er  Er9  1  0.192754  0.602415  0.602415  1
  Lu  Lu10  1  0.061340  0.438660  0.438660  1
  Lu  Lu11  1  0.438660  0.061340  0.061340  1
  Lu  Lu12  1  0.438660  0.061340  0.438660  1
  Lu  Lu13  1  0.061340  0.438660  0.061340  1
  Lu  Lu14  1  0.438660  0.438660  0.061340  1
  Lu  Lu15  1  0.061340  0.061340  0.438660  1
  Cd  Cd16  1  0.831760  0.831760  0.831760  1
  Cd  Cd17  1  0.831760  0.831760  0.504720  1
  Cd  Cd18  1  0.831760  0.504720  0.831760  1
  Cd  Cd19  1  0.504720  0.831760  0.831760  1
  Pt  Pt20  1  0.392430  0.392430  0.392430  1
  Pt  Pt21  1  0.392430  0.392430  0.822709  1
  Pt  Pt22  1  0.392430  0.822709  0.392430  1
  Pt  Pt23  1  0.822709  0.392430  0.392430  1
