# generated using pymatgen
data_Mn(Sb4Pd)3
_symmetry_space_group_name_H-M   'P 1'
_cell_length_a   8.16793771
_cell_length_b   8.16506791
_cell_length_c   9.44794747
_cell_angle_alpha   55.12964912
_cell_angle_beta   54.64512535
_cell_angle_gamma   70.65429977
_symmetry_Int_Tables_number   1
_chemical_formula_structural   Mn(Sb4Pd)3
_chemical_formula_sum   'Mn1 Sb12 Pd3'
_cell_volume   421.62770853
_cell_formula_units_Z   1
loop_
 _symmetry_equiv_pos_site_id
 _symmetry_equiv_pos_as_xyz
  1  'x, y, z'
loop_
 _atom_site_type_symbol
 _atom_site_label
 _atom_site_symmetry_multiplicity
 _atom_site_fract_x
 _atom_site_fract_y
 _atom_site_fract_z
 _atom_site_occupancy
  Mn  Mn0  1  0.000000  0.500000  0.500000  1
  Sb  Sb1  1  0.676532  0.655701  0.489632  1
  Sb  Sb2  1  0.323468  0.344299  0.510368  1
  Sb  Sb3  1  0.651356  0.651035  0.194525  1
  Sb  Sb4  1  0.348644  0.348965  0.805475  1
  Sb  Sb5  1  0.153498  0.846251  0.654007  1
  Sb  Sb6  1  0.846502  0.153749  0.345993  1
  Sb  Sb7  1  0.853273  0.167321  0.652834  1
  Sb  Sb8  1  0.146727  0.832679  0.347166  1
  Sb  Sb9  1  0.820081  0.493360  0.832838  1
  Sb  Sb10  1  0.179919  0.506640  0.167162  1
  Sb  Sb11  1  0.500464  0.192682  0.153279  1
  Sb  Sb12  1  0.499536  0.807318  0.846721  1
  Pd  Pd13  1  0.000000  0.500000  0.000000  1
  Pd  Pd14  1  0.500000  0.000000  0.000000  1
  Pd  Pd15  1  0.500000  0.000000  0.500000  1
