# generated using pymatgen
data_DyY(Co5As3)2
_symmetry_space_group_name_H-M   'P 1'
_cell_length_a   3.78428800
_cell_length_b   12.16543171
_cell_length_c   10.68427600
_cell_angle_alpha   89.97919547
_cell_angle_beta   90.00000000
_cell_angle_gamma   90.00000000
_symmetry_Int_Tables_number   1
_chemical_formula_structural   DyY(Co5As3)2
_chemical_formula_sum   'Dy2 Y2 Co20 As12'
_cell_volume   491.87729465
_cell_formula_units_Z   2
loop_
 _symmetry_equiv_pos_site_id
 _symmetry_equiv_pos_as_xyz
  1  'x, y, z'
loop_
 _atom_site_type_symbol
 _atom_site_label
 _atom_site_symmetry_multiplicity
 _atom_site_fract_x
 _atom_site_fract_y
 _atom_site_fract_z
 _atom_site_occupancy
  Dy  Dy0  1  0.750000  0.701463  0.081319  1
  Dy  Dy1  1  0.250000  0.298537  0.918681  1
  Y  Y2  1  0.250000  0.798497  0.581769  1
  Y  Y3  1  0.750000  0.201503  0.418231  1
  Co  Co4  1  0.750000  0.696781  0.383533  1
  Co  Co5  1  0.250000  0.303219  0.616467  1
  Co  Co6  1  0.250000  0.803065  0.884312  1
  Co  Co7  1  0.750000  0.196935  0.115688  1
  Co  Co8  1  0.750000  0.991328  0.211716  1
  Co  Co9  1  0.250000  0.008672  0.788284  1
  Co  Co10  1  0.250000  0.508705  0.712128  1
  Co  Co11  1  0.750000  0.491295  0.287872  1
  Co  Co12  1  0.750000  0.677298  0.784077  1
  Co  Co13  1  0.250000  0.322702  0.215923  1
  Co  Co14  1  0.250000  0.822628  0.283701  1
  Co  Co15  1  0.750000  0.177372  0.716299  1
  Co  Co16  1  0.750000  0.932169  0.969528  1
  Co  Co17  1  0.250000  0.067831  0.030472  1
  Co  Co18  1  0.250000  0.567844  0.469034  1
  Co  Co19  1  0.750000  0.432156  0.530966  1
  Co  Co20  1  0.750000  0.988324  0.593191  1
  Co  Co21  1  0.250000  0.011676  0.406809  1
  Co  Co22  1  0.250000  0.512044  0.093003  1
  Co  Co23  1  0.750000  0.487955  0.906997  1
  As  As24  1  0.750000  0.614079  0.584506  1
  As  As25  1  0.250000  0.385921  0.415494  1
  As  As26  1  0.250000  0.885764  0.084528  1
  As  As27  1  0.750000  0.114236  0.915472  1
  As  As28  1  0.750000  0.890720  0.398943  1
  As  As29  1  0.250000  0.109280  0.601057  1
  As  As30  1  0.250000  0.609327  0.899212  1
  As  As31  1  0.750000  0.390673  0.100788  1
  As  As32  1  0.750000  0.870338  0.769515  1
  As  As33  1  0.250000  0.129662  0.230485  1
  As  As34  1  0.250000  0.629903  0.268964  1
  As  As35  1  0.750000  0.370097  0.731036  1
