# generated using pymatgen
data_Nd2Ho2B4I5
_symmetry_space_group_name_H-M   'P 1'
_cell_length_a   9.70726508
_cell_length_b   9.70726377
_cell_length_c   9.74010960
_cell_angle_alpha   74.98512905
_cell_angle_beta   74.98513259
_cell_angle_gamma   25.58186806
_symmetry_Int_Tables_number   1
_chemical_formula_structural   Nd2Ho2B4I5
_chemical_formula_sum   'Nd2 Ho2 B4 I5'
_cell_volume   382.07390044
_cell_formula_units_Z   1
loop_
 _symmetry_equiv_pos_site_id
 _symmetry_equiv_pos_as_xyz
  1  'x, y, z'
loop_
 _atom_site_type_symbol
 _atom_site_label
 _atom_site_symmetry_multiplicity
 _atom_site_fract_x
 _atom_site_fract_y
 _atom_site_fract_z
 _atom_site_occupancy
  Nd  Nd0  1  0.134528  0.134528  0.932089  1
  Nd  Nd1  1  0.866942  0.866942  0.066448  1
  Ho  Ho2  1  0.504703  0.504703  0.754253  1
  Ho  Ho3  1  0.497055  0.497055  0.244826  1
  B  B4  1  0.315341  0.686106  0.999621  1
  B  B5  1  0.686106  0.315341  0.999621  1
  B  B6  1  0.999982  0.999982  0.098663  1
  B  B7  1  0.001434  0.001434  0.900544  1
  I  I8  1  0.673922  0.673922  0.670982  1
  I  I9  1  0.327920  0.327920  0.328359  1
  I  I10  1  0.331165  0.331165  0.837018  1
  I  I11  1  0.671032  0.671032  0.160030  1
  I  I12  1  0.004169  0.004169  0.497746  1
