# generated using pymatgen
data_BeB2PRu4
_symmetry_space_group_name_H-M   'P 1'
_cell_length_a   6.86656596
_cell_length_b   6.86656527
_cell_length_c   6.86656512
_cell_angle_alpha   131.94573686
_cell_angle_beta   131.94573219
_cell_angle_gamma   70.31474521
_symmetry_Int_Tables_number   1
_chemical_formula_structural   BeB2PRu4
_chemical_formula_sum   'Be2 B4 P2 Ru8'
_cell_volume   175.53162328
_cell_formula_units_Z   2
loop_
 _symmetry_equiv_pos_site_id
 _symmetry_equiv_pos_as_xyz
  1  'x, y, z'
loop_
 _atom_site_type_symbol
 _atom_site_label
 _atom_site_symmetry_multiplicity
 _atom_site_fract_x
 _atom_site_fract_y
 _atom_site_fract_z
 _atom_site_occupancy
  Be  Be0  1  0.000000  0.000000  0.000000  1
  Be  Be1  1  0.500000  0.500000  0.000000  1
  B  B2  1  0.888116  0.388116  0.276231  1
  B  B3  1  0.388116  0.111884  0.500000  1
  B  B4  1  0.611884  0.888116  0.500000  1
  B  B5  1  0.111884  0.611884  0.723769  1
  P  P6  1  0.750000  0.750000  0.000000  1
  P  P7  1  0.250000  0.250000  0.000000  1
  Ru  Ru8  1  0.176612  0.676612  0.111298  1
  Ru  Ru9  1  0.434686  0.934686  0.111298  1
  Ru  Ru10  1  0.565314  0.065314  0.888702  1
  Ru  Ru11  1  0.065314  0.176612  0.500000  1
  Ru  Ru12  1  0.676612  0.565314  0.500000  1
  Ru  Ru13  1  0.934686  0.823388  0.500000  1
  Ru  Ru14  1  0.323388  0.434686  0.500000  1
  Ru  Ru15  1  0.823388  0.323388  0.888702  1
