# generated using pymatgen
data_Tb2Ni5P4Rh
_symmetry_space_group_name_H-M   'P 1'
_cell_length_a   3.78759500
_cell_length_b   10.59233300
_cell_length_c   12.44904000
_cell_angle_alpha   90.00000000
_cell_angle_beta   90.00000000
_cell_angle_gamma   90.00000000
_symmetry_Int_Tables_number   1
_chemical_formula_structural   Tb2Ni5P4Rh
_chemical_formula_sum   'Tb6 Ni15 P12 Rh3'
_cell_volume   499.44885580
_cell_formula_units_Z   3
loop_
 _symmetry_equiv_pos_site_id
 _symmetry_equiv_pos_as_xyz
  1  'x, y, z'
loop_
 _atom_site_type_symbol
 _atom_site_label
 _atom_site_symmetry_multiplicity
 _atom_site_fract_x
 _atom_site_fract_y
 _atom_site_fract_z
 _atom_site_occupancy
  Tb  Tb0  1  0.000000  0.500000  0.520113  1
  Tb  Tb1  1  0.500000  0.000000  0.475856  1
  Tb  Tb2  1  0.500000  0.816609  0.206590  1
  Tb  Tb3  1  0.500000  0.183391  0.206590  1
  Tb  Tb4  1  0.000000  0.687180  0.794533  1
  Tb  Tb5  1  0.000000  0.312820  0.794533  1
  Ni  Ni6  1  0.000000  0.000000  0.298706  1
  Ni  Ni7  1  0.000000  0.500000  0.986428  1
  Ni  Ni8  1  0.500000  0.000000  0.016439  1
  Ni  Ni9  1  0.500000  0.329696  0.994709  1
  Ni  Ni10  1  0.500000  0.670304  0.994709  1
  Ni  Ni11  1  0.000000  0.167277  0.008439  1
  Ni  Ni12  1  0.000000  0.832723  0.008439  1
  Ni  Ni13  1  0.500000  0.300023  0.426573  1
  Ni  Ni14  1  0.500000  0.699977  0.426573  1
  Ni  Ni15  1  0.000000  0.196045  0.570007  1
  Ni  Ni16  1  0.000000  0.803955  0.570007  1
  Ni  Ni17  1  0.500000  0.880737  0.708796  1
  Ni  Ni18  1  0.500000  0.119263  0.708796  1
  Ni  Ni19  1  0.000000  0.621606  0.290010  1
  Ni  Ni20  1  0.000000  0.378394  0.290010  1
  P  P21  1  0.500000  0.500000  0.884930  1
  P  P22  1  0.000000  0.000000  0.123346  1
  P  P23  1  0.500000  0.500000  0.348917  1
  P  P24  1  0.000000  0.000000  0.650663  1
  P  P25  1  0.500000  0.305066  0.610911  1
  P  P26  1  0.500000  0.694934  0.610911  1
  P  P27  1  0.000000  0.186101  0.384515  1
  P  P28  1  0.000000  0.813899  0.384515  1
  P  P29  1  0.500000  0.848281  0.894146  1
  P  P30  1  0.500000  0.151719  0.894146  1
  P  P31  1  0.000000  0.653872  0.107541  1
  P  P32  1  0.000000  0.346128  0.107541  1
  Rh  Rh33  1  0.500000  0.500000  0.159198  1
  Rh  Rh34  1  0.000000  0.000000  0.841175  1
  Rh  Rh35  1  0.500000  0.500000  0.700690  1
