# generated using pymatgen
data_La7Ce3(Al2Ru3)2
_symmetry_space_group_name_H-M   'P 1'
_cell_length_a   8.64363018
_cell_length_b   8.64363033
_cell_length_c   8.64363100
_cell_angle_alpha   110.20786858
_cell_angle_beta   110.20786190
_cell_angle_gamma   110.20786538
_symmetry_Int_Tables_number   1
_chemical_formula_structural   La7Ce3(Al2Ru3)2
_chemical_formula_sum   'La7 Ce3 Al4 Ru6'
_cell_volume   483.09273388
_cell_formula_units_Z   1
loop_
 _symmetry_equiv_pos_site_id
 _symmetry_equiv_pos_as_xyz
  1  'x, y, z'
loop_
 _atom_site_type_symbol
 _atom_site_label
 _atom_site_symmetry_multiplicity
 _atom_site_fract_x
 _atom_site_fract_y
 _atom_site_fract_z
 _atom_site_occupancy
  La  La0  1  0.787842  0.787842  0.787842  1
  La  La1  1  0.310108  0.562085  0.756077  1
  La  La2  1  0.756077  0.310108  0.562085  1
  La  La3  1  0.562085  0.756077  0.310108  1
  La  La4  1  0.718467  0.502403  0.992036  1
  La  La5  1  0.992036  0.718467  0.502403  1
  La  La6  1  0.502403  0.992036  0.718467  1
  Ce  Ce7  1  0.252030  0.201015  0.946460  1
  Ce  Ce8  1  0.946460  0.252030  0.201015  1
  Ce  Ce9  1  0.201015  0.946460  0.252030  1
  Al  Al10  1  0.400766  0.400766  0.400766  1
  Al  Al11  1  0.093205  0.495170  0.008916  1
  Al  Al12  1  0.008916  0.093205  0.495170  1
  Al  Al13  1  0.495170  0.008916  0.093205  1
  Ru  Ru14  1  0.917589  0.124439  0.755916  1
  Ru  Ru15  1  0.755916  0.917589  0.124439  1
  Ru  Ru16  1  0.124439  0.755916  0.917589  1
  Ru  Ru17  1  0.221190  0.589049  0.365233  1
  Ru  Ru18  1  0.365233  0.221190  0.589049  1
  Ru  Ru19  1  0.589049  0.365233  0.221190  1
