# generated using pymatgen
data_Ti16Nb3Si16Ru
_symmetry_space_group_name_H-M   'P 1'
_cell_length_a   6.70360873
_cell_length_b   6.70360864
_cell_length_c   12.21831090
_cell_angle_alpha   90.28156701
_cell_angle_beta   89.71843208
_cell_angle_gamma   89.88767811
_symmetry_Int_Tables_number   1
_chemical_formula_structural   Ti16Nb3Si16Ru
_chemical_formula_sum   'Ti16 Nb3 Si16 Ru1'
_cell_volume   549.05662724
_cell_formula_units_Z   1
loop_
 _symmetry_equiv_pos_site_id
 _symmetry_equiv_pos_as_xyz
  1  'x, y, z'
loop_
 _atom_site_type_symbol
 _atom_site_label
 _atom_site_symmetry_multiplicity
 _atom_site_fract_x
 _atom_site_fract_y
 _atom_site_fract_z
 _atom_site_occupancy
  Ti  Ti0  1  0.994955  0.152150  0.619896  1
  Ti  Ti1  1  0.351447  0.494655  0.870818  1
  Ti  Ti2  1  0.646479  0.500748  0.370379  1
  Ti  Ti3  1  0.494655  0.351447  0.129182  1
  Ti  Ti4  1  0.500748  0.646479  0.629621  1
  Ti  Ti5  1  0.004185  0.852009  0.123729  1
  Ti  Ti6  1  0.152150  0.994955  0.380104  1
  Ti  Ti7  1  0.852009  0.004185  0.876271  1
  Ti  Ti8  1  0.002265  0.343768  0.221802  1
  Ti  Ti9  1  0.161373  0.498859  0.470850  1
  Ti  Ti10  1  0.843310  0.497145  0.969643  1
  Ti  Ti11  1  0.498859  0.161373  0.529150  1
  Ti  Ti12  1  0.497145  0.843310  0.030357  1
  Ti  Ti13  1  0.998388  0.655393  0.720983  1
  Ti  Ti14  1  0.343768  0.002265  0.778198  1
  Ti  Ti15  1  0.655393  0.998388  0.279017  1
  Nb  Nb16  1  0.170141  0.170141  0.000000  1
  Nb  Nb17  1  0.328451  0.672117  0.252559  1
  Nb  Nb18  1  0.672117  0.328451  0.747441  1
  Si  Si19  1  0.045652  0.302016  0.812430  1
  Si  Si20  1  0.197460  0.546421  0.063018  1
  Si  Si21  1  0.803341  0.463155  0.559702  1
  Si  Si22  1  0.546421  0.197460  0.936982  1
  Si  Si23  1  0.463155  0.803341  0.440298  1
  Si  Si24  1  0.949352  0.701550  0.317252  1
  Si  Si25  1  0.302016  0.045652  0.187570  1
  Si  Si26  1  0.701550  0.949352  0.682748  1
  Si  Si27  1  0.291612  0.357843  0.672018  1
  Si  Si28  1  0.140605  0.791630  0.921892  1
  Si  Si29  1  0.859097  0.205335  0.421992  1
  Si  Si30  1  0.791630  0.140605  0.078108  1
  Si  Si31  1  0.205335  0.859097  0.578008  1
  Si  Si32  1  0.708637  0.640623  0.172205  1
  Si  Si33  1  0.357843  0.291612  0.327982  1
  Si  Si34  1  0.640623  0.708637  0.827795  1
  Ru  Ru35  1  0.827833  0.827833  0.500000  1
