# generated using pymatgen
data_Y4ReOs6W
_symmetry_space_group_name_H-M   'P 1'
_cell_length_a   5.23937331
_cell_length_b   5.23937330
_cell_length_c   9.03557500
_cell_angle_alpha   90.00000000
_cell_angle_beta   90.00000000
_cell_angle_gamma   115.91047226
_symmetry_Int_Tables_number   1
_chemical_formula_structural   Y4ReOs6W
_chemical_formula_sum   'Y4 Re1 Os6 W1'
_cell_volume   223.10278484
_cell_formula_units_Z   1
loop_
 _symmetry_equiv_pos_site_id
 _symmetry_equiv_pos_as_xyz
  1  'x, y, z'
loop_
 _atom_site_type_symbol
 _atom_site_label
 _atom_site_symmetry_multiplicity
 _atom_site_fract_x
 _atom_site_fract_y
 _atom_site_fract_z
 _atom_site_occupancy
  Y  Y0  1  0.329883  0.670117  0.436694  1
  Y  Y1  1  0.667502  0.332498  0.565133  1
  Y  Y2  1  0.667502  0.332498  0.934867  1
  Y  Y3  1  0.329883  0.670117  0.063306  1
  Re  Re4  1  0.168193  0.831807  0.750000  1
  Os  Os5  1  0.998062  0.001938  0.502364  1
  Os  Os6  1  0.998062  0.001938  0.997636  1
  Os  Os7  1  0.828141  0.650649  0.250000  1
  Os  Os8  1  0.349351  0.171859  0.250000  1
  Os  Os9  1  0.170305  0.345013  0.750000  1
  Os  Os10  1  0.654987  0.829695  0.750000  1
  W  W11  1  0.838129  0.161871  0.250000  1
