# generated using pymatgen
data_Cs5Re3SeS6
_symmetry_space_group_name_H-M   'P 1'
_cell_length_a   11.15915103
_cell_length_b   11.15088029
_cell_length_c   11.30627600
_cell_angle_alpha   59.57612585
_cell_angle_beta   60.69220856
_cell_angle_gamma   60.17186727
_symmetry_Int_Tables_number   1
_chemical_formula_structural   Cs5Re3SeS6
_chemical_formula_sum   'Cs10 Re6 Se2 S12'
_cell_volume   997.93871897
_cell_formula_units_Z   2
loop_
 _symmetry_equiv_pos_site_id
 _symmetry_equiv_pos_as_xyz
  1  'x, y, z'
loop_
 _atom_site_type_symbol
 _atom_site_label
 _atom_site_symmetry_multiplicity
 _atom_site_fract_x
 _atom_site_fract_y
 _atom_site_fract_z
 _atom_site_occupancy
  Cs  Cs0  1  0.003494  0.008904  0.995515  1
  Cs  Cs1  1  0.421544  0.980245  0.016460  1
  Cs  Cs2  1  0.423280  0.000227  0.570550  1
  Cs  Cs3  1  0.838342  0.857303  0.862406  1
  Cs  Cs4  1  0.842425  0.838537  0.430228  1
  Cs  Cs5  1  0.990660  0.414035  0.576895  1
  Cs  Cs6  1  0.035516  0.030196  0.449024  1
  Cs  Cs7  1  0.980010  0.425973  0.013305  1
  Cs  Cs8  1  0.196583  0.570296  0.123191  1
  Cs  Cs9  1  0.575489  0.202253  0.106621  1
  Re  Re10  1  0.384241  0.617342  0.612863  1
  Re  Re11  1  0.382829  0.378458  0.618029  1
  Re  Re12  1  0.378331  0.617651  0.381628  1
  Re  Re13  1  0.621475  0.377647  0.616934  1
  Re  Re14  1  0.619235  0.618121  0.377802  1
  Re  Re15  1  0.617363  0.376389  0.384515  1
  Se  Se16  1  0.216770  0.216517  0.786173  1
  Se  Se17  1  0.206902  0.785517  0.769146  1
  S  S18  1  0.396062  0.389567  0.820847  1
  S  S19  1  0.175675  0.605440  0.606718  1
  S  S20  1  0.611734  0.608308  0.603129  1
  S  S21  1  0.204377  0.780404  0.243743  1
  S  S22  1  0.388322  0.387735  0.394291  1
  S  S23  1  0.395911  0.826410  0.385605  1
  S  S24  1  0.608066  0.167952  0.612343  1
  S  S25  1  0.779180  0.211947  0.770029  1
  S  S26  1  0.825557  0.392386  0.390217  1
  S  S27  1  0.603287  0.605212  0.176228  1
  S  S28  1  0.775910  0.777213  0.214033  1
  S  S29  1  0.776230  0.206616  0.246334  1
