# generated using pymatgen
data_TbFe7Tc5
_symmetry_space_group_name_H-M   'P 1'
_cell_length_a   4.73403217
_cell_length_b   6.54059312
_cell_length_c   6.54059283
_cell_angle_alpha   83.64775444
_cell_angle_beta   68.78330428
_cell_angle_gamma   68.78329765
_symmetry_Int_Tables_number   1
_chemical_formula_structural   TbFe7Tc5
_chemical_formula_sum   'Tb1 Fe7 Tc5'
_cell_volume   175.94701729
_cell_formula_units_Z   1
loop_
 _symmetry_equiv_pos_site_id
 _symmetry_equiv_pos_as_xyz
  1  'x, y, z'
loop_
 _atom_site_type_symbol
 _atom_site_label
 _atom_site_symmetry_multiplicity
 _atom_site_fract_x
 _atom_site_fract_y
 _atom_site_fract_z
 _atom_site_occupancy
  Tb  Tb0  1  0.991801  0.008199  0.008199  1
  Fe  Fe1  1  0.290021  0.209979  0.209979  1
  Fe  Fe2  1  0.502122  0.224442  0.771314  1
  Fe  Fe3  1  0.502122  0.771314  0.224442  1
  Fe  Fe4  1  0.003402  0.000634  0.493873  1
  Fe  Fe5  1  0.502090  0.000634  0.493873  1
  Fe  Fe6  1  0.502090  0.493873  0.000634  1
  Fe  Fe7  1  0.003402  0.493873  0.000634  1
  Tc  Tc8  1  0.005249  0.355014  0.634488  1
  Tc  Tc9  1  0.005249  0.634488  0.355014  1
  Tc  Tc10  1  0.638745  0.361255  0.361255  1
  Tc  Tc11  1  0.351145  0.648855  0.648855  1
  Tc  Tc12  1  0.702561  0.797439  0.797439  1
