# generated using pymatgen
data_Tb8InHgPd2
_symmetry_space_group_name_H-M   'P 1'
_cell_length_a   9.74528809
_cell_length_b   9.74528907
_cell_length_c   9.72480400
_cell_angle_alpha   60.06951086
_cell_angle_beta   60.06950754
_cell_angle_gamma   60.05808324
_symmetry_Int_Tables_number   1
_chemical_formula_structural   Tb8InHgPd2
_chemical_formula_sum   'Tb16 In2 Hg2 Pd4'
_cell_volume   654.03566187
_cell_formula_units_Z   2
loop_
 _symmetry_equiv_pos_site_id
 _symmetry_equiv_pos_as_xyz
  1  'x, y, z'
loop_
 _atom_site_type_symbol
 _atom_site_label
 _atom_site_symmetry_multiplicity
 _atom_site_fract_x
 _atom_site_fract_y
 _atom_site_fract_z
 _atom_site_occupancy
  Tb  Tb0  1  0.353436  0.353436  0.351943  1
  Tb  Tb1  1  0.353436  0.353436  0.941187  1
  Tb  Tb2  1  0.356737  0.933462  0.354901  1
  Tb  Tb3  1  0.933462  0.356737  0.354901  1
  Tb  Tb4  1  0.810100  0.189335  0.191105  1
  Tb  Tb5  1  0.189335  0.810100  0.809459  1
  Tb  Tb6  1  0.189335  0.810100  0.191105  1
  Tb  Tb7  1  0.810100  0.189335  0.809459  1
  Tb  Tb8  1  0.190696  0.190696  0.809304  1
  Tb  Tb9  1  0.810238  0.810238  0.189762  1
  Tb  Tb10  1  0.934012  0.563409  0.565540  1
  Tb  Tb11  1  0.563409  0.934012  0.937038  1
  Tb  Tb12  1  0.563409  0.934012  0.565540  1
  Tb  Tb13  1  0.934012  0.563409  0.937038  1
  Tb  Tb14  1  0.565261  0.565261  0.934739  1
  Tb  Tb15  1  0.935569  0.935569  0.564431  1
  In  In16  1  0.580812  0.255402  0.581892  1
  In  In17  1  0.255402  0.580812  0.581892  1
  Hg  Hg18  1  0.585689  0.585689  0.588575  1
  Hg  Hg19  1  0.585689  0.585689  0.240046  1
  Pd  Pd20  1  0.144457  0.144457  0.146691  1
  Pd  Pd21  1  0.144457  0.144457  0.564394  1
  Pd  Pd22  1  0.142961  0.567983  0.144528  1
  Pd  Pd23  1  0.567983  0.142961  0.144528  1
