# generated using pymatgen
data_Mg2H7Ir
_symmetry_space_group_name_H-M   'P 1'
_cell_length_a   6.76971467
_cell_length_b   5.06669638
_cell_length_c   8.06550864
_cell_angle_alpha   37.70587009
_cell_angle_beta   34.03078842
_cell_angle_gamma   49.17915137
_symmetry_Int_Tables_number   1
_chemical_formula_structural   Mg2H7Ir
_chemical_formula_sum   'Mg2 H7 Ir1'
_cell_volume   94.68920981
_cell_formula_units_Z   1
loop_
 _symmetry_equiv_pos_site_id
 _symmetry_equiv_pos_as_xyz
  1  'x, y, z'
loop_
 _atom_site_type_symbol
 _atom_site_label
 _atom_site_symmetry_multiplicity
 _atom_site_fract_x
 _atom_site_fract_y
 _atom_site_fract_z
 _atom_site_occupancy
  Mg  Mg0  1  0.975585  0.016680  0.623012  1
  Mg  Mg1  1  0.961606  0.051734  0.123057  1
  H  H2  1  0.430189  0.586012  0.583037  1
  H  H3  1  0.268796  0.017161  0.158791  1
  H  H4  1  0.750197  0.492990  0.666908  1
  H  H5  1  0.822855  0.530547  0.873009  1
  H  H6  1  0.294303  0.534029  0.110780  1
  H  H7  1  0.902221  0.636691  0.094389  1
  H  H8  1  0.387009  0.089565  0.580526  1
  Ir  Ir9  1  0.328927  0.556910  0.867161  1
