# generated using pymatgen
data_V10GaSi3P2
_symmetry_space_group_name_H-M   'P 1'
_cell_length_a   9.35176819
_cell_length_b   7.06979518
_cell_length_c   6.98169743
_cell_angle_alpha   83.44430847
_cell_angle_beta   48.68069588
_cell_angle_gamma   47.87498959
_symmetry_Int_Tables_number   1
_chemical_formula_structural   V10GaSi3P2
_chemical_formula_sum   'V10 Ga1 Si3 P2'
_cell_volume   207.58771061
_cell_formula_units_Z   1
loop_
 _symmetry_equiv_pos_site_id
 _symmetry_equiv_pos_as_xyz
  1  'x, y, z'
loop_
 _atom_site_type_symbol
 _atom_site_label
 _atom_site_symmetry_multiplicity
 _atom_site_fract_x
 _atom_site_fract_y
 _atom_site_fract_z
 _atom_site_occupancy
  V  V0  1  0.777555  0.415778  0.584222  1
  V  V1  1  0.223161  0.581364  0.418636  1
  V  V2  1  0.727888  0.934368  0.065632  1
  V  V3  1  0.274462  0.068991  0.931009  1
  V  V4  1  0.934368  0.727888  0.272112  1
  V  V5  1  0.068991  0.274462  0.725538  1
  V  V6  1  0.415778  0.777555  0.222445  1
  V  V7  1  0.581364  0.223161  0.776839  1
  V  V8  1  0.748978  0.245867  0.251022  1
  V  V9  1  0.245867  0.748978  0.754133  1
  Ga  Ga10  1  0.667918  0.667918  0.332082  1
  Si  Si11  1  0.249856  0.249856  0.250144  1
  Si  Si12  1  0.749856  0.749856  0.750144  1
  Si  Si13  1  0.332245  0.332245  0.667755  1
  P  P14  1  0.163706  0.838006  0.161994  1
  P  P15  1  0.838006  0.163706  0.836294  1
