# generated using pymatgen
data_NpTl2S3
_symmetry_space_group_name_H-M   'P 1'
_cell_length_a   3.92716900
_cell_length_b   8.19106670
_cell_length_c   10.72599400
_cell_angle_alpha   82.91228576
_cell_angle_beta   90.00000000
_cell_angle_gamma   90.00000000
_symmetry_Int_Tables_number   1
_chemical_formula_structural   NpTl2S3
_chemical_formula_sum   'Np2 Tl4 S6'
_cell_volume   342.39401252
_cell_formula_units_Z   2
loop_
 _symmetry_equiv_pos_site_id
 _symmetry_equiv_pos_as_xyz
  1  'x, y, z'
loop_
 _atom_site_type_symbol
 _atom_site_label
 _atom_site_symmetry_multiplicity
 _atom_site_fract_x
 _atom_site_fract_y
 _atom_site_fract_z
 _atom_site_occupancy
  Np  Np0  1  0.250000  0.583024  0.337403  1
  Np  Np1  1  0.750000  0.416976  0.662597  1
  Tl  Tl2  1  0.250000  0.943650  0.665336  1
  Tl  Tl3  1  0.750000  0.056350  0.334664  1
  Tl  Tl4  1  0.250000  0.247479  0.995382  1
  Tl  Tl5  1  0.750000  0.752521  0.004618  1
  S  S6  1  0.250000  0.866178  0.192675  1
  S  S7  1  0.750000  0.133822  0.807325  1
  S  S8  1  0.250000  0.542023  0.789608  1
  S  S9  1  0.750000  0.457977  0.210392  1
  S  S10  1  0.250000  0.311111  0.514740  1
  S  S11  1  0.750000  0.688889  0.485260  1
