# generated using pymatgen
data_Dy8HoMg(Ni2Sb)2
_symmetry_space_group_name_H-M   'P 1'
_cell_length_a   8.63230634
_cell_length_b   8.63145232
_cell_length_c   8.63186923
_cell_angle_alpha   128.27834432
_cell_angle_beta   128.28901551
_cell_angle_gamma   76.16399400
_symmetry_Int_Tables_number   1
_chemical_formula_structural   Dy8HoMg(Ni2Sb)2
_chemical_formula_sum   'Dy8 Ho1 Mg1 Ni4 Sb2'
_cell_volume   385.19686324
_cell_formula_units_Z   1
loop_
 _symmetry_equiv_pos_site_id
 _symmetry_equiv_pos_as_xyz
  1  'x, y, z'
loop_
 _atom_site_type_symbol
 _atom_site_label
 _atom_site_symmetry_multiplicity
 _atom_site_fract_x
 _atom_site_fract_y
 _atom_site_fract_z
 _atom_site_occupancy
  Dy  Dy0  1  0.537847  0.712891  0.516116  1
  Dy  Dy1  1  0.021687  0.537840  0.824973  1
  Dy  Dy2  1  0.712841  0.196703  0.174995  1
  Dy  Dy3  1  0.978313  0.462160  0.175027  1
  Dy  Dy4  1  0.196772  0.021719  0.483887  1
  Dy  Dy5  1  0.462153  0.287109  0.483884  1
  Dy  Dy6  1  0.803228  0.978281  0.516113  1
  Dy  Dy7  1  0.287159  0.803297  0.825005  1
  Ho  Ho8  1  0.500000  0.500000  0.000000  1
  Mg  Mg9  1  0.000000  0.000000  0.000000  1
  Ni  Ni10  1  0.378061  0.869582  0.247650  1
  Ni  Ni11  1  0.869660  0.621907  0.491565  1
  Ni  Ni12  1  0.621939  0.130418  0.752350  1
  Ni  Ni13  1  0.130340  0.378093  0.508435  1
  Sb  Sb14  1  0.741945  0.741957  0.000016  1
  Sb  Sb15  1  0.258055  0.258043  0.999984  1
