# generated using pymatgen
data_NdZnIn3Rh
_symmetry_space_group_name_H-M   'P 1'
_cell_length_a   4.28696000
_cell_length_b   7.52743900
_cell_length_c   8.20459200
_cell_angle_alpha   90.00000000
_cell_angle_beta   90.00000000
_cell_angle_gamma   90.00000000
_symmetry_Int_Tables_number   1
_chemical_formula_structural   NdZnIn3Rh
_chemical_formula_sum   'Nd2 Zn2 In6 Rh2'
_cell_volume   264.76078820
_cell_formula_units_Z   2
loop_
 _symmetry_equiv_pos_site_id
 _symmetry_equiv_pos_as_xyz
  1  'x, y, z'
loop_
 _atom_site_type_symbol
 _atom_site_label
 _atom_site_symmetry_multiplicity
 _atom_site_fract_x
 _atom_site_fract_y
 _atom_site_fract_z
 _atom_site_occupancy
  Nd  Nd0  1  0.000000  0.390265  0.250000  1
  Nd  Nd1  1  0.000000  0.609735  0.750000  1
  Zn  Zn2  1  0.000000  0.000000  0.000000  1
  Zn  Zn3  1  0.000000  0.000000  0.500000  1
  In  In4  1  0.500000  0.058202  0.250000  1
  In  In5  1  0.500000  0.941798  0.750000  1
  In  In6  1  0.500000  0.691142  0.057427  1
  In  In7  1  0.500000  0.308858  0.942573  1
  In  In8  1  0.500000  0.691142  0.442573  1
  In  In9  1  0.500000  0.308858  0.557427  1
  Rh  Rh10  1  0.000000  0.806779  0.250000  1
  Rh  Rh11  1  0.000000  0.193221  0.750000  1
