# generated using pymatgen
data_Tb9Dy3In2(CoRu)2
_symmetry_space_group_name_H-M   'P 1'
_cell_length_a   8.44803831
_cell_length_b   8.45032165
_cell_length_c   8.44803761
_cell_angle_alpha   112.61034892
_cell_angle_beta   110.23968608
_cell_angle_gamma   105.62933430
_symmetry_Int_Tables_number   1
_chemical_formula_structural   Tb9Dy3In2(CoRu)2
_chemical_formula_sum   'Tb9 Dy3 In2 Co2 Ru2'
_cell_volume   462.56144606
_cell_formula_units_Z   1
loop_
 _symmetry_equiv_pos_site_id
 _symmetry_equiv_pos_as_xyz
  1  'x, y, z'
loop_
 _atom_site_type_symbol
 _atom_site_label
 _atom_site_symmetry_multiplicity
 _atom_site_fract_x
 _atom_site_fract_y
 _atom_site_fract_z
 _atom_site_occupancy
  Tb  Tb0  1  0.442853  0.240942  0.201711  1
  Tb  Tb1  1  0.557432  0.758976  0.798649  1
  Tb  Tb2  1  0.039232  0.240942  0.798088  1
  Tb  Tb3  1  0.960327  0.758976  0.201545  1
  Tb  Tb4  1  0.184024  0.285152  0.469453  1
  Tb  Tb5  1  0.816232  0.714696  0.530735  1
  Tb  Tb6  1  0.183962  0.714696  0.898464  1
  Tb  Tb7  1  0.815699  0.285152  0.101128  1
  Tb  Tb8  1  0.322240  0.637263  0.315023  1
  Dy  Dy9  1  0.677638  0.362174  0.684536  1
  Dy  Dy10  1  0.322381  0.007160  0.684779  1
  Dy  Dy11  1  0.677776  0.993283  0.315506  1
  In  In12  1  0.500083  0.499901  0.999818  1
  In  In13  1  0.000069  0.000097  0.000029  1
  Co  Co14  1  0.110894  0.611046  0.500152  1
  Co  Co15  1  0.888885  0.388837  0.499952  1
  Ru  Ru16  1  0.331220  0.000352  0.331300  1
  Ru  Ru17  1  0.669051  0.000352  0.669132  1
