# generated using pymatgen
data_Yb2Ta(NiSb)3
_symmetry_space_group_name_H-M   'P 1'
_cell_length_a   7.58195656
_cell_length_b   7.61788311
_cell_length_c   7.61788295
_cell_angle_alpha   119.69942831
_cell_angle_beta   99.60722076
_cell_angle_gamma   99.60722708
_symmetry_Int_Tables_number   1
_chemical_formula_structural   Yb2Ta(NiSb)3
_chemical_formula_sum   'Yb4 Ta2 Ni6 Sb6'
_cell_volume   360.48173767
_cell_formula_units_Z   2
loop_
 _symmetry_equiv_pos_site_id
 _symmetry_equiv_pos_as_xyz
  1  'x, y, z'
loop_
 _atom_site_type_symbol
 _atom_site_label
 _atom_site_symmetry_multiplicity
 _atom_site_fract_x
 _atom_site_fract_y
 _atom_site_fract_z
 _atom_site_occupancy
  Yb  Yb0  1  0.999927  0.500976  0.006204  1
  Yb  Yb1  1  0.499794  0.329866  0.163100  1
  Yb  Yb2  1  0.999793  0.163101  0.329867  1
  Yb  Yb3  1  0.499928  0.006206  0.500977  1
  Ta  Ta4  1  0.001523  0.835094  0.668947  1
  Ta  Ta5  1  0.501524  0.668948  0.835096  1
  Ni  Ni6  1  0.116597  0.177697  0.009637  1
  Ni  Ni7  1  0.616598  0.009636  0.177696  1
  Ni  Ni8  1  0.115410  0.872696  0.401593  1
  Ni  Ni9  1  0.638644  0.713451  0.564939  1
  Ni  Ni10  1  0.138644  0.564940  0.713452  1
  Ni  Ni11  1  0.615410  0.401593  0.872695  1
  Sb  Sb12  1  0.248562  0.911824  0.078657  1
  Sb  Sb13  1  0.748310  0.749236  0.256445  1
  Sb  Sb14  1  0.256232  0.585856  0.423782  1
  Sb  Sb15  1  0.756234  0.423783  0.585857  1
  Sb  Sb16  1  0.248310  0.256445  0.749236  1
  Sb  Sb17  1  0.748561  0.078656  0.911823  1
