# generated using pymatgen
data_Lu4Sc15Si16Tc
_symmetry_space_group_name_H-M   'P 1'
_cell_length_a   6.89759563
_cell_length_b   7.23647668
_cell_length_c   13.66154262
_cell_angle_alpha   89.98047354
_cell_angle_beta   89.79702835
_cell_angle_gamma   89.77113155
_symmetry_Int_Tables_number   1
_chemical_formula_structural   Lu4Sc15Si16Tc
_chemical_formula_sum   'Lu4 Sc15 Si16 Tc1'
_cell_volume   681.89644369
_cell_formula_units_Z   1
loop_
 _symmetry_equiv_pos_site_id
 _symmetry_equiv_pos_as_xyz
  1  'x, y, z'
loop_
 _atom_site_type_symbol
 _atom_site_label
 _atom_site_symmetry_multiplicity
 _atom_site_fract_x
 _atom_site_fract_y
 _atom_site_fract_z
 _atom_site_occupancy
  Lu  Lu0  1  0.992943  0.683438  0.599646  1
  Lu  Lu1  1  0.013831  0.321436  0.407401  1
  Lu  Lu2  1  0.512034  0.177186  0.407551  1
  Lu  Lu3  1  0.013864  0.320285  0.089714  1
  Sc  Sc4  1  0.844604  0.004110  0.247973  1
  Sc  Sc5  1  0.345332  0.495567  0.249174  1
  Sc  Sc6  1  0.652177  0.508862  0.751137  1
  Sc  Sc7  1  0.485555  0.823320  0.599078  1
  Sc  Sc8  1  0.988396  0.686681  0.899183  1
  Sc  Sc9  1  0.485945  0.823175  0.904161  1
  Sc  Sc10  1  0.517278  0.182161  0.094824  1
  Sc  Sc11  1  0.324915  0.322783  0.629891  1
  Sc  Sc12  1  0.673019  0.677072  0.374601  1
  Sc  Sc13  1  0.174457  0.827044  0.376236  1
  Sc  Sc14  1  0.673781  0.675309  0.124347  1
  Sc  Sc15  1  0.824470  0.168219  0.629998  1
  Sc  Sc16  1  0.324289  0.321270  0.873614  1
  Sc  Sc17  1  0.821112  0.167937  0.871025  1
  Sc  Sc18  1  0.175999  0.827696  0.120444  1
  Si  Si19  1  0.024642  0.391055  0.752157  1
  Si  Si20  1  0.975658  0.610839  0.248639  1
  Si  Si21  1  0.472640  0.891351  0.248395  1
  Si  Si22  1  0.511439  0.090772  0.751179  1
  Si  Si23  1  0.282603  0.648966  0.752853  1
  Si  Si24  1  0.719774  0.365360  0.248218  1
  Si  Si25  1  0.219723  0.134196  0.247641  1
  Si  Si26  1  0.787823  0.863652  0.751825  1
  Si  Si27  1  0.162867  0.031334  0.548747  1
  Si  Si28  1  0.842765  0.964868  0.464387  1
  Si  Si29  1  0.343915  0.538016  0.465307  1
  Si  Si30  1  0.838445  0.963819  0.034721  1
  Si  Si31  1  0.659295  0.468653  0.541312  1
  Si  Si32  1  0.155479  0.025012  0.948089  1
  Si  Si33  1  0.662493  0.467960  0.959295  1
  Si  Si34  1  0.347600  0.533397  0.036489  1
  Tc  Tc35  1  0.148844  0.997191  0.750749  1
