# generated using pymatgen
data_Hf10Sn4Sb3
_symmetry_space_group_name_H-M   'P 1'
_cell_length_a   5.86865107
_cell_length_b   8.58063134
_cell_length_c   8.57202223
_cell_angle_alpha   119.96681326
_cell_angle_beta   89.90705681
_cell_angle_gamma   90.04648008
_symmetry_Int_Tables_number   1
_chemical_formula_structural   Hf10Sn4Sb3
_chemical_formula_sum   'Hf10 Sn4 Sb3'
_cell_volume   373.95213433
_cell_formula_units_Z   1
loop_
 _symmetry_equiv_pos_site_id
 _symmetry_equiv_pos_as_xyz
  1  'x, y, z'
loop_
 _atom_site_type_symbol
 _atom_site_label
 _atom_site_symmetry_multiplicity
 _atom_site_fract_x
 _atom_site_fract_y
 _atom_site_fract_z
 _atom_site_occupancy
  Hf  Hf0  1  0.500187  0.334636  0.666680  1
  Hf  Hf1  1  0.500190  0.665370  0.332049  1
  Hf  Hf2  1  0.001523  0.666116  0.332899  1
  Hf  Hf3  1  0.001526  0.333885  0.666782  1
  Hf  Hf4  1  0.778029  0.267038  0.999982  1
  Hf  Hf5  1  0.778031  0.732956  0.732934  1
  Hf  Hf6  1  0.777563  0.999998  0.266097  1
  Hf  Hf7  1  0.222429  0.731819  0.000343  1
  Hf  Hf8  1  0.222431  0.268179  0.268521  1
  Hf  Hf9  1  0.218863  0.999998  0.733178  1
  Sn  Sn10  1  0.739104  0.000009  0.611101  1
  Sn  Sn11  1  0.259135  0.386167  0.999387  1
  Sn  Sn12  1  0.259133  0.613830  0.613218  1
  Sn  Sn13  1  0.258034  0.000006  0.388611  1
  Sb  Sb14  1  0.743110  0.611153  0.999952  1
  Sb  Sb15  1  0.743110  0.388845  0.388796  1
  Sb  Sb16  1  0.497600  0.999998  0.999469  1
