# generated using pymatgen
data_Ce2PaTiSb5
_symmetry_space_group_name_H-M   'P 1'
_cell_length_a   9.27921600
_cell_length_b   9.31265014
_cell_length_c   6.26314700
_cell_angle_alpha   90.00000000
_cell_angle_beta   90.00000000
_cell_angle_gamma   119.88124835
_symmetry_Int_Tables_number   1
_chemical_formula_structural   Ce2PaTiSb5
_chemical_formula_sum   'Ce4 Pa2 Ti2 Sb10'
_cell_volume   469.27373895
_cell_formula_units_Z   2
loop_
 _symmetry_equiv_pos_site_id
 _symmetry_equiv_pos_as_xyz
  1  'x, y, z'
loop_
 _atom_site_type_symbol
 _atom_site_label
 _atom_site_symmetry_multiplicity
 _atom_site_fract_x
 _atom_site_fract_y
 _atom_site_fract_z
 _atom_site_occupancy
  Ce  Ce0  1  0.997482  0.615739  0.250000  1
  Ce  Ce1  1  0.002518  0.384261  0.750000  1
  Ce  Ce2  1  0.381743  0.384261  0.250000  1
  Ce  Ce3  1  0.618257  0.615739  0.750000  1
  Pa  Pa4  1  0.606742  0.000000  0.250000  1
  Pa  Pa5  1  0.393258  0.000000  0.750000  1
  Ti  Ti6  1  0.000000  0.000000  0.000000  1
  Ti  Ti7  1  0.000000  0.000000  0.500000  1
  Sb  Sb8  1  0.260782  0.000000  0.250000  1
  Sb  Sb9  1  0.739218  0.000000  0.750000  1
  Sb  Sb10  1  0.992849  0.253465  0.250000  1
  Sb  Sb11  1  0.007151  0.746535  0.750000  1
  Sb  Sb12  1  0.739384  0.746535  0.250000  1
  Sb  Sb13  1  0.260616  0.253465  0.750000  1
  Sb  Sb14  1  0.335214  0.670429  0.000000  1
  Sb  Sb15  1  0.664786  0.329571  0.000000  1
  Sb  Sb16  1  0.664786  0.329571  0.500000  1
  Sb  Sb17  1  0.335214  0.670429  0.500000  1
