# generated using pymatgen
data_Ti8Fe3Tc4Rh
_symmetry_space_group_name_H-M   'P 1'
_cell_length_a   6.12481900
_cell_length_b   4.30893100
_cell_length_c   8.66403700
_cell_angle_alpha   90.00000000
_cell_angle_beta   89.99964371
_cell_angle_gamma   90.00000000
_symmetry_Int_Tables_number   1
_chemical_formula_structural   Ti8Fe3Tc4Rh
_chemical_formula_sum   'Ti8 Fe3 Tc4 Rh1'
_cell_volume   228.65626066
_cell_formula_units_Z   1
loop_
 _symmetry_equiv_pos_site_id
 _symmetry_equiv_pos_as_xyz
  1  'x, y, z'
loop_
 _atom_site_type_symbol
 _atom_site_label
 _atom_site_symmetry_multiplicity
 _atom_site_fract_x
 _atom_site_fract_y
 _atom_site_fract_z
 _atom_site_occupancy
  Ti  Ti0  1  0.002966  0.750000  0.129598  1
  Ti  Ti1  1  0.497115  0.750000  0.129602  1
  Ti  Ti2  1  0.998974  0.249999  0.374997  1
  Ti  Ti3  1  0.501092  0.249999  0.374995  1
  Ti  Ti4  1  0.497044  0.750000  0.620399  1
  Ti  Ti5  1  0.002897  0.750000  0.620393  1
  Ti  Ti6  1  0.492702  0.249999  0.875004  1
  Ti  Ti7  1  0.007218  0.249999  0.875002  1
  Fe  Fe8  1  0.250023  0.249999  0.124700  1
  Fe  Fe9  1  0.750037  0.750000  0.375003  1
  Fe  Fe10  1  0.249963  0.249999  0.625285  1
  Tc  Tc11  1  0.750030  0.249999  0.126302  1
  Tc  Tc12  1  0.250014  0.750000  0.374997  1
  Tc  Tc13  1  0.749990  0.249999  0.623703  1
  Tc  Tc14  1  0.249966  0.750000  0.874999  1
  Rh  Rh15  1  0.749964  0.750000  0.875018  1
