# generated using pymatgen
data_Cs3RbScUBr12
_symmetry_space_group_name_H-M   'P 1'
_cell_length_a   7.91794416
_cell_length_b   7.86339841
_cell_length_c   11.74712300
_cell_angle_alpha   90.00000000
_cell_angle_beta   90.00000000
_cell_angle_gamma   90.15574394
_symmetry_Int_Tables_number   1
_chemical_formula_structural   Cs3RbScUBr12
_chemical_formula_sum   'Cs3 Rb1 Sc1 U1 Br12'
_cell_volume   731.39607769
_cell_formula_units_Z   1
loop_
 _symmetry_equiv_pos_site_id
 _symmetry_equiv_pos_as_xyz
  1  'x, y, z'
loop_
 _atom_site_type_symbol
 _atom_site_label
 _atom_site_symmetry_multiplicity
 _atom_site_fract_x
 _atom_site_fract_y
 _atom_site_fract_z
 _atom_site_occupancy
  Cs  Cs0  1  0.500000  0.000000  0.789899  1
  Cs  Cs1  1  0.500000  0.000000  0.208381  1
  Cs  Cs2  1  0.000000  0.500000  0.209827  1
  Rb  Rb3  1  0.000000  0.500000  0.803572  1
  Sc  Sc4  1  0.000000  0.000000  0.998603  1
  U  U5  1  0.500000  0.500000  0.500450  1
  Br  Br6  1  0.765018  0.244980  0.997201  1
  Br  Br7  1  0.234982  0.755020  0.997201  1
  Br  Br8  1  0.500000  0.500000  0.268753  1
  Br  Br9  1  0.299650  0.222423  0.499927  1
  Br  Br10  1  0.242499  0.238693  0.998200  1
  Br  Br11  1  0.775587  0.300111  0.500601  1
  Br  Br12  1  0.000000  0.000000  0.226982  1
  Br  Br13  1  0.700350  0.777577  0.499927  1
  Br  Br14  1  0.224413  0.699889  0.500601  1
  Br  Br15  1  0.500000  0.500000  0.731552  1
  Br  Br16  1  0.757501  0.761307  0.998200  1
  Br  Br17  1  0.000000  0.000000  0.770119  1
