# generated using pymatgen
data_Ac(SbO3)3
_symmetry_space_group_name_H-M   'P 1'
_cell_length_a   5.61866374
_cell_length_b   5.61866272
_cell_length_c   12.12066800
_cell_angle_alpha   90.00000000
_cell_angle_beta   90.00000000
_cell_angle_gamma   107.42194571
_symmetry_Int_Tables_number   1
_chemical_formula_structural   Ac(SbO3)3
_chemical_formula_sum   'Ac2 Sb6 O18'
_cell_volume   365.08850775
_cell_formula_units_Z   2
loop_
 _symmetry_equiv_pos_site_id
 _symmetry_equiv_pos_as_xyz
  1  'x, y, z'
loop_
 _atom_site_type_symbol
 _atom_site_label
 _atom_site_symmetry_multiplicity
 _atom_site_fract_x
 _atom_site_fract_y
 _atom_site_fract_z
 _atom_site_occupancy
  Ac  Ac0  1  0.753879  0.246121  0.750000  1
  Ac  Ac1  1  0.246121  0.753879  0.250000  1
  Sb  Sb2  1  0.120197  0.879803  0.909039  1
  Sb  Sb3  1  0.879803  0.120197  0.409039  1
  Sb  Sb4  1  0.879803  0.120197  0.090961  1
  Sb  Sb5  1  0.120197  0.879803  0.590961  1
  Sb  Sb6  1  0.500000  0.500000  0.000000  1
  Sb  Sb7  1  0.500000  0.500000  0.500000  1
  O  O8  1  0.936593  0.063407  0.250000  1
  O  O9  1  0.063407  0.936593  0.750000  1
  O  O10  1  0.102858  0.897142  0.073153  1
  O  O11  1  0.897142  0.102858  0.573153  1
  O  O12  1  0.897142  0.102858  0.926847  1
  O  O13  1  0.102858  0.897142  0.426847  1
  O  O14  1  0.334784  0.665216  0.886485  1
  O  O15  1  0.665216  0.334784  0.386485  1
  O  O16  1  0.414310  0.193826  0.597943  1
  O  O17  1  0.585690  0.806174  0.097943  1
  O  O18  1  0.193826  0.414310  0.402057  1
  O  O19  1  0.806174  0.585690  0.902057  1
  O  O20  1  0.585690  0.806174  0.402057  1
  O  O21  1  0.414310  0.193826  0.902057  1
  O  O22  1  0.806174  0.585690  0.597943  1
  O  O23  1  0.193826  0.414310  0.097943  1
  O  O24  1  0.334784  0.665216  0.613515  1
  O  O25  1  0.665216  0.334784  0.113515  1
