# generated using pymatgen
data_HoTm2In3Ir2Au
_symmetry_space_group_name_H-M   'P 1'
_cell_length_a   7.68096634
_cell_length_b   7.67921347
_cell_length_c   3.85049200
_cell_angle_alpha   90.00000000
_cell_angle_beta   90.00000000
_cell_angle_gamma   120.07531573
_symmetry_Int_Tables_number   1
_chemical_formula_structural   HoTm2In3Ir2Au
_chemical_formula_sum   'Ho1 Tm2 In3 Ir2 Au1'
_cell_volume   196.53927950
_cell_formula_units_Z   1
loop_
 _symmetry_equiv_pos_site_id
 _symmetry_equiv_pos_as_xyz
  1  'x, y, z'
loop_
 _atom_site_type_symbol
 _atom_site_label
 _atom_site_symmetry_multiplicity
 _atom_site_fract_x
 _atom_site_fract_y
 _atom_site_fract_z
 _atom_site_occupancy
  Ho  Ho0  1  0.411801  0.388951  0.500000  1
  Tm  Tm1  1  0.612109  0.023774  0.500000  1
  Tm  Tm2  1  0.976220  0.588236  0.500000  1
  In  In3  1  0.742341  0.740830  0.000000  1
  In  In4  1  0.259253  0.000839  0.000000  1
  In  In5  1  0.998269  0.257929  0.000000  1
  Ir  Ir6  1  0.667838  0.332986  0.000000  1
  Ir  Ir7  1  0.999112  0.999112  0.500000  1
  Au  Au8  1  0.333055  0.667344  0.000000  1
