# generated using pymatgen
data_Nd17Tm3(Ga2Pb)4
_symmetry_space_group_name_H-M   'P 1'
_cell_length_a   8.03660000
_cell_length_b   8.03660000
_cell_length_c   14.70452700
_cell_angle_alpha   90.00000000
_cell_angle_beta   90.00000000
_cell_angle_gamma   90.00000000
_symmetry_Int_Tables_number   1
_chemical_formula_structural   Nd17Tm3(Ga2Pb)4
_chemical_formula_sum   'Nd17 Tm3 Ga8 Pb4'
_cell_volume   949.72039661
_cell_formula_units_Z   1
loop_
 _symmetry_equiv_pos_site_id
 _symmetry_equiv_pos_as_xyz
  1  'x, y, z'
loop_
 _atom_site_type_symbol
 _atom_site_label
 _atom_site_symmetry_multiplicity
 _atom_site_fract_x
 _atom_site_fract_y
 _atom_site_fract_z
 _atom_site_occupancy
  Nd  Nd0  1  0.000000  0.500000  0.775939  1
  Nd  Nd1  1  0.675055  0.659255  0.607923  1
  Nd  Nd2  1  0.669991  0.339452  0.108211  1
  Nd  Nd3  1  0.828186  0.840459  0.391366  1
  Nd  Nd4  1  0.174291  0.841750  0.891946  1
  Nd  Nd5  1  0.324945  0.340745  0.607923  1
  Nd  Nd6  1  0.330009  0.660548  0.108211  1
  Nd  Nd7  1  0.171814  0.159541  0.391366  1
  Nd  Nd8  1  0.825709  0.158250  0.891946  1
  Nd  Nd9  1  0.659541  0.328186  0.391366  1
  Nd  Nd10  1  0.341750  0.325709  0.891946  1
  Nd  Nd11  1  0.159255  0.824945  0.607923  1
  Nd  Nd12  1  0.839452  0.830009  0.108211  1
  Nd  Nd13  1  0.340459  0.671814  0.391366  1
  Nd  Nd14  1  0.658250  0.674291  0.891946  1
  Nd  Nd15  1  0.840745  0.175055  0.607923  1
  Nd  Nd16  1  0.160548  0.169991  0.108211  1
  Tm  Tm17  1  0.000000  0.500000  0.262010  1
  Tm  Tm18  1  0.500000  0.000000  0.235855  1
  Tm  Tm19  1  0.500000  0.000000  0.732984  1
  Ga  Ga20  1  0.869658  0.877039  0.747981  1
  Ga  Ga21  1  0.870927  0.129451  0.250004  1
  Ga  Ga22  1  0.629451  0.629073  0.250004  1
  Ga  Ga23  1  0.377039  0.630342  0.747981  1
  Ga  Ga24  1  0.130342  0.122961  0.747981  1
  Ga  Ga25  1  0.129073  0.870549  0.250004  1
  Ga  Ga26  1  0.370549  0.370927  0.250004  1
  Ga  Ga27  1  0.622961  0.369658  0.747981  1
  Pb  Pb28  1  0.000000  0.500000  0.490523  1
  Pb  Pb29  1  0.000000  0.500000  0.001737  1
  Pb  Pb30  1  0.500000  0.000000  0.505102  1
  Pb  Pb31  1  0.500000  0.000000  0.006135  1
