# generated using pymatgen
data_Rb6Tm(AsBr6)3
_symmetry_space_group_name_H-M   'P 1'
_cell_length_a   7.75830600
_cell_length_b   7.75829020
_cell_length_c   19.70837900
_cell_angle_alpha   89.99967133
_cell_angle_beta   90.00014944
_cell_angle_gamma   120.00002815
_symmetry_Int_Tables_number   1
_chemical_formula_structural   Rb6Tm(AsBr6)3
_chemical_formula_sum   'Rb6 Tm1 As3 Br18'
_cell_volume   1027.34033446
_cell_formula_units_Z   1
loop_
 _symmetry_equiv_pos_site_id
 _symmetry_equiv_pos_as_xyz
  1  'x, y, z'
loop_
 _atom_site_type_symbol
 _atom_site_label
 _atom_site_symmetry_multiplicity
 _atom_site_fract_x
 _atom_site_fract_y
 _atom_site_fract_z
 _atom_site_occupancy
  Rb  Rb0  1  0.333334  0.666666  0.069479  1
  Rb  Rb1  1  0.666669  0.333333  0.928677  1
  Rb  Rb2  1  0.666667  0.333334  0.569574  1
  Rb  Rb3  1  0.333339  0.666672  0.419397  1
  Rb  Rb4  1  0.999997  0.999999  0.250440  1
  Rb  Rb5  1  0.999995  0.999996  0.760029  1
  Tm  Tm6  1  0.333335  0.666665  0.841162  1
  As  As7  1  0.333330  0.666666  0.652825  1
  As  As8  1  0.666667  0.333334  0.342232  1
  As  As9  1  0.666667  0.333334  0.157159  1
  Br  Br10  1  0.174081  0.348161  0.585412  1
  Br  Br11  1  0.826377  0.652761  0.413435  1
  Br  Br12  1  0.651830  0.825917  0.585411  1
  Br  Br13  1  0.825507  0.651012  0.088032  1
  Br  Br14  1  0.347238  0.173614  0.413432  1
  Br  Br15  1  0.165017  0.330034  0.915038  1
  Br  Br16  1  0.174080  0.825919  0.585412  1
  Br  Br17  1  0.348989  0.174493  0.088032  1
  Br  Br18  1  0.826388  0.173630  0.413435  1
  Br  Br19  1  0.669965  0.834983  0.915038  1
  Br  Br20  1  0.825506  0.174494  0.088032  1
  Br  Br21  1  0.165019  0.834981  0.915035  1
  Br  Br22  1  0.502931  0.005861  0.251844  1
  Br  Br23  1  0.497203  0.994403  0.749253  1
  Br  Br24  1  0.994139  0.497071  0.251841  1
  Br  Br25  1  0.005597  0.502798  0.749253  1
  Br  Br26  1  0.502931  0.497071  0.251841  1
  Br  Br27  1  0.497203  0.502799  0.749253  1
