# generated using pymatgen
data_Ac2ThSe5
_symmetry_space_group_name_H-M   'P 1'
_cell_length_a   8.14461700
_cell_length_b   8.88883300
_cell_length_c   12.89801700
_cell_angle_alpha   90.00000000
_cell_angle_beta   90.00000000
_cell_angle_gamma   90.00000000
_symmetry_Int_Tables_number   1
_chemical_formula_structural   Ac2ThSe5
_chemical_formula_sum   'Ac8 Th4 Se20'
_cell_volume   933.76664912
_cell_formula_units_Z   4
loop_
 _symmetry_equiv_pos_site_id
 _symmetry_equiv_pos_as_xyz
  1  'x, y, z'
loop_
 _atom_site_type_symbol
 _atom_site_label
 _atom_site_symmetry_multiplicity
 _atom_site_fract_x
 _atom_site_fract_y
 _atom_site_fract_z
 _atom_site_occupancy
  Ac  Ac0  1  0.528519  0.501086  0.323606  1
  Ac  Ac1  1  0.971481  0.998914  0.823606  1
  Ac  Ac2  1  0.471481  0.001086  0.676394  1
  Ac  Ac3  1  0.028519  0.498914  0.176394  1
  Ac  Ac4  1  0.471481  0.498914  0.676394  1
  Ac  Ac5  1  0.028519  0.001086  0.176394  1
  Ac  Ac6  1  0.528519  0.998914  0.323606  1
  Ac  Ac7  1  0.971481  0.501086  0.823606  1
  Th  Th8  1  0.072767  0.750000  0.491131  1
  Th  Th9  1  0.427233  0.750000  0.991131  1
  Th  Th10  1  0.927233  0.250000  0.508869  1
  Th  Th11  1  0.572767  0.250000  0.008869  1
  Se  Se12  1  0.835270  0.958996  0.591508  1
  Se  Se13  1  0.664730  0.541004  0.091508  1
  Se  Se14  1  0.164730  0.458996  0.408492  1
  Se  Se15  1  0.335270  0.041004  0.908492  1
  Se  Se16  1  0.164730  0.041004  0.408492  1
  Se  Se17  1  0.335270  0.458996  0.908492  1
  Se  Se18  1  0.835270  0.541004  0.591508  1
  Se  Se19  1  0.664730  0.958996  0.091508  1
  Se  Se20  1  0.835822  0.750000  0.313572  1
  Se  Se21  1  0.664178  0.750000  0.813572  1
  Se  Se22  1  0.164178  0.250000  0.686428  1
  Se  Se23  1  0.335822  0.250000  0.186428  1
  Se  Se24  1  0.452457  0.750000  0.497541  1
  Se  Se25  1  0.047543  0.750000  0.997541  1
  Se  Se26  1  0.547543  0.250000  0.502459  1
  Se  Se27  1  0.952457  0.250000  0.002459  1
  Se  Se28  1  0.190778  0.750000  0.713385  1
  Se  Se29  1  0.309222  0.750000  0.213385  1
  Se  Se30  1  0.809222  0.250000  0.286615  1
  Se  Se31  1  0.690778  0.250000  0.786615  1
