# generated using pymatgen
data_CaHo3(SiPd2)4
_symmetry_space_group_name_H-M   'P 1'
_cell_length_a   5.55383302
_cell_length_b   6.99220500
_cell_length_c   7.32570802
_cell_angle_alpha   90.00000000
_cell_angle_beta   89.99075092
_cell_angle_gamma   90.00000000
_symmetry_Int_Tables_number   1
_chemical_formula_structural   CaHo3(SiPd2)4
_chemical_formula_sum   'Ca1 Ho3 Si4 Pd8'
_cell_volume   284.48316453
_cell_formula_units_Z   1
loop_
 _symmetry_equiv_pos_site_id
 _symmetry_equiv_pos_as_xyz
  1  'x, y, z'
loop_
 _atom_site_type_symbol
 _atom_site_label
 _atom_site_symmetry_multiplicity
 _atom_site_fract_x
 _atom_site_fract_y
 _atom_site_fract_z
 _atom_site_occupancy
  Ca  Ca0  1  0.361481  0.750000  0.027170  1
  Ho  Ho1  1  0.142804  0.750000  0.527565  1
  Ho  Ho2  1  0.641110  0.250000  0.972428  1
  Ho  Ho3  1  0.858656  0.250000  0.473211  1
  Si  Si4  1  0.643039  0.750000  0.378677  1
  Si  Si5  1  0.860952  0.750000  0.877277  1
  Si  Si6  1  0.359071  0.250000  0.623063  1
  Si  Si7  1  0.140130  0.250000  0.122230  1
  Pd  Pd8  1  0.903166  0.550714  0.176954  1
  Pd  Pd9  1  0.598944  0.948759  0.676495  1
  Pd  Pd10  1  0.089794  0.052771  0.820058  1
  Pd  Pd11  1  0.404475  0.446664  0.325683  1
  Pd  Pd12  1  0.089794  0.447229  0.820058  1
  Pd  Pd13  1  0.404475  0.053336  0.325683  1
  Pd  Pd14  1  0.903166  0.949286  0.176954  1
  Pd  Pd15  1  0.598944  0.551241  0.676495  1
