# generated using pymatgen
data_Th2BiPd2
_symmetry_space_group_name_H-M   'P 1'
_cell_length_a   7.86754500
_cell_length_b   7.86754500
_cell_length_c   3.86612000
_cell_angle_alpha   90.00000000
_cell_angle_beta   90.00000000
_cell_angle_gamma   90.00000000
_symmetry_Int_Tables_number   1
_chemical_formula_structural   Th2BiPd2
_chemical_formula_sum   'Th4 Bi2 Pd4'
_cell_volume   239.30611768
_cell_formula_units_Z   2
loop_
 _symmetry_equiv_pos_site_id
 _symmetry_equiv_pos_as_xyz
  1  'x, y, z'
loop_
 _atom_site_type_symbol
 _atom_site_label
 _atom_site_symmetry_multiplicity
 _atom_site_fract_x
 _atom_site_fract_y
 _atom_site_fract_z
 _atom_site_occupancy
  Th  Th0  1  0.325459  0.174541  0.500001  1
  Th  Th1  1  0.825459  0.325459  0.500001  1
  Th  Th2  1  0.174541  0.674542  0.500001  1
  Th  Th3  1  0.674542  0.825459  0.500001  1
  Bi  Bi4  1  0.000000  0.000000  0.000000  1
  Bi  Bi5  1  0.500000  0.500000  0.000000  1
  Pd  Pd6  1  0.624804  0.124805  0.000000  1
  Pd  Pd7  1  0.124805  0.375195  0.000000  1
  Pd  Pd8  1  0.875197  0.624804  0.000000  1
  Pd  Pd9  1  0.375195  0.875197  0.000000  1
