# generated using pymatgen
data_Sr2H10Pd3
_symmetry_space_group_name_H-M   'P 1'
_cell_length_a   8.74299588
_cell_length_b   8.74299455
_cell_length_c   7.66360700
_cell_angle_alpha   69.08673796
_cell_angle_beta   69.08674139
_cell_angle_gamma   36.25379200
_symmetry_Int_Tables_number   1
_chemical_formula_structural   Sr2H10Pd3
_chemical_formula_sum   'Sr4 H20 Pd6'
_cell_volume   321.06010143
_cell_formula_units_Z   2
loop_
 _symmetry_equiv_pos_site_id
 _symmetry_equiv_pos_as_xyz
  1  'x, y, z'
loop_
 _atom_site_type_symbol
 _atom_site_label
 _atom_site_symmetry_multiplicity
 _atom_site_fract_x
 _atom_site_fract_y
 _atom_site_fract_z
 _atom_site_occupancy
  Sr  Sr0  1  0.294788  0.294788  0.296000  1
  Sr  Sr1  1  0.705212  0.705212  0.704000  1
  Sr  Sr2  1  0.391753  0.391753  0.727372  1
  Sr  Sr3  1  0.608247  0.608247  0.272628  1
  H  H4  1  0.869822  0.344261  0.992779  1
  H  H5  1  0.344261  0.869822  0.992779  1
  H  H6  1  0.130178  0.655739  0.007221  1
  H  H7  1  0.655739  0.130178  0.007221  1
  H  H8  1  0.913028  0.395207  0.502855  1
  H  H9  1  0.395207  0.913028  0.502855  1
  H  H10  1  0.086972  0.604793  0.497145  1
  H  H11  1  0.604793  0.086972  0.497145  1
  H  H12  1  0.031957  0.031957  0.815994  1
  H  H13  1  0.968043  0.968043  0.184006  1
  H  H14  1  0.139280  0.139280  0.240099  1
  H  H15  1  0.860720  0.860720  0.759901  1
  H  H16  1  0.232677  0.232677  0.748290  1
  H  H17  1  0.767323  0.767323  0.251710  1
  H  H18  1  0.526480  0.526480  0.841805  1
  H  H19  1  0.473520  0.473520  0.158195  1
  H  H20  1  0.807321  0.192679  0.500000  1
  H  H21  1  0.192679  0.807321  0.500000  1
  H  H22  1  0.000000  0.500000  0.000000  1
  H  H23  1  0.500000  0.000000  0.000000  1
  Pd  Pd24  1  0.083149  0.083149  0.523133  1
  Pd  Pd25  1  0.916851  0.916851  0.476867  1
  Pd  Pd26  1  0.181899  0.181899  0.992666  1
  Pd  Pd27  1  0.818101  0.818101  0.007334  1
  Pd  Pd28  1  0.754346  0.245654  0.000000  1
  Pd  Pd29  1  0.245654  0.754346  0.000000  1
