# generated using pymatgen
data_DySc9(Si5Ir2)4
_symmetry_space_group_name_H-M   'P 1'
_cell_length_a   12.41417165
_cell_length_b   12.41417165
_cell_length_c   4.11755900
_cell_angle_alpha   90.00000000
_cell_angle_beta   90.00000000
_cell_angle_gamma   90.10934695
_symmetry_Int_Tables_number   1
_chemical_formula_structural   DySc9(Si5Ir2)4
_chemical_formula_sum   'Dy1 Sc9 Si20 Ir8'
_cell_volume   634.56268798
_cell_formula_units_Z   1
loop_
 _symmetry_equiv_pos_site_id
 _symmetry_equiv_pos_as_xyz
  1  'x, y, z'
loop_
 _atom_site_type_symbol
 _atom_site_label
 _atom_site_symmetry_multiplicity
 _atom_site_fract_x
 _atom_site_fract_y
 _atom_site_fract_z
 _atom_site_occupancy
  Dy  Dy0  1  0.115559  0.615559  0.500000  1
  Sc  Sc1  1  0.884626  0.384626  0.500000  1
  Sc  Sc2  1  0.615525  0.884462  0.500000  1
  Sc  Sc3  1  0.384462  0.115525  0.500000  1
  Sc  Sc4  1  0.674235  0.174235  0.500000  1
  Sc  Sc5  1  0.326764  0.826764  0.500000  1
  Sc  Sc6  1  0.174328  0.324926  0.500000  1
  Sc  Sc7  1  0.824926  0.674328  0.500000  1
  Sc  Sc8  1  0.999908  0.000322  0.000000  1
  Sc  Sc9  1  0.500322  0.499908  0.000000  1
  Si  Si10  1  0.566341  0.066341  0.000000  1
  Si  Si11  1  0.433990  0.933990  0.000000  1
  Si  Si12  1  0.066032  0.432125  0.000000  1
  Si  Si13  1  0.932125  0.566032  0.000000  1
  Si  Si14  1  0.199969  0.165264  0.000000  1
  Si  Si15  1  0.798865  0.834852  0.000000  1
  Si  Si16  1  0.166011  0.801439  0.000000  1
  Si  Si17  1  0.700050  0.334220  0.000000  1
  Si  Si18  1  0.834220  0.200050  0.000000  1
  Si  Si19  1  0.301439  0.666011  0.000000  1
  Si  Si20  1  0.665264  0.699969  0.000000  1
  Si  Si21  1  0.334852  0.298865  0.000000  1
  Si  Si22  1  0.005552  0.151616  0.500000  1
  Si  Si23  1  0.993045  0.849614  0.500000  1
  Si  Si24  1  0.152343  0.994227  0.500000  1
  Si  Si25  1  0.506217  0.347593  0.500000  1
  Si  Si26  1  0.847593  0.006217  0.500000  1
  Si  Si27  1  0.494227  0.652343  0.500000  1
  Si  Si28  1  0.651616  0.505552  0.500000  1
  Si  Si29  1  0.349614  0.493045  0.500000  1
  Ir  Ir30  1  0.019428  0.245380  0.000000  1
  Ir  Ir31  1  0.979025  0.755418  0.000000  1
  Ir  Ir32  1  0.246901  0.980910  0.000000  1
  Ir  Ir33  1  0.519714  0.253206  0.000000  1
  Ir  Ir34  1  0.753206  0.019714  0.000000  1
  Ir  Ir35  1  0.480910  0.746901  0.000000  1
  Ir  Ir36  1  0.745380  0.519428  0.000000  1
  Ir  Ir37  1  0.255418  0.479025  0.000000  1
