# generated using pymatgen
data_Er2Ta3As7Rh9
_symmetry_space_group_name_H-M   'P 1'
_cell_length_a   3.99621200
_cell_length_b   9.95588229
_cell_length_c   9.95592200
_cell_angle_alpha   120.00040258
_cell_angle_beta   90.00085038
_cell_angle_gamma   90.00023684
_symmetry_Int_Tables_number   1
_chemical_formula_structural   Er2Ta3As7Rh9
_chemical_formula_sum   'Er2 Ta3 As7 Rh9'
_cell_volume   343.03515379
_cell_formula_units_Z   1
loop_
 _symmetry_equiv_pos_site_id
 _symmetry_equiv_pos_as_xyz
  1  'x, y, z'
loop_
 _atom_site_type_symbol
 _atom_site_label
 _atom_site_symmetry_multiplicity
 _atom_site_fract_x
 _atom_site_fract_y
 _atom_site_fract_z
 _atom_site_occupancy
  Er  Er0  1  0.261259  0.666677  0.333363  1
  Er  Er1  1  0.762178  0.333337  0.666665  1
  Ta  Ta2  1  0.761972  0.096096  0.875127  1
  Ta  Ta3  1  0.761977  0.124862  0.220975  1
  Ta  Ta4  1  0.761980  0.779009  0.903884  1
  As  As5  1  0.262181  0.999998  0.000001  1
  As  As6  1  0.761856  0.876315  0.586523  1
  As  As7  1  0.761846  0.413491  0.289777  1
  As  As8  1  0.761851  0.710221  0.123713  1
  As  As9  1  0.261887  0.118344  0.417445  1
  As  As10  1  0.261876  0.582557  0.700901  1
  As  As11  1  0.261857  0.299095  0.881662  1
  Rh  Rh12  1  0.261821  0.883321  0.160349  1
  Rh  Rh13  1  0.261836  0.839645  0.722973  1
  Rh  Rh14  1  0.261814  0.277019  0.116674  1
  Rh  Rh15  1  0.761897  0.613533  0.560645  1
  Rh  Rh16  1  0.761883  0.439345  0.052871  1
  Rh  Rh17  1  0.761898  0.947148  0.386463  1
  Rh  Rh18  1  0.262024  0.367388  0.436600  1
  Rh  Rh19  1  0.262051  0.563385  0.930779  1
  Rh  Rh20  1  0.262057  0.069215  0.632608  1
