# generated using pymatgen
data_Hf18CrRe7Pt2
_symmetry_space_group_name_H-M   'P 1'
_cell_length_a   8.67479900
_cell_length_b   8.67479812
_cell_length_c   8.51034500
_cell_angle_alpha   90.00000000
_cell_angle_beta   90.00000000
_cell_angle_gamma   120.00000718
_symmetry_Int_Tables_number   1
_chemical_formula_structural   Hf18CrRe7Pt2
_chemical_formula_sum   'Hf18 Cr1 Re7 Pt2'
_cell_volume   554.62132480
_cell_formula_units_Z   1
loop_
 _symmetry_equiv_pos_site_id
 _symmetry_equiv_pos_as_xyz
  1  'x, y, z'
loop_
 _atom_site_type_symbol
 _atom_site_label
 _atom_site_symmetry_multiplicity
 _atom_site_fract_x
 _atom_site_fract_y
 _atom_site_fract_z
 _atom_site_occupancy
  Hf  Hf0  1  0.193194  0.806806  0.448134  1
  Hf  Hf1  1  0.193194  0.386388  0.448134  1
  Hf  Hf2  1  0.613612  0.806806  0.448134  1
  Hf  Hf3  1  0.806806  0.193194  0.551866  1
  Hf  Hf4  1  0.806806  0.613612  0.551866  1
  Hf  Hf5  1  0.386388  0.193194  0.551866  1
  Hf  Hf6  1  0.805610  0.194390  0.948201  1
  Hf  Hf7  1  0.805610  0.611221  0.948201  1
  Hf  Hf8  1  0.388779  0.194390  0.948201  1
  Hf  Hf9  1  0.194390  0.805610  0.051799  1
  Hf  Hf10  1  0.194390  0.388779  0.051799  1
  Hf  Hf11  1  0.611221  0.805610  0.051799  1
  Hf  Hf12  1  0.541463  0.458537  0.250460  1
  Hf  Hf13  1  0.541463  0.082926  0.250460  1
  Hf  Hf14  1  0.917074  0.458537  0.250460  1
  Hf  Hf15  1  0.458537  0.541463  0.749540  1
  Hf  Hf16  1  0.458537  0.917074  0.749540  1
  Hf  Hf17  1  0.082926  0.541463  0.749540  1
  Cr  Cr18  1  0.000000  0.000000  0.500000  1
  Re  Re19  1  0.891262  0.108738  0.253714  1
  Re  Re20  1  0.891262  0.782524  0.253714  1
  Re  Re21  1  0.217476  0.108738  0.253714  1
  Re  Re22  1  0.108738  0.891262  0.746286  1
  Re  Re23  1  0.108738  0.217476  0.746286  1
  Re  Re24  1  0.782524  0.891262  0.746286  1
  Re  Re25  1  0.000000  0.000000  0.000000  1
  Pt  Pt26  1  0.333333  0.666667  0.250399  1
  Pt  Pt27  1  0.666667  0.333333  0.749601  1
