# generated using pymatgen
data_Sm4Y2FeI10
_symmetry_space_group_name_H-M   'P 1'
_cell_length_a   7.81378437
_cell_length_b   9.78400967
_cell_length_c   9.80043749
_cell_angle_alpha   107.15006979
_cell_angle_beta   96.29633620
_cell_angle_gamma   104.59198235
_symmetry_Int_Tables_number   1
_chemical_formula_structural   Sm4Y2FeI10
_chemical_formula_sum   'Sm4 Y2 Fe1 I10'
_cell_volume   678.98921124
_cell_formula_units_Z   1
loop_
 _symmetry_equiv_pos_site_id
 _symmetry_equiv_pos_as_xyz
  1  'x, y, z'
loop_
 _atom_site_type_symbol
 _atom_site_label
 _atom_site_symmetry_multiplicity
 _atom_site_fract_x
 _atom_site_fract_y
 _atom_site_fract_z
 _atom_site_occupancy
  Sm  Sm0  1  0.887185  0.958924  0.233925  1
  Sm  Sm1  1  0.112815  0.041076  0.766075  1
  Sm  Sm2  1  0.032353  0.726519  0.918892  1
  Sm  Sm3  1  0.967647  0.273481  0.081108  1
  Y  Y4  1  0.653009  0.876973  0.835489  1
  Y  Y5  1  0.346991  0.123027  0.164511  1
  Fe  Fe6  1  0.000000  0.000000  0.000000  1
  I  I7  1  0.649635  0.553846  0.729859  1
  I  I8  1  0.350365  0.446154  0.270141  1
  I  I9  1  0.740359  0.912485  0.543781  1
  I  I10  1  0.259641  0.087515  0.456219  1
  I  I11  1  0.086293  0.369944  0.818782  1
  I  I12  1  0.913707  0.630056  0.181218  1
  I  I13  1  0.454737  0.816903  0.090886  1
  I  I14  1  0.545263  0.183097  0.909114  1
  I  I15  1  0.227193  0.744124  0.655144  1
  I  I16  1  0.772807  0.255876  0.344856  1
