# generated using pymatgen
data_NdSmCo12SiP6
_symmetry_space_group_name_H-M   'P 1'
_cell_length_a   9.10018600
_cell_length_b   9.10018665
_cell_length_c   3.62227000
_cell_angle_alpha   90.00000000
_cell_angle_beta   90.00000000
_cell_angle_gamma   119.99999766
_symmetry_Int_Tables_number   1
_chemical_formula_structural   NdSmCo12SiP6
_chemical_formula_sum   'Nd1 Sm1 Co12 Si1 P6'
_cell_volume   259.78377884
_cell_formula_units_Z   1
loop_
 _symmetry_equiv_pos_site_id
 _symmetry_equiv_pos_as_xyz
  1  'x, y, z'
loop_
 _atom_site_type_symbol
 _atom_site_label
 _atom_site_symmetry_multiplicity
 _atom_site_fract_x
 _atom_site_fract_y
 _atom_site_fract_z
 _atom_site_occupancy
  Nd  Nd0  1  0.000000  0.000000  0.000000  1
  Sm  Sm1  1  0.333333  0.666667  0.500000  1
  Co  Co2  1  0.099410  0.393274  0.000000  1
  Co  Co3  1  0.606726  0.706135  0.000000  1
  Co  Co4  1  0.293865  0.900590  0.000000  1
  Co  Co5  1  0.051360  0.765639  0.500000  1
  Co  Co6  1  0.234361  0.285720  0.500000  1
  Co  Co7  1  0.714280  0.948640  0.500000  1
  Co  Co8  1  0.823205  0.612268  0.000000  1
  Co  Co9  1  0.387732  0.210938  0.000000  1
  Co  Co10  1  0.789062  0.176795  0.000000  1
  Co  Co11  1  0.894906  0.434288  0.500000  1
  Co  Co12  1  0.565712  0.460618  0.500000  1
  Co  Co13  1  0.539382  0.105094  0.500000  1
  Si  Si14  1  0.666667  0.333333  0.000000  1
  P  P15  1  0.772764  0.730520  0.500000  1
  P  P16  1  0.269480  0.042243  0.500000  1
  P  P17  1  0.957757  0.227236  0.500000  1
  P  P18  1  0.070298  0.627407  0.000000  1
  P  P19  1  0.372593  0.442892  0.000000  1
  P  P20  1  0.557108  0.929702  0.000000  1
