# generated using pymatgen
data_Ho16MgIn3OsPt3
_symmetry_space_group_name_H-M   'P 1'
_cell_length_a   9.71516290
_cell_length_b   9.63064959
_cell_length_c   9.63064900
_cell_angle_alpha   59.99999172
_cell_angle_beta   60.28734139
_cell_angle_gamma   60.28734887
_symmetry_Int_Tables_number   1
_chemical_formula_structural   Ho16MgIn3OsPt3
_chemical_formula_sum   'Ho16 Mg1 In3 Os1 Pt3'
_cell_volume   639.90992116
_cell_formula_units_Z   1
loop_
 _symmetry_equiv_pos_site_id
 _symmetry_equiv_pos_as_xyz
  1  'x, y, z'
loop_
 _atom_site_type_symbol
 _atom_site_label
 _atom_site_symmetry_multiplicity
 _atom_site_fract_x
 _atom_site_fract_y
 _atom_site_fract_z
 _atom_site_occupancy
  Ho  Ho0  1  0.353568  0.346602  0.346602  1
  Ho  Ho1  1  0.353568  0.346602  0.953228  1
  Ho  Ho2  1  0.353568  0.953228  0.346602  1
  Ho  Ho3  1  0.943391  0.352203  0.352203  1
  Ho  Ho4  1  0.804778  0.190327  0.190327  1
  Ho  Ho5  1  0.188484  0.811215  0.811215  1
  Ho  Ho6  1  0.188484  0.811215  0.189085  1
  Ho  Ho7  1  0.804778  0.190327  0.814568  1
  Ho  Ho8  1  0.188484  0.189085  0.811215  1
  Ho  Ho9  1  0.804778  0.814568  0.190327  1
  Ho  Ho10  1  0.936788  0.564229  0.564229  1
  Ho  Ho11  1  0.567207  0.937299  0.937299  1
  Ho  Ho12  1  0.567207  0.937299  0.558195  1
  Ho  Ho13  1  0.936788  0.564229  0.934754  1
  Ho  Ho14  1  0.567207  0.558195  0.937299  1
  Ho  Ho15  1  0.936788  0.934754  0.564229  1
  Mg  Mg16  1  0.266479  0.577841  0.577841  1
  In  In17  1  0.582721  0.583371  0.583371  1
  In  In18  1  0.582721  0.583371  0.250538  1
  In  In19  1  0.582721  0.250538  0.583371  1
  Os  Os20  1  0.575019  0.141660  0.141660  1
  Pt  Pt21  1  0.138156  0.144162  0.144162  1
  Pt  Pt22  1  0.138156  0.144162  0.573517  1
  Pt  Pt23  1  0.138156  0.573517  0.144162  1
