# generated using pymatgen
data_KRb7(AcI5)4
_symmetry_space_group_name_H-M   'P 1'
_cell_length_a   9.50845476
_cell_length_b   10.32166408
_cell_length_c   15.10002303
_cell_angle_alpha   90.04220586
_cell_angle_beta   90.00530804
_cell_angle_gamma   90.14612614
_symmetry_Int_Tables_number   1
_chemical_formula_structural   KRb7(AcI5)4
_chemical_formula_sum   'K1 Rb7 Ac4 I20'
_cell_volume   1481.95747868
_cell_formula_units_Z   1
loop_
 _symmetry_equiv_pos_site_id
 _symmetry_equiv_pos_as_xyz
  1  'x, y, z'
loop_
 _atom_site_type_symbol
 _atom_site_label
 _atom_site_symmetry_multiplicity
 _atom_site_fract_x
 _atom_site_fract_y
 _atom_site_fract_z
 _atom_site_occupancy
  K  K0  1  0.448946  0.502324  0.673329  1
  Rb  Rb1  1  0.947268  0.003260  0.826920  1
  Rb  Rb2  1  0.052739  0.996778  0.172995  1
  Rb  Rb3  1  0.447187  0.996664  0.673000  1
  Rb  Rb4  1  0.052759  0.503267  0.173028  1
  Rb  Rb5  1  0.552721  0.003301  0.327122  1
  Rb  Rb6  1  0.947195  0.496745  0.826867  1
  Rb  Rb7  1  0.552709  0.496736  0.327146  1
  Ac  Ac8  1  0.921131  0.749652  0.506064  1
  Ac  Ac9  1  0.078817  0.250501  0.494360  1
  Ac  Ac10  1  0.421156  0.250172  0.993951  1
  Ac  Ac11  1  0.578668  0.749843  0.005600  1
  I  I12  1  0.131766  0.749015  0.681113  1
  I  I13  1  0.869481  0.249941  0.318742  1
  I  I14  1  0.629415  0.251630  0.817783  1
  I  I15  1  0.369468  0.749941  0.181217  1
  I  I16  1  0.833346  0.045313  0.579169  1
  I  I17  1  0.166811  0.954821  0.420887  1
  I  I18  1  0.333328  0.954499  0.920878  1
  I  I19  1  0.166487  0.545599  0.420810  1
  I  I20  1  0.666691  0.045585  0.079044  1
  I  I21  1  0.832343  0.454510  0.579330  1
  I  I22  1  0.666637  0.454646  0.079127  1
  I  I23  1  0.333734  0.545168  0.919872  1
  I  I24  1  0.568540  0.748061  0.507901  1
  I  I25  1  0.430890  0.252061  0.494595  1
  I  I26  1  0.069408  0.249977  0.993297  1
  I  I27  1  0.930427  0.750099  0.006588  1
  I  I28  1  0.664694  0.747962  0.791524  1
  I  I29  1  0.333665  0.249959  0.207738  1
  I  I30  1  0.168063  0.251909  0.707580  1
  I  I31  1  0.833509  0.750058  0.292422  1
