# generated using pymatgen
data_VSbBr2(OF8)2
_symmetry_space_group_name_H-M   'P 1'
_cell_length_a   8.88312689
_cell_length_b   8.86481147
_cell_length_c   8.94009700
_cell_angle_alpha   89.14594902
_cell_angle_beta   90.12123347
_cell_angle_gamma   89.35458113
_symmetry_Int_Tables_number   1
_chemical_formula_structural   VSbBr2(OF8)2
_chemical_formula_sum   'V2 Sb2 Br4 O4 F32'
_cell_volume   703.88330187
_cell_formula_units_Z   2
loop_
 _symmetry_equiv_pos_site_id
 _symmetry_equiv_pos_as_xyz
  1  'x, y, z'
loop_
 _atom_site_type_symbol
 _atom_site_label
 _atom_site_symmetry_multiplicity
 _atom_site_fract_x
 _atom_site_fract_y
 _atom_site_fract_z
 _atom_site_occupancy
  V  V0  1  0.639825  0.890278  0.637752  1
  V  V1  1  0.862079  0.612309  0.137397  1
  Sb  Sb2  1  0.363266  0.385749  0.863917  1
  Sb  Sb3  1  0.136932  0.111717  0.361661  1
  Br  Br4  1  0.776125  0.460213  0.692750  1
  Br  Br5  1  0.195740  0.969269  0.798407  1
  Br  Br6  1  0.696422  0.021534  0.204687  1
  Br  Br7  1  0.274114  0.550650  0.302717  1
  O  O8  1  0.714701  0.382335  0.546861  1
  O  O9  1  0.047938  0.034235  0.873305  1
  O  O10  1  0.550125  0.958333  0.127104  1
  O  O11  1  0.212723  0.624566  0.450854  1
  F  F12  1  0.649445  0.675130  0.622316  1
  F  F13  1  0.879771  0.616630  0.934865  1
  F  F14  1  0.583407  0.367243  0.858593  1
  F  F15  1  0.362091  0.164061  0.875137  1
  F  F16  1  0.123736  0.108531  0.581092  1
  F  F17  1  0.435777  0.872848  0.637917  1
  F  F18  1  0.855057  0.827125  0.127405  1
  F  F19  1  0.629617  0.893911  0.426945  1
  F  F20  1  0.920516  0.127126  0.361225  1
  F  F21  1  0.137232  0.331599  0.376878  1
  F  F22  1  0.379027  0.384447  0.078594  1
  F  F23  1  0.075391  0.628968  0.147359  1
  F  F24  1  0.625825  0.088584  0.642127  1
  F  F25  1  0.858625  0.627511  0.335547  1
  F  F26  1  0.150682  0.390313  0.877256  1
  F  F27  1  0.382830  0.598253  0.855983  1
  F  F28  1  0.144054  0.130715  0.150483  1
  F  F29  1  0.839225  0.891466  0.622130  1
  F  F30  1  0.881274  0.414015  0.144856  1
  F  F31  1  0.647063  0.869229  0.834666  1
  F  F32  1  0.349244  0.107913  0.381184  1
  F  F33  1  0.123184  0.898816  0.360315  1
  F  F34  1  0.360305  0.370679  0.652275  1
  F  F35  1  0.663724  0.608608  0.124133  1
  F  F36  1  0.948930  0.540449  0.631295  1
  F  F37  1  0.873793  0.306402  0.782232  1
  F  F38  1  0.285073  0.872100  0.950171  1
  F  F39  1  0.133040  0.797474  0.719849  1
  F  F40  1  0.784231  0.120757  0.053336  1
  F  F41  1  0.629107  0.195548  0.279475  1
  F  F42  1  0.449186  0.470141  0.364878  1
  F  F43  1  0.369550  0.702216  0.212072  1
