# generated using pymatgen
data_Y3Tc2P6Rh7
_symmetry_space_group_name_H-M   'P 1'
_cell_length_a   3.96980700
_cell_length_b   11.21079400
_cell_length_c   12.69047800
_cell_angle_alpha   90.00000000
_cell_angle_beta   90.00000000
_cell_angle_gamma   90.00000000
_symmetry_Int_Tables_number   1
_chemical_formula_structural   Y3Tc2P6Rh7
_chemical_formula_sum   'Y6 Tc4 P12 Rh14'
_cell_volume   564.78577026
_cell_formula_units_Z   2
loop_
 _symmetry_equiv_pos_site_id
 _symmetry_equiv_pos_as_xyz
  1  'x, y, z'
loop_
 _atom_site_type_symbol
 _atom_site_label
 _atom_site_symmetry_multiplicity
 _atom_site_fract_x
 _atom_site_fract_y
 _atom_site_fract_z
 _atom_site_occupancy
  Y  Y0  1  0.000000  0.500000  0.519799  1
  Y  Y1  1  0.500000  0.000000  0.480201  1
  Y  Y2  1  0.500000  0.816335  0.203272  1
  Y  Y3  1  0.500000  0.183665  0.203272  1
  Y  Y4  1  0.000000  0.683665  0.796728  1
  Y  Y5  1  0.000000  0.316335  0.796728  1
  Tc  Tc6  1  0.500000  0.500000  0.158051  1
  Tc  Tc7  1  0.000000  0.000000  0.841949  1
  Tc  Tc8  1  0.000000  0.500000  0.985994  1
  Tc  Tc9  1  0.500000  0.000000  0.014006  1
  P  P10  1  0.500000  0.500000  0.877796  1
  P  P11  1  0.000000  0.000000  0.122204  1
  P  P12  1  0.500000  0.500000  0.342786  1
  P  P13  1  0.000000  0.000000  0.657214  1
  P  P14  1  0.500000  0.312160  0.618896  1
  P  P15  1  0.500000  0.687840  0.618896  1
  P  P16  1  0.000000  0.187840  0.381104  1
  P  P17  1  0.000000  0.812160  0.381104  1
  P  P18  1  0.500000  0.850598  0.892262  1
  P  P19  1  0.500000  0.149402  0.892262  1
  P  P20  1  0.000000  0.649402  0.107738  1
  P  P21  1  0.000000  0.350598  0.107738  1
  Rh  Rh22  1  0.500000  0.500000  0.695147  1
  Rh  Rh23  1  0.000000  0.000000  0.304853  1
  Rh  Rh24  1  0.500000  0.329737  0.983451  1
  Rh  Rh25  1  0.500000  0.670263  0.983451  1
  Rh  Rh26  1  0.000000  0.170263  0.016549  1
  Rh  Rh27  1  0.000000  0.829737  0.016549  1
  Rh  Rh28  1  0.500000  0.294619  0.430742  1
  Rh  Rh29  1  0.500000  0.705381  0.430742  1
  Rh  Rh30  1  0.000000  0.205381  0.569258  1
  Rh  Rh31  1  0.000000  0.794619  0.569258  1
  Rh  Rh32  1  0.500000  0.875763  0.709768  1
  Rh  Rh33  1  0.500000  0.124237  0.709768  1
  Rh  Rh34  1  0.000000  0.624237  0.290232  1
  Rh  Rh35  1  0.000000  0.375763  0.290232  1
