# generated using pymatgen
data_AlTcOsW
_symmetry_space_group_name_H-M   'P 1'
_cell_length_a   4.37113925
_cell_length_b   4.37113867
_cell_length_c   4.37113900
_cell_angle_alpha   60.00000507
_cell_angle_beta   60.00000949
_cell_angle_gamma   60.00000628
_symmetry_Int_Tables_number   1
_chemical_formula_structural   AlTcOsW
_chemical_formula_sum   'Al1 Tc1 Os1 W1'
_cell_volume   59.05666447
_cell_formula_units_Z   1
loop_
 _symmetry_equiv_pos_site_id
 _symmetry_equiv_pos_as_xyz
  1  'x, y, z'
loop_
 _atom_site_type_symbol
 _atom_site_label
 _atom_site_symmetry_multiplicity
 _atom_site_fract_x
 _atom_site_fract_y
 _atom_site_fract_z
 _atom_site_occupancy
  Al  Al0  1  0.500000  0.500000  0.500000  1
  Tc  Tc1  1  0.250001  0.250001  0.250001  1
  Os  Os2  1  0.750000  0.750000  0.750000  1
  W  W3  1  0.000000  0.000000  0.000000  1
