# generated using pymatgen
data_Zr8ReTc4Ir3
_symmetry_space_group_name_H-M   'P 1'
_cell_length_a   6.57031800
_cell_length_b   4.67776400
_cell_length_c   9.34227200
_cell_angle_alpha   90.00000000
_cell_angle_beta   90.00071325
_cell_angle_gamma   90.00000000
_symmetry_Int_Tables_number   1
_chemical_formula_structural   Zr8ReTc4Ir3
_chemical_formula_sum   'Zr8 Re1 Tc4 Ir3'
_cell_volume   287.12909660
_cell_formula_units_Z   1
loop_
 _symmetry_equiv_pos_site_id
 _symmetry_equiv_pos_as_xyz
  1  'x, y, z'
loop_
 _atom_site_type_symbol
 _atom_site_label
 _atom_site_symmetry_multiplicity
 _atom_site_fract_x
 _atom_site_fract_y
 _atom_site_fract_z
 _atom_site_occupancy
  Zr  Zr0  1  0.496954  0.749999  0.125010  1
  Zr  Zr1  1  0.003050  0.749999  0.125010  1
  Zr  Zr2  1  0.498606  0.250000  0.372714  1
  Zr  Zr3  1  0.001389  0.250000  0.372713  1
  Zr  Zr4  1  0.000388  0.749999  0.625013  1
  Zr  Zr5  1  0.499613  0.749999  0.625012  1
  Zr  Zr6  1  0.001390  0.250000  0.877274  1
  Zr  Zr7  1  0.498599  0.250000  0.877276  1
  Re  Re8  1  0.250019  0.250000  0.125002  1
  Tc  Tc9  1  0.749998  0.250000  0.124997  1
  Tc  Tc10  1  0.249997  0.749999  0.377372  1
  Tc  Tc11  1  0.749998  0.250000  0.624999  1
  Tc  Tc12  1  0.250005  0.749999  0.872619  1
  Ir  Ir13  1  0.749997  0.749999  0.376181  1
  Ir  Ir14  1  0.250000  0.250000  0.624993  1
  Ir  Ir15  1  0.749996  0.749999  0.873817  1
