# generated using pymatgen
data_Sm4MnGe3F28
_symmetry_space_group_name_H-M   'P 1'
_cell_length_a   5.50067531
_cell_length_b   8.90180589
_cell_length_c   11.91424219
_cell_angle_alpha   61.88267213
_cell_angle_beta   89.97919745
_cell_angle_gamma   90.01867982
_symmetry_Int_Tables_number   1
_chemical_formula_structural   Sm4MnGe3F28
_chemical_formula_sum   'Sm4 Mn1 Ge3 F28'
_cell_volume   514.54261620
_cell_formula_units_Z   1
loop_
 _symmetry_equiv_pos_site_id
 _symmetry_equiv_pos_as_xyz
  1  'x, y, z'
loop_
 _atom_site_type_symbol
 _atom_site_label
 _atom_site_symmetry_multiplicity
 _atom_site_fract_x
 _atom_site_fract_y
 _atom_site_fract_z
 _atom_site_occupancy
  Sm  Sm0  1  0.760726  0.809228  0.764142  1
  Sm  Sm1  1  0.260978  0.190228  0.736560  1
  Sm  Sm2  1  0.238986  0.190284  0.236209  1
  Sm  Sm3  1  0.739109  0.809839  0.263747  1
  Mn  Mn4  1  0.741946  0.274433  0.457702  1
  Ge  Ge5  1  0.757858  0.274647  0.957784  1
  Ge  Ge6  1  0.257773  0.725609  0.542184  1
  Ge  Ge7  1  0.242030  0.725328  0.042281  1
  F  F8  1  0.434199  0.707809  0.923957  1
  F  F9  1  0.931502  0.291825  0.578118  1
  F  F10  1  0.564954  0.292287  0.075731  1
  F  F11  1  0.064924  0.708324  0.424184  1
  F  F12  1  0.460753  0.282377  0.540210  1
  F  F13  1  0.964636  0.715635  0.959776  1
  F  F14  1  0.534928  0.716098  0.459439  1
  F  F15  1  0.035162  0.284348  0.040344  1
  F  F16  1  0.768914  0.506425  0.864452  1
  F  F17  1  0.268495  0.493690  0.635238  1
  F  F18  1  0.230774  0.493478  0.135654  1
  F  F19  1  0.731834  0.508597  0.363653  1
  F  F20  1  0.762719  0.042831  0.047463  1
  F  F21  1  0.262801  0.957437  0.452370  1
  F  F22  1  0.237209  0.957283  0.952274  1
  F  F23  1  0.739168  0.041098  0.547430  1
  F  F24  1  0.989921  0.729115  0.631827  1
  F  F25  1  0.489596  0.270842  0.868588  1
  F  F26  1  0.016675  0.270853  0.370580  1
  F  F27  1  0.510498  0.729609  0.131007  1
  F  F28  1  0.050949  0.739321  0.163979  1
  F  F29  1  0.554631  0.260259  0.333736  1
  F  F30  1  0.948906  0.261311  0.835731  1
  F  F31  1  0.449106  0.739034  0.664069  1
  F  F32  1  0.398162  0.967025  0.225833  1
  F  F33  1  0.898250  0.033354  0.273871  1
  F  F34  1  0.600722  0.032723  0.773570  1
  F  F35  1  0.100202  0.967414  0.726309  1
