# generated using pymatgen
data_Cs3RbBa2ZrAs4
_symmetry_space_group_name_H-M   'P 1'
_cell_length_a   11.23637869
_cell_length_b   11.23638062
_cell_length_c   8.22342269
_cell_angle_alpha   88.02541075
_cell_angle_beta   88.02540335
_cell_angle_gamma   119.93210257
_symmetry_Int_Tables_number   1
_chemical_formula_structural   Cs3RbBa2ZrAs4
_chemical_formula_sum   'Cs6 Rb2 Ba4 Zr2 As8'
_cell_volume   897.63799787
_cell_formula_units_Z   2
loop_
 _symmetry_equiv_pos_site_id
 _symmetry_equiv_pos_as_xyz
  1  'x, y, z'
loop_
 _atom_site_type_symbol
 _atom_site_label
 _atom_site_symmetry_multiplicity
 _atom_site_fract_x
 _atom_site_fract_y
 _atom_site_fract_z
 _atom_site_occupancy
  Cs  Cs0  1  0.868706  0.722850  0.157898  1
  Cs  Cs1  1  0.258346  0.122245  0.241884  1
  Cs  Cs2  1  0.855622  0.142416  0.190419  1
  Cs  Cs3  1  0.122245  0.258346  0.741884  1
  Cs  Cs4  1  0.722850  0.868706  0.657898  1
  Cs  Cs5  1  0.142416  0.855622  0.690419  1
  Rb  Rb6  1  0.473630  0.938432  0.385538  1
  Rb  Rb7  1  0.938432  0.473630  0.885538  1
  Ba  Ba8  1  0.074537  0.535052  0.398385  1
  Ba  Ba9  1  0.476197  0.534028  0.376732  1
  Ba  Ba10  1  0.535052  0.074537  0.898385  1
  Ba  Ba11  1  0.534028  0.476197  0.876732  1
  Zr  Zr12  1  0.664450  0.336365  0.490374  1
  Zr  Zr13  1  0.336365  0.664450  0.990374  1
  As  As14  1  0.636926  0.328997  0.166764  1
  As  As15  1  0.328997  0.636926  0.666764  1
  As  As16  1  0.215136  0.414830  0.136127  1
  As  As17  1  0.594182  0.791879  0.075292  1
  As  As18  1  0.216635  0.798349  0.098254  1
  As  As19  1  0.791879  0.594182  0.575292  1
  As  As20  1  0.414830  0.215136  0.636127  1
  As  As21  1  0.798349  0.216635  0.598254  1
