# generated using pymatgen
data_CaAc3(CdPt)4
_symmetry_space_group_name_H-M   'P 1'
_cell_length_a   4.38129900
_cell_length_b   7.60599900
_cell_length_c   9.04873600
_cell_angle_alpha   90.00171914
_cell_angle_beta   90.00000000
_cell_angle_gamma   90.00000000
_symmetry_Int_Tables_number   1
_chemical_formula_structural   CaAc3(CdPt)4
_chemical_formula_sum   'Ca1 Ac3 Cd4 Pt4'
_cell_volume   301.54148831
_cell_formula_units_Z   1
loop_
 _symmetry_equiv_pos_site_id
 _symmetry_equiv_pos_as_xyz
  1  'x, y, z'
loop_
 _atom_site_type_symbol
 _atom_site_label
 _atom_site_symmetry_multiplicity
 _atom_site_fract_x
 _atom_site_fract_y
 _atom_site_fract_z
 _atom_site_occupancy
  Ca  Ca0  1  0.750000  0.458780  0.812998  1
  Ac  Ac1  1  0.250000  0.038869  0.315968  1
  Ac  Ac2  1  0.250000  0.537040  0.174326  1
  Ac  Ac3  1  0.750000  0.960383  0.689653  1
  Cd  Cd4  1  0.250000  0.151501  0.937423  1
  Cd  Cd5  1  0.250000  0.626659  0.567192  1
  Cd  Cd6  1  0.750000  0.862198  0.056456  1
  Cd  Cd7  1  0.750000  0.367537  0.444740  1
  Pt  Pt8  1  0.250000  0.246794  0.627113  1
  Pt  Pt9  1  0.250000  0.750523  0.869803  1
  Pt  Pt10  1  0.750000  0.751009  0.371033  1
  Pt  Pt11  1  0.750000  0.248708  0.133297  1
