# generated using pymatgen
data_Nb3CrOs2C
_symmetry_space_group_name_H-M   'P 1'
_cell_length_a   8.31832900
_cell_length_b   8.31832890
_cell_length_c   8.31832900
_cell_angle_alpha   120.00000436
_cell_angle_beta   90.00000000
_cell_angle_gamma   120.00000436
_symmetry_Int_Tables_number   1
_chemical_formula_structural   Nb3CrOs2C
_chemical_formula_sum   'Nb12 Cr4 Os8 C4'
_cell_volume   406.99888512
_cell_formula_units_Z   4
loop_
 _symmetry_equiv_pos_site_id
 _symmetry_equiv_pos_as_xyz
  1  'x, y, z'
loop_
 _atom_site_type_symbol
 _atom_site_label
 _atom_site_symmetry_multiplicity
 _atom_site_fract_x
 _atom_site_fract_y
 _atom_site_fract_z
 _atom_site_occupancy
  Nb  Nb0  1  0.556976  0.500001  0.056975  1
  Nb  Nb1  1  0.556976  0.113950  0.056975  1
  Nb  Nb2  1  0.943025  0.500001  0.056976  1
  Nb  Nb3  1  0.193024  0.000000  0.193024  1
  Nb  Nb4  1  0.193024  0.386049  0.193024  1
  Nb  Nb5  1  0.806975  0.000000  0.193024  1
  Nb  Nb6  1  0.943025  0.500001  0.443025  1
  Nb  Nb7  1  0.943025  0.886049  0.443025  1
  Nb  Nb8  1  0.556976  0.500001  0.443025  1
  Nb  Nb9  1  0.193024  0.000000  0.806975  1
  Nb  Nb10  1  0.806975  0.000000  0.806975  1
  Nb  Nb11  1  0.806975  0.613951  0.806975  1
  Cr  Cr12  1  0.375000  0.750000  0.125001  1
  Cr  Cr13  1  0.375000  0.249999  0.624999  1
  Cr  Cr14  1  0.375000  0.750000  0.624999  1
  Cr  Cr15  1  0.875000  0.249999  0.625000  1
  Os  Os16  1  0.581916  0.163830  0.418086  1
  Os  Os17  1  0.254256  0.836171  0.418086  1
  Os  Os18  1  0.581916  0.836171  0.418086  1
  Os  Os19  1  0.168085  0.336171  0.504256  1
  Os  Os20  1  0.581915  0.163830  0.745745  1
  Os  Os21  1  0.168085  0.336171  0.831914  1
  Os  Os22  1  0.168085  0.663829  0.831914  1
  Os  Os23  1  0.495744  0.663829  0.831914  1
  C  C24  1  0.374999  0.249999  0.125000  1
  C  C25  1  0.875000  0.249999  0.125000  1
  C  C26  1  0.875000  0.750000  0.125000  1
  C  C27  1  0.875000  0.750000  0.625000  1
