# generated using pymatgen
data_YbSm3Tm2(CoSn6)2
_symmetry_space_group_name_H-M   'P 1'
_cell_length_a   8.42765652
_cell_length_b   8.42765685
_cell_length_c   13.23436693
_cell_angle_alpha   90.15751398
_cell_angle_beta   89.84248626
_cell_angle_gamma   148.25495258
_symmetry_Int_Tables_number   1
_chemical_formula_structural   YbSm3Tm2(CoSn6)2
_chemical_formula_sum   'Yb1 Sm3 Tm2 Co2 Sn12'
_cell_volume   494.55743435
_cell_formula_units_Z   1
loop_
 _symmetry_equiv_pos_site_id
 _symmetry_equiv_pos_as_xyz
  1  'x, y, z'
loop_
 _atom_site_type_symbol
 _atom_site_label
 _atom_site_symmetry_multiplicity
 _atom_site_fract_x
 _atom_site_fract_y
 _atom_site_fract_z
 _atom_site_occupancy
  Yb  Yb0  1  0.899949  0.100051  0.403769  1
  Sm  Sm1  1  0.899508  0.100492  0.094573  1
  Sm  Sm2  1  0.099317  0.900683  0.593482  1
  Sm  Sm3  1  0.099643  0.900357  0.906904  1
  Tm  Tm4  1  0.900168  0.099832  0.750905  1
  Tm  Tm5  1  0.100260  0.899740  0.250212  1
  Co  Co6  1  0.297043  0.702957  0.250356  1
  Co  Co7  1  0.702845  0.297155  0.749613  1
  Sn  Sn8  1  0.757196  0.242804  0.571245  1
  Sn  Sn9  1  0.426815  0.573185  0.577156  1
  Sn  Sn10  1  0.573042  0.426958  0.421781  1
  Sn  Sn11  1  0.732485  0.267515  0.249630  1
  Sn  Sn12  1  0.267673  0.732327  0.749737  1
  Sn  Sn13  1  0.243864  0.756136  0.071905  1
  Sn  Sn14  1  0.245041  0.754959  0.428889  1
  Sn  Sn15  1  0.572549  0.427451  0.078477  1
  Sn  Sn16  1  0.454144  0.545856  0.250275  1
  Sn  Sn17  1  0.545977  0.454023  0.750356  1
  Sn  Sn18  1  0.755838  0.244162  0.928031  1
  Sn  Sn19  1  0.426643  0.573357  0.922704  1
