# generated using pymatgen
data_Dy5Y(FeB7)2
_symmetry_space_group_name_H-M   'P 1'
_cell_length_a   8.03348606
_cell_length_b   8.03348632
_cell_length_c   9.30869100
_cell_angle_alpha   90.00000000
_cell_angle_beta   90.00000000
_cell_angle_gamma   155.39287186
_symmetry_Int_Tables_number   1
_chemical_formula_structural   Dy5Y(FeB7)2
_chemical_formula_sum   'Dy5 Y1 Fe2 B14'
_cell_volume   250.15033151
_cell_formula_units_Z   1
loop_
 _symmetry_equiv_pos_site_id
 _symmetry_equiv_pos_as_xyz
  1  'x, y, z'
loop_
 _atom_site_type_symbol
 _atom_site_label
 _atom_site_symmetry_multiplicity
 _atom_site_fract_x
 _atom_site_fract_y
 _atom_site_fract_z
 _atom_site_occupancy
  Dy  Dy0  1  0.895119  0.104881  0.440075  1
  Dy  Dy1  1  0.104960  0.895040  0.559981  1
  Dy  Dy2  1  0.895119  0.104881  0.059925  1
  Dy  Dy3  1  0.104960  0.895040  0.940019  1
  Dy  Dy4  1  0.756906  0.243094  0.750000  1
  Y  Y5  1  0.243372  0.756628  0.250000  1
  Fe  Fe6  1  0.054585  0.945415  0.250000  1
  Fe  Fe7  1  0.945303  0.054697  0.750000  1
  B  B8  1  0.727671  0.272329  0.466881  1
  B  B9  1  0.272304  0.727696  0.533471  1
  B  B10  1  0.727671  0.272329  0.033119  1
  B  B11  1  0.272304  0.727696  0.966529  1
  B  B12  1  0.629890  0.370110  0.152889  1
  B  B13  1  0.370036  0.629964  0.847015  1
  B  B14  1  0.629890  0.370110  0.347111  1
  B  B15  1  0.370036  0.629964  0.652985  1
  B  B16  1  0.521953  0.478047  0.098867  1
  B  B17  1  0.478012  0.521988  0.901054  1
  B  B18  1  0.521953  0.478047  0.401133  1
  B  B19  1  0.478012  0.521988  0.598946  1
  B  B20  1  0.460143  0.539857  0.250000  1
  B  B21  1  0.539803  0.460197  0.750000  1
