# generated using pymatgen
data_Ce6Al3IrRuW
_symmetry_space_group_name_H-M   'P 1'
_cell_length_a   7.91619643
_cell_length_b   7.90942040
_cell_length_c   9.73382497
_cell_angle_alpha   90.00484636
_cell_angle_beta   89.73130668
_cell_angle_gamma   120.02384167
_symmetry_Int_Tables_number   1
_chemical_formula_structural   Ce6Al3IrRuW
_chemical_formula_sum   'Ce12 Al6 Ir2 Ru2 W2'
_cell_volume   527.67284029
_cell_formula_units_Z   2
loop_
 _symmetry_equiv_pos_site_id
 _symmetry_equiv_pos_as_xyz
  1  'x, y, z'
loop_
 _atom_site_type_symbol
 _atom_site_label
 _atom_site_symmetry_multiplicity
 _atom_site_fract_x
 _atom_site_fract_y
 _atom_site_fract_z
 _atom_site_occupancy
  Ce  Ce0  1  0.997125  0.598235  0.508289  1
  Ce  Ce1  1  0.599461  0.998013  0.506593  1
  Ce  Ce2  1  0.407337  0.407319  0.503551  1
  Ce  Ce3  1  0.999000  0.411063  0.005697  1
  Ce  Ce4  1  0.412339  0.996854  0.001340  1
  Ce  Ce5  1  0.582873  0.579962  0.002780  1
  Ce  Ce6  1  0.995308  0.728447  0.172962  1
  Ce  Ce7  1  0.729867  0.994260  0.173671  1
  Ce  Ce8  1  0.273485  0.272458  0.170130  1
  Ce  Ce9  1  0.000414  0.266430  0.674196  1
  Ce  Ce10  1  0.266556  0.001519  0.673156  1
  Ce  Ce11  1  0.740747  0.742152  0.676505  1
  Al  Al12  1  0.665678  0.326844  0.277019  1
  Al  Al13  1  0.327271  0.665848  0.277450  1
  Al  Al14  1  0.335390  0.666571  0.770743  1
  Al  Al15  1  0.665356  0.331973  0.770410  1
  Al  Al16  1  0.003906  0.003873  0.418877  1
  Al  Al17  1  0.001916  0.003938  0.923436  1
  Ir  Ir18  1  0.999498  0.332438  0.336403  1
  Ir  Ir19  1  0.334601  0.000497  0.335810  1
  Ru  Ru20  1  0.657017  0.000715  0.838985  1
  Ru  Ru21  1  0.341322  0.341842  0.835666  1
  W  W22  1  0.663385  0.664157  0.338291  1
  W  W23  1  0.000146  0.664592  0.837285  1
