# generated using pymatgen
data_Ac3PtAu5
_symmetry_space_group_name_H-M   'P 1'
_cell_length_a   8.07772800
_cell_length_b   8.07772657
_cell_length_c   4.10501500
_cell_angle_alpha   90.00000000
_cell_angle_beta   90.00000000
_cell_angle_gamma   120.00000586
_symmetry_Int_Tables_number   1
_chemical_formula_structural   Ac3PtAu5
_chemical_formula_sum   'Ac3 Pt1 Au5'
_cell_volume   231.96567641
_cell_formula_units_Z   1
loop_
 _symmetry_equiv_pos_site_id
 _symmetry_equiv_pos_as_xyz
  1  'x, y, z'
loop_
 _atom_site_type_symbol
 _atom_site_label
 _atom_site_symmetry_multiplicity
 _atom_site_fract_x
 _atom_site_fract_y
 _atom_site_fract_z
 _atom_site_occupancy
  Ac  Ac0  1  0.613900  0.011890  0.000000  1
  Ac  Ac1  1  0.988110  0.602010  0.000000  1
  Ac  Ac2  1  0.397990  0.386100  0.000000  1
  Pt  Pt3  1  0.666667  0.333333  0.500000  1
  Au  Au4  1  0.270149  0.999207  0.500000  1
  Au  Au5  1  0.000793  0.270942  0.500000  1
  Au  Au6  1  0.729058  0.729851  0.500000  1
  Au  Au7  1  0.333333  0.666667  0.500000  1
  Au  Au8  1  0.000000  0.000000  0.000000  1
