# generated using pymatgen
data_Zr5CuSnSb2
_symmetry_space_group_name_H-M   'P 1'
_cell_length_a   8.65938291
_cell_length_b   8.66626952
_cell_length_c   5.84448000
_cell_angle_alpha   90.00000000
_cell_angle_beta   90.00000000
_cell_angle_gamma   120.02630185
_symmetry_Int_Tables_number   1
_chemical_formula_structural   Zr5CuSnSb2
_chemical_formula_sum   'Zr10 Cu2 Sn2 Sb4'
_cell_volume   379.73487091
_cell_formula_units_Z   2
loop_
 _symmetry_equiv_pos_site_id
 _symmetry_equiv_pos_as_xyz
  1  'x, y, z'
loop_
 _atom_site_type_symbol
 _atom_site_label
 _atom_site_symmetry_multiplicity
 _atom_site_fract_x
 _atom_site_fract_y
 _atom_site_fract_z
 _atom_site_occupancy
  Zr  Zr0  1  0.667365  0.333922  0.999463  1
  Zr  Zr1  1  0.332635  0.666558  0.999463  1
  Zr  Zr2  1  0.332635  0.666558  0.500537  1
  Zr  Zr3  1  0.667365  0.333922  0.500537  1
  Zr  Zr4  1  0.734673  0.734516  0.750000  1
  Zr  Zr5  1  0.265327  0.999843  0.750000  1
  Zr  Zr6  1  0.000000  0.266562  0.750000  1
  Zr  Zr7  1  0.264315  0.263920  0.250000  1
  Zr  Zr8  1  0.735685  0.999605  0.250000  1
  Zr  Zr9  1  0.000000  0.734558  0.250000  1
  Cu  Cu10  1  0.000000  0.000901  0.502677  1
  Cu  Cu11  1  0.000000  0.000901  0.997323  1
  Sn  Sn12  1  0.384231  0.384016  0.750000  1
  Sn  Sn13  1  0.615769  0.999785  0.750000  1
  Sb  Sb14  1  0.000000  0.615522  0.750000  1
  Sb  Sb15  1  0.613956  0.614563  0.250000  1
  Sb  Sb16  1  0.386044  0.000608  0.250000  1
  Sb  Sb17  1  0.000000  0.383739  0.250000  1
