# generated using pymatgen
data_Er5Tm5(Ga2Sb)2
_symmetry_space_group_name_H-M   'P 1'
_cell_length_a   8.58301802
_cell_length_b   8.60345304
_cell_length_c   6.45386000
_cell_angle_alpha   90.00104069
_cell_angle_beta   89.99801104
_cell_angle_gamma   120.07276584
_symmetry_Int_Tables_number   1
_chemical_formula_structural   Er5Tm5(Ga2Sb)2
_chemical_formula_sum   'Er5 Tm5 Ga4 Sb2'
_cell_volume   412.42414315
_cell_formula_units_Z   1
loop_
 _symmetry_equiv_pos_site_id
 _symmetry_equiv_pos_as_xyz
  1  'x, y, z'
loop_
 _atom_site_type_symbol
 _atom_site_label
 _atom_site_symmetry_multiplicity
 _atom_site_fract_x
 _atom_site_fract_y
 _atom_site_fract_z
 _atom_site_occupancy
  Er  Er0  1  0.986906  0.750375  0.749996  1
  Er  Er1  1  0.765699  0.766067  0.250010  1
  Er  Er2  1  0.765727  0.999823  0.749990  1
  Er  Er3  1  0.236271  0.249075  0.749989  1
  Er  Er4  1  0.236354  0.987308  0.250017  1
  Tm  Tm5  1  0.986848  0.236353  0.249998  1
  Tm  Tm6  1  0.331817  0.665870  0.499991  1
  Tm  Tm7  1  0.684630  0.342237  0.000080  1
  Tm  Tm8  1  0.684630  0.342240  0.499924  1
  Tm  Tm9  1  0.331818  0.665873  0.000013  1
  Ga  Ga10  1  0.001442  0.601255  0.249991  1
  Ga  Ga11  1  0.001467  0.400147  0.749996  1
  Ga  Ga12  1  0.597996  0.601405  0.750002  1
  Ga  Ga13  1  0.598237  0.996842  0.250003  1
  Sb  Sb14  1  0.395200  0.004216  0.750000  1
  Sb  Sb15  1  0.394959  0.390913  0.250002  1
