# generated using pymatgen
data_Gd3Er2Si3H
_symmetry_space_group_name_H-M   'P 1'
_cell_length_a   8.46586500
_cell_length_b   8.46586375
_cell_length_c   6.21599900
_cell_angle_alpha   90.00000000
_cell_angle_beta   90.00000000
_cell_angle_gamma   120.00000098
_symmetry_Int_Tables_number   1
_chemical_formula_structural   Gd3Er2Si3H
_chemical_formula_sum   'Gd6 Er4 Si6 H2'
_cell_volume   385.81950254
_cell_formula_units_Z   2
loop_
 _symmetry_equiv_pos_site_id
 _symmetry_equiv_pos_as_xyz
  1  'x, y, z'
loop_
 _atom_site_type_symbol
 _atom_site_label
 _atom_site_symmetry_multiplicity
 _atom_site_fract_x
 _atom_site_fract_y
 _atom_site_fract_z
 _atom_site_occupancy
  Gd  Gd0  1  0.748029  0.748029  0.750000  1
  Gd  Gd1  1  0.251971  0.000000  0.750000  1
  Gd  Gd2  1  0.000000  0.251971  0.750000  1
  Gd  Gd3  1  0.251971  0.251971  0.250000  1
  Gd  Gd4  1  0.748029  0.000000  0.250000  1
  Gd  Gd5  1  0.000000  0.748029  0.250000  1
  Er  Er6  1  0.666667  0.333333  0.000000  1
  Er  Er7  1  0.333333  0.666667  0.000000  1
  Er  Er8  1  0.333333  0.666667  0.500000  1
  Er  Er9  1  0.666667  0.333333  0.500000  1
  Si  Si10  1  0.392004  0.392004  0.750000  1
  Si  Si11  1  0.607996  0.000000  0.750000  1
  Si  Si12  1  0.000000  0.607996  0.750000  1
  Si  Si13  1  0.607996  0.607996  0.250000  1
  Si  Si14  1  0.392004  0.000000  0.250000  1
  Si  Si15  1  0.000000  0.392004  0.250000  1
  H  H16  1  0.000000  0.000000  0.500000  1
  H  H17  1  0.000000  0.000000  0.000000  1
