# generated using pymatgen
data_La4Th4Al8Pt7Rh
_symmetry_space_group_name_H-M   'P 1'
_cell_length_a   4.30284000
_cell_length_b   7.31313517
_cell_length_c   16.53218624
_cell_angle_alpha   89.50854082
_cell_angle_beta   90.00000000
_cell_angle_gamma   90.00000000
_symmetry_Int_Tables_number   1
_chemical_formula_structural   La4Th4Al8Pt7Rh
_chemical_formula_sum   'La4 Th4 Al8 Pt7 Rh1'
_cell_volume   520.20330885
_cell_formula_units_Z   1
loop_
 _symmetry_equiv_pos_site_id
 _symmetry_equiv_pos_as_xyz
  1  'x, y, z'
loop_
 _atom_site_type_symbol
 _atom_site_label
 _atom_site_symmetry_multiplicity
 _atom_site_fract_x
 _atom_site_fract_y
 _atom_site_fract_z
 _atom_site_occupancy
  La  La0  1  0.250000  0.648926  0.559754  1
  La  La1  1  0.750000  0.349737  0.442486  1
  La  La2  1  0.750000  0.853018  0.059413  1
  La  La3  1  0.250000  0.145760  0.939862  1
  Th  Th4  1  0.250000  0.519459  0.775734  1
  Th  Th5  1  0.750000  0.482332  0.224564  1
  Th  Th6  1  0.750000  0.983007  0.276332  1
  Th  Th7  1  0.250000  0.024129  0.719227  1
  Al  Al8  1  0.250000  0.657938  0.352562  1
  Al  Al9  1  0.750000  0.343323  0.647181  1
  Al  Al10  1  0.750000  0.843917  0.850814  1
  Al  Al11  1  0.250000  0.159118  0.147625  1
  Al  Al12  1  0.250000  0.509713  0.062538  1
  Al  Al13  1  0.750000  0.488941  0.937779  1
  Al  Al14  1  0.750000  0.990572  0.560713  1
  Al  Al15  1  0.250000  0.008824  0.439202  1
  Pt  Pt16  1  0.250000  0.763876  0.187783  1
  Pt  Pt17  1  0.750000  0.237223  0.812896  1
  Pt  Pt18  1  0.750000  0.737563  0.687766  1
  Pt  Pt19  1  0.250000  0.262343  0.312698  1
  Pt  Pt20  1  0.250000  0.706465  0.927818  1
  Pt  Pt21  1  0.750000  0.292538  0.072547  1
  Pt  Pt22  1  0.750000  0.788519  0.426877  1
  Rh  Rh23  1  0.250000  0.202757  0.575831  1
