# generated using pymatgen
data_Dy2Ga2CoNi5B2
_symmetry_space_group_name_H-M   'P 1'
_cell_length_a   5.15808426
_cell_length_b   5.16697209
_cell_length_c   6.74266217
_cell_angle_alpha   89.94138396
_cell_angle_beta   90.06004873
_cell_angle_gamma   119.89266816
_symmetry_Int_Tables_number   1
_chemical_formula_structural   Dy2Ga2CoNi5B2
_chemical_formula_sum   'Dy2 Ga2 Co1 Ni5 B2'
_cell_volume   155.79551953
_cell_formula_units_Z   1
loop_
 _symmetry_equiv_pos_site_id
 _symmetry_equiv_pos_as_xyz
  1  'x, y, z'
loop_
 _atom_site_type_symbol
 _atom_site_label
 _atom_site_symmetry_multiplicity
 _atom_site_fract_x
 _atom_site_fract_y
 _atom_site_fract_z
 _atom_site_occupancy
  Dy  Dy0  1  0.999951  0.999905  0.991014  1
  Dy  Dy1  1  0.000021  0.000000  0.498152  1
  Ga  Ga2  1  0.328394  0.664538  0.001015  1
  Ga  Ga3  1  0.671528  0.335385  0.001024  1
  Co  Co4  1  0.999885  0.500320  0.702033  1
  Ni  Ni5  1  0.500169  0.999848  0.295947  1
  Ni  Ni6  1  0.500106  0.499857  0.295262  1
  Ni  Ni7  1  0.000060  0.499701  0.300121  1
  Ni  Ni8  1  0.499813  0.000159  0.705117  1
  Ni  Ni9  1  0.499914  0.500197  0.705860  1
  B  B10  1  0.330659  0.664921  0.502235  1
  B  B11  1  0.669298  0.335167  0.502219  1
