# generated using pymatgen
data_Lu3Zr(Ga3Rh)6
_symmetry_space_group_name_H-M   'P 1'
_cell_length_a   7.53571733
_cell_length_b   7.52811942
_cell_length_c   9.45246200
_cell_angle_alpha   90.00000000
_cell_angle_beta   90.00000000
_cell_angle_gamma   119.81443891
_symmetry_Int_Tables_number   1
_chemical_formula_structural   Lu3Zr(Ga3Rh)6
_chemical_formula_sum   'Lu3 Zr1 Ga18 Rh6'
_cell_volume   465.25997975
_cell_formula_units_Z   1
loop_
 _symmetry_equiv_pos_site_id
 _symmetry_equiv_pos_as_xyz
  1  'x, y, z'
loop_
 _atom_site_type_symbol
 _atom_site_label
 _atom_site_symmetry_multiplicity
 _atom_site_fract_x
 _atom_site_fract_y
 _atom_site_fract_z
 _atom_site_occupancy
  Lu  Lu0  1  0.002682  0.329988  0.750000  1
  Lu  Lu1  1  0.670173  0.997985  0.250000  1
  Lu  Lu2  1  0.330260  0.002587  0.750000  1
  Zr  Zr3  1  0.997616  0.669379  0.250000  1
  Ga  Ga4  1  0.338097  0.550198  0.250000  1
  Ga  Ga5  1  0.660871  0.450770  0.750000  1
  Ga  Ga6  1  0.551615  0.340122  0.250000  1
  Ga  Ga7  1  0.450358  0.660561  0.750000  1
  Ga  Ga8  1  0.999432  0.336223  0.081585  1
  Ga  Ga9  1  0.000672  0.665065  0.920221  1
  Ga  Ga10  1  0.000672  0.665065  0.579779  1
  Ga  Ga11  1  0.333463  0.998332  0.418409  1
  Ga  Ga12  1  0.999432  0.336223  0.418415  1
  Ga  Ga13  1  0.665149  0.000327  0.580598  1
  Ga  Ga14  1  0.665149  0.000327  0.919402  1
  Ga  Ga15  1  0.333463  0.998332  0.081591  1
  Ga  Ga16  1  0.332044  0.332052  0.566904  1
  Ga  Ga17  1  0.669049  0.668086  0.432241  1
  Ga  Ga18  1  0.669049  0.668086  0.067759  1
  Ga  Ga19  1  0.332044  0.332052  0.933096  1
  Ga  Ga20  1  0.124842  0.124080  0.250000  1
  Ga  Ga21  1  0.873758  0.873901  0.750000  1
  Rh  Rh22  1  0.672509  0.328540  0.000321  1
  Rh  Rh23  1  0.327510  0.672116  0.000702  1
  Rh  Rh24  1  0.327510  0.672116  0.499298  1
  Rh  Rh25  1  0.672509  0.328540  0.499679  1
  Rh  Rh26  1  0.000037  0.999472  0.000346  1
  Rh  Rh27  1  0.000037  0.999472  0.499654  1
