# generated using pymatgen
data_ZrSc7(IrRu)4
_symmetry_space_group_name_H-M   'P 1'
_cell_length_a   6.39452500
_cell_length_b   4.59572500
_cell_length_c   9.19694400
_cell_angle_alpha   90.00000000
_cell_angle_beta   89.99968297
_cell_angle_gamma   90.00000000
_symmetry_Int_Tables_number   1
_chemical_formula_structural   ZrSc7(IrRu)4
_chemical_formula_sum   'Zr1 Sc7 Ir4 Ru4'
_cell_volume   270.27499320
_cell_formula_units_Z   1
loop_
 _symmetry_equiv_pos_site_id
 _symmetry_equiv_pos_as_xyz
  1  'x, y, z'
loop_
 _atom_site_type_symbol
 _atom_site_label
 _atom_site_symmetry_multiplicity
 _atom_site_fract_x
 _atom_site_fract_y
 _atom_site_fract_z
 _atom_site_occupancy
  Zr  Zr0  1  0.999648  0.750000  0.125013  1
  Sc  Sc1  1  0.499737  0.750000  0.125000  1
  Sc  Sc2  1  0.999880  0.250000  0.378641  1
  Sc  Sc3  1  0.499879  0.250000  0.376275  1
  Sc  Sc4  1  0.500179  0.750000  0.624996  1
  Sc  Sc5  1  0.000366  0.750000  0.625010  1
  Sc  Sc6  1  0.500106  0.250000  0.873723  1
  Sc  Sc7  1  0.000111  0.250000  0.871372  1
  Ir  Ir8  1  0.750170  0.250000  0.124997  1
  Ir  Ir9  1  0.249907  0.750000  0.374639  1
  Ir  Ir10  1  0.749781  0.250000  0.624998  1
  Ir  Ir11  1  0.250069  0.750000  0.875415  1
  Ru  Ru12  1  0.248620  0.250000  0.124959  1
  Ru  Ru13  1  0.750408  0.750000  0.373932  1
  Ru  Ru14  1  0.250628  0.250000  0.624947  1
  Ru  Ru15  1  0.750514  0.750000  0.876081  1
