# generated using pymatgen
data_Tb4Ga18NiRu4Rh
_symmetry_space_group_name_H-M   'P 1'
_cell_length_a   7.51059532
_cell_length_b   7.51059432
_cell_length_c   9.64013209
_cell_angle_alpha   90.29644111
_cell_angle_beta   90.29643054
_cell_angle_gamma   119.78556391
_symmetry_Int_Tables_number   1
_chemical_formula_structural   Tb4Ga18NiRu4Rh
_chemical_formula_sum   'Tb4 Ga18 Ni1 Ru4 Rh1'
_cell_volume   471.92562033
_cell_formula_units_Z   1
loop_
 _symmetry_equiv_pos_site_id
 _symmetry_equiv_pos_as_xyz
  1  'x, y, z'
loop_
 _atom_site_type_symbol
 _atom_site_label
 _atom_site_symmetry_multiplicity
 _atom_site_fract_x
 _atom_site_fract_y
 _atom_site_fract_z
 _atom_site_occupancy
  Tb  Tb0  1  0.997480  0.666986  0.249372  1
  Tb  Tb1  1  0.003841  0.333941  0.750523  1
  Tb  Tb2  1  0.666059  0.996159  0.249477  1
  Tb  Tb3  1  0.333014  0.002520  0.750628  1
  Ga  Ga4  1  0.122955  0.122319  0.247771  1
  Ga  Ga5  1  0.877681  0.877045  0.752229  1
  Ga  Ga6  1  0.003155  0.330420  0.076315  1
  Ga  Ga7  1  0.997296  0.669042  0.924415  1
  Ga  Ga8  1  0.997597  0.666996  0.576723  1
  Ga  Ga9  1  0.333004  0.002403  0.423277  1
  Ga  Ga10  1  0.004238  0.333927  0.423302  1
  Ga  Ga11  1  0.666073  0.995762  0.576698  1
  Ga  Ga12  1  0.669580  0.996845  0.923685  1
  Ga  Ga13  1  0.330958  0.002704  0.075585  1
  Ga  Ga14  1  0.333712  0.336158  0.561153  1
  Ga  Ga15  1  0.663842  0.666288  0.438847  1
  Ga  Ga16  1  0.667175  0.666916  0.058853  1
  Ga  Ga17  1  0.333084  0.332825  0.941147  1
  Ga  Ga18  1  0.336923  0.546666  0.249250  1
  Ga  Ga19  1  0.664270  0.455073  0.751769  1
  Ga  Ga20  1  0.544927  0.335730  0.248231  1
  Ga  Ga21  1  0.453334  0.663077  0.750750  1
  Ni  Ni22  1  0.000007  0.999993  0.000000  1
  Ru  Ru23  1  0.673539  0.326461  0.000000  1
  Ru  Ru24  1  0.327002  0.672998  0.000000  1
  Ru  Ru25  1  0.326743  0.673257  0.500000  1
  Ru  Ru26  1  0.000233  0.999767  0.500000  1
  Rh  Rh27  1  0.672277  0.327723  0.500000  1
