# generated using pymatgen
data_DyHo2Lu5Ga3Fe
_symmetry_space_group_name_H-M   'P 1'
_cell_length_a   9.77888600
_cell_length_b   9.78376960
_cell_length_c   6.96009624
_cell_angle_alpha   89.92338326
_cell_angle_beta   90.00000000
_cell_angle_gamma   119.98348951
_symmetry_Int_Tables_number   1
_chemical_formula_structural   DyHo2Lu5Ga3Fe
_chemical_formula_sum   'Dy2 Ho4 Lu10 Ga6 Fe2'
_cell_volume   576.78397965
_cell_formula_units_Z   2
loop_
 _symmetry_equiv_pos_site_id
 _symmetry_equiv_pos_as_xyz
  1  'x, y, z'
loop_
 _atom_site_type_symbol
 _atom_site_label
 _atom_site_symmetry_multiplicity
 _atom_site_fract_x
 _atom_site_fract_y
 _atom_site_fract_z
 _atom_site_occupancy
  Dy  Dy0  1  0.999999  0.999999  0.232623  1
  Dy  Dy1  1  0.000516  0.001033  0.732564  1
  Ho  Ho2  1  0.463254  0.926509  0.208921  1
  Ho  Ho3  1  0.535756  0.463829  0.708901  1
  Ho  Ho4  1  0.928073  0.463829  0.708901  1
  Ho  Ho5  1  0.535945  0.071891  0.709667  1
  Lu  Lu6  1  0.174067  0.824532  0.512226  1
  Lu  Lu7  1  0.650464  0.824532  0.512226  1
  Lu  Lu8  1  0.175284  0.350568  0.510925  1
  Lu  Lu9  1  0.826179  0.174973  0.014893  1
  Lu  Lu10  1  0.348795  0.174973  0.014893  1
  Lu  Lu11  1  0.825294  0.650589  0.015183  1
  Lu  Lu12  1  0.333017  0.666035  0.829233  1
  Lu  Lu13  1  0.667170  0.334340  0.328135  1
  Lu  Lu14  1  0.462534  0.536948  0.207170  1
  Lu  Lu15  1  0.074413  0.536948  0.207170  1
  Ga  Ga16  1  0.164098  0.835405  0.954663  1
  Ga  Ga17  1  0.671306  0.835405  0.954663  1
  Ga  Ga18  1  0.164591  0.329184  0.954118  1
  Ga  Ga19  1  0.835942  0.164061  0.454561  1
  Ga  Ga20  1  0.328120  0.164061  0.454561  1
  Ga  Ga21  1  0.835639  0.671279  0.454418  1
  Fe  Fe22  1  0.332796  0.665593  0.445059  1
  Fe  Fe23  1  0.666744  0.333486  0.949161  1
