# generated using pymatgen
data_Pr8Al(Si4Ir)3
_symmetry_space_group_name_H-M   'P 1'
_cell_length_a   8.28261100
_cell_length_b   8.28261165
_cell_length_c   8.62069800
_cell_angle_alpha   90.00000000
_cell_angle_beta   90.00000000
_cell_angle_gamma   120.00000139
_symmetry_Int_Tables_number   1
_chemical_formula_structural   Pr8Al(Si4Ir)3
_chemical_formula_sum   'Pr8 Al1 Si12 Ir3'
_cell_volume   512.16231592
_cell_formula_units_Z   1
loop_
 _symmetry_equiv_pos_site_id
 _symmetry_equiv_pos_as_xyz
  1  'x, y, z'
loop_
 _atom_site_type_symbol
 _atom_site_label
 _atom_site_symmetry_multiplicity
 _atom_site_fract_x
 _atom_site_fract_y
 _atom_site_fract_z
 _atom_site_occupancy
  Pr  Pr0  1  0.497344  0.502656  0.754369  1
  Pr  Pr1  1  0.498331  0.501669  0.245926  1
  Pr  Pr2  1  0.005311  0.502656  0.754369  1
  Pr  Pr3  1  0.003339  0.501669  0.245926  1
  Pr  Pr4  1  0.497344  0.994689  0.754369  1
  Pr  Pr5  1  0.498331  0.996661  0.245926  1
  Pr  Pr6  1  0.000000  0.000000  0.751610  1
  Pr  Pr7  1  0.000000  0.000000  0.247658  1
  Al  Al8  1  0.666667  0.333333  0.504328  1
  Si  Si9  1  0.832438  0.167562  0.999351  1
  Si  Si10  1  0.166960  0.833040  0.000442  1
  Si  Si11  1  0.335123  0.167562  0.999351  1
  Si  Si12  1  0.169065  0.830935  0.500673  1
  Si  Si13  1  0.666080  0.833040  0.000442  1
  Si  Si14  1  0.838197  0.161803  0.498619  1
  Si  Si15  1  0.832438  0.664877  0.999351  1
  Si  Si16  1  0.661870  0.830935  0.500673  1
  Si  Si17  1  0.166960  0.333920  0.000442  1
  Si  Si18  1  0.323606  0.161803  0.498619  1
  Si  Si19  1  0.169065  0.338130  0.500673  1
  Si  Si20  1  0.838197  0.676394  0.498619  1
  Ir  Ir21  1  0.666667  0.333333  0.998463  1
  Ir  Ir22  1  0.333333  0.666667  0.001181  1
  Ir  Ir23  1  0.333333  0.666667  0.498614  1
