# generated using pymatgen
data_DyHo7Re3B24Rh
_symmetry_space_group_name_H-M   'P 1'
_cell_length_a   3.67097900
_cell_length_b   9.14528808
_cell_length_c   11.52300213
_cell_angle_alpha   90.14554455
_cell_angle_beta   90.00000000
_cell_angle_gamma   90.00000000
_symmetry_Int_Tables_number   1
_chemical_formula_structural   DyHo7Re3B24Rh
_chemical_formula_sum   'Dy1 Ho7 Re3 B24 Rh1'
_cell_volume   386.85082857
_cell_formula_units_Z   1
loop_
 _symmetry_equiv_pos_site_id
 _symmetry_equiv_pos_as_xyz
  1  'x, y, z'
loop_
 _atom_site_type_symbol
 _atom_site_label
 _atom_site_symmetry_multiplicity
 _atom_site_fract_x
 _atom_site_fract_y
 _atom_site_fract_z
 _atom_site_occupancy
  Dy  Dy0  1  0.000000  0.318589  0.415415  1
  Ho  Ho1  1  0.000000  0.678266  0.591074  1
  Ho  Ho2  1  0.000000  0.827082  0.081318  1
  Ho  Ho3  1  0.000000  0.177152  0.912740  1
  Ho  Ho4  1  0.000000  0.943301  0.370004  1
  Ho  Ho5  1  0.000000  0.055724  0.628887  1
  Ho  Ho6  1  0.000000  0.441384  0.128990  1
  Ho  Ho7  1  0.000000  0.556685  0.871662  1
  Re  Re8  1  0.000000  0.362483  0.677769  1
  Re  Re9  1  0.000000  0.138205  0.179804  1
  Re  Re10  1  0.000000  0.861656  0.820960  1
  B  B11  1  0.500000  0.554200  0.433708  1
  B  B12  1  0.500000  0.446745  0.566785  1
  B  B13  1  0.500000  0.053351  0.066486  1
  B  B14  1  0.500000  0.947101  0.932788  1
  B  B15  1  0.500000  0.749030  0.420328  1
  B  B16  1  0.500000  0.250580  0.581131  1
  B  B17  1  0.500000  0.249285  0.081259  1
  B  B18  1  0.500000  0.751680  0.918898  1
  B  B19  1  0.500000  0.791103  0.265036  1
  B  B20  1  0.500000  0.208322  0.734134  1
  B  B21  1  0.500000  0.291763  0.235096  1
  B  B22  1  0.500000  0.708089  0.765813  1
  B  B23  1  0.500000  0.632041  0.184059  1
  B  B24  1  0.500000  0.369336  0.814171  1
  B  B25  1  0.500000  0.130813  0.314779  1
  B  B26  1  0.500000  0.868306  0.685498  1
  B  B27  1  0.500000  0.982893  0.211906  1
  B  B28  1  0.500000  0.017352  0.787082  1
  B  B29  1  0.500000  0.483469  0.287955  1
  B  B30  1  0.500000  0.518166  0.712417  1
  B  B31  1  0.500000  0.603980  0.029416  1
  B  B32  1  0.500000  0.397281  0.972115  1
  B  B33  1  0.500000  0.101914  0.470981  1
  B  B34  1  0.500000  0.894678  0.528317  1
  Rh  Rh35  1  0.000000  0.637997  0.321220  1
