# generated using pymatgen
data_Lu4TaMoOs6
_symmetry_space_group_name_H-M   'P 1'
_cell_length_a   5.40042143
_cell_length_b   5.37534451
_cell_length_c   8.88494000
_cell_angle_alpha   90.00000000
_cell_angle_beta   90.00000000
_cell_angle_gamma   121.88053042
_symmetry_Int_Tables_number   1
_chemical_formula_structural   Lu4TaMoOs6
_chemical_formula_sum   'Lu4 Ta1 Mo1 Os6'
_cell_volume   219.01481143
_cell_formula_units_Z   1
loop_
 _symmetry_equiv_pos_site_id
 _symmetry_equiv_pos_as_xyz
  1  'x, y, z'
loop_
 _atom_site_type_symbol
 _atom_site_label
 _atom_site_symmetry_multiplicity
 _atom_site_fract_x
 _atom_site_fract_y
 _atom_site_fract_z
 _atom_site_occupancy
  Lu  Lu0  1  0.336195  0.667537  0.433723  1
  Lu  Lu1  1  0.667958  0.338293  0.561078  1
  Lu  Lu2  1  0.667958  0.338293  0.938922  1
  Lu  Lu3  1  0.336195  0.667537  0.066277  1
  Ta  Ta4  1  0.164259  0.331479  0.750000  1
  Mo  Mo5  1  0.342405  0.171892  0.250000  1
  Os  Os6  1  0.174928  0.827482  0.750000  1
  Os  Os7  1  0.826049  0.655022  0.250000  1
  Os  Os8  1  0.650954  0.828416  0.750000  1
  Os  Os9  1  0.004162  0.000838  0.002514  1
  Os  Os10  1  0.824774  0.172374  0.250000  1
  Os  Os11  1  0.004162  0.000838  0.497486  1
