# generated using pymatgen
data_YHoFe2Si2B
_symmetry_space_group_name_H-M   'P 1'
_cell_length_a   5.71065225
_cell_length_b   5.71065158
_cell_length_c   6.80961395
_cell_angle_alpha   52.31650336
_cell_angle_beta   52.31650825
_cell_angle_gamma   41.17515336
_symmetry_Int_Tables_number   1
_chemical_formula_structural   YHoFe2Si2B
_chemical_formula_sum   'Y1 Ho1 Fe2 Si2 B1'
_cell_volume   110.72845866
_cell_formula_units_Z   1
loop_
 _symmetry_equiv_pos_site_id
 _symmetry_equiv_pos_as_xyz
  1  'x, y, z'
loop_
 _atom_site_type_symbol
 _atom_site_label
 _atom_site_symmetry_multiplicity
 _atom_site_fract_x
 _atom_site_fract_y
 _atom_site_fract_z
 _atom_site_occupancy
  Y  Y0  1  0.560945  0.560945  0.699351  1
  Ho  Ho1  1  0.439861  0.439861  0.299589  1
  Fe  Fe2  1  0.790159  0.790159  0.101536  1
  Fe  Fe3  1  0.209378  0.209378  0.898853  1
  Si  Si4  1  0.834777  0.834777  0.723850  1
  Si  Si5  1  0.165284  0.165284  0.275642  1
  B  B6  1  0.999596  0.999596  0.001179  1
