# generated using pymatgen
data_NdPaNi7Ir3
_symmetry_space_group_name_H-M   'P 1'
_cell_length_a   4.03256000
_cell_length_b   5.06344219
_cell_length_c   8.72013859
_cell_angle_alpha   93.42934313
_cell_angle_beta   90.00000000
_cell_angle_gamma   90.00000000
_symmetry_Int_Tables_number   1
_chemical_formula_structural   NdPaNi7Ir3
_chemical_formula_sum   'Nd1 Pa1 Ni7 Ir3'
_cell_volume   177.73448611
_cell_formula_units_Z   1
loop_
 _symmetry_equiv_pos_site_id
 _symmetry_equiv_pos_as_xyz
  1  'x, y, z'
loop_
 _atom_site_type_symbol
 _atom_site_label
 _atom_site_symmetry_multiplicity
 _atom_site_fract_x
 _atom_site_fract_y
 _atom_site_fract_z
 _atom_site_occupancy
  Nd  Nd0  1  0.000000  0.500000  0.500000  1
  Pa  Pa1  1  0.000000  0.000000  0.000000  1
  Ni  Ni2  1  0.000000  0.978261  0.324765  1
  Ni  Ni3  1  0.000000  0.494909  0.843366  1
  Ni  Ni4  1  0.000000  0.505091  0.156634  1
  Ni  Ni5  1  0.000000  0.021739  0.675235  1
  Ni  Ni6  1  0.500000  0.500000  0.000000  1
  Ni  Ni7  1  0.500000  0.735449  0.245819  1
  Ni  Ni8  1  0.500000  0.264551  0.754181  1
  Ir  Ir9  1  0.500000  0.000000  0.500000  1
  Ir  Ir10  1  0.500000  0.231410  0.231716  1
  Ir  Ir11  1  0.500000  0.768590  0.768284  1
