# generated using pymatgen
data_Ni3BiPbS2
_symmetry_space_group_name_H-M   'P 1'
_cell_length_a   6.87474779
_cell_length_b   6.87474831
_cell_length_c   7.89083763
_cell_angle_alpha   56.80309168
_cell_angle_beta   56.80309031
_cell_angle_gamma   73.25599703
_symmetry_Int_Tables_number   1
_chemical_formula_structural   Ni3BiPbS2
_chemical_formula_sum   'Ni6 Bi2 Pb2 S4'
_cell_volume   261.10381376
_cell_formula_units_Z   2
loop_
 _symmetry_equiv_pos_site_id
 _symmetry_equiv_pos_as_xyz
  1  'x, y, z'
loop_
 _atom_site_type_symbol
 _atom_site_label
 _atom_site_symmetry_multiplicity
 _atom_site_fract_x
 _atom_site_fract_y
 _atom_site_fract_z
 _atom_site_occupancy
  Ni  Ni0  1  0.736775  0.736775  0.275359  1
  Ni  Ni1  1  0.500000  0.000000  0.000000  1
  Ni  Ni2  1  0.736308  0.263692  0.000000  1
  Ni  Ni3  1  0.263692  0.736308  0.000000  1
  Ni  Ni4  1  0.263225  0.263225  0.724641  1
  Ni  Ni5  1  0.000000  0.500000  0.000000  1
  Bi  Bi6  1  0.503291  0.503291  0.245724  1
  Bi  Bi7  1  0.496709  0.496709  0.754276  1
  Pb  Pb8  1  0.003897  0.003897  0.254457  1
  Pb  Pb9  1  0.996103  0.996103  0.745543  1
  S  S10  1  0.471213  0.998021  0.288089  1
  S  S11  1  0.998021  0.471213  0.288089  1
  S  S12  1  0.528787  0.001979  0.711911  1
  S  S13  1  0.001979  0.528787  0.711911  1
