# generated using pymatgen
data_Yb6Sb2O11
_symmetry_space_group_name_H-M   'P 1'
_cell_length_a   5.72542357
_cell_length_b   5.68429305
_cell_length_c   22.56098496
_cell_angle_alpha   58.33029185
_cell_angle_beta   59.05906323
_cell_angle_gamma   59.85889127
_symmetry_Int_Tables_number   1
_chemical_formula_structural   Yb6Sb2O11
_chemical_formula_sum   'Yb12 Sb4 O22'
_cell_volume   508.14691043
_cell_formula_units_Z   2
loop_
 _symmetry_equiv_pos_site_id
 _symmetry_equiv_pos_as_xyz
  1  'x, y, z'
loop_
 _atom_site_type_symbol
 _atom_site_label
 _atom_site_symmetry_multiplicity
 _atom_site_fract_x
 _atom_site_fract_y
 _atom_site_fract_z
 _atom_site_occupancy
  Yb  Yb0  1  0.104600  0.337408  0.078840  1
  Yb  Yb1  1  0.444960  0.615930  0.108245  1
  Yb  Yb2  1  0.187112  0.360893  0.289448  1
  Yb  Yb3  1  0.364470  0.541380  0.387978  1
  Yb  Yb4  1  0.631215  0.796637  0.204866  1
  Yb  Yb5  1  0.229279  0.245748  0.578547  1
  Yb  Yb6  1  0.510038  0.507737  0.608568  1
  Yb  Yb7  1  0.216679  0.297927  0.791053  1
  Yb  Yb8  1  0.644078  0.867859  0.418924  1
  Yb  Yb9  1  0.456787  0.475296  0.889133  1
  Yb  Yb10  1  0.674703  0.746593  0.708522  1
  Yb  Yb11  1  0.720235  0.758784  0.916981  1
  Sb  Sb12  1  0.002543  0.048734  0.998326  1
  Sb  Sb13  1  0.908037  0.079047  0.249000  1
  Sb  Sb14  1  0.936848  0.962831  0.498330  1
  Sb  Sb15  1  0.962498  0.016004  0.747863  1
  O  O16  1  0.093915  0.399370  0.179669  1
  O  O17  1  0.229964  0.829913  0.191147  1
  O  O18  1  0.806819  0.403196  0.024920  1
  O  O19  1  0.770527  0.817155  0.084897  1
  O  O20  1  0.684815  0.224250  0.184057  1
  O  O21  1  0.589143  0.350520  0.300785  1
  O  O22  1  0.165983  0.196809  0.411246  1
  O  O23  1  0.115062  0.936219  0.317241  1
  O  O24  1  0.732877  0.750757  0.319086  1
  O  O25  1  0.584593  0.166489  0.469974  1
  O  O26  1  0.707278  0.063488  0.585677  1
  O  O27  1  0.138414  0.786247  0.682159  1
  O  O28  1  0.289155  0.695318  0.526788  1
  O  O29  1  0.350794  0.045976  0.999349  1
  O  O30  1  0.938141  0.611341  0.498233  1
  O  O31  1  0.762284  0.362279  0.677630  1
  O  O32  1  0.280058  0.185566  0.694256  1
  O  O33  1  0.782863  0.232324  0.814932  1
  O  O34  1  0.268871  0.697568  0.970314  1
  O  O35  1  0.193150  0.679492  0.813811  1
  O  O36  1  0.627496  0.859689  0.807344  1
  O  O37  1  0.889220  0.278721  0.912083  1
