# generated using pymatgen
data_Cd2SeO5
_symmetry_space_group_name_H-M   'P 1'
_cell_length_a   6.45271450
_cell_length_b   6.45271506
_cell_length_c   8.24176318
_cell_angle_alpha   66.21146604
_cell_angle_beta   66.21146713
_cell_angle_gamma   65.76264959
_symmetry_Int_Tables_number   1
_chemical_formula_structural   Cd2SeO5
_chemical_formula_sum   'Cd4 Se2 O10'
_cell_volume   274.45963706
_cell_formula_units_Z   2
loop_
 _symmetry_equiv_pos_site_id
 _symmetry_equiv_pos_as_xyz
  1  'x, y, z'
loop_
 _atom_site_type_symbol
 _atom_site_label
 _atom_site_symmetry_multiplicity
 _atom_site_fract_x
 _atom_site_fract_y
 _atom_site_fract_z
 _atom_site_occupancy
  Cd  Cd0  1  0.071705  0.071705  0.770992  1
  Cd  Cd1  1  0.928295  0.928295  0.229008  1
  Cd  Cd2  1  0.000000  0.500000  0.000000  1
  Cd  Cd3  1  0.500000  0.000000  0.000000  1
  Se  Se4  1  0.608524  0.608524  0.687354  1
  Se  Se5  1  0.391476  0.391476  0.312646  1
  O  O6  1  0.691310  0.304694  0.250196  1
  O  O7  1  0.695306  0.308690  0.749804  1
  O  O8  1  0.308690  0.695306  0.749804  1
  O  O9  1  0.304694  0.691310  0.250196  1
  O  O10  1  0.147681  0.147681  0.980841  1
  O  O11  1  0.852319  0.852319  0.019159  1
  O  O12  1  0.295706  0.295706  0.202015  1
  O  O13  1  0.704294  0.704294  0.797985  1
  O  O14  1  0.707464  0.707464  0.457790  1
  O  O15  1  0.292536  0.292536  0.542210  1
