# generated using pymatgen
data_Sc20(Bi3Sb)3
_symmetry_space_group_name_H-M   'P 1'
_cell_length_a   7.72705737
_cell_length_b   8.95841400
_cell_length_c   11.33763454
_cell_angle_alpha   90.00000000
_cell_angle_beta   90.03524992
_cell_angle_gamma   90.00000000
_symmetry_Int_Tables_number   1
_chemical_formula_structural   Sc20(Bi3Sb)3
_chemical_formula_sum   'Sc20 Bi9 Sb3'
_cell_volume   784.81561746
_cell_formula_units_Z   1
loop_
 _symmetry_equiv_pos_site_id
 _symmetry_equiv_pos_as_xyz
  1  'x, y, z'
loop_
 _atom_site_type_symbol
 _atom_site_label
 _atom_site_symmetry_multiplicity
 _atom_site_fract_x
 _atom_site_fract_y
 _atom_site_fract_z
 _atom_site_occupancy
  Sc  Sc0  1  0.022612  0.250000  0.511345  1
  Sc  Sc1  1  0.972164  0.750000  0.488186  1
  Sc  Sc2  1  0.472968  0.750000  0.011418  1
  Sc  Sc3  1  0.526253  0.250000  0.988571  1
  Sc  Sc4  1  0.352106  0.250000  0.281068  1
  Sc  Sc5  1  0.646236  0.750000  0.715154  1
  Sc  Sc6  1  0.146221  0.750000  0.785189  1
  Sc  Sc7  1  0.853509  0.250000  0.215164  1
  Sc  Sc8  1  0.182487  0.250000  0.783097  1
  Sc  Sc9  1  0.816076  0.750000  0.219004  1
  Sc  Sc10  1  0.315637  0.750000  0.281162  1
  Sc  Sc11  1  0.688860  0.250000  0.722332  1
  Sc  Sc12  1  0.192264  0.064576  0.058798  1
  Sc  Sc13  1  0.807842  0.935321  0.941008  1
  Sc  Sc14  1  0.306331  0.931376  0.559297  1
  Sc  Sc15  1  0.807842  0.564679  0.941008  1
  Sc  Sc16  1  0.695469  0.061970  0.439363  1
  Sc  Sc17  1  0.192264  0.435424  0.058798  1
  Sc  Sc18  1  0.695469  0.438030  0.439363  1
  Sc  Sc19  1  0.306331  0.568624  0.559297  1
  Bi  Bi20  1  0.409563  0.250000  0.540647  1
  Bi  Bi21  1  0.067589  0.004120  0.325619  1
  Bi  Bi22  1  0.933403  0.995411  0.674316  1
  Bi  Bi23  1  0.433081  0.995915  0.825809  1
  Bi  Bi24  1  0.933403  0.504589  0.674316  1
  Bi  Bi25  1  0.567122  0.003719  0.173900  1
  Bi  Bi26  1  0.067589  0.495880  0.325619  1
  Bi  Bi27  1  0.567122  0.496281  0.173900  1
  Bi  Bi28  1  0.433081  0.504085  0.825809  1
  Sb  Sb29  1  0.590228  0.750000  0.460680  1
  Sb  Sb30  1  0.090549  0.750000  0.039506  1
  Sb  Sb31  1  0.908333  0.250000  0.961255  1
