# generated using pymatgen
data_La10Co3Tc
_symmetry_space_group_name_H-M   'P 1'
_cell_length_a   9.11360151
_cell_length_b   9.08667537
_cell_length_c   7.22858928
_cell_angle_alpha   86.62895299
_cell_angle_beta   86.41956325
_cell_angle_gamma   42.96948264
_symmetry_Int_Tables_number   1
_chemical_formula_structural   La10Co3Tc
_chemical_formula_sum   'La10 Co3 Tc1'
_cell_volume   407.15014745
_cell_formula_units_Z   1
loop_
 _symmetry_equiv_pos_site_id
 _symmetry_equiv_pos_as_xyz
  1  'x, y, z'
loop_
 _atom_site_type_symbol
 _atom_site_label
 _atom_site_symmetry_multiplicity
 _atom_site_fract_x
 _atom_site_fract_y
 _atom_site_fract_z
 _atom_site_occupancy
  La  La0  1  0.008623  0.803645  0.909482  1
  La  La1  1  0.196360  0.984364  0.604597  1
  La  La2  1  0.990165  0.196760  0.103975  1
  La  La3  1  0.798078  0.012587  0.399816  1
  La  La4  1  0.357167  0.217379  0.828409  1
  La  La5  1  0.789443  0.637731  0.669047  1
  La  La6  1  0.639996  0.780551  0.166876  1
  La  La7  1  0.219970  0.354678  0.321686  1
  La  La8  1  0.573612  0.428211  0.752678  1
  La  La9  1  0.433750  0.567714  0.248139  1
  Co  Co10  1  0.401992  0.826390  0.921146  1
  Co  Co11  1  0.829176  0.392552  0.414438  1
  Co  Co12  1  0.595687  0.175465  0.082370  1
  Tc  Tc13  1  0.165982  0.621970  0.577340  1
