# generated using pymatgen
data_Ce2Pr3Ho3(CdIr)2
_symmetry_space_group_name_H-M   'P 1'
_cell_length_a   9.77660226
_cell_length_b   9.77660165
_cell_length_c   9.77660200
_cell_angle_alpha   59.99999883
_cell_angle_beta   60.00000089
_cell_angle_gamma   60.00000439
_symmetry_Int_Tables_number   1
_chemical_formula_structural   Ce2Pr3Ho3(CdIr)2
_chemical_formula_sum   'Ce4 Pr6 Ho6 Cd4 Ir4'
_cell_volume   660.76772072
_cell_formula_units_Z   2
loop_
 _symmetry_equiv_pos_site_id
 _symmetry_equiv_pos_as_xyz
  1  'x, y, z'
loop_
 _atom_site_type_symbol
 _atom_site_label
 _atom_site_symmetry_multiplicity
 _atom_site_fract_x
 _atom_site_fract_y
 _atom_site_fract_z
 _atom_site_occupancy
  Ce  Ce0  1  0.347809  0.347809  0.347809  1
  Ce  Ce1  1  0.347809  0.347809  0.956572  1
  Ce  Ce2  1  0.347809  0.956572  0.347809  1
  Ce  Ce3  1  0.956572  0.347809  0.347809  1
  Pr  Pr4  1  0.941368  0.558632  0.558632  1
  Pr  Pr5  1  0.558632  0.941368  0.941368  1
  Pr  Pr6  1  0.558632  0.941368  0.558632  1
  Pr  Pr7  1  0.941368  0.558632  0.941368  1
  Pr  Pr8  1  0.558632  0.558632  0.941368  1
  Pr  Pr9  1  0.941368  0.941368  0.558632  1
  Ho  Ho10  1  0.813882  0.186118  0.186118  1
  Ho  Ho11  1  0.186118  0.813882  0.813882  1
  Ho  Ho12  1  0.186118  0.813882  0.186118  1
  Ho  Ho13  1  0.813882  0.186118  0.813882  1
  Ho  Ho14  1  0.186118  0.186118  0.813882  1
  Ho  Ho15  1  0.813882  0.813882  0.186118  1
  Cd  Cd16  1  0.579216  0.579216  0.579216  1
  Cd  Cd17  1  0.579216  0.579216  0.262350  1
  Cd  Cd18  1  0.579216  0.262350  0.579216  1
  Cd  Cd19  1  0.262350  0.579216  0.579216  1
  Ir  Ir20  1  0.142729  0.142729  0.142729  1
  Ir  Ir21  1  0.142729  0.142729  0.571814  1
  Ir  Ir22  1  0.142729  0.571814  0.142729  1
  Ir  Ir23  1  0.571814  0.142729  0.142729  1
