# generated using pymatgen
data_Ta12Zn9Cu3N2
_symmetry_space_group_name_H-M   'P 1'
_cell_length_a   8.12183141
_cell_length_b   8.12183193
_cell_length_c   8.12183120
_cell_angle_alpha   59.97936820
_cell_angle_beta   59.97936277
_cell_angle_gamma   59.97936892
_symmetry_Int_Tables_number   1
_chemical_formula_structural   Ta12Zn9Cu3N2
_chemical_formula_sum   'Ta12 Zn9 Cu3 N2'
_cell_volume   378.65499333
_cell_formula_units_Z   1
loop_
 _symmetry_equiv_pos_site_id
 _symmetry_equiv_pos_as_xyz
  1  'x, y, z'
loop_
 _atom_site_type_symbol
 _atom_site_label
 _atom_site_symmetry_multiplicity
 _atom_site_fract_x
 _atom_site_fract_y
 _atom_site_fract_z
 _atom_site_occupancy
  Ta  Ta0  1  0.191467  0.808755  0.191467  1
  Ta  Ta1  1  0.441042  0.059439  0.441042  1
  Ta  Ta2  1  0.441245  0.058533  0.058533  1
  Ta  Ta3  1  0.441042  0.441042  0.059439  1
  Ta  Ta4  1  0.190561  0.808958  0.808958  1
  Ta  Ta5  1  0.058533  0.441245  0.058533  1
  Ta  Ta6  1  0.808958  0.808958  0.190561  1
  Ta  Ta7  1  0.059439  0.441042  0.441042  1
  Ta  Ta8  1  0.191467  0.191467  0.808755  1
  Ta  Ta9  1  0.808755  0.191467  0.191467  1
  Ta  Ta10  1  0.808958  0.190561  0.808958  1
  Ta  Ta11  1  0.058533  0.058533  0.441245  1
  Zn  Zn12  1  0.834757  0.500652  0.834757  1
  Zn  Zn13  1  0.415243  0.415243  0.749348  1
  Zn  Zn14  1  0.749348  0.415243  0.415243  1
  Zn  Zn15  1  0.417458  0.417458  0.417458  1
  Zn  Zn16  1  0.834757  0.834757  0.500652  1
  Zn  Zn17  1  0.415243  0.749348  0.415243  1
  Zn  Zn18  1  0.832542  0.832542  0.832542  1
  Zn  Zn19  1  0.500652  0.834757  0.834757  1
  Zn  Zn20  1  0.625000  0.625000  0.625000  1
  Cu  Cu21  1  0.625000  0.125000  0.625000  1
  Cu  Cu22  1  0.625000  0.625000  0.125000  1
  Cu  Cu23  1  0.125000  0.625000  0.625000  1
  N  N24  1  0.000167  0.000167  0.000167  1
  N  N25  1  0.249833  0.249833  0.249833  1
