# generated using pymatgen
data_Tb2Ho2Ga18Co5Pd
_symmetry_space_group_name_H-M   'P 1'
_cell_length_a   7.42056823
_cell_length_b   7.42056714
_cell_length_c   9.42361608
_cell_angle_alpha   89.85179781
_cell_angle_beta   89.85179772
_cell_angle_gamma   119.72540030
_symmetry_Int_Tables_number   1
_chemical_formula_structural   Tb2Ho2Ga18Co5Pd
_chemical_formula_sum   'Tb2 Ho2 Ga18 Co5 Pd1'
_cell_volume   450.62137596
_cell_formula_units_Z   1
loop_
 _symmetry_equiv_pos_site_id
 _symmetry_equiv_pos_as_xyz
  1  'x, y, z'
loop_
 _atom_site_type_symbol
 _atom_site_label
 _atom_site_symmetry_multiplicity
 _atom_site_fract_x
 _atom_site_fract_y
 _atom_site_fract_z
 _atom_site_occupancy
  Tb  Tb0  1  0.327065  0.002592  0.748690  1
  Tb  Tb1  1  0.002592  0.327065  0.748690  1
  Ho  Ho2  1  0.673224  0.997280  0.251335  1
  Ho  Ho3  1  0.997280  0.673224  0.251335  1
  Ga  Ga4  1  0.655425  0.998978  0.924851  1
  Ga  Ga5  1  0.335670  0.997851  0.427211  1
  Ga  Ga6  1  0.997851  0.335670  0.427210  1
  Ga  Ga7  1  0.344534  0.000106  0.077119  1
  Ga  Ga8  1  0.998978  0.655425  0.924851  1
  Ga  Ga9  1  0.000106  0.344534  0.077119  1
  Ga  Ga10  1  0.333396  0.333396  0.555349  1
  Ga  Ga11  1  0.343763  0.343763  0.938202  1
  Ga  Ga12  1  0.656935  0.656935  0.063939  1
  Ga  Ga13  1  0.666984  0.666984  0.442248  1
  Ga  Ga14  1  0.869190  0.869190  0.741777  1
  Ga  Ga15  1  0.130358  0.130358  0.258134  1
  Ga  Ga16  1  0.335970  0.554711  0.251557  1
  Ga  Ga17  1  0.554711  0.335970  0.251557  1
  Ga  Ga18  1  0.664000  0.446634  0.748378  1
  Ga  Ga19  1  0.446634  0.664000  0.748378  1
  Ga  Ga20  1  0.664340  0.001292  0.570805  1
  Ga  Ga21  1  0.001292  0.664340  0.570804  1
  Co  Co22  1  0.328930  0.670919  0.000536  1
  Co  Co23  1  0.670871  0.329055  0.499492  1
  Co  Co24  1  0.670919  0.328930  0.000536  1
  Co  Co25  1  0.329055  0.670871  0.499492  1
  Co  Co26  1  0.999660  0.999660  0.499274  1
  Pd  Pd27  1  0.000265  0.000265  0.001131  1
