# generated using pymatgen
data_Er3Pu(Ga3Co)6
_symmetry_space_group_name_H-M   'P 1'
_cell_length_a   7.39183202
_cell_length_b   7.36129481
_cell_length_c   9.37323300
_cell_angle_alpha   90.00000000
_cell_angle_beta   90.00000000
_cell_angle_gamma   119.77067628
_symmetry_Int_Tables_number   1
_chemical_formula_structural   Er3Pu(Ga3Co)6
_chemical_formula_sum   'Er3 Pu1 Ga18 Co6'
_cell_volume   442.71607238
_cell_formula_units_Z   1
loop_
 _symmetry_equiv_pos_site_id
 _symmetry_equiv_pos_as_xyz
  1  'x, y, z'
loop_
 _atom_site_type_symbol
 _atom_site_label
 _atom_site_symmetry_multiplicity
 _atom_site_fract_x
 _atom_site_fract_y
 _atom_site_fract_z
 _atom_site_occupancy
  Er  Er0  1  0.496332  0.168210  0.250000  1
  Er  Er1  1  0.169381  0.497657  0.250000  1
  Er  Er2  1  0.830833  0.502960  0.750000  1
  Pu  Pu3  1  0.501625  0.831193  0.750000  1
  Ga  Ga4  1  0.163417  0.950648  0.750000  1
  Ga  Ga5  1  0.836333  0.051778  0.250000  1
  Ga  Ga6  1  0.051082  0.836511  0.250000  1
  Ga  Ga7  1  0.948585  0.162194  0.750000  1
  Ga  Ga8  1  0.620199  0.620254  0.250000  1
  Ga  Ga9  1  0.377981  0.379345  0.750000  1
  Ga  Ga10  1  0.167076  0.167174  0.059396  1
  Ga  Ga11  1  0.833135  0.832487  0.559009  1
  Ga  Ga12  1  0.833135  0.832487  0.940991  1
  Ga  Ga13  1  0.167076  0.167174  0.440604  1
  Ga  Ga14  1  0.499990  0.834452  0.071739  1
  Ga  Ga15  1  0.501268  0.166348  0.572942  1
  Ga  Ga16  1  0.165042  0.500027  0.926909  1
  Ga  Ga17  1  0.834253  0.499189  0.427127  1
  Ga  Ga18  1  0.501268  0.166348  0.927058  1
  Ga  Ga19  1  0.499990  0.834452  0.428261  1
  Ga  Ga20  1  0.834253  0.499189  0.072873  1
  Ga  Ga21  1  0.165042  0.500027  0.573091  1
  Co  Co22  1  0.171522  0.829506  0.999176  1
  Co  Co23  1  0.499911  0.499002  0.500058  1
  Co  Co24  1  0.499911  0.499002  0.999942  1
  Co  Co25  1  0.829920  0.171440  0.500175  1
  Co  Co26  1  0.829920  0.171440  0.999825  1
  Co  Co27  1  0.171522  0.829506  0.500824  1
