# generated using pymatgen
data_Ho4NbOsRu6
_symmetry_space_group_name_H-M   'P 1'
_cell_length_a   5.52579359
_cell_length_b   5.19432348
_cell_length_c   9.10033900
_cell_angle_alpha   90.00000000
_cell_angle_beta   90.00000000
_cell_angle_gamma   122.15818629
_symmetry_Int_Tables_number   1
_chemical_formula_structural   Ho4NbOsRu6
_chemical_formula_sum   'Ho4 Nb1 Os1 Ru6'
_cell_volume   221.13127109
_cell_formula_units_Z   1
loop_
 _symmetry_equiv_pos_site_id
 _symmetry_equiv_pos_as_xyz
  1  'x, y, z'
loop_
 _atom_site_type_symbol
 _atom_site_label
 _atom_site_symmetry_multiplicity
 _atom_site_fract_x
 _atom_site_fract_y
 _atom_site_fract_z
 _atom_site_occupancy
  Ho  Ho0  1  0.668167  0.335805  0.571079  1
  Ho  Ho1  1  0.329933  0.659393  0.438789  1
  Ho  Ho2  1  0.329933  0.659393  0.061211  1
  Ho  Ho3  1  0.668167  0.335805  0.928921  1
  Nb  Nb4  1  0.835727  0.669592  0.250000  1
  Os  Os5  1  0.167439  0.334384  0.750000  1
  Ru  Ru6  1  0.000848  0.003362  0.504023  1
  Ru  Ru7  1  0.000848  0.003362  0.995977  1
  Ru  Ru8  1  0.168252  0.824259  0.750000  1
  Ru  Ru9  1  0.655610  0.823593  0.750000  1
  Ru  Ru10  1  0.830391  0.175436  0.250000  1
  Ru  Ru11  1  0.344685  0.175618  0.250000  1
