# generated using pymatgen
data_CeHg4Se2Br5
_symmetry_space_group_name_H-M   'P 1'
_cell_length_a   8.81408776
_cell_length_b   11.36871300
_cell_length_c   9.48328646
_cell_angle_alpha   90.00000000
_cell_angle_beta   114.14772320
_cell_angle_gamma   90.00000000
_symmetry_Int_Tables_number   1
_chemical_formula_structural   CeHg4Se2Br5
_chemical_formula_sum   'Ce2 Hg8 Se4 Br10'
_cell_volume   867.11648331
_cell_formula_units_Z   2
loop_
 _symmetry_equiv_pos_site_id
 _symmetry_equiv_pos_as_xyz
  1  'x, y, z'
loop_
 _atom_site_type_symbol
 _atom_site_label
 _atom_site_symmetry_multiplicity
 _atom_site_fract_x
 _atom_site_fract_y
 _atom_site_fract_z
 _atom_site_occupancy
  Ce  Ce0  1  0.503260  0.432678  0.509013  1
  Ce  Ce1  1  0.496740  0.932678  0.490987  1
  Hg  Hg2  1  0.925008  0.185701  0.332541  1
  Hg  Hg3  1  0.074992  0.685701  0.667459  1
  Hg  Hg4  1  0.949641  0.663806  0.362061  1
  Hg  Hg5  1  0.050359  0.163806  0.637939  1
  Hg  Hg6  1  0.498056  0.181815  0.989672  1
  Hg  Hg7  1  0.501944  0.681815  0.010328  1
  Hg  Hg8  1  0.799766  0.431956  0.019294  1
  Hg  Hg9  1  0.200234  0.931956  0.980706  1
  Se  Se10  1  0.800048  0.204643  0.028566  1
  Se  Se11  1  0.199952  0.704643  0.971434  1
  Se  Se12  1  0.194190  0.157405  0.942205  1
  Se  Se13  1  0.805810  0.657405  0.057795  1
  Br  Br14  1  0.848769  0.924703  0.688467  1
  Br  Br15  1  0.151231  0.424703  0.311533  1
  Br  Br16  1  0.856666  0.439448  0.718053  1
  Br  Br17  1  0.143334  0.939448  0.281947  1
  Br  Br18  1  0.408893  0.459515  0.770820  1
  Br  Br19  1  0.591107  0.959515  0.229180  1
  Br  Br20  1  0.594572  0.390941  0.254687  1
  Br  Br21  1  0.405428  0.890941  0.745313  1
  Br  Br22  1  0.496133  0.180993  0.570098  1
  Br  Br23  1  0.503867  0.680993  0.429902  1
