# generated using pymatgen
data_Nd2PSe
_symmetry_space_group_name_H-M   'P 1'
_cell_length_a   7.35401461
_cell_length_b   7.35401432
_cell_length_c   7.35401546
_cell_angle_alpha   33.08046025
_cell_angle_beta   33.08046699
_cell_angle_gamma   33.08046433
_symmetry_Int_Tables_number   1
_chemical_formula_structural   Nd2PSe
_chemical_formula_sum   'Nd2 P1 Se1'
_cell_volume   105.45594656
_cell_formula_units_Z   1
loop_
 _symmetry_equiv_pos_site_id
 _symmetry_equiv_pos_as_xyz
  1  'x, y, z'
loop_
 _atom_site_type_symbol
 _atom_site_label
 _atom_site_symmetry_multiplicity
 _atom_site_fract_x
 _atom_site_fract_y
 _atom_site_fract_z
 _atom_site_occupancy
  Nd  Nd0  1  0.243379  0.243379  0.243379  1
  Nd  Nd1  1  0.756621  0.756621  0.756621  1
  P  P2  1  0.500000  0.500000  0.500000  1
  Se  Se3  1  0.000000  0.000000  0.000000  1
