# generated using pymatgen
data_SrYHo2(Ir2O7)2
_symmetry_space_group_name_H-M   'P 1'
_cell_length_a   7.27706128
_cell_length_b   7.30218990
_cell_length_c   7.27457800
_cell_angle_alpha   60.12499732
_cell_angle_beta   60.01127867
_cell_angle_gamma   60.10836640
_symmetry_Int_Tables_number   1
_chemical_formula_structural   SrYHo2(Ir2O7)2
_chemical_formula_sum   'Sr1 Y1 Ho2 Ir4 O14'
_cell_volume   273.84371233
_cell_formula_units_Z   1
loop_
 _symmetry_equiv_pos_site_id
 _symmetry_equiv_pos_as_xyz
  1  'x, y, z'
loop_
 _atom_site_type_symbol
 _atom_site_label
 _atom_site_symmetry_multiplicity
 _atom_site_fract_x
 _atom_site_fract_y
 _atom_site_fract_z
 _atom_site_occupancy
  Sr  Sr0  1  0.125000  0.625000  0.125000  1
  Y  Y1  1  0.625000  0.125000  0.125000  1
  Ho  Ho2  1  0.125000  0.125000  0.625000  1
  Ho  Ho3  1  0.125000  0.125000  0.125000  1
  Ir  Ir4  1  0.125000  0.625000  0.625000  1
  Ir  Ir5  1  0.625000  0.125000  0.625000  1
  Ir  Ir6  1  0.625000  0.625000  0.125000  1
  Ir  Ir7  1  0.625000  0.625000  0.625000  1
  O  O8  1  0.692152  0.719217  0.294315  1
  O  O9  1  0.292428  0.290057  0.708757  1
  O  O10  1  0.709104  0.290434  0.707672  1
  O  O11  1  0.293877  0.720395  0.293876  1
  O  O12  1  0.293877  0.720395  0.691851  1
  O  O13  1  0.709104  0.290434  0.292790  1
  O  O14  1  0.557848  0.530783  0.955685  1
  O  O15  1  0.957572  0.959943  0.541243  1
  O  O16  1  0.540896  0.959566  0.542328  1
  O  O17  1  0.956123  0.529605  0.956124  1
  O  O18  1  0.956123  0.529605  0.558149  1
  O  O19  1  0.540896  0.959566  0.957210  1
  O  O20  1  0.256088  0.227001  0.258456  1
  O  O21  1  0.993912  0.022999  0.991544  1
