# generated using pymatgen
data_Hf3Zr7BeGaSn6
_symmetry_space_group_name_H-M   'P 1'
_cell_length_a   8.67501300
_cell_length_b   8.67501183
_cell_length_c   5.84293300
_cell_angle_alpha   90.00000000
_cell_angle_beta   90.00000000
_cell_angle_gamma   120.00000826
_symmetry_Int_Tables_number   1
_chemical_formula_structural   Hf3Zr7BeGaSn6
_chemical_formula_sum   'Hf3 Zr7 Be1 Ga1 Sn6'
_cell_volume   380.80418450
_cell_formula_units_Z   1
loop_
 _symmetry_equiv_pos_site_id
 _symmetry_equiv_pos_as_xyz
  1  'x, y, z'
loop_
 _atom_site_type_symbol
 _atom_site_label
 _atom_site_symmetry_multiplicity
 _atom_site_fract_x
 _atom_site_fract_y
 _atom_site_fract_z
 _atom_site_occupancy
  Hf  Hf0  1  0.333333  0.666667  0.000000  1
  Hf  Hf1  1  0.333333  0.666667  0.500000  1
  Hf  Hf2  1  0.666667  0.333333  0.500000  1
  Zr  Zr3  1  0.740362  0.740447  0.761463  1
  Zr  Zr4  1  0.259553  0.999915  0.761463  1
  Zr  Zr5  1  0.000085  0.259638  0.761463  1
  Zr  Zr6  1  0.259553  0.259638  0.238537  1
  Zr  Zr7  1  0.740362  0.999915  0.238537  1
  Zr  Zr8  1  0.000085  0.740447  0.238537  1
  Zr  Zr9  1  0.666667  0.333333  0.000000  1
  Be  Be10  1  0.000000  0.000000  0.000000  1
  Ga  Ga11  1  0.000000  0.000000  0.500000  1
  Sn  Sn12  1  0.389214  0.389391  0.745729  1
  Sn  Sn13  1  0.610609  0.999823  0.745729  1
  Sn  Sn14  1  0.000177  0.610786  0.745729  1
  Sn  Sn15  1  0.610609  0.610786  0.254271  1
  Sn  Sn16  1  0.389214  0.999823  0.254271  1
  Sn  Sn17  1  0.000177  0.389391  0.254271  1
