# generated using pymatgen
data_Nd8Er12Si15Ir
_symmetry_space_group_name_H-M   'P 1'
_cell_length_a   7.44006303
_cell_length_b   14.72311600
_cell_length_c   7.81846799
_cell_angle_alpha   90.00000000
_cell_angle_beta   90.10179232
_cell_angle_gamma   90.00000000
_symmetry_Int_Tables_number   1
_chemical_formula_structural   Nd8Er12Si15Ir
_chemical_formula_sum   'Nd8 Er12 Si15 Ir1'
_cell_volume   856.44075459
_cell_formula_units_Z   1
loop_
 _symmetry_equiv_pos_site_id
 _symmetry_equiv_pos_as_xyz
  1  'x, y, z'
loop_
 _atom_site_type_symbol
 _atom_site_label
 _atom_site_symmetry_multiplicity
 _atom_site_fract_x
 _atom_site_fract_y
 _atom_site_fract_z
 _atom_site_occupancy
  Nd  Nd0  1  0.020578  0.097026  0.180744  1
  Nd  Nd1  1  0.020578  0.402974  0.180744  1
  Nd  Nd2  1  0.519863  0.097154  0.320993  1
  Nd  Nd3  1  0.519863  0.402846  0.320993  1
  Nd  Nd4  1  0.479382  0.596365  0.678526  1
  Nd  Nd5  1  0.479382  0.903635  0.678526  1
  Nd  Nd6  1  0.982854  0.597070  0.824692  1
  Nd  Nd7  1  0.982854  0.902930  0.824692  1
  Er  Er8  1  0.344933  0.250000  0.011697  1
  Er  Er9  1  0.313351  0.625822  0.174285  1
  Er  Er10  1  0.313351  0.874177  0.174285  1
  Er  Er11  1  0.828327  0.625427  0.317455  1
  Er  Er12  1  0.828327  0.874572  0.317455  1
  Er  Er13  1  0.845436  0.250000  0.488193  1
  Er  Er14  1  0.148557  0.750000  0.506109  1
  Er  Er15  1  0.179188  0.123930  0.678834  1
  Er  Er16  1  0.179188  0.376069  0.678834  1
  Er  Er17  1  0.679740  0.124288  0.823276  1
  Er  Er18  1  0.679740  0.375711  0.823276  1
  Er  Er19  1  0.663343  0.750000  0.993496  1
  Si  Si20  1  0.646877  0.538362  0.030940  1
  Si  Si21  1  0.646877  0.961638  0.030940  1
  Si  Si22  1  0.725127  0.250000  0.122836  1
  Si  Si23  1  0.225479  0.250000  0.375973  1
  Si  Si24  1  0.524433  0.750000  0.393263  1
  Si  Si25  1  0.149875  0.538193  0.472605  1
  Si  Si26  1  0.149875  0.961807  0.472605  1
  Si  Si27  1  0.852506  0.038829  0.532211  1
  Si  Si28  1  0.852506  0.461170  0.532211  1
  Si  Si29  1  0.474082  0.250000  0.613135  1
  Si  Si30  1  0.765944  0.750000  0.620881  1
  Si  Si31  1  0.273432  0.750000  0.873318  1
  Si  Si32  1  0.973879  0.250000  0.885404  1
  Si  Si33  1  0.352900  0.039238  0.968177  1
  Si  Si34  1  0.352900  0.460761  0.968177  1
  Ir  Ir35  1  0.024473  0.750000  0.110219  1
