# generated using pymatgen
data_Er5Tm3B24(MoRh)2
_symmetry_space_group_name_H-M   'P 1'
_cell_length_a   3.63869000
_cell_length_b   9.13532251
_cell_length_c   11.53647102
_cell_angle_alpha   90.39912204
_cell_angle_beta   90.00000000
_cell_angle_gamma   90.00000000
_symmetry_Int_Tables_number   1
_chemical_formula_structural   Er5Tm3B24(MoRh)2
_chemical_formula_sum   'Er5 Tm3 B24 Mo2 Rh2'
_cell_volume   383.46999121
_cell_formula_units_Z   1
loop_
 _symmetry_equiv_pos_site_id
 _symmetry_equiv_pos_as_xyz
  1  'x, y, z'
loop_
 _atom_site_type_symbol
 _atom_site_label
 _atom_site_symmetry_multiplicity
 _atom_site_fract_x
 _atom_site_fract_y
 _atom_site_fract_z
 _atom_site_occupancy
  Er  Er0  1  0.500000  0.318713  0.411837  1
  Er  Er1  1  0.500000  0.681182  0.588221  1
  Er  Er2  1  0.500000  0.174834  0.916818  1
  Er  Er3  1  0.500000  0.825167  0.083064  1
  Er  Er4  1  0.500000  0.443478  0.126789  1
  Tm  Tm5  1  0.500000  0.556609  0.873018  1
  Tm  Tm6  1  0.500000  0.054792  0.628029  1
  Tm  Tm7  1  0.500000  0.945197  0.372016  1
  B  B8  1  0.000000  0.106283  0.472005  1
  B  B9  1  0.000000  0.893694  0.528019  1
  B  B10  1  0.000000  0.395229  0.970002  1
  B  B11  1  0.000000  0.605118  0.029431  1
  B  B12  1  0.000000  0.132311  0.317798  1
  B  B13  1  0.000000  0.867595  0.682247  1
  B  B14  1  0.000000  0.368500  0.815782  1
  B  B15  1  0.000000  0.631881  0.184249  1
  B  B16  1  0.000000  0.051730  0.065924  1
  B  B17  1  0.000000  0.948136  0.934008  1
  B  B18  1  0.000000  0.446021  0.565542  1
  B  B19  1  0.000000  0.554006  0.434545  1
  B  B20  1  0.000000  0.483491  0.288434  1
  B  B21  1  0.000000  0.516624  0.711790  1
  B  B22  1  0.000000  0.020584  0.786029  1
  B  B23  1  0.000000  0.979383  0.213987  1
  B  B24  1  0.000000  0.250338  0.079329  1
  B  B25  1  0.000000  0.749302  0.920580  1
  B  B26  1  0.000000  0.250185  0.579187  1
  B  B27  1  0.000000  0.749888  0.420848  1
  B  B28  1  0.000000  0.295778  0.236742  1
  B  B29  1  0.000000  0.703900  0.763379  1
  B  B30  1  0.000000  0.208589  0.734072  1
  B  B31  1  0.000000  0.791542  0.265940  1
  Mo  Mo32  1  0.500000  0.139295  0.181563  1
  Mo  Mo33  1  0.500000  0.860344  0.818435  1
  Rh  Rh34  1  0.500000  0.361421  0.678327  1
  Rh  Rh35  1  0.500000  0.638858  0.322013  1
