# generated using pymatgen
data_Li3La4AlIr4
_symmetry_space_group_name_H-M   'P 1'
_cell_length_a   4.12912700
_cell_length_b   7.16650949
_cell_length_c   8.56920722
_cell_angle_alpha   89.60669241
_cell_angle_beta   90.00000000
_cell_angle_gamma   90.00000000
_symmetry_Int_Tables_number   1
_chemical_formula_structural   Li3La4AlIr4
_chemical_formula_sum   'Li3 La4 Al1 Ir4'
_cell_volume   253.56910270
_cell_formula_units_Z   1
loop_
 _symmetry_equiv_pos_site_id
 _symmetry_equiv_pos_as_xyz
  1  'x, y, z'
loop_
 _atom_site_type_symbol
 _atom_site_label
 _atom_site_symmetry_multiplicity
 _atom_site_fract_x
 _atom_site_fract_y
 _atom_site_fract_z
 _atom_site_occupancy
  Li  Li0  1  0.250000  0.129956  0.052662  1
  Li  Li1  1  0.250000  0.628186  0.443880  1
  Li  Li2  1  0.750000  0.876540  0.949884  1
  La  La3  1  0.250000  0.034783  0.684451  1
  La  La4  1  0.250000  0.540881  0.816399  1
  La  La5  1  0.750000  0.956718  0.319862  1
  La  La6  1  0.750000  0.464243  0.181342  1
  Al  Al7  1  0.750000  0.368845  0.554953  1
  Ir  Ir8  1  0.250000  0.261241  0.398001  1
  Ir  Ir9  1  0.250000  0.747208  0.128127  1
  Ir  Ir10  1  0.750000  0.733929  0.615126  1
  Ir  Ir11  1  0.750000  0.257467  0.855316  1
