# generated using pymatgen
data_Ho4Tm8CuNi4Sn
_symmetry_space_group_name_H-M   'P 1'
_cell_length_a   8.26683369
_cell_length_b   8.26683291
_cell_length_c   8.26683300
_cell_angle_alpha   112.43753876
_cell_angle_beta   109.09096439
_cell_angle_gamma   106.93311433
_symmetry_Int_Tables_number   1
_chemical_formula_structural   Ho4Tm8CuNi4Sn
_chemical_formula_sum   'Ho4 Tm8 Cu1 Ni4 Sn1'
_cell_volume   433.88119973
_cell_formula_units_Z   1
loop_
 _symmetry_equiv_pos_site_id
 _symmetry_equiv_pos_as_xyz
  1  'x, y, z'
loop_
 _atom_site_type_symbol
 _atom_site_label
 _atom_site_symmetry_multiplicity
 _atom_site_fract_x
 _atom_site_fract_y
 _atom_site_fract_z
 _atom_site_occupancy
  Ho  Ho0  1  0.180459  0.792877  0.973337  1
  Ho  Ho1  1  0.819541  0.792877  0.612417  1
  Ho  Ho2  1  0.180459  0.207123  0.387583  1
  Ho  Ho3  1  0.819541  0.207123  0.026663  1
  Tm  Tm4  1  0.324248  0.131383  0.807134  1
  Tm  Tm5  1  0.675752  0.482887  0.807134  1
  Tm  Tm6  1  0.413766  0.718788  0.694978  1
  Tm  Tm7  1  0.586234  0.281212  0.305022  1
  Tm  Tm8  1  0.976189  0.281212  0.694978  1
  Tm  Tm9  1  0.023811  0.718788  0.305022  1
  Tm  Tm10  1  0.324248  0.517113  0.192866  1
  Tm  Tm11  1  0.675752  0.868617  0.192866  1
  Cu  Cu12  1  0.000000  0.500000  0.500000  1
  Ni  Ni13  1  0.873220  0.873220  0.000000  1
  Ni  Ni14  1  0.126780  0.126780  0.000000  1
  Ni  Ni15  1  0.640529  0.500000  0.140529  1
  Ni  Ni16  1  0.359471  0.500000  0.859471  1
  Sn  Sn17  1  0.500000  0.000000  0.500000  1
