# generated using pymatgen
data_Nb12Al9Co3C4
_symmetry_space_group_name_H-M   'P 1'
_cell_length_a   8.29404373
_cell_length_b   8.29404412
_cell_length_c   8.29404347
_cell_angle_alpha   59.94433481
_cell_angle_beta   59.94433369
_cell_angle_gamma   59.94433619
_symmetry_Int_Tables_number   1
_chemical_formula_structural   Nb12Al9Co3C4
_chemical_formula_sum   'Nb12 Al9 Co3 C4'
_cell_volume   402.93530765
_cell_formula_units_Z   1
loop_
 _symmetry_equiv_pos_site_id
 _symmetry_equiv_pos_as_xyz
  1  'x, y, z'
loop_
 _atom_site_type_symbol
 _atom_site_label
 _atom_site_symmetry_multiplicity
 _atom_site_fract_x
 _atom_site_fract_y
 _atom_site_fract_z
 _atom_site_occupancy
  Nb  Nb0  1  0.687187  0.312859  0.687187  1
  Nb  Nb1  1  0.937141  0.562813  0.562813  1
  Nb  Nb2  1  0.560990  0.937925  0.937925  1
  Nb  Nb3  1  0.937925  0.560990  0.937925  1
  Nb  Nb4  1  0.562813  0.562813  0.937141  1
  Nb  Nb5  1  0.937925  0.937925  0.560990  1
  Nb  Nb6  1  0.687187  0.687187  0.312859  1
  Nb  Nb7  1  0.312859  0.687187  0.687187  1
  Nb  Nb8  1  0.689010  0.312075  0.312075  1
  Nb  Nb9  1  0.312075  0.312075  0.689010  1
  Nb  Nb10  1  0.562813  0.937141  0.562813  1
  Nb  Nb11  1  0.312075  0.689010  0.312075  1
  Al  Al12  1  0.125000  0.125000  0.125000  1
  Al  Al13  1  0.333071  0.333071  0.333071  1
  Al  Al14  1  0.248689  0.909491  0.909491  1
  Al  Al15  1  0.909491  0.248689  0.909491  1
  Al  Al16  1  0.909491  0.909491  0.248689  1
  Al  Al17  1  0.340509  0.001311  0.340509  1
  Al  Al18  1  0.340509  0.340509  0.001311  1
  Al  Al19  1  0.001311  0.340509  0.340509  1
  Al  Al20  1  0.916929  0.916929  0.916929  1
  Co  Co21  1  0.625000  0.125000  0.125000  1
  Co  Co22  1  0.125000  0.625000  0.125000  1
  Co  Co23  1  0.125000  0.125000  0.625000  1
  C  C24  1  0.625000  0.625000  0.625000  1
  C  C25  1  0.125000  0.625000  0.625000  1
  C  C26  1  0.625000  0.125000  0.625000  1
  C  C27  1  0.625000  0.625000  0.125000  1
