# generated using pymatgen
data_La2Ce2Al18RePd5
_symmetry_space_group_name_H-M   'P 1'
_cell_length_a   7.74454675
_cell_length_b   7.72217538
_cell_length_c   9.64004404
_cell_angle_alpha   89.76892785
_cell_angle_beta   89.89682011
_cell_angle_gamma   119.25017489
_symmetry_Int_Tables_number   1
_chemical_formula_structural   La2Ce2Al18RePd5
_chemical_formula_sum   'La2 Ce2 Al18 Re1 Pd5'
_cell_volume   503.00210312
_cell_formula_units_Z   1
loop_
 _symmetry_equiv_pos_site_id
 _symmetry_equiv_pos_as_xyz
  1  'x, y, z'
loop_
 _atom_site_type_symbol
 _atom_site_label
 _atom_site_symmetry_multiplicity
 _atom_site_fract_x
 _atom_site_fract_y
 _atom_site_fract_z
 _atom_site_occupancy
  La  La0  1  0.673565  0.996219  0.249315  1
  La  La1  1  0.326435  0.003781  0.750685  1
  Ce  Ce2  1  0.996019  0.675726  0.246571  1
  Ce  Ce3  1  0.003981  0.324274  0.753429  1
  Al  Al4  1  0.135473  0.135177  0.247032  1
  Al  Al5  1  0.864527  0.864823  0.752968  1
  Al  Al6  1  0.003360  0.333479  0.073774  1
  Al  Al7  1  0.996640  0.666521  0.926226  1
  Al  Al8  1  0.995156  0.660485  0.574678  1
  Al  Al9  1  0.335718  0.004259  0.420817  1
  Al  Al10  1  0.004844  0.339515  0.425322  1
  Al  Al11  1  0.664282  0.995741  0.579183  1
  Al  Al12  1  0.668707  0.997108  0.925115  1
  Al  Al13  1  0.331293  0.002892  0.074885  1
  Al  Al14  1  0.334579  0.336319  0.551663  1
  Al  Al15  1  0.665421  0.663682  0.448337  1
  Al  Al16  1  0.669816  0.669238  0.045333  1
  Al  Al17  1  0.330184  0.330763  0.954667  1
  Al  Al18  1  0.339973  0.546503  0.250131  1
  Al  Al19  1  0.660027  0.453497  0.749869  1
  Al  Al20  1  0.549015  0.348742  0.249780  1
  Al  Al21  1  0.450985  0.651258  0.750220  1
  Re  Re22  1  0.000000  0.000000  0.000000  1
  Pd  Pd23  1  0.670708  0.329265  0.000225  1
  Pd  Pd24  1  0.329292  0.670735  0.999775  1
  Pd  Pd25  1  0.329311  0.672430  0.499851  1
  Pd  Pd26  1  0.670689  0.327570  0.500149  1
  Pd  Pd27  1  0.000000  0.000000  0.500000  1
