# generated using pymatgen
data_YbSm4Er3(B6Ru)4
_symmetry_space_group_name_H-M   'P 1'
_cell_length_a   3.68689000
_cell_length_b   9.15570905
_cell_length_c   11.56243606
_cell_angle_alpha   90.01153913
_cell_angle_beta   90.00000000
_cell_angle_gamma   90.00000000
_symmetry_Int_Tables_number   1
_chemical_formula_structural   YbSm4Er3(B6Ru)4
_chemical_formula_sum   'Yb1 Sm4 Er3 B24 Ru4'
_cell_volume   390.30264888
_cell_formula_units_Z   1
loop_
 _symmetry_equiv_pos_site_id
 _symmetry_equiv_pos_as_xyz
  1  'x, y, z'
loop_
 _atom_site_type_symbol
 _atom_site_label
 _atom_site_symmetry_multiplicity
 _atom_site_fract_x
 _atom_site_fract_y
 _atom_site_fract_z
 _atom_site_occupancy
  Yb  Yb0  1  0.000000  0.557363  0.870727  1
  Sm  Sm1  1  0.000000  0.322553  0.415382  1
  Sm  Sm2  1  0.000000  0.676983  0.587526  1
  Sm  Sm3  1  0.000000  0.821418  0.083514  1
  Sm  Sm4  1  0.000000  0.178614  0.913607  1
  Er  Er5  1  0.000000  0.942624  0.371350  1
  Er  Er6  1  0.000000  0.057025  0.628801  1
  Er  Er7  1  0.000000  0.443343  0.127549  1
  B  B8  1  0.500000  0.554809  0.431605  1
  B  B9  1  0.500000  0.445026  0.569215  1
  B  B10  1  0.500000  0.055408  0.068550  1
  B  B11  1  0.500000  0.945060  0.930964  1
  B  B12  1  0.500000  0.749051  0.418161  1
  B  B13  1  0.500000  0.250770  0.582280  1
  B  B14  1  0.500000  0.249538  0.081755  1
  B  B15  1  0.500000  0.750920  0.917280  1
  B  B16  1  0.500000  0.789702  0.266029  1
  B  B17  1  0.500000  0.210561  0.733672  1
  B  B18  1  0.500000  0.290406  0.233616  1
  B  B19  1  0.500000  0.709857  0.766791  1
  B  B20  1  0.500000  0.629943  0.184389  1
  B  B21  1  0.500000  0.370800  0.814822  1
  B  B22  1  0.500000  0.129832  0.315043  1
  B  B23  1  0.500000  0.870112  0.685634  1
  B  B24  1  0.500000  0.983629  0.213214  1
  B  B25  1  0.500000  0.016571  0.786837  1
  B  B26  1  0.500000  0.483893  0.286444  1
  B  B27  1  0.500000  0.515754  0.713693  1
  B  B28  1  0.500000  0.602324  0.028502  1
  B  B29  1  0.500000  0.397284  0.972233  1
  B  B30  1  0.500000  0.103001  0.471682  1
  B  B31  1  0.500000  0.896567  0.528322  1
  Ru  Ru32  1  0.000000  0.637848  0.320566  1
  Ru  Ru33  1  0.000000  0.361047  0.679941  1
  Ru  Ru34  1  0.000000  0.138444  0.180979  1
  Ru  Ru35  1  0.000000  0.861920  0.819325  1
