# generated using pymatgen
data_Zr10PdPb7
_symmetry_space_group_name_H-M   'P 1'
_cell_length_a   8.92743000
_cell_length_b   8.92742935
_cell_length_c   6.03093500
_cell_angle_alpha   90.00000000
_cell_angle_beta   90.00000000
_cell_angle_gamma   119.99999499
_symmetry_Int_Tables_number   1
_chemical_formula_structural   Zr10PdPb7
_chemical_formula_sum   'Zr10 Pd1 Pb7'
_cell_volume   416.26335194
_cell_formula_units_Z   1
loop_
 _symmetry_equiv_pos_site_id
 _symmetry_equiv_pos_as_xyz
  1  'x, y, z'
loop_
 _atom_site_type_symbol
 _atom_site_label
 _atom_site_symmetry_multiplicity
 _atom_site_fract_x
 _atom_site_fract_y
 _atom_site_fract_z
 _atom_site_occupancy
  Zr  Zr0  1  0.666666  0.333333  0.000000  1
  Zr  Zr1  1  0.333333  0.666666  0.000000  1
  Zr  Zr2  1  0.273733  0.000000  0.240620  1
  Zr  Zr3  1  0.000000  0.273733  0.240620  1
  Zr  Zr4  1  0.726267  0.726267  0.240620  1
  Zr  Zr5  1  0.666666  0.333333  0.500000  1
  Zr  Zr6  1  0.333333  0.666666  0.500000  1
  Zr  Zr7  1  0.726268  0.000000  0.759381  1
  Zr  Zr8  1  0.273732  0.273733  0.759381  1
  Zr  Zr9  1  0.000000  0.726267  0.759381  1
  Pd  Pd10  1  0.000000  0.000000  0.000000  1
  Pb  Pb11  1  0.615790  0.000000  0.251559  1
  Pb  Pb12  1  0.384210  0.384211  0.251559  1
  Pb  Pb13  1  0.000000  0.615790  0.251559  1
  Pb  Pb14  1  0.000000  0.000000  0.500000  1
  Pb  Pb15  1  0.384211  0.000000  0.748442  1
  Pb  Pb16  1  0.000000  0.384211  0.748442  1
  Pb  Pb17  1  0.615790  0.615790  0.748442  1
