# generated using pymatgen
data_GdTh7ScS17
_symmetry_space_group_name_H-M   'P 1'
_cell_length_a   8.10238852
_cell_length_b   8.07511637
_cell_length_c   10.64553900
_cell_angle_alpha   80.40064791
_cell_angle_beta   80.41056533
_cell_angle_gamma   64.77895461
_symmetry_Int_Tables_number   1
_chemical_formula_structural   GdTh7ScS17
_chemical_formula_sum   'Gd1 Th7 Sc1 S17'
_cell_volume   617.71910236
_cell_formula_units_Z   1
loop_
 _symmetry_equiv_pos_site_id
 _symmetry_equiv_pos_as_xyz
  1  'x, y, z'
loop_
 _atom_site_type_symbol
 _atom_site_label
 _atom_site_symmetry_multiplicity
 _atom_site_fract_x
 _atom_site_fract_y
 _atom_site_fract_z
 _atom_site_occupancy
  Gd  Gd0  1  0.812485  0.304104  0.297775  1
  Th  Th1  1  0.302372  0.810969  0.296481  1
  Th  Th2  1  0.186404  0.698168  0.702499  1
  Th  Th3  1  0.698201  0.188986  0.699716  1
  Th  Th4  1  0.792923  0.794369  0.455825  1
  Th  Th5  1  0.207108  0.205503  0.540963  1
  Th  Th6  1  0.316704  0.317865  0.024928  1
  Th  Th7  1  0.683270  0.679933  0.979219  1
  Sc  Sc8  1  0.997006  0.004259  0.002125  1
  S  S9  1  0.175981  0.568903  0.467956  1
  S  S10  1  0.571315  0.176039  0.468263  1
  S  S11  1  0.826129  0.428815  0.531148  1
  S  S12  1  0.430993  0.821407  0.532283  1
  S  S13  1  0.942909  0.328609  0.033994  1
  S  S14  1  0.327068  0.942463  0.031650  1
  S  S15  1  0.057750  0.674090  0.966736  1
  S  S16  1  0.671972  0.058749  0.965506  1
  S  S17  1  0.940135  0.940712  0.232938  1
  S  S18  1  0.060946  0.061855  0.769128  1
  S  S19  1  0.792067  0.791379  0.721920  1
  S  S20  1  0.209070  0.203983  0.278773  1
  S  S21  1  0.693141  0.698700  0.244199  1
  S  S22  1  0.304091  0.303594  0.755151  1
  S  S23  1  0.478631  0.481080  0.166034  1
  S  S24  1  0.519147  0.520906  0.831274  1
  S  S25  1  0.002183  0.994559  0.503514  1
