# generated using pymatgen
data_DyHo2PuB16
_symmetry_space_group_name_H-M   'P 1'
_cell_length_a   7.10220740
_cell_length_b   7.10220650
_cell_length_c   4.01660100
_cell_angle_alpha   90.00000000
_cell_angle_beta   90.00000000
_cell_angle_gamma   89.70454944
_symmetry_Int_Tables_number   1
_chemical_formula_structural   DyHo2PuB16
_chemical_formula_sum   'Dy1 Ho2 Pu1 B16'
_cell_volume   202.60005750
_cell_formula_units_Z   1
loop_
 _symmetry_equiv_pos_site_id
 _symmetry_equiv_pos_as_xyz
  1  'x, y, z'
loop_
 _atom_site_type_symbol
 _atom_site_label
 _atom_site_symmetry_multiplicity
 _atom_site_fract_x
 _atom_site_fract_y
 _atom_site_fract_z
 _atom_site_occupancy
  Dy  Dy0  1  0.683002  0.816998  0.000000  1
  Ho  Ho1  1  0.183039  0.682453  0.000000  1
  Ho  Ho2  1  0.817547  0.316961  0.000000  1
  Pu  Pu3  1  0.314432  0.185568  0.000000  1
  B  B4  1  0.500923  0.500641  0.797825  1
  B  B5  1  0.087685  0.412315  0.500000  1
  B  B6  1  0.586431  0.086370  0.500000  1
  B  B7  1  0.676447  0.538788  0.500000  1
  B  B8  1  0.913016  0.586984  0.500000  1
  B  B9  1  0.461911  0.676492  0.500000  1
  B  B10  1  0.999359  0.999077  0.202175  1
  B  B11  1  0.500923  0.500641  0.202175  1
  B  B12  1  0.999359  0.999077  0.797825  1
  B  B13  1  0.823508  0.038089  0.500000  1
  B  B14  1  0.413630  0.913569  0.500000  1
  B  B15  1  0.961212  0.823553  0.500000  1
  B  B16  1  0.323837  0.461425  0.500000  1
  B  B17  1  0.538283  0.323119  0.500000  1
  B  B18  1  0.038575  0.176163  0.500000  1
  B  B19  1  0.176881  0.961717  0.500000  1
