# generated using pymatgen
data_YbPr(GaRu)2
_symmetry_space_group_name_H-M   'P 1'
_cell_length_a   4.47346300
_cell_length_b   4.47346300
_cell_length_c   6.55744900
_cell_angle_alpha   90.00000000
_cell_angle_beta   90.00000000
_cell_angle_gamma   90.00000000
_symmetry_Int_Tables_number   1
_chemical_formula_structural   YbPr(GaRu)2
_chemical_formula_sum   'Yb1 Pr1 Ga2 Ru2'
_cell_volume   131.22682487
_cell_formula_units_Z   1
loop_
 _symmetry_equiv_pos_site_id
 _symmetry_equiv_pos_as_xyz
  1  'x, y, z'
loop_
 _atom_site_type_symbol
 _atom_site_label
 _atom_site_symmetry_multiplicity
 _atom_site_fract_x
 _atom_site_fract_y
 _atom_site_fract_z
 _atom_site_occupancy
  Yb  Yb0  1  0.500000  0.000000  0.704006  1
  Pr  Pr1  1  0.000000  0.500000  0.299467  1
  Ga  Ga2  1  0.500000  0.000000  0.184570  1
  Ga  Ga3  1  0.000000  0.500000  0.814416  1
  Ru  Ru4  1  0.000000  0.000000  0.998772  1
  Ru  Ru5  1  0.500000  0.500000  0.998772  1
