# generated using pymatgen
data_Ac2Yb3Pb4
_symmetry_space_group_name_H-M   'P 1'
_cell_length_a   8.28853200
_cell_length_b   8.83993000
_cell_length_c   16.71260600
_cell_angle_alpha   90.00000000
_cell_angle_beta   90.00000000
_cell_angle_gamma   90.00000000
_symmetry_Int_Tables_number   1
_chemical_formula_structural   Ac2Yb3Pb4
_chemical_formula_sum   'Ac8 Yb12 Pb16'
_cell_volume   1224.53335496
_cell_formula_units_Z   4
loop_
 _symmetry_equiv_pos_site_id
 _symmetry_equiv_pos_as_xyz
  1  'x, y, z'
loop_
 _atom_site_type_symbol
 _atom_site_label
 _atom_site_symmetry_multiplicity
 _atom_site_fract_x
 _atom_site_fract_y
 _atom_site_fract_z
 _atom_site_occupancy
  Ac  Ac0  1  0.500532  0.684551  0.594762  1
  Ac  Ac1  1  0.000532  0.815449  0.905238  1
  Ac  Ac2  1  0.499468  0.315449  0.094762  1
  Ac  Ac3  1  0.999468  0.184551  0.405238  1
  Ac  Ac4  1  0.499468  0.315449  0.405238  1
  Ac  Ac5  1  0.999468  0.184551  0.094762  1
  Ac  Ac6  1  0.500532  0.684551  0.905238  1
  Ac  Ac7  1  0.000532  0.815449  0.594762  1
  Yb  Yb8  1  0.666511  0.166087  0.623491  1
  Yb  Yb9  1  0.166511  0.333913  0.876509  1
  Yb  Yb10  1  0.333489  0.833913  0.123491  1
  Yb  Yb11  1  0.833489  0.666087  0.376509  1
  Yb  Yb12  1  0.333489  0.833913  0.376509  1
  Yb  Yb13  1  0.833489  0.666087  0.123491  1
  Yb  Yb14  1  0.666511  0.166087  0.876509  1
  Yb  Yb15  1  0.166511  0.333913  0.623491  1
  Yb  Yb16  1  0.834921  0.494097  0.750000  1
  Yb  Yb17  1  0.334921  0.005903  0.750000  1
  Yb  Yb18  1  0.165079  0.505903  0.250000  1
  Yb  Yb19  1  0.665079  0.994097  0.250000  1
  Pb  Pb20  1  0.672490  0.959836  0.458944  1
  Pb  Pb21  1  0.172490  0.540164  0.041056  1
  Pb  Pb22  1  0.327510  0.040164  0.958944  1
  Pb  Pb23  1  0.827510  0.459836  0.541056  1
  Pb  Pb24  1  0.327510  0.040164  0.541056  1
  Pb  Pb25  1  0.827510  0.459836  0.958944  1
  Pb  Pb26  1  0.672490  0.959836  0.041056  1
  Pb  Pb27  1  0.172490  0.540164  0.458944  1
  Pb  Pb28  1  0.468338  0.388175  0.750000  1
  Pb  Pb29  1  0.968338  0.111825  0.750000  1
  Pb  Pb30  1  0.531662  0.611825  0.250000  1
  Pb  Pb31  1  0.031662  0.888175  0.250000  1
  Pb  Pb32  1  0.704465  0.860212  0.750000  1
  Pb  Pb33  1  0.204465  0.639788  0.750000  1
  Pb  Pb34  1  0.295535  0.139788  0.250000  1
  Pb  Pb35  1  0.795535  0.360212  0.250000  1
