# generated using pymatgen
data_Ho2Er3In2Bi
_symmetry_space_group_name_H-M   'P 1'
_cell_length_a   8.99446495
_cell_length_b   8.98825533
_cell_length_c   6.56773300
_cell_angle_alpha   90.00000000
_cell_angle_beta   90.00000000
_cell_angle_gamma   120.00402316
_symmetry_Int_Tables_number   1
_chemical_formula_structural   Ho2Er3In2Bi
_chemical_formula_sum   'Ho4 Er6 In4 Bi2'
_cell_volume   459.81088463
_cell_formula_units_Z   2
loop_
 _symmetry_equiv_pos_site_id
 _symmetry_equiv_pos_as_xyz
  1  'x, y, z'
loop_
 _atom_site_type_symbol
 _atom_site_label
 _atom_site_symmetry_multiplicity
 _atom_site_fract_x
 _atom_site_fract_y
 _atom_site_fract_z
 _atom_site_occupancy
  Ho  Ho0  1  0.769853  0.761012  0.750000  1
  Ho  Ho1  1  0.230217  0.991095  0.750000  1
  Ho  Ho2  1  0.999957  0.241640  0.750000  1
  Ho  Ho3  1  0.236889  0.237416  0.250000  1
  Er  Er4  1  0.670959  0.338192  0.006631  1
  Er  Er5  1  0.329176  0.667333  0.006638  1
  Er  Er6  1  0.329176  0.667333  0.493362  1
  Er  Er7  1  0.670959  0.338192  0.493369  1
  Er  Er8  1  0.763052  0.000475  0.250000  1
  Er  Er9  1  0.999944  0.761563  0.250000  1
  In  In10  1  0.999959  0.597561  0.750000  1
  In  In11  1  0.604929  0.606895  0.250000  1
  In  In12  1  0.395140  0.001759  0.250000  1
  In  In13  1  0.999840  0.395824  0.250000  1
  Bi  Bi14  1  0.395286  0.394506  0.750000  1
  Bi  Bi15  1  0.604664  0.999204  0.750000  1
