# generated using pymatgen
data_Y5Er3(CdPd)2
_symmetry_space_group_name_H-M   'P 1'
_cell_length_a   9.67200999
_cell_length_b   9.68549385
_cell_length_c   9.68552831
_cell_angle_alpha   59.90852881
_cell_angle_beta   60.04600518
_cell_angle_gamma   60.04664978
_symmetry_Int_Tables_number   1
_chemical_formula_structural   Y5Er3(CdPd)2
_chemical_formula_sum   'Y10 Er6 Cd4 Pd4'
_cell_volume   641.57736748
_cell_formula_units_Z   2
loop_
 _symmetry_equiv_pos_site_id
 _symmetry_equiv_pos_as_xyz
  1  'x, y, z'
loop_
 _atom_site_type_symbol
 _atom_site_label
 _atom_site_symmetry_multiplicity
 _atom_site_fract_x
 _atom_site_fract_y
 _atom_site_fract_z
 _atom_site_occupancy
  Y  Y0  1  0.189794  0.810198  0.189808  1
  Y  Y1  1  0.810195  0.189810  0.810203  1
  Y  Y2  1  0.189814  0.189808  0.810177  1
  Y  Y3  1  0.810189  0.810191  0.189820  1
  Y  Y4  1  0.934767  0.565233  0.565234  1
  Y  Y5  1  0.565242  0.934764  0.934759  1
  Y  Y6  1  0.565097  0.934891  0.565104  1
  Y  Y7  1  0.934904  0.565094  0.934905  1
  Y  Y8  1  0.565103  0.565098  0.934900  1
  Y  Y9  1  0.934912  0.934908  0.565092  1
  Er  Er10  1  0.353908  0.353308  0.353308  1
  Er  Er11  1  0.353302  0.353937  0.939462  1
  Er  Er12  1  0.353305  0.939468  0.353920  1
  Er  Er13  1  0.939452  0.353295  0.353310  1
  Er  Er14  1  0.810055  0.189945  0.189960  1
  Er  Er15  1  0.189984  0.810034  0.810018  1
  Cd  Cd16  1  0.581811  0.581954  0.581945  1
  Cd  Cd17  1  0.581948  0.581817  0.254290  1
  Cd  Cd18  1  0.581937  0.254284  0.581827  1
  Cd  Cd19  1  0.254285  0.581941  0.581956  1
  Pd  Pd20  1  0.143947  0.146145  0.146140  1
  Pd  Pd21  1  0.146137  0.143962  0.563764  1
  Pd  Pd22  1  0.146141  0.563766  0.143957  1
  Pd  Pd23  1  0.563769  0.146145  0.146139  1
