# generated using pymatgen
data_HoLu3ReOsC4
_symmetry_space_group_name_H-M   'P 1'
_cell_length_a   5.00913300
_cell_length_b   6.45722872
_cell_length_c   9.65807096
_cell_angle_alpha   89.39904600
_cell_angle_beta   90.00000000
_cell_angle_gamma   90.00000000
_symmetry_Int_Tables_number   1
_chemical_formula_structural   HoLu3ReOsC4
_chemical_formula_sum   'Ho2 Lu6 Re2 Os2 C8'
_cell_volume   312.37425678
_cell_formula_units_Z   2
loop_
 _symmetry_equiv_pos_site_id
 _symmetry_equiv_pos_as_xyz
  1  'x, y, z'
loop_
 _atom_site_type_symbol
 _atom_site_label
 _atom_site_symmetry_multiplicity
 _atom_site_fract_x
 _atom_site_fract_y
 _atom_site_fract_z
 _atom_site_occupancy
  Ho  Ho0  1  0.750000  0.966758  0.713913  1
  Ho  Ho1  1  0.250000  0.033242  0.286087  1
  Lu  Lu2  1  0.250000  0.673812  0.556453  1
  Lu  Lu3  1  0.750000  0.326188  0.443547  1
  Lu  Lu4  1  0.750000  0.824732  0.057210  1
  Lu  Lu5  1  0.250000  0.175268  0.942790  1
  Lu  Lu6  1  0.250000  0.534849  0.217771  1
  Lu  Lu7  1  0.750000  0.465151  0.782229  1
  Re  Re8  1  0.250000  0.715535  0.869289  1
  Re  Re9  1  0.750000  0.284465  0.130711  1
  Os  Os10  1  0.750000  0.780462  0.368265  1
  Os  Os11  1  0.250000  0.219538  0.631735  1
  C  C12  1  0.250000  0.450395  0.760517  1
  C  C13  1  0.750000  0.549605  0.239483  1
  C  C14  1  0.750000  0.049603  0.258244  1
  C  C15  1  0.250000  0.950397  0.741756  1
  C  C16  1  0.250000  0.826219  0.055628  1
  C  C17  1  0.750000  0.173781  0.944372  1
  C  C18  1  0.750000  0.667177  0.554716  1
  C  C19  1  0.250000  0.332823  0.445284  1
