# generated using pymatgen
data_Au2IF18
_symmetry_space_group_name_H-M   'P 1'
_cell_length_a   5.24423107
_cell_length_b   8.55574965
_cell_length_c   8.62317798
_cell_angle_alpha   61.58656088
_cell_angle_beta   84.26827686
_cell_angle_gamma   84.44667793
_symmetry_Int_Tables_number   1
_chemical_formula_structural   Au2IF18
_chemical_formula_sum   'Au2 I1 F18'
_cell_volume   338.06155475
_cell_formula_units_Z   1
loop_
 _symmetry_equiv_pos_site_id
 _symmetry_equiv_pos_as_xyz
  1  'x, y, z'
loop_
 _atom_site_type_symbol
 _atom_site_label
 _atom_site_symmetry_multiplicity
 _atom_site_fract_x
 _atom_site_fract_y
 _atom_site_fract_z
 _atom_site_occupancy
  Au  Au0  1  0.561395  0.334370  0.334295  1
  Au  Au1  1  0.438677  0.664578  0.666102  1
  I  I2  1  0.999824  0.001122  0.999601  1
  F  F3  1  0.876638  0.781081  0.071845  1
  F  F4  1  0.689683  0.073305  0.073541  1
  F  F5  1  0.746565  0.415981  0.106035  1
  F  F6  1  0.120706  0.922557  0.219257  1
  F  F7  1  0.377813  0.565149  0.251463  1
  F  F8  1  0.296732  0.251004  0.254715  1
  F  F9  1  0.827463  0.416848  0.413168  1
  F  F10  1  0.747606  0.105253  0.415923  1
  F  F11  1  0.621383  0.747905  0.436124  1
  F  F12  1  0.378936  0.251670  0.564242  1
  F  F13  1  0.252309  0.893536  0.585051  1
  F  F14  1  0.173122  0.582276  0.586774  1
  F  F15  1  0.703058  0.747732  0.746207  1
  F  F16  1  0.622693  0.433975  0.748306  1
  F  F17  1  0.878922  0.079610  0.779921  1
  F  F18  1  0.253537  0.582252  0.894380  1
  F  F19  1  0.309939  0.928661  0.925798  1
  F  F20  1  0.123000  0.221133  0.927259  1
