# generated using pymatgen
data_Tm12CdInFe2Re
_symmetry_space_group_name_H-M   'P 1'
_cell_length_a   8.25194140
_cell_length_b   8.25153184
_cell_length_c   8.25193960
_cell_angle_alpha   108.15735920
_cell_angle_beta   109.39712449
_cell_angle_gamma   110.87262200
_symmetry_Int_Tables_number   1
_chemical_formula_structural   Tm12CdInFe2Re
_chemical_formula_sum   'Tm12 Cd1 In1 Fe2 Re1'
_cell_volume   432.28407764
_cell_formula_units_Z   1
loop_
 _symmetry_equiv_pos_site_id
 _symmetry_equiv_pos_as_xyz
  1  'x, y, z'
loop_
 _atom_site_type_symbol
 _atom_site_label
 _atom_site_symmetry_multiplicity
 _atom_site_fract_x
 _atom_site_fract_y
 _atom_site_fract_z
 _atom_site_occupancy
  Tm  Tm0  1  0.192785  0.427640  0.234855  1
  Tm  Tm1  1  0.807215  0.572360  0.765145  1
  Tm  Tm2  1  0.192749  0.957881  0.765130  1
  Tm  Tm3  1  0.952137  0.194537  0.757565  1
  Tm  Tm4  1  0.807251  0.042119  0.234870  1
  Tm  Tm5  1  0.047863  0.805463  0.242435  1
  Tm  Tm6  1  0.436972  0.194537  0.242400  1
  Tm  Tm7  1  0.563028  0.805463  0.757600  1
  Tm  Tm8  1  0.307257  0.308492  0.615766  1
  Tm  Tm9  1  0.692743  0.691508  0.384234  1
  Tm  Tm10  1  0.692724  0.308492  0.001235  1
  Tm  Tm11  1  0.307276  0.691508  0.998765  1
  Cd  Cd12  1  0.500000  0.000000  0.500000  1
  In  In13  1  0.000000  0.500000  0.500000  1
  Fe  Fe14  1  0.383817  0.383808  0.999991  1
  Fe  Fe15  1  0.616183  0.616192  0.000009  1
  Re  Re16  1  0.000000  0.000000  0.000000  1
