# generated using pymatgen
data_Ce2Nd5Ho9(CdRu)4
_symmetry_space_group_name_H-M   'P 1'
_cell_length_a   9.83396457
_cell_length_b   9.70067204
_cell_length_c   9.70067296
_cell_angle_alpha   59.47151967
_cell_angle_beta   59.54441534
_cell_angle_gamma   59.54441322
_symmetry_Int_Tables_number   1
_chemical_formula_structural   Ce2Nd5Ho9(CdRu)4
_chemical_formula_sum   'Ce2 Nd5 Ho9 Cd4 Ru4'
_cell_volume   647.21944800
_cell_formula_units_Z   1
loop_
 _symmetry_equiv_pos_site_id
 _symmetry_equiv_pos_as_xyz
  1  'x, y, z'
loop_
 _atom_site_type_symbol
 _atom_site_label
 _atom_site_symmetry_multiplicity
 _atom_site_fract_x
 _atom_site_fract_y
 _atom_site_fract_z
 _atom_site_occupancy
  Ce  Ce0  1  0.974467  0.340014  0.340014  1
  Ce  Ce1  1  0.345506  0.340014  0.340014  1
  Nd  Nd2  1  0.562189  0.558552  0.938738  1
  Nd  Nd3  1  0.940522  0.558552  0.938738  1
  Nd  Nd4  1  0.557972  0.942028  0.942028  1
  Nd  Nd5  1  0.940522  0.938738  0.558552  1
  Nd  Nd6  1  0.562189  0.938738  0.558552  1
  Ho  Ho7  1  0.943649  0.556351  0.556351  1
  Ho  Ho8  1  0.186072  0.188757  0.813273  1
  Ho  Ho9  1  0.811897  0.188757  0.813273  1
  Ho  Ho10  1  0.185912  0.814088  0.814087  1
  Ho  Ho11  1  0.811897  0.813274  0.188757  1
  Ho  Ho12  1  0.186071  0.813273  0.188756  1
  Ho  Ho13  1  0.813065  0.186935  0.186935  1
  Ho  Ho14  1  0.347403  0.349692  0.955504  1
  Ho  Ho15  1  0.347403  0.955504  0.349692  1
  Cd  Cd16  1  0.580212  0.577838  0.261738  1
  Cd  Cd17  1  0.580212  0.261738  0.577838  1
  Cd  Cd18  1  0.261151  0.578295  0.578295  1
  Cd  Cd19  1  0.582258  0.578295  0.578295  1
  Ru  Ru20  1  0.136784  0.154100  0.572330  1
  Ru  Ru21  1  0.136784  0.572330  0.154100  1
  Ru  Ru22  1  0.573534  0.147069  0.147069  1
  Ru  Ru23  1  0.132327  0.147069  0.147069  1
