# generated using pymatgen
data_Yb3Ho(GaPd5)2
_symmetry_space_group_name_H-M   'P 1'
_cell_length_a   4.19324200
_cell_length_b   5.75725410
_cell_length_c   11.27567507
_cell_angle_alpha   90.15285790
_cell_angle_beta   90.00000000
_cell_angle_gamma   90.00000000
_symmetry_Int_Tables_number   1
_chemical_formula_structural   Yb3Ho(GaPd5)2
_chemical_formula_sum   'Yb3 Ho1 Ga2 Pd10'
_cell_volume   272.21141421
_cell_formula_units_Z   1
loop_
 _symmetry_equiv_pos_site_id
 _symmetry_equiv_pos_as_xyz
  1  'x, y, z'
loop_
 _atom_site_type_symbol
 _atom_site_label
 _atom_site_symmetry_multiplicity
 _atom_site_fract_x
 _atom_site_fract_y
 _atom_site_fract_z
 _atom_site_occupancy
  Yb  Yb0  1  0.000000  0.310404  0.863130  1
  Yb  Yb1  1  0.000000  0.190100  0.359271  1
  Yb  Yb2  1  0.000000  0.689353  0.139137  1
  Ho  Ho3  1  0.000000  0.810329  0.638773  1
  Ga  Ga4  1  0.500000  0.498167  0.498016  1
  Ga  Ga5  1  0.500000  0.000303  0.001215  1
  Pd  Pd6  1  0.000000  0.808466  0.892944  1
  Pd  Pd7  1  0.000000  0.692084  0.393391  1
  Pd  Pd8  1  0.000000  0.307799  0.606764  1
  Pd  Pd9  1  0.500000  0.944085  0.242797  1
  Pd  Pd10  1  0.500000  0.444796  0.257093  1
  Pd  Pd11  1  0.500000  0.554519  0.744079  1
  Pd  Pd12  1  0.500000  0.056512  0.757116  1
  Pd  Pd13  1  0.500000  0.500065  0.000310  1
  Pd  Pd14  1  0.500000  0.001450  0.499203  1
  Pd  Pd15  1  0.000000  0.191567  0.106761  1
