# generated using pymatgen
data_SmGaHgPd3
_symmetry_space_group_name_H-M   'P 1'
_cell_length_a   5.56451805
_cell_length_b   5.56451889
_cell_length_c   5.25434019
_cell_angle_alpha   58.02721693
_cell_angle_beta   58.02721222
_cell_angle_gamma   60.00000518
_symmetry_Int_Tables_number   1
_chemical_formula_structural   SmGaHgPd3
_chemical_formula_sum   'Sm1 Ga1 Hg1 Pd3'
_cell_volume   111.49185756
_cell_formula_units_Z   1
loop_
 _symmetry_equiv_pos_site_id
 _symmetry_equiv_pos_as_xyz
  1  'x, y, z'
loop_
 _atom_site_type_symbol
 _atom_site_label
 _atom_site_symmetry_multiplicity
 _atom_site_fract_x
 _atom_site_fract_y
 _atom_site_fract_z
 _atom_site_occupancy
  Sm  Sm0  1  0.247219  0.247219  0.258342  1
  Ga  Ga1  1  0.628329  0.628329  0.115012  1
  Hg  Hg2  1  0.995093  0.995093  0.014720  1
  Pd  Pd3  1  0.626559  0.126241  0.620642  1
  Pd  Pd4  1  0.126241  0.626559  0.620642  1
  Pd  Pd5  1  0.626559  0.626559  0.620642  1
