# generated using pymatgen
data_Dy7Tm3(Bi2Pt)2
_symmetry_space_group_name_H-M   'P 1'
_cell_length_a   8.04312790
_cell_length_b   9.02717517
_cell_length_c   12.44471189
_cell_angle_alpha   89.95989890
_cell_angle_beta   90.10436933
_cell_angle_gamma   90.04234502
_symmetry_Int_Tables_number   1
_chemical_formula_structural   Dy7Tm3(Bi2Pt)2
_chemical_formula_sum   'Dy14 Tm6 Bi8 Pt4'
_cell_volume   903.56780134
_cell_formula_units_Z   2
loop_
 _symmetry_equiv_pos_site_id
 _symmetry_equiv_pos_as_xyz
  1  'x, y, z'
loop_
 _atom_site_type_symbol
 _atom_site_label
 _atom_site_symmetry_multiplicity
 _atom_site_fract_x
 _atom_site_fract_y
 _atom_site_fract_z
 _atom_site_occupancy
  Dy  Dy0  1  0.838708  0.750315  0.790236  1
  Dy  Dy1  1  0.161292  0.249685  0.209764  1
  Dy  Dy2  1  0.339280  0.249832  0.709365  1
  Dy  Dy3  1  0.660720  0.750168  0.290635  1
  Dy  Dy4  1  0.371536  0.750170  0.696922  1
  Dy  Dy5  1  0.628464  0.249830  0.303078  1
  Dy  Dy6  1  0.871301  0.249542  0.802423  1
  Dy  Dy7  1  0.128699  0.750458  0.197577  1
  Dy  Dy8  1  0.949578  0.750014  0.500020  1
  Dy  Dy9  1  0.050422  0.249986  0.499980  1
  Dy  Dy10  1  0.449958  0.249308  0.000016  1
  Dy  Dy11  1  0.550042  0.750692  0.999984  1
  Dy  Dy12  1  0.820589  0.454025  0.066809  1
  Dy  Dy13  1  0.179411  0.545975  0.933191  1
  Tm  Tm14  1  0.676638  0.046285  0.566105  1
  Tm  Tm15  1  0.323362  0.953715  0.433895  1
  Tm  Tm16  1  0.176735  0.953719  0.933789  1
  Tm  Tm17  1  0.323397  0.546286  0.433951  1
  Tm  Tm18  1  0.823265  0.046281  0.066211  1
  Tm  Tm19  1  0.676603  0.453714  0.566049  1
  Bi  Bi20  1  0.569049  0.490882  0.827103  1
  Bi  Bi21  1  0.430951  0.509118  0.172897  1
  Bi  Bi22  1  0.067838  0.508961  0.672366  1
  Bi  Bi23  1  0.431961  0.990927  0.172758  1
  Bi  Bi24  1  0.932162  0.491039  0.327634  1
  Bi  Bi25  1  0.568039  0.009073  0.827242  1
  Bi  Bi26  1  0.931968  0.009056  0.327435  1
  Bi  Bi27  1  0.068032  0.990944  0.672565  1
  Pt  Pt28  1  0.574385  0.749992  0.511336  1
  Pt  Pt29  1  0.425615  0.250008  0.488664  1
  Pt  Pt30  1  0.074650  0.248323  0.988537  1
  Pt  Pt31  1  0.925350  0.751677  0.011463  1
