# generated using pymatgen
data_DyY3(Tc3Ru)2
_symmetry_space_group_name_H-M   'P 1'
_cell_length_a   5.27533800
_cell_length_b   5.27533874
_cell_length_c   9.20845000
_cell_angle_alpha   90.00000000
_cell_angle_beta   90.00000000
_cell_angle_gamma   120.00000789
_symmetry_Int_Tables_number   1
_chemical_formula_structural   DyY3(Tc3Ru)2
_chemical_formula_sum   'Dy1 Y3 Tc6 Ru2'
_cell_volume   221.93089991
_cell_formula_units_Z   1
loop_
 _symmetry_equiv_pos_site_id
 _symmetry_equiv_pos_as_xyz
  1  'x, y, z'
loop_
 _atom_site_type_symbol
 _atom_site_label
 _atom_site_symmetry_multiplicity
 _atom_site_fract_x
 _atom_site_fract_y
 _atom_site_fract_z
 _atom_site_occupancy
  Dy  Dy0  1  0.333333  0.666667  0.437334  1
  Y  Y1  1  0.666667  0.333333  0.562596  1
  Y  Y2  1  0.666667  0.333333  0.937313  1
  Y  Y3  1  0.333333  0.666667  0.062742  1
  Tc  Tc4  1  0.170988  0.341976  0.749990  1
  Tc  Tc5  1  0.170988  0.829012  0.749990  1
  Tc  Tc6  1  0.341932  0.170966  0.250063  1
  Tc  Tc7  1  0.829034  0.658068  0.250063  1
  Tc  Tc8  1  0.658024  0.829012  0.749990  1
  Tc  Tc9  1  0.829034  0.170966  0.250063  1
  Ru  Ru10  1  0.000000  0.000000  0.999921  1
  Ru  Ru11  1  0.000000  0.000000  0.499933  1
