# generated using pymatgen
data_Pa6Cu5TcSn8
_symmetry_space_group_name_H-M   'P 1'
_cell_length_a   8.30115042
_cell_length_b   8.30079151
_cell_length_c   8.30115900
_cell_angle_alpha   109.13846629
_cell_angle_beta   109.63956203
_cell_angle_gamma   109.63403031
_symmetry_Int_Tables_number   1
_chemical_formula_structural   Pa6Cu5TcSn8
_chemical_formula_sum   'Pa6 Cu5 Tc1 Sn8'
_cell_volume   440.32670037
_cell_formula_units_Z   1
loop_
 _symmetry_equiv_pos_site_id
 _symmetry_equiv_pos_as_xyz
  1  'x, y, z'
loop_
 _atom_site_type_symbol
 _atom_site_label
 _atom_site_symmetry_multiplicity
 _atom_site_fract_x
 _atom_site_fract_y
 _atom_site_fract_z
 _atom_site_occupancy
  Pa  Pa0  1  0.873339  0.738419  0.124682  1
  Pa  Pa1  1  0.114189  0.375516  0.248860  1
  Pa  Pa2  1  0.626555  0.251237  0.364993  1
  Pa  Pa3  1  0.749964  0.874972  0.624869  1
  Pa  Pa4  1  0.386147  0.134841  0.761594  1
  Pa  Pa5  1  0.249952  0.624964  0.874904  1
  Cu  Cu6  1  0.625176  0.876354  0.250498  1
  Cu  Cu7  1  0.249951  0.124889  0.374861  1
  Cu  Cu8  1  0.374414  0.749048  0.623491  1
  Cu  Cu9  1  0.874285  0.625061  0.751026  1
  Cu  Cu10  1  0.125856  0.249220  0.874606  1
  Tc  Tc11  1  0.750216  0.375493  0.125507  1
  Sn  Sn12  1  0.167169  0.999206  0.000329  1
  Sn  Sn13  1  0.670084  0.989132  0.995118  1
  Sn  Sn14  1  0.493787  0.504894  0.174772  1
  Sn  Sn15  1  0.332542  0.833064  0.331904  1
  Sn  Sn16  1  0.006394  0.681044  0.511301  1
  Sn  Sn17  1  0.000896  0.167951  0.500453  1
  Sn  Sn18  1  0.498870  0.499490  0.667043  1
  Sn  Sn19  1  0.830216  0.325205  0.819189  1
