# generated using pymatgen
data_Ca3ScP3
_symmetry_space_group_name_H-M   'P 1'
_cell_length_a   4.18473100
_cell_length_b   11.96313100
_cell_length_c   13.69006900
_cell_angle_alpha   90.00000000
_cell_angle_beta   90.00000000
_cell_angle_gamma   90.00000000
_symmetry_Int_Tables_number   1
_chemical_formula_structural   Ca3ScP3
_chemical_formula_sum   'Ca12 Sc4 P12'
_cell_volume   685.35887605
_cell_formula_units_Z   4
loop_
 _symmetry_equiv_pos_site_id
 _symmetry_equiv_pos_as_xyz
  1  'x, y, z'
loop_
 _atom_site_type_symbol
 _atom_site_label
 _atom_site_symmetry_multiplicity
 _atom_site_fract_x
 _atom_site_fract_y
 _atom_site_fract_z
 _atom_site_occupancy
  Ca  Ca0  1  0.750000  0.153051  0.995792  1
  Ca  Ca1  1  0.250000  0.269474  0.207864  1
  Ca  Ca2  1  0.250000  0.346949  0.495792  1
  Ca  Ca3  1  0.750000  0.653051  0.504208  1
  Ca  Ca4  1  0.750000  0.428050  0.903446  1
  Ca  Ca5  1  0.250000  0.846949  0.004208  1
  Ca  Ca6  1  0.750000  0.230526  0.707864  1
  Ca  Ca7  1  0.750000  0.928050  0.596554  1
  Ca  Ca8  1  0.250000  0.071950  0.403446  1
  Ca  Ca9  1  0.250000  0.571950  0.096554  1
  Ca  Ca10  1  0.250000  0.769474  0.292136  1
  Ca  Ca11  1  0.750000  0.730526  0.792136  1
  Sc  Sc12  1  0.750000  0.957626  0.203960  1
  Sc  Sc13  1  0.750000  0.457626  0.296040  1
  Sc  Sc14  1  0.250000  0.542374  0.703960  1
  Sc  Sc15  1  0.250000  0.042374  0.796040  1
  P  P16  1  0.750000  0.756452  0.135069  1
  P  P17  1  0.250000  0.098682  0.614611  1
  P  P18  1  0.250000  0.598682  0.885389  1
  P  P19  1  0.750000  0.901318  0.385389  1
  P  P20  1  0.250000  0.743548  0.635069  1
  P  P21  1  0.250000  0.049867  0.132130  1
  P  P22  1  0.750000  0.950133  0.867870  1
  P  P23  1  0.750000  0.450133  0.632130  1
  P  P24  1  0.250000  0.549867  0.367870  1
  P  P25  1  0.750000  0.256452  0.364931  1
  P  P26  1  0.750000  0.401318  0.114611  1
  P  P27  1  0.250000  0.243548  0.864931  1
