# generated using pymatgen
data_Ac8Si13Ag3
_symmetry_space_group_name_H-M   'P 1'
_cell_length_a   11.83348401
_cell_length_b   10.18781904
_cell_length_c   8.49094900
_cell_angle_alpha   78.10706887
_cell_angle_beta   57.33531634
_cell_angle_gamma   44.77965187
_symmetry_Int_Tables_number   1
_chemical_formula_structural   Ac8Si13Ag3
_chemical_formula_sum   'Ac8 Si13 Ag3'
_cell_volume   579.32252175
_cell_formula_units_Z   1
loop_
 _symmetry_equiv_pos_site_id
 _symmetry_equiv_pos_as_xyz
  1  'x, y, z'
loop_
 _atom_site_type_symbol
 _atom_site_label
 _atom_site_symmetry_multiplicity
 _atom_site_fract_x
 _atom_site_fract_y
 _atom_site_fract_z
 _atom_site_occupancy
  Ac  Ac0  1  0.378873  0.377568  0.619728  1
  Ac  Ac1  1  0.620770  0.621723  0.378638  1
  Ac  Ac2  1  0.872923  0.876242  0.630535  1
  Ac  Ac3  1  0.630591  0.619751  0.872565  1
  Ac  Ac4  1  0.874473  0.881602  0.118115  1
  Ac  Ac5  1  0.118082  0.127436  0.874785  1
  Ac  Ac6  1  0.385012  0.369310  0.119625  1
  Ac  Ac7  1  0.119521  0.126123  0.383375  1
  Si  Si8  1  0.833091  0.166745  0.833765  1
  Si  Si9  1  0.665116  0.335037  0.666871  1
  Si  Si10  1  0.336642  0.663516  0.336319  1
  Si  Si11  1  0.587571  0.912579  0.587009  1
  Si  Si12  1  0.913180  0.586847  0.913111  1
  Si  Si13  1  0.335044  0.662543  0.828638  1
  Si  Si14  1  0.169763  0.833157  0.664824  1
  Si  Si15  1  0.828609  0.174394  0.335341  1
  Si  Si16  1  0.663593  0.333420  0.170767  1
  Si  Si17  1  0.914574  0.589188  0.422368  1
  Si  Si18  1  0.076058  0.427090  0.585918  1
  Si  Si19  1  0.421792  0.072499  0.915487  1
  Si  Si20  1  0.586862  0.910853  0.075356  1
  Ag  Ag21  1  0.166947  0.832408  0.167321  1
  Ag  Ag22  1  0.417336  0.083236  0.415958  1
  Ag  Ag23  1  0.083576  0.416731  0.083581  1
