# generated using pymatgen
data_La8Yb5Y7Si16
_symmetry_space_group_name_H-M   'P 1'
_cell_length_a   7.54418920
_cell_length_b   7.93249725
_cell_length_c   15.09497602
_cell_angle_alpha   89.95790701
_cell_angle_beta   90.11105359
_cell_angle_gamma   90.11157056
_symmetry_Int_Tables_number   1
_chemical_formula_structural   La8Yb5Y7Si16
_chemical_formula_sum   'La8 Yb5 Y7 Si16'
_cell_volume   903.34401976
_cell_formula_units_Z   1
loop_
 _symmetry_equiv_pos_site_id
 _symmetry_equiv_pos_as_xyz
  1  'x, y, z'
loop_
 _atom_site_type_symbol
 _atom_site_label
 _atom_site_symmetry_multiplicity
 _atom_site_fract_x
 _atom_site_fract_y
 _atom_site_fract_z
 _atom_site_occupancy
  La  La0  1  0.021783  0.180904  0.400472  1
  La  La1  1  0.522088  0.318457  0.400772  1
  La  La2  1  0.477722  0.680896  0.900910  1
  La  La3  1  0.477955  0.680621  0.599604  1
  La  La4  1  0.978329  0.819342  0.599645  1
  La  La5  1  0.978078  0.819269  0.901710  1
  La  La6  1  0.522221  0.319837  0.099023  1
  La  La7  1  0.022359  0.180972  0.099703  1
  Yb  Yb8  1  0.323410  0.180475  0.622113  1
  Yb  Yb9  1  0.653723  0.990569  0.748961  1
  Yb  Yb10  1  0.843321  0.488446  0.249940  1
  Yb  Yb11  1  0.343107  0.011626  0.249655  1
  Yb  Yb12  1  0.157878  0.508482  0.748691  1
  Y  Y13  1  0.675516  0.819512  0.375792  1
  Y  Y14  1  0.176726  0.680701  0.376314  1
  Y  Y15  1  0.825038  0.317858  0.876961  1
  Y  Y16  1  0.824249  0.319575  0.623842  1
  Y  Y17  1  0.324082  0.181708  0.877131  1
  Y  Y18  1  0.176137  0.681070  0.123420  1
  Y  Y19  1  0.676137  0.818921  0.123201  1
  Si  Si20  1  0.265226  0.886757  0.752094  1
  Si  Si21  1  0.465835  0.608838  0.249976  1
  Si  Si22  1  0.032748  0.108013  0.752267  1
  Si  Si23  1  0.537354  0.394767  0.751416  1
  Si  Si24  1  0.141355  0.473183  0.535206  1
  Si  Si25  1  0.965738  0.890004  0.250099  1
  Si  Si26  1  0.732381  0.109084  0.249826  1
  Si  Si27  1  0.852492  0.532079  0.034909  1
  Si  Si28  1  0.352507  0.968441  0.035221  1
  Si  Si29  1  0.147679  0.467241  0.965235  1
  Si  Si30  1  0.651389  0.031110  0.533793  1
  Si  Si31  1  0.356353  0.966098  0.462248  1
  Si  Si32  1  0.851737  0.532810  0.464288  1
  Si  Si33  1  0.768989  0.609860  0.750794  1
  Si  Si34  1  0.231333  0.390742  0.249982  1
  Si  Si35  1  0.647025  0.031732  0.964785  1
