# generated using pymatgen
data_Tb3CdRh8
_symmetry_space_group_name_H-M   'P 1'
_cell_length_a   5.32616900
_cell_length_b   5.32616768
_cell_length_c   8.67988400
_cell_angle_alpha   90.00000000
_cell_angle_beta   90.00000000
_cell_angle_gamma   119.99998957
_symmetry_Int_Tables_number   1
_chemical_formula_structural   Tb3CdRh8
_chemical_formula_sum   'Tb3 Cd1 Rh8'
_cell_volume   213.24279976
_cell_formula_units_Z   1
loop_
 _symmetry_equiv_pos_site_id
 _symmetry_equiv_pos_as_xyz
  1  'x, y, z'
loop_
 _atom_site_type_symbol
 _atom_site_label
 _atom_site_symmetry_multiplicity
 _atom_site_fract_x
 _atom_site_fract_y
 _atom_site_fract_z
 _atom_site_occupancy
  Tb  Tb0  1  0.333333  0.666667  0.081251  1
  Tb  Tb1  1  0.666667  0.333333  0.556160  1
  Tb  Tb2  1  0.666667  0.333333  0.929520  1
  Cd  Cd3  1  0.333333  0.666667  0.443253  1
  Rh  Rh4  1  0.000000  0.000000  0.996425  1
  Rh  Rh5  1  0.000000  0.000000  0.497645  1
  Rh  Rh6  1  0.831197  0.662395  0.249276  1
  Rh  Rh7  1  0.169881  0.830119  0.749305  1
  Rh  Rh8  1  0.660239  0.830119  0.749305  1
  Rh  Rh9  1  0.337605  0.168803  0.249276  1
  Rh  Rh10  1  0.831197  0.168803  0.249276  1
  Rh  Rh11  1  0.169881  0.339761  0.749305  1
