# generated using pymatgen
data_KTbSnBr6
_symmetry_space_group_name_H-M   'P 1'
_cell_length_a   8.36304773
_cell_length_b   8.36318413
_cell_length_c   8.36315000
_cell_angle_alpha   54.95128794
_cell_angle_beta   54.95054875
_cell_angle_gamma   54.95021032
_symmetry_Int_Tables_number   1
_chemical_formula_structural   KTbSnBr6
_chemical_formula_sum   'K1 Tb1 Sn1 Br6'
_cell_volume   365.00838615
_cell_formula_units_Z   1
loop_
 _symmetry_equiv_pos_site_id
 _symmetry_equiv_pos_as_xyz
  1  'x, y, z'
loop_
 _atom_site_type_symbol
 _atom_site_label
 _atom_site_symmetry_multiplicity
 _atom_site_fract_x
 _atom_site_fract_y
 _atom_site_fract_z
 _atom_site_occupancy
  K  K0  1  0.670141  0.670153  0.670156  1
  Tb  Tb1  1  0.999434  0.999432  0.999427  1
  Sn  Sn2  1  0.331506  0.331504  0.331505  1
  Br  Br3  1  0.212189  0.611450  0.945564  1
  Br  Br4  1  0.611455  0.945565  0.212188  1
  Br  Br5  1  0.945564  0.212188  0.611454  1
  Br  Br6  1  0.758502  0.357701  0.113505  1
  Br  Br7  1  0.357707  0.113505  0.758499  1
  Br  Br8  1  0.113505  0.758501  0.357701  1
