# generated using pymatgen
data_Ho2TmLuB3C4
_symmetry_space_group_name_H-M   'P 1'
_cell_length_a   3.46701307
_cell_length_b   3.56928935
_cell_length_c   11.76096221
_cell_angle_alpha   92.90440256
_cell_angle_beta   96.29146306
_cell_angle_gamma   90.19393492
_symmetry_Int_Tables_number   1
_chemical_formula_structural   Ho2TmLuB3C4
_chemical_formula_sum   'Ho2 Tm1 Lu1 B3 C4'
_cell_volume   144.47101591
_cell_formula_units_Z   1
loop_
 _symmetry_equiv_pos_site_id
 _symmetry_equiv_pos_as_xyz
  1  'x, y, z'
loop_
 _atom_site_type_symbol
 _atom_site_label
 _atom_site_symmetry_multiplicity
 _atom_site_fract_x
 _atom_site_fract_y
 _atom_site_fract_z
 _atom_site_occupancy
  Ho  Ho0  1  0.806370  0.024718  0.651536  1
  Ho  Ho1  1  0.193739  0.975439  0.348895  1
  Tm  Tm2  1  0.611555  0.445567  0.138688  1
  Lu  Lu3  1  0.387676  0.554592  0.860141  1
  B  B4  1  0.000800  0.998754  0.999836  1
  B  B5  1  0.264815  0.506484  0.541198  1
  B  B6  1  0.735461  0.493572  0.459375  1
  C  C7  1  0.889204  0.064031  0.878184  1
  C  C8  1  0.110227  0.936669  0.121556  1
  C  C9  1  0.313617  0.528531  0.669906  1
  C  C10  1  0.686538  0.471645  0.330684  1
