# generated using pymatgen
data_Cs8Lu2Se7
_symmetry_space_group_name_H-M   'P 1'
_cell_length_a   9.25099816
_cell_length_b   23.26783400
_cell_length_c   9.03304024
_cell_angle_alpha   90.00000000
_cell_angle_beta   120.95591050
_cell_angle_gamma   90.00000000
_symmetry_Int_Tables_number   1
_chemical_formula_structural   Cs8Lu2Se7
_chemical_formula_sum   'Cs16 Lu4 Se14'
_cell_volume   1667.41889977
_cell_formula_units_Z   2
loop_
 _symmetry_equiv_pos_site_id
 _symmetry_equiv_pos_as_xyz
  1  'x, y, z'
loop_
 _atom_site_type_symbol
 _atom_site_label
 _atom_site_symmetry_multiplicity
 _atom_site_fract_x
 _atom_site_fract_y
 _atom_site_fract_z
 _atom_site_occupancy
  Cs  Cs0  1  0.636589  0.419667  0.142655  1
  Cs  Cs1  1  0.769107  0.787251  0.214586  1
  Cs  Cs2  1  0.772954  0.995046  0.226864  1
  Cs  Cs3  1  0.783876  0.188052  0.228733  1
  Cs  Cs4  1  0.216127  0.688055  0.271261  1
  Cs  Cs5  1  0.227044  0.495049  0.273145  1
  Cs  Cs6  1  0.230890  0.287254  0.285415  1
  Cs  Cs7  1  0.363422  0.919670  0.357359  1
  Cs  Cs8  1  0.636589  0.080333  0.642655  1
  Cs  Cs9  1  0.769107  0.712748  0.714586  1
  Cs  Cs10  1  0.772954  0.504954  0.726864  1
  Cs  Cs11  1  0.783876  0.311948  0.728733  1
  Cs  Cs12  1  0.216127  0.811945  0.771260  1
  Cs  Cs13  1  0.227044  0.004951  0.773144  1
  Cs  Cs14  1  0.230889  0.212745  0.785415  1
  Cs  Cs15  1  0.363422  0.580330  0.857359  1
  Lu  Lu16  1  0.148303  0.100443  0.146593  1
  Lu  Lu17  1  0.851687  0.600446  0.353395  1
  Lu  Lu18  1  0.148303  0.399557  0.646593  1
  Lu  Lu19  1  0.851686  0.899554  0.853395  1
  Se  Se20  1  0.999994  0.999998  0.999993  1
  Se  Se21  1  0.054948  0.817090  0.060980  1
  Se  Se22  1  0.827191  0.607019  0.046440  1
  Se  Se23  1  0.446126  0.100142  0.167014  1
  Se  Se24  1  0.553865  0.600144  0.332983  1
  Se  Se25  1  0.172816  0.107015  0.453559  1
  Se  Se26  1  0.945059  0.317086  0.439027  1
  Se  Se27  1  0.999994  0.500002  0.499993  1
  Se  Se28  1  0.054949  0.682910  0.560980  1
  Se  Se29  1  0.827191  0.892981  0.546440  1
  Se  Se30  1  0.446126  0.399858  0.667014  1
  Se  Se31  1  0.553865  0.899857  0.832983  1
  Se  Se32  1  0.172817  0.392985  0.953560  1
  Se  Se33  1  0.945059  0.182914  0.939027  1
