# generated using pymatgen
data_Pr3Bi(IO4)4
_symmetry_space_group_name_H-M   'P 1'
_cell_length_a   5.75191614
_cell_length_b   5.78045180
_cell_length_c   11.19034900
_cell_angle_alpha   89.91095065
_cell_angle_beta   89.73581904
_cell_angle_gamma   90.11546933
_symmetry_Int_Tables_number   1
_chemical_formula_structural   Pr3Bi(IO4)4
_chemical_formula_sum   'Pr3 Bi1 I4 O16'
_cell_volume   372.05910098
_cell_formula_units_Z   1
loop_
 _symmetry_equiv_pos_site_id
 _symmetry_equiv_pos_as_xyz
  1  'x, y, z'
loop_
 _atom_site_type_symbol
 _atom_site_label
 _atom_site_symmetry_multiplicity
 _atom_site_fract_x
 _atom_site_fract_y
 _atom_site_fract_z
 _atom_site_occupancy
  Pr  Pr0  1  0.491325  0.315982  0.888961  1
  Pr  Pr1  1  0.500813  0.814344  0.114196  1
  Pr  Pr2  1  0.005629  0.816449  0.888972  1
  Bi  Bi3  1  0.987781  0.315422  0.096117  1
  I  I4  1  0.003998  0.326413  0.634157  1
  I  I5  1  0.994137  0.828931  0.365212  1
  I  I6  1  0.497465  0.825885  0.634570  1
  I  I7  1  0.504770  0.324455  0.364611  1
  O  O8  1  0.240809  0.068254  0.005186  1
  O  O9  1  0.755523  0.562696  0.991814  1
  O  O10  1  0.252149  0.565543  0.004746  1
  O  O11  1  0.745105  0.068136  0.993668  1
  O  O12  1  0.127160  0.430712  0.776767  1
  O  O13  1  0.864136  0.918507  0.222681  1
  O  O14  1  0.373390  0.931046  0.777638  1
  O  O15  1  0.621681  0.433918  0.221975  1
  O  O16  1  0.846693  0.085199  0.712582  1
  O  O17  1  0.165162  0.595299  0.292384  1
  O  O18  1  0.653023  0.585530  0.713059  1
  O  O19  1  0.360663  0.071956  0.292291  1
  O  O20  1  0.247976  0.166809  0.566431  1
  O  O21  1  0.756200  0.663772  0.439357  1
  O  O22  1  0.253182  0.667517  0.567124  1
  O  O23  1  0.751227  0.170869  0.435502  1
