# generated using pymatgen
data_Hf6MnCo9B4
_symmetry_space_group_name_H-M   'P 1'
_cell_length_a   8.82534595
_cell_length_b   8.82534595
_cell_length_c   3.13885200
_cell_angle_alpha   90.00000000
_cell_angle_beta   90.00000000
_cell_angle_gamma   89.55698517
_symmetry_Int_Tables_number   1
_chemical_formula_structural   Hf6MnCo9B4
_chemical_formula_sum   'Hf6 Mn1 Co9 B4'
_cell_volume   244.46761404
_cell_formula_units_Z   1
loop_
 _symmetry_equiv_pos_site_id
 _symmetry_equiv_pos_as_xyz
  1  'x, y, z'
loop_
 _atom_site_type_symbol
 _atom_site_label
 _atom_site_symmetry_multiplicity
 _atom_site_fract_x
 _atom_site_fract_y
 _atom_site_fract_z
 _atom_site_occupancy
  Hf  Hf0  1  0.000000  0.000000  0.000000  1
  Hf  Hf1  1  0.500000  0.500000  0.000000  1
  Hf  Hf2  1  0.825322  0.325322  0.000000  1
  Hf  Hf3  1  0.327451  0.172549  0.000000  1
  Hf  Hf4  1  0.672549  0.827451  0.000000  1
  Hf  Hf5  1  0.174678  0.674678  0.000000  1
  Mn  Mn6  1  0.500000  0.000000  0.500000  1
  Co  Co7  1  0.000000  0.500000  0.500000  1
  Co  Co8  1  0.070276  0.229204  0.500000  1
  Co  Co9  1  0.224737  0.926603  0.500000  1
  Co  Co10  1  0.775263  0.073397  0.500000  1
  Co  Co11  1  0.929724  0.770796  0.500000  1
  Co  Co12  1  0.426603  0.724737  0.500000  1
  Co  Co13  1  0.573397  0.275263  0.500000  1
  Co  Co14  1  0.729204  0.570276  0.500000  1
  Co  Co15  1  0.270796  0.429724  0.500000  1
  B  B16  1  0.620207  0.120207  0.000000  1
  B  B17  1  0.119207  0.380793  0.000000  1
  B  B18  1  0.880793  0.619207  0.000000  1
  B  B19  1  0.379793  0.879793  0.000000  1
