# generated using pymatgen
data_YEr3(FeB6)2
_symmetry_space_group_name_H-M   'P 1'
_cell_length_a   3.53176200
_cell_length_b   9.04796400
_cell_length_c   11.40951203
_cell_angle_alpha   90.00513995
_cell_angle_beta   90.00000000
_cell_angle_gamma   90.00000000
_symmetry_Int_Tables_number   1
_chemical_formula_structural   YEr3(FeB6)2
_chemical_formula_sum   'Y2 Er6 Fe4 B24'
_cell_volume   364.59386996
_cell_formula_units_Z   2
loop_
 _symmetry_equiv_pos_site_id
 _symmetry_equiv_pos_as_xyz
  1  'x, y, z'
loop_
 _atom_site_type_symbol
 _atom_site_label
 _atom_site_symmetry_multiplicity
 _atom_site_fract_x
 _atom_site_fract_y
 _atom_site_fract_z
 _atom_site_occupancy
  Y  Y0  1  0.500000  0.323832  0.414256  1
  Y  Y1  1  0.500000  0.676168  0.585744  1
  Er  Er2  1  0.500000  0.175813  0.914572  1
  Er  Er3  1  0.500000  0.824187  0.085428  1
  Er  Er4  1  0.500000  0.443181  0.129082  1
  Er  Er5  1  0.500000  0.556819  0.870918  1
  Er  Er6  1  0.500000  0.056909  0.629769  1
  Er  Er7  1  0.500000  0.943091  0.370231  1
  Fe  Fe8  1  0.500000  0.138280  0.179058  1
  Fe  Fe9  1  0.500000  0.861720  0.820942  1
  Fe  Fe10  1  0.500000  0.360989  0.680154  1
  Fe  Fe11  1  0.500000  0.639011  0.319846  1
  B  B12  1  0.000000  0.107928  0.470402  1
  B  B13  1  0.000000  0.892072  0.529598  1
  B  B14  1  0.000000  0.390126  0.969963  1
  B  B15  1  0.000000  0.609874  0.030037  1
  B  B16  1  0.000000  0.131644  0.313829  1
  B  B17  1  0.000000  0.868356  0.686171  1
  B  B18  1  0.000000  0.367464  0.814618  1
  B  B19  1  0.000000  0.632536  0.185382  1
  B  B20  1  0.000000  0.054123  0.067814  1
  B  B21  1  0.000000  0.945877  0.932186  1
  B  B22  1  0.000000  0.445346  0.568542  1
  B  B23  1  0.000000  0.554654  0.431458  1
  B  B24  1  0.000000  0.486291  0.287568  1
  B  B25  1  0.000000  0.513709  0.712432  1
  B  B26  1  0.000000  0.014462  0.788551  1
  B  B27  1  0.000000  0.985538  0.211449  1
  B  B28  1  0.000000  0.246358  0.081095  1
  B  B29  1  0.000000  0.753642  0.918905  1
  B  B30  1  0.000000  0.252971  0.582096  1
  B  B31  1  0.000000  0.747029  0.417904  1
  B  B32  1  0.000000  0.289240  0.232966  1
  B  B33  1  0.000000  0.710760  0.767034  1
  B  B34  1  0.000000  0.210195  0.734170  1
  B  B35  1  0.000000  0.789805  0.265830  1
