# generated using pymatgen
data_Li3La4ZrPt4
_symmetry_space_group_name_H-M   'P 1'
_cell_length_a   4.24273300
_cell_length_b   7.33441433
_cell_length_c   8.89453650
_cell_angle_alpha   92.22992032
_cell_angle_beta   90.00000000
_cell_angle_gamma   90.00000000
_symmetry_Int_Tables_number   1
_chemical_formula_structural   Li3La4ZrPt4
_chemical_formula_sum   'Li3 La4 Zr1 Pt4'
_cell_volume   276.57024993
_cell_formula_units_Z   1
loop_
 _symmetry_equiv_pos_site_id
 _symmetry_equiv_pos_as_xyz
  1  'x, y, z'
loop_
 _atom_site_type_symbol
 _atom_site_label
 _atom_site_symmetry_multiplicity
 _atom_site_fract_x
 _atom_site_fract_y
 _atom_site_fract_z
 _atom_site_occupancy
  Li  Li0  1  0.250000  0.130046  0.058514  1
  Li  Li1  1  0.250000  0.638112  0.435213  1
  Li  Li2  1  0.750000  0.876849  0.946255  1
  La  La3  1  0.250000  0.021675  0.696145  1
  La  La4  1  0.250000  0.545282  0.828816  1
  La  La5  1  0.750000  0.960220  0.307942  1
  La  La6  1  0.750000  0.462393  0.175474  1
  Zr  Zr7  1  0.750000  0.374529  0.554205  1
  Pt  Pt8  1  0.250000  0.246987  0.400514  1
  Pt  Pt9  1  0.250000  0.753389  0.118707  1
  Pt  Pt10  1  0.750000  0.737317  0.615786  1
  Pt  Pt11  1  0.750000  0.253198  0.862431  1
