# generated using pymatgen
data_Y4ScGaBi2
_symmetry_space_group_name_H-M   'P 1'
_cell_length_a   8.02215300
_cell_length_b   9.27724700
_cell_length_c   11.81792600
_cell_angle_alpha   90.00000000
_cell_angle_beta   90.00000000
_cell_angle_gamma   90.00000000
_symmetry_Int_Tables_number   1
_chemical_formula_structural   Y4ScGaBi2
_chemical_formula_sum   'Y16 Sc4 Ga4 Bi8'
_cell_volume   879.53135483
_cell_formula_units_Z   4
loop_
 _symmetry_equiv_pos_site_id
 _symmetry_equiv_pos_as_xyz
  1  'x, y, z'
loop_
 _atom_site_type_symbol
 _atom_site_label
 _atom_site_symmetry_multiplicity
 _atom_site_fract_x
 _atom_site_fract_y
 _atom_site_fract_z
 _atom_site_occupancy
  Y  Y0  1  0.176020  0.750000  0.715660  1
  Y  Y1  1  0.676020  0.750000  0.784340  1
  Y  Y2  1  0.823980  0.250000  0.284340  1
  Y  Y3  1  0.323980  0.250000  0.215660  1
  Y  Y4  1  0.311483  0.445885  0.943084  1
  Y  Y5  1  0.811483  0.054115  0.556916  1
  Y  Y6  1  0.688517  0.945885  0.056916  1
  Y  Y7  1  0.188517  0.554115  0.443084  1
  Y  Y8  1  0.688517  0.554115  0.056916  1
  Y  Y9  1  0.188517  0.945885  0.443084  1
  Y  Y10  1  0.311483  0.054115  0.943084  1
  Y  Y11  1  0.811483  0.445885  0.556916  1
  Y  Y12  1  0.347517  0.750000  0.202858  1
  Y  Y13  1  0.847517  0.750000  0.297142  1
  Y  Y14  1  0.652483  0.250000  0.797142  1
  Y  Y15  1  0.152483  0.250000  0.702858  1
  Sc  Sc16  1  0.037800  0.750000  0.989105  1
  Sc  Sc17  1  0.537800  0.750000  0.510895  1
  Sc  Sc18  1  0.962200  0.250000  0.010895  1
  Sc  Sc19  1  0.462200  0.250000  0.489105  1
  Ga  Ga20  1  0.404972  0.750000  0.958154  1
  Ga  Ga21  1  0.904972  0.750000  0.541846  1
  Ga  Ga22  1  0.595028  0.250000  0.041846  1
  Ga  Ga23  1  0.095028  0.250000  0.458154  1
  Bi  Bi24  1  0.441559  0.001852  0.672047  1
  Bi  Bi25  1  0.941559  0.498148  0.827953  1
  Bi  Bi26  1  0.558441  0.501852  0.327953  1
  Bi  Bi27  1  0.058441  0.998148  0.172047  1
  Bi  Bi28  1  0.558441  0.998148  0.327953  1
  Bi  Bi29  1  0.058441  0.501852  0.172047  1
  Bi  Bi30  1  0.441559  0.498148  0.672047  1
  Bi  Bi31  1  0.941559  0.001852  0.827953  1
