# generated using pymatgen
data_Tm16In4NiRh3
_symmetry_space_group_name_H-M   'P 1'
_cell_length_a   9.53181394
_cell_length_b   9.53181336
_cell_length_c   9.51056488
_cell_angle_alpha   59.92606579
_cell_angle_beta   59.92606362
_cell_angle_gamma   60.00000185
_symmetry_Int_Tables_number   1
_chemical_formula_structural   Tm16In4NiRh3
_chemical_formula_sum   'Tm16 In4 Ni1 Rh3'
_cell_volume   610.31797988
_cell_formula_units_Z   1
loop_
 _symmetry_equiv_pos_site_id
 _symmetry_equiv_pos_as_xyz
  1  'x, y, z'
loop_
 _atom_site_type_symbol
 _atom_site_label
 _atom_site_symmetry_multiplicity
 _atom_site_fract_x
 _atom_site_fract_y
 _atom_site_fract_z
 _atom_site_occupancy
  Tm  Tm0  1  0.062639  0.062639  0.437977  1
  Tm  Tm1  1  0.436745  0.062639  0.437977  1
  Tm  Tm2  1  0.061678  0.439119  0.060085  1
  Tm  Tm3  1  0.046517  0.652816  0.647852  1
  Tm  Tm4  1  0.439119  0.439119  0.060085  1
  Tm  Tm5  1  0.652816  0.046517  0.647852  1
  Tm  Tm6  1  0.185947  0.811784  0.190486  1
  Tm  Tm7  1  0.188353  0.188353  0.811785  1
  Tm  Tm8  1  0.811784  0.811784  0.190486  1
  Tm  Tm9  1  0.439119  0.061678  0.060085  1
  Tm  Tm10  1  0.811784  0.185947  0.190486  1
  Tm  Tm11  1  0.062639  0.436745  0.437977  1
  Tm  Tm12  1  0.811509  0.188353  0.811785  1
  Tm  Tm13  1  0.188353  0.811509  0.811785  1
  Tm  Tm14  1  0.649277  0.649277  0.052171  1
  Tm  Tm15  1  0.652816  0.652816  0.647852  1
  In  In16  1  0.415050  0.415050  0.417940  1
  In  In17  1  0.751959  0.415050  0.417940  1
  In  In18  1  0.415050  0.751959  0.417940  1
  In  In19  1  0.417330  0.417330  0.748010  1
  Ni  Ni20  1  0.858255  0.858255  0.425235  1
  Rh  Rh21  1  0.856694  0.856694  0.858738  1
  Rh  Rh22  1  0.427874  0.856694  0.858738  1
  Rh  Rh23  1  0.856694  0.427874  0.858738  1
