# generated using pymatgen
data_Tb2HoAl9Si3Ru4
_symmetry_space_group_name_H-M   'P 1'
_cell_length_a   8.68954331
_cell_length_b   8.66486415
_cell_length_c   9.54569000
_cell_angle_alpha   90.00000000
_cell_angle_beta   90.00000000
_cell_angle_gamma   120.06382467
_symmetry_Int_Tables_number   1
_chemical_formula_structural   Tb2HoAl9Si3Ru4
_chemical_formula_sum   'Tb4 Ho2 Al18 Si6 Ru8'
_cell_volume   622.03811534
_cell_formula_units_Z   2
loop_
 _symmetry_equiv_pos_site_id
 _symmetry_equiv_pos_as_xyz
  1  'x, y, z'
loop_
 _atom_site_type_symbol
 _atom_site_label
 _atom_site_symmetry_multiplicity
 _atom_site_fract_x
 _atom_site_fract_y
 _atom_site_fract_z
 _atom_site_occupancy
  Tb  Tb0  1  0.192770  0.385664  0.250000  1
  Tb  Tb1  1  0.807230  0.614336  0.750000  1
  Tb  Tb2  1  0.611464  0.808793  0.250000  1
  Tb  Tb3  1  0.388536  0.191207  0.750000  1
  Ho  Ho4  1  0.197975  0.808380  0.250000  1
  Ho  Ho5  1  0.802025  0.191620  0.750000  1
  Al  Al6  1  0.164868  0.329656  0.580000  1
  Al  Al7  1  0.835132  0.670344  0.420000  1
  Al  Al8  1  0.670291  0.834738  0.578461  1
  Al  Al9  1  0.835132  0.670344  0.080000  1
  Al  Al10  1  0.329709  0.165262  0.421539  1
  Al  Al11  1  0.164868  0.329656  0.920000  1
  Al  Al12  1  0.164518  0.834702  0.578293  1
  Al  Al13  1  0.329709  0.165262  0.078461  1
  Al  Al14  1  0.835482  0.165298  0.421707  1
  Al  Al15  1  0.670291  0.834738  0.921539  1
  Al  Al16  1  0.835482  0.165298  0.078293  1
  Al  Al17  1  0.164518  0.834702  0.921707  1
  Al  Al18  1  0.873403  0.433842  0.250000  1
  Al  Al19  1  0.126597  0.566158  0.750000  1
  Al  Al20  1  0.560361  0.433449  0.250000  1
  Al  Al21  1  0.439639  0.566551  0.750000  1
  Al  Al22  1  0.999589  0.998671  0.250000  1
  Al  Al23  1  0.000411  0.001329  0.750000  1
  Si  Si24  1  0.331852  0.664121  0.038865  1
  Si  Si25  1  0.668148  0.335879  0.961135  1
  Si  Si26  1  0.668148  0.335879  0.538865  1
  Si  Si27  1  0.331852  0.664121  0.461135  1
  Si  Si28  1  0.562792  0.126181  0.250000  1
  Si  Si29  1  0.437208  0.873819  0.750000  1
  Ru  Ru30  1  0.500000  0.000000  0.000000  1
  Ru  Ru31  1  0.000000  0.500000  0.000000  1
  Ru  Ru32  1  0.500000  0.000000  0.500000  1
  Ru  Ru33  1  0.500000  0.500000  0.000000  1
  Ru  Ru34  1  0.000000  0.500000  0.500000  1
  Ru  Ru35  1  0.500000  0.500000  0.500000  1
  Ru  Ru36  1  0.000000  0.000000  0.000000  1
  Ru  Ru37  1  0.000000  0.000000  0.500000  1
