# generated using pymatgen
data_LiNp2Mn(NiAs)4
_symmetry_space_group_name_H-M   'P 1'
_cell_length_a   4.01821500
_cell_length_b   6.64528459
_cell_length_c   7.02633577
_cell_angle_alpha   89.47683129
_cell_angle_beta   90.00000000
_cell_angle_gamma   90.00000000
_symmetry_Int_Tables_number   1
_chemical_formula_structural   LiNp2Mn(NiAs)4
_chemical_formula_sum   'Li1 Np2 Mn1 Ni4 As4'
_cell_volume   187.61067685
_cell_formula_units_Z   1
loop_
 _symmetry_equiv_pos_site_id
 _symmetry_equiv_pos_as_xyz
  1  'x, y, z'
loop_
 _atom_site_type_symbol
 _atom_site_label
 _atom_site_symmetry_multiplicity
 _atom_site_fract_x
 _atom_site_fract_y
 _atom_site_fract_z
 _atom_site_occupancy
  Li  Li0  1  0.250000  0.498111  0.246269  1
  Np  Np1  1  0.750000  0.001012  0.750517  1
  Np  Np2  1  0.250000  0.999195  0.249084  1
  Mn  Mn3  1  0.750000  0.502030  0.754287  1
  Ni  Ni4  1  0.250000  0.665888  0.914417  1
  Ni  Ni5  1  0.750000  0.345377  0.080802  1
  Ni  Ni6  1  0.750000  0.643580  0.421345  1
  Ni  Ni7  1  0.250000  0.346735  0.583433  1
  As  As8  1  0.250000  0.732346  0.580913  1
  As  As9  1  0.750000  0.267191  0.413478  1
  As  As10  1  0.750000  0.728825  0.088489  1
  As  As11  1  0.250000  0.269709  0.916966  1
