# generated using pymatgen
data_Sm3Tm17BiSb11
_symmetry_space_group_name_H-M   'P 1'
_cell_length_a   8.02784689
_cell_length_b   9.26226250
_cell_length_c   11.72032600
_cell_angle_alpha   90.04210768
_cell_angle_beta   89.94361667
_cell_angle_gamma   90.00108686
_symmetry_Int_Tables_number   1
_chemical_formula_structural   Sm3Tm17BiSb11
_chemical_formula_sum   'Sm3 Tm17 Bi1 Sb11'
_cell_volume   871.47619796
_cell_formula_units_Z   1
loop_
 _symmetry_equiv_pos_site_id
 _symmetry_equiv_pos_as_xyz
  1  'x, y, z'
loop_
 _atom_site_type_symbol
 _atom_site_label
 _atom_site_symmetry_multiplicity
 _atom_site_fract_x
 _atom_site_fract_y
 _atom_site_fract_z
 _atom_site_occupancy
  Sm  Sm0  1  0.814081  0.252547  0.280869  1
  Sm  Sm1  1  0.683880  0.750063  0.779713  1
  Sm  Sm2  1  0.184194  0.749867  0.719997  1
  Tm  Tm3  1  0.355831  0.747302  0.216943  1
  Tm  Tm4  1  0.849824  0.746532  0.284064  1
  Tm  Tm5  1  0.646899  0.250106  0.784006  1
  Tm  Tm6  1  0.147370  0.249904  0.715971  1
  Tm  Tm7  1  0.691926  0.561501  0.060244  1
  Tm  Tm8  1  0.193393  0.937800  0.441632  1
  Tm  Tm9  1  0.308964  0.062142  0.937580  1
  Tm  Tm10  1  0.808152  0.438242  0.560692  1
  Tm  Tm11  1  0.308336  0.438749  0.939282  1
  Tm  Tm12  1  0.808237  0.061934  0.560624  1
  Tm  Tm13  1  0.690692  0.937527  0.059970  1
  Tm  Tm14  1  0.191699  0.561349  0.439113  1
  Tm  Tm15  1  0.473745  0.250017  0.489179  1
  Tm  Tm16  1  0.973655  0.252268  0.010450  1
  Tm  Tm17  1  0.525732  0.749789  0.510726  1
  Tm  Tm18  1  0.025739  0.747786  0.987892  1
  Tm  Tm19  1  0.317244  0.254122  0.219054  1
  Bi  Bi20  1  0.069802  0.994842  0.173975  1
  Sb  Sb21  1  0.406951  0.750318  0.963023  1
  Sb  Sb22  1  0.907564  0.750062  0.536954  1
  Sb  Sb23  1  0.589869  0.249691  0.039168  1
  Sb  Sb24  1  0.094049  0.249690  0.461388  1
  Sb  Sb25  1  0.563020  0.994351  0.327207  1
  Sb  Sb26  1  0.068960  0.506039  0.172154  1
  Sb  Sb27  1  0.434571  0.492327  0.671686  1
  Sb  Sb28  1  0.934063  0.007869  0.829017  1
  Sb  Sb29  1  0.434783  0.007625  0.671633  1
  Sb  Sb30  1  0.933705  0.492087  0.827733  1
  Sb  Sb31  1  0.563067  0.505556  0.328068  1
