# generated using pymatgen
data_Tm4SiOs6W
_symmetry_space_group_name_H-M   'P 1'
_cell_length_a   5.48491781
_cell_length_b   5.20875017
_cell_length_c   8.83472500
_cell_angle_alpha   90.00000000
_cell_angle_beta   90.00000000
_cell_angle_gamma   121.82493330
_symmetry_Int_Tables_number   1
_chemical_formula_structural   Tm4SiOs6W
_chemical_formula_sum   'Tm4 Si1 Os6 W1'
_cell_volume   214.45863924
_cell_formula_units_Z   1
loop_
 _symmetry_equiv_pos_site_id
 _symmetry_equiv_pos_as_xyz
  1  'x, y, z'
loop_
 _atom_site_type_symbol
 _atom_site_label
 _atom_site_symmetry_multiplicity
 _atom_site_fract_x
 _atom_site_fract_y
 _atom_site_fract_z
 _atom_site_occupancy
  Tm  Tm0  1  0.672700  0.345918  0.563218  1
  Tm  Tm1  1  0.333893  0.667409  0.434822  1
  Tm  Tm2  1  0.333893  0.667409  0.065178  1
  Tm  Tm3  1  0.672700  0.345918  0.936782  1
  Si  Si4  1  0.827514  0.653877  0.250000  1
  Os  Os5  1  0.006316  0.012466  0.493072  1
  Os  Os6  1  0.006316  0.012466  0.006928  1
  Os  Os7  1  0.173209  0.818990  0.750000  1
  Os  Os8  1  0.644606  0.819083  0.750000  1
  Os  Os9  1  0.826145  0.171611  0.250000  1
  Os  Os10  1  0.346170  0.171245  0.250000  1
  W  W11  1  0.156539  0.313610  0.750000  1
