# generated using pymatgen
data_Ho3Tm5TcB24Ir2Ru
_symmetry_space_group_name_H-M   'P 1'
_cell_length_a   3.62267500
_cell_length_b   9.11860842
_cell_length_c   11.44234500
_cell_angle_alpha   90.06246948
_cell_angle_beta   90.00000000
_cell_angle_gamma   90.00000000
_symmetry_Int_Tables_number   1
_chemical_formula_structural   Ho3Tm5TcB24Ir2Ru
_chemical_formula_sum   'Ho3 Tm5 Tc1 B24 Ir2 Ru1'
_cell_volume   377.98339392
_cell_formula_units_Z   1
loop_
 _symmetry_equiv_pos_site_id
 _symmetry_equiv_pos_as_xyz
  1  'x, y, z'
loop_
 _atom_site_type_symbol
 _atom_site_label
 _atom_site_symmetry_multiplicity
 _atom_site_fract_x
 _atom_site_fract_y
 _atom_site_fract_z
 _atom_site_occupancy
  Ho  Ho0  1  0.000000  0.317041  0.409861  1
  Ho  Ho1  1  0.000000  0.681444  0.587895  1
  Ho  Ho2  1  0.000000  0.824612  0.085292  1
  Tm  Tm3  1  0.000000  0.176857  0.917321  1
  Tm  Tm4  1  0.000000  0.947132  0.372839  1
  Tm  Tm5  1  0.000000  0.054097  0.627267  1
  Tm  Tm6  1  0.000000  0.441302  0.124949  1
  Tm  Tm7  1  0.000000  0.558054  0.874666  1
  Tc  Tc8  1  0.000000  0.138299  0.179311  1
  B  B9  1  0.500000  0.553675  0.433727  1
  B  B10  1  0.500000  0.446059  0.566321  1
  B  B11  1  0.500000  0.053932  0.066222  1
  B  B12  1  0.500000  0.946164  0.932943  1
  B  B13  1  0.500000  0.750554  0.421079  1
  B  B14  1  0.500000  0.249247  0.579106  1
  B  B15  1  0.500000  0.248176  0.079287  1
  B  B16  1  0.500000  0.751914  0.920304  1
  B  B17  1  0.500000  0.792430  0.265618  1
  B  B18  1  0.500000  0.207628  0.735099  1
  B  B19  1  0.500000  0.292541  0.234016  1
  B  B20  1  0.500000  0.707908  0.765872  1
  B  B21  1  0.500000  0.631366  0.183709  1
  B  B22  1  0.500000  0.368297  0.816766  1
  B  B23  1  0.500000  0.131670  0.314866  1
  B  B24  1  0.500000  0.868300  0.684809  1
  B  B25  1  0.500000  0.982741  0.212988  1
  B  B26  1  0.500000  0.017295  0.787125  1
  B  B27  1  0.500000  0.481796  0.286363  1
  B  B28  1  0.500000  0.518067  0.713673  1
  B  B29  1  0.500000  0.608544  0.029912  1
  B  B30  1  0.500000  0.391444  0.969276  1
  B  B31  1  0.500000  0.107607  0.471481  1
  B  B32  1  0.500000  0.892158  0.529485  1
  Ir  Ir33  1  0.000000  0.637812  0.321767  1
  Ir  Ir34  1  0.000000  0.362268  0.678589  1
  Ru  Ru35  1  0.000000  0.861571  0.820194  1
