# generated using pymatgen
data_Zr2ZnCo5B2
_symmetry_space_group_name_H-M   'P 1'
_cell_length_a   8.73750000
_cell_length_b   8.73750000
_cell_length_c   3.07501700
_cell_angle_alpha   90.00000000
_cell_angle_beta   90.00000000
_cell_angle_gamma   90.00000000
_symmetry_Int_Tables_number   1
_chemical_formula_structural   Zr2ZnCo5B2
_chemical_formula_sum   'Zr4 Zn2 Co10 B4'
_cell_volume   234.75880957
_cell_formula_units_Z   2
loop_
 _symmetry_equiv_pos_site_id
 _symmetry_equiv_pos_as_xyz
  1  'x, y, z'
loop_
 _atom_site_type_symbol
 _atom_site_label
 _atom_site_symmetry_multiplicity
 _atom_site_fract_x
 _atom_site_fract_y
 _atom_site_fract_z
 _atom_site_occupancy
  Zr  Zr0  1  0.822787  0.322787  0.000000  1
  Zr  Zr1  1  0.322787  0.177213  0.000000  1
  Zr  Zr2  1  0.677213  0.822787  0.000000  1
  Zr  Zr3  1  0.177213  0.677213  0.000000  1
  Zn  Zn4  1  0.000000  0.000000  0.000000  1
  Zn  Zn5  1  0.500000  0.500000  0.000000  1
  Co  Co6  1  0.500000  0.000000  0.500000  1
  Co  Co7  1  0.000000  0.500000  0.500000  1
  Co  Co8  1  0.068895  0.224717  0.500000  1
  Co  Co9  1  0.224717  0.931105  0.500000  1
  Co  Co10  1  0.775283  0.068895  0.500000  1
  Co  Co11  1  0.931105  0.775283  0.500000  1
  Co  Co12  1  0.431105  0.724717  0.500000  1
  Co  Co13  1  0.568895  0.275283  0.500000  1
  Co  Co14  1  0.724717  0.568895  0.500000  1
  Co  Co15  1  0.275283  0.431105  0.500000  1
  B  B16  1  0.619539  0.119539  0.000000  1
  B  B17  1  0.119539  0.380461  0.000000  1
  B  B18  1  0.880461  0.619539  0.000000  1
  B  B19  1  0.380461  0.880461  0.000000  1
