# generated using pymatgen
data_Nd7HoSe12
_symmetry_space_group_name_H-M   'P 1'
_cell_length_a   11.16123908
_cell_length_b   4.17716700
_cell_length_c   11.48733207
_cell_angle_alpha   90.00000000
_cell_angle_beta   90.01309257
_cell_angle_gamma   90.00000000
_symmetry_Int_Tables_number   1
_chemical_formula_structural   Nd7HoSe12
_chemical_formula_sum   'Nd7 Ho1 Se12'
_cell_volume   535.56651211
_cell_formula_units_Z   1
loop_
 _symmetry_equiv_pos_site_id
 _symmetry_equiv_pos_as_xyz
  1  'x, y, z'
loop_
 _atom_site_type_symbol
 _atom_site_label
 _atom_site_symmetry_multiplicity
 _atom_site_fract_x
 _atom_site_fract_y
 _atom_site_fract_z
 _atom_site_occupancy
  Nd  Nd0  1  0.686116  0.500001  0.011675  1
  Nd  Nd1  1  0.003615  0.500001  0.192752  1
  Nd  Nd2  1  0.500371  0.000000  0.303889  1
  Nd  Nd3  1  0.187216  0.000000  0.488150  1
  Nd  Nd4  1  0.813044  0.500001  0.512082  1
  Nd  Nd5  1  0.496883  0.500001  0.695423  1
  Nd  Nd6  1  0.000640  0.000000  0.807650  1
  Ho  Ho7  1  0.312837  0.000000  0.988910  1
  Se  Se8  1  0.875633  0.000000  0.044772  1
  Se  Se9  1  0.439659  0.500001  0.115392  1
  Se  Se10  1  0.200368  0.000000  0.224046  1
  Se  Se11  1  0.697315  0.500001  0.271548  1
  Se  Se12  1  0.944524  0.000000  0.378990  1
  Se  Se13  1  0.374675  0.500001  0.454740  1
  Se  Se14  1  0.624662  0.000000  0.545244  1
  Se  Se15  1  0.056471  0.500001  0.620739  1
  Se  Se16  1  0.299996  0.000000  0.732242  1
  Se  Se17  1  0.801511  0.500001  0.772788  1
  Se  Se18  1  0.551295  0.000000  0.882756  1
  Se  Se19  1  0.133180  0.500001  0.956198  1
