# generated using pymatgen
data_Lu(S8F)3
_symmetry_space_group_name_H-M   'P 1'
_cell_length_a   14.56559936
_cell_length_b   14.56559912
_cell_length_c   14.56559864
_cell_angle_alpha   118.57350360
_cell_angle_beta   118.57350644
_cell_angle_gamma   118.57350555
_symmetry_Int_Tables_number   1
_chemical_formula_structural   Lu(S8F)3
_chemical_formula_sum   'Lu1 S24 F3'
_cell_volume   951.98540271
_cell_formula_units_Z   1
loop_
 _symmetry_equiv_pos_site_id
 _symmetry_equiv_pos_as_xyz
  1  'x, y, z'
loop_
 _atom_site_type_symbol
 _atom_site_label
 _atom_site_symmetry_multiplicity
 _atom_site_fract_x
 _atom_site_fract_y
 _atom_site_fract_z
 _atom_site_occupancy
  Lu  Lu0  1  0.815921  0.815921  0.815921  1
  S  S1  1  0.804713  0.530872  0.530872  1
  S  S2  1  0.530872  0.530872  0.804713  1
  S  S3  1  0.530872  0.804713  0.530872  1
  S  S4  1  0.252068  0.386073  0.636199  1
  S  S5  1  0.342459  0.945753  0.342459  1
  S  S6  1  0.342459  0.342459  0.945753  1
  S  S7  1  0.945753  0.342459  0.342459  1
  S  S8  1  0.121369  0.736280  0.254509  1
  S  S9  1  0.254509  0.121369  0.736280  1
  S  S10  1  0.736280  0.254509  0.121369  1
  S  S11  1  0.736280  0.121369  0.254509  1
  S  S12  1  0.254509  0.736280  0.121369  1
  S  S13  1  0.121369  0.254509  0.736280  1
  S  S14  1  0.345193  0.877652  0.533026  1
  S  S15  1  0.533026  0.345193  0.877652  1
  S  S16  1  0.877652  0.533026  0.345193  1
  S  S17  1  0.877652  0.345193  0.533026  1
  S  S18  1  0.533026  0.877652  0.345193  1
  S  S19  1  0.345193  0.533026  0.877652  1
  S  S20  1  0.252068  0.636199  0.386073  1
  S  S21  1  0.386073  0.252068  0.636199  1
  S  S22  1  0.636199  0.386073  0.252068  1
  S  S23  1  0.636199  0.252068  0.386073  1
  S  S24  1  0.386073  0.636199  0.252068  1
  F  F25  1  0.894720  0.016395  0.016395  1
  F  F26  1  0.016395  0.016395  0.894720  1
  F  F27  1  0.016395  0.894720  0.016395  1
