# generated using pymatgen
data_Zr6FeSnPb
_symmetry_space_group_name_H-M   'P 1'
_cell_length_a   3.48589500
_cell_length_b   8.08133080
_cell_length_c   8.08133000
_cell_angle_alpha   119.99999673
_cell_angle_beta   90.00000000
_cell_angle_gamma   90.00000000
_symmetry_Int_Tables_number   1
_chemical_formula_structural   Zr6FeSnPb
_chemical_formula_sum   'Zr6 Fe1 Sn1 Pb1'
_cell_volume   197.15630643
_cell_formula_units_Z   1
loop_
 _symmetry_equiv_pos_site_id
 _symmetry_equiv_pos_as_xyz
  1  'x, y, z'
loop_
 _atom_site_type_symbol
 _atom_site_label
 _atom_site_symmetry_multiplicity
 _atom_site_fract_x
 _atom_site_fract_y
 _atom_site_fract_z
 _atom_site_occupancy
  Zr  Zr0  1  0.500000  0.760260  0.761177  1
  Zr  Zr1  1  0.500000  0.000917  0.239740  1
  Zr  Zr2  1  0.500000  0.238823  0.999083  1
  Zr  Zr3  1  0.000000  0.386744  0.392680  1
  Zr  Zr4  1  0.000000  0.005936  0.613256  1
  Zr  Zr5  1  0.000000  0.607320  0.994064  1
  Fe  Fe6  1  0.000000  0.000000  0.000000  1
  Sn  Sn7  1  0.500000  0.333333  0.666667  1
  Pb  Pb8  1  0.500000  0.666667  0.333333  1
