# generated using pymatgen
data_La11Tl9Ir4
_symmetry_space_group_name_H-M   'P 1'
_cell_length_a   13.63588000
_cell_length_b   13.63587881
_cell_length_c   3.92785300
_cell_angle_alpha   90.00000000
_cell_angle_beta   90.00000000
_cell_angle_gamma   113.25971212
_symmetry_Int_Tables_number   1
_chemical_formula_structural   La11Tl9Ir4
_chemical_formula_sum   'La11 Tl9 Ir4'
_cell_volume   670.97559695
_cell_formula_units_Z   1
loop_
 _symmetry_equiv_pos_site_id
 _symmetry_equiv_pos_as_xyz
  1  'x, y, z'
loop_
 _atom_site_type_symbol
 _atom_site_label
 _atom_site_symmetry_multiplicity
 _atom_site_fract_x
 _atom_site_fract_y
 _atom_site_fract_z
 _atom_site_occupancy
  La  La0  1  0.314943  0.314943  0.000000  1
  La  La1  1  0.685057  0.685057  0.000000  1
  La  La2  1  0.000000  0.000000  0.000000  1
  La  La3  1  0.083165  0.419337  0.000000  1
  La  La4  1  0.916835  0.580663  0.000000  1
  La  La5  1  0.419337  0.083165  0.000000  1
  La  La6  1  0.580663  0.916835  0.000000  1
  La  La7  1  0.839441  0.160559  0.000000  1
  La  La8  1  0.160559  0.839441  0.000000  1
  La  La9  1  0.625644  0.374356  0.000000  1
  La  La10  1  0.374356  0.625644  0.000000  1
  Tl  Tl11  1  0.841884  0.365782  0.500000  1
  Tl  Tl12  1  0.158116  0.634218  0.500000  1
  Tl  Tl13  1  0.365782  0.841884  0.500000  1
  Tl  Tl14  1  0.634218  0.158116  0.500000  1
  Tl  Tl15  1  0.073295  0.216383  0.500000  1
  Tl  Tl16  1  0.926705  0.783617  0.500000  1
  Tl  Tl17  1  0.216383  0.073295  0.500000  1
  Tl  Tl18  1  0.783617  0.926705  0.500000  1
  Tl  Tl19  1  0.500000  0.500000  0.500000  1
  Ir  Ir20  1  0.245831  0.448919  0.500000  1
  Ir  Ir21  1  0.754169  0.551081  0.500000  1
  Ir  Ir22  1  0.448919  0.245831  0.500000  1
  Ir  Ir23  1  0.551081  0.754169  0.500000  1
