# generated using pymatgen
data_LuTa2Fe9
_symmetry_space_group_name_H-M   'P 1'
_cell_length_a   8.32171523
_cell_length_b   8.32171578
_cell_length_c   8.32171505
_cell_angle_alpha   34.11943649
_cell_angle_beta   34.11943400
_cell_angle_gamma   34.11943821
_symmetry_Int_Tables_number   1
_chemical_formula_structural   LuTa2Fe9
_chemical_formula_sum   'Lu1 Ta2 Fe9'
_cell_volume   161.65445270
_cell_formula_units_Z   1
loop_
 _symmetry_equiv_pos_site_id
 _symmetry_equiv_pos_as_xyz
  1  'x, y, z'
loop_
 _atom_site_type_symbol
 _atom_site_label
 _atom_site_symmetry_multiplicity
 _atom_site_fract_x
 _atom_site_fract_y
 _atom_site_fract_z
 _atom_site_occupancy
  Lu  Lu0  1  0.000000  0.000000  0.000000  1
  Ta  Ta1  1  0.143372  0.143372  0.143372  1
  Ta  Ta2  1  0.856628  0.856628  0.856628  1
  Fe  Fe3  1  0.588285  0.588285  0.081833  1
  Fe  Fe4  1  0.333516  0.333516  0.333516  1
  Fe  Fe5  1  0.918168  0.411714  0.411715  1
  Fe  Fe6  1  0.411714  0.918168  0.411715  1
  Fe  Fe7  1  0.500000  0.500000  0.500000  1
  Fe  Fe8  1  0.588286  0.081832  0.588285  1
  Fe  Fe9  1  0.081832  0.588286  0.588285  1
  Fe  Fe10  1  0.666484  0.666484  0.666484  1
  Fe  Fe11  1  0.411715  0.411715  0.918167  1
