# generated using pymatgen
data_Pr3NiCl3
_symmetry_space_group_name_H-M   'P 1'
_cell_length_a   10.10832808
_cell_length_b   10.10832813
_cell_length_c   10.10832800
_cell_angle_alpha   109.47122237
_cell_angle_beta   109.47122248
_cell_angle_gamma   109.47122151
_symmetry_Int_Tables_number   1
_chemical_formula_structural   Pr3NiCl3
_chemical_formula_sum   'Pr12 Ni4 Cl12'
_cell_volume   795.08959770
_cell_formula_units_Z   4
loop_
 _symmetry_equiv_pos_site_id
 _symmetry_equiv_pos_as_xyz
  1  'x, y, z'
loop_
 _atom_site_type_symbol
 _atom_site_label
 _atom_site_symmetry_multiplicity
 _atom_site_fract_x
 _atom_site_fract_y
 _atom_site_fract_z
 _atom_site_occupancy
  Pr  Pr0  1  0.476663  0.488332  0.238332  1
  Pr  Pr1  1  0.750000  0.238332  0.261668  1
  Pr  Pr2  1  0.750000  0.011668  0.488332  1
  Pr  Pr3  1  0.238332  0.476663  0.488332  1
  Pr  Pr4  1  0.261668  0.750000  0.238332  1
  Pr  Pr5  1  0.023337  0.261668  0.011668  1
  Pr  Pr6  1  0.011668  0.023337  0.261668  1
  Pr  Pr7  1  0.488332  0.750000  0.011668  1
  Pr  Pr8  1  0.488332  0.238332  0.476663  1
  Pr  Pr9  1  0.011668  0.488332  0.750000  1
  Pr  Pr10  1  0.261668  0.011668  0.023337  1
  Pr  Pr11  1  0.238332  0.261668  0.750000  1
  Ni  Ni12  1  0.250000  0.250000  0.250000  1
  Ni  Ni13  1  0.500000  0.000000  0.250000  1
  Ni  Ni14  1  0.000000  0.250000  0.500000  1
  Ni  Ni15  1  0.250000  0.500000  0.000000  1
  Cl  Cl16  1  0.250000  0.753922  0.746078  1
  Cl  Cl17  1  0.507844  0.503922  0.753922  1
  Cl  Cl18  1  0.992156  0.746078  0.996078  1
  Cl  Cl19  1  0.746078  0.250000  0.753922  1
  Cl  Cl20  1  0.996078  0.992156  0.746078  1
  Cl  Cl21  1  0.250000  0.996078  0.503922  1
  Cl  Cl22  1  0.753922  0.507844  0.503922  1
  Cl  Cl23  1  0.503922  0.250000  0.996078  1
  Cl  Cl24  1  0.753922  0.746078  0.250000  1
  Cl  Cl25  1  0.746078  0.996078  0.992156  1
  Cl  Cl26  1  0.996078  0.503922  0.250000  1
  Cl  Cl27  1  0.503922  0.753922  0.507844  1
