# generated using pymatgen
data_Zr6Ti4Sn5BiC2
_symmetry_space_group_name_H-M   'P 1'
_cell_length_a   8.39245700
_cell_length_b   8.35959449
_cell_length_c   5.68689200
_cell_angle_alpha   90.00000000
_cell_angle_beta   90.00000000
_cell_angle_gamma   120.13012163
_symmetry_Int_Tables_number   1
_chemical_formula_structural   Zr6Ti4Sn5BiC2
_chemical_formula_sum   'Zr6 Ti4 Sn5 Bi1 C2'
_cell_volume   345.07143520
_cell_formula_units_Z   1
loop_
 _symmetry_equiv_pos_site_id
 _symmetry_equiv_pos_as_xyz
  1  'x, y, z'
loop_
 _atom_site_type_symbol
 _atom_site_label
 _atom_site_symmetry_multiplicity
 _atom_site_fract_x
 _atom_site_fract_y
 _atom_site_fract_z
 _atom_site_occupancy
  Zr  Zr0  1  0.219062  0.000000  0.750000  1
  Zr  Zr1  1  0.779361  0.000000  0.250000  1
  Zr  Zr2  1  0.004340  0.225032  0.750000  1
  Zr  Zr3  1  0.999324  0.776819  0.250000  1
  Zr  Zr4  1  0.779308  0.774968  0.750000  1
  Zr  Zr5  1  0.222505  0.223181  0.250000  1
  Ti  Ti6  1  0.331439  0.663633  0.497383  1
  Ti  Ti7  1  0.667806  0.336367  0.497383  1
  Ti  Ti8  1  0.667806  0.336367  0.002617  1
  Ti  Ti9  1  0.331439  0.663633  0.002617  1
  Sn  Sn10  1  0.406612  0.000000  0.250000  1
  Sn  Sn11  1  0.000860  0.589934  0.750000  1
  Sn  Sn12  1  0.999485  0.409391  0.250000  1
  Sn  Sn13  1  0.410926  0.410066  0.750000  1
  Sn  Sn14  1  0.590095  0.590609  0.250000  1
  Bi  Bi15  1  0.590589  0.000000  0.750000  1
  C  C16  1  0.999522  0.000000  0.500061  1
  C  C17  1  0.999522  0.000000  0.999939  1
