# generated using pymatgen
data_CuB3IrRh3Au
_symmetry_space_group_name_H-M   'P 1'
_cell_length_a   13.41094512
_cell_length_b   13.41094494
_cell_length_c   2.78510000
_cell_angle_alpha   90.00000000
_cell_angle_beta   90.00000000
_cell_angle_gamma   167.50626742
_symmetry_Int_Tables_number   1
_chemical_formula_structural   CuB3IrRh3Au
_chemical_formula_sum   'Cu1 B3 Ir1 Rh3 Au1'
_cell_volume   108.36323615
_cell_formula_units_Z   1
loop_
 _symmetry_equiv_pos_site_id
 _symmetry_equiv_pos_as_xyz
  1  'x, y, z'
loop_
 _atom_site_type_symbol
 _atom_site_label
 _atom_site_symmetry_multiplicity
 _atom_site_fract_x
 _atom_site_fract_y
 _atom_site_fract_z
 _atom_site_occupancy
  Cu  Cu0  1  0.288084  0.711916  0.500000  1
  B  B1  1  0.386311  0.613689  0.500000  1
  B  B2  1  0.606885  0.393115  0.000000  1
  B  B3  1  0.989274  0.010726  0.500000  1
  Ir  Ir4  1  0.545154  0.454846  0.500000  1
  Rh  Rh5  1  0.140094  0.859906  0.500000  1
  Rh  Rh6  1  0.856060  0.143940  0.000000  1
  Rh  Rh7  1  0.451330  0.548670  0.000000  1
  Au  Au8  1  0.720807  0.279193  0.000000  1
