# generated using pymatgen
data_Sm2HoSi6(Pd4Pt)4
_symmetry_space_group_name_H-M   'P 1'
_cell_length_a   8.74724119
_cell_length_b   8.75909899
_cell_length_c   8.75909902
_cell_angle_alpha   59.91250795
_cell_angle_beta   59.89111568
_cell_angle_gamma   59.89111434
_symmetry_Int_Tables_number   1
_chemical_formula_structural   Sm2HoSi6(Pd4Pt)4
_chemical_formula_sum   'Sm2 Ho1 Si6 Pd16 Pt4'
_cell_volume   473.44682683
_cell_formula_units_Z   1
loop_
 _symmetry_equiv_pos_site_id
 _symmetry_equiv_pos_as_xyz
  1  'x, y, z'
loop_
 _atom_site_type_symbol
 _atom_site_label
 _atom_site_symmetry_multiplicity
 _atom_site_fract_x
 _atom_site_fract_y
 _atom_site_fract_z
 _atom_site_occupancy
  Sm  Sm0  1  0.250839  0.250235  0.250235  1
  Sm  Sm1  1  0.748425  0.750109  0.750109  1
  Ho  Ho2  1  0.999986  0.000107  0.000107  1
  Si  Si3  1  0.731827  0.266806  0.266806  1
  Si  Si4  1  0.269343  0.731561  0.731561  1
  Si  Si5  1  0.268531  0.731470  0.267496  1
  Si  Si6  1  0.731690  0.268245  0.732956  1
  Si  Si7  1  0.268531  0.267496  0.731470  1
  Si  Si8  1  0.731690  0.732956  0.268245  1
  Pd  Pd9  1  0.618471  0.615072  0.151830  1
  Pd  Pd10  1  0.618471  0.151830  0.615072  1
  Pd  Pd11  1  0.848536  0.382688  0.382688  1
  Pd  Pd12  1  0.149518  0.617038  0.617038  1
  Pd  Pd13  1  0.344222  0.000686  0.000686  1
  Pd  Pd14  1  0.654823  0.000284  0.000284  1
  Pd  Pd15  1  0.999214  0.345684  0.656221  1
  Pd  Pd16  1  0.999214  0.656221  0.345684  1
  Pd  Pd17  1  0.999679  0.345323  0.000196  1
  Pd  Pd18  1  0.655208  0.999687  0.345756  1
  Pd  Pd19  1  0.999332  0.655742  0.000251  1
  Pd  Pd20  1  0.344466  0.000165  0.656067  1
  Pd  Pd21  1  0.999679  0.000196  0.345323  1
  Pd  Pd22  1  0.999332  0.000251  0.655742  1
  Pd  Pd23  1  0.655208  0.345756  0.999687  1
  Pd  Pd24  1  0.344466  0.656067  0.000165  1
  Pt  Pt25  1  0.385451  0.385779  0.385779  1
  Pt  Pt26  1  0.616841  0.613567  0.613567  1
  Pt  Pt27  1  0.383504  0.384098  0.844879  1
  Pt  Pt28  1  0.383504  0.844879  0.384098  1
