# generated using pymatgen
data_Ho8Si13Pt3
_symmetry_space_group_name_H-M   'P 1'
_cell_length_a   8.12524900
_cell_length_b   8.12524921
_cell_length_c   8.02253000
_cell_angle_alpha   90.00000000
_cell_angle_beta   90.00000000
_cell_angle_gamma   120.00000322
_symmetry_Int_Tables_number   1
_chemical_formula_structural   Ho8Si13Pt3
_chemical_formula_sum   'Ho8 Si13 Pt3'
_cell_volume   458.68584331
_cell_formula_units_Z   1
loop_
 _symmetry_equiv_pos_site_id
 _symmetry_equiv_pos_as_xyz
  1  'x, y, z'
loop_
 _atom_site_type_symbol
 _atom_site_label
 _atom_site_symmetry_multiplicity
 _atom_site_fract_x
 _atom_site_fract_y
 _atom_site_fract_z
 _atom_site_occupancy
  Ho  Ho0  1  0.000000  0.000000  0.246684  1
  Ho  Ho1  1  0.000000  0.000000  0.753053  1
  Ho  Ho2  1  0.498856  0.501144  0.246523  1
  Ho  Ho3  1  0.498856  0.997713  0.246523  1
  Ho  Ho4  1  0.002287  0.501144  0.246523  1
  Ho  Ho5  1  0.497821  0.502179  0.753561  1
  Ho  Ho6  1  0.497821  0.995641  0.753561  1
  Ho  Ho7  1  0.004359  0.502179  0.753561  1
  Si  Si8  1  0.165457  0.834543  0.498090  1
  Si  Si9  1  0.165457  0.330913  0.498090  1
  Si  Si10  1  0.669087  0.834543  0.498090  1
  Si  Si11  1  0.833748  0.166252  0.501429  1
  Si  Si12  1  0.833748  0.667496  0.501429  1
  Si  Si13  1  0.332504  0.166252  0.501429  1
  Si  Si14  1  0.834007  0.165993  0.000144  1
  Si  Si15  1  0.834007  0.668013  0.000144  1
  Si  Si16  1  0.331987  0.165993  0.000144  1
  Si  Si17  1  0.166087  0.833913  0.999670  1
  Si  Si18  1  0.166087  0.332175  0.999670  1
  Si  Si19  1  0.667825  0.833913  0.999670  1
  Si  Si20  1  0.333333  0.666667  0.002170  1
  Pt  Pt21  1  0.333333  0.666667  0.499896  1
  Pt  Pt22  1  0.666667  0.333333  0.500254  1
  Pt  Pt23  1  0.666667  0.333333  0.999692  1
