# generated using pymatgen
data_Dy2MnAl20Rh3
_symmetry_space_group_name_H-M   'P 1'
_cell_length_a   6.81980143
_cell_length_b   6.83715146
_cell_length_c   9.14073673
_cell_angle_alpha   90.32495015
_cell_angle_beta   90.15123988
_cell_angle_gamma   97.13301041
_symmetry_Int_Tables_number   1
_chemical_formula_structural   Dy2MnAl20Rh3
_chemical_formula_sum   'Dy2 Mn1 Al20 Rh3'
_cell_volume   422.90654911
_cell_formula_units_Z   1
loop_
 _symmetry_equiv_pos_site_id
 _symmetry_equiv_pos_as_xyz
  1  'x, y, z'
loop_
 _atom_site_type_symbol
 _atom_site_label
 _atom_site_symmetry_multiplicity
 _atom_site_fract_x
 _atom_site_fract_y
 _atom_site_fract_z
 _atom_site_occupancy
  Dy  Dy0  1  0.869055  0.125709  0.748305  1
  Dy  Dy1  1  0.130945  0.874291  0.251695  1
  Mn  Mn2  1  0.500000  0.000000  0.500000  1
  Al  Al3  1  0.618987  0.371025  0.547617  1
  Al  Al4  1  0.381013  0.628975  0.452383  1
  Al  Al5  1  0.378723  0.622948  0.051160  1
  Al  Al6  1  0.621277  0.377052  0.948840  1
  Al  Al7  1  0.227619  0.218843  0.497386  1
  Al  Al8  1  0.772381  0.781157  0.502614  1
  Al  Al9  1  0.775784  0.776689  0.001068  1
  Al  Al10  1  0.224216  0.223311  0.998932  1
  Al  Al11  1  0.845252  0.155776  0.103458  1
  Al  Al12  1  0.154748  0.844224  0.896542  1
  Al  Al13  1  0.159941  0.848236  0.599397  1
  Al  Al14  1  0.840059  0.151764  0.400603  1
  Al  Al15  1  0.857325  0.589833  0.748882  1
  Al  Al16  1  0.142675  0.410167  0.251118  1
  Al  Al17  1  0.413335  0.139596  0.745305  1
  Al  Al18  1  0.586665  0.860404  0.254695  1
  Al  Al19  1  0.225460  0.479286  0.749393  1
  Al  Al20  1  0.774540  0.520714  0.250607  1
  Al  Al21  1  0.518845  0.778364  0.743107  1
  Al  Al22  1  0.481155  0.221636  0.256893  1
  Rh  Rh23  1  0.000000  0.500000  0.500000  1
  Rh  Rh24  1  0.000000  0.500000  0.000000  1
  Rh  Rh25  1  0.500000  0.000000  0.000000  1
