# generated using pymatgen
data_Ho7TmCr2(OsC4)2
_symmetry_space_group_name_H-M   'P 1'
_cell_length_a   5.03376400
_cell_length_b   6.45926942
_cell_length_c   9.74489724
_cell_angle_alpha   90.25976329
_cell_angle_beta   90.00000000
_cell_angle_gamma   90.00000000
_symmetry_Int_Tables_number   1
_chemical_formula_structural   Ho7TmCr2(OsC4)2
_chemical_formula_sum   'Ho7 Tm1 Cr2 Os2 C8'
_cell_volume   316.84659946
_cell_formula_units_Z   1
loop_
 _symmetry_equiv_pos_site_id
 _symmetry_equiv_pos_as_xyz
  1  'x, y, z'
loop_
 _atom_site_type_symbol
 _atom_site_label
 _atom_site_symmetry_multiplicity
 _atom_site_fract_x
 _atom_site_fract_y
 _atom_site_fract_z
 _atom_site_occupancy
  Ho  Ho0  1  0.750000  0.318341  0.441602  1
  Ho  Ho1  1  0.750000  0.822055  0.054369  1
  Ho  Ho2  1  0.250000  0.177774  0.945501  1
  Ho  Ho3  1  0.250000  0.531832  0.215878  1
  Ho  Ho4  1  0.750000  0.468496  0.784208  1
  Ho  Ho5  1  0.750000  0.971557  0.715757  1
  Ho  Ho6  1  0.250000  0.028093  0.284214  1
  Tm  Tm7  1  0.250000  0.680587  0.559337  1
  Cr  Cr8  1  0.250000  0.724338  0.861981  1
  Cr  Cr9  1  0.750000  0.275803  0.137776  1
  Os  Os10  1  0.750000  0.776813  0.363220  1
  Os  Os11  1  0.250000  0.223318  0.637032  1
  C  C12  1  0.250000  0.463246  0.763326  1
  C  C13  1  0.750000  0.537265  0.236240  1
  C  C14  1  0.750000  0.047525  0.255745  1
  C  C15  1  0.250000  0.952016  0.743521  1
  C  C16  1  0.250000  0.813783  0.040129  1
  C  C17  1  0.750000  0.186149  0.959702  1
  C  C18  1  0.750000  0.678027  0.549117  1
  C  C19  1  0.250000  0.322981  0.451347  1
