# generated using pymatgen
data_Np4Ga11SiRu
_symmetry_space_group_name_H-M   'P 1'
_cell_length_a   7.45015288
_cell_length_b   7.45015358
_cell_length_c   7.45015400
_cell_angle_alpha   109.81291077
_cell_angle_beta   109.81290453
_cell_angle_gamma   108.78998324
_symmetry_Int_Tables_number   1
_chemical_formula_structural   Np4Ga11SiRu
_chemical_formula_sum   'Np4 Ga11 Si1 Ru1'
_cell_volume   318.29352633
_cell_formula_units_Z   1
loop_
 _symmetry_equiv_pos_site_id
 _symmetry_equiv_pos_as_xyz
  1  'x, y, z'
loop_
 _atom_site_type_symbol
 _atom_site_label
 _atom_site_symmetry_multiplicity
 _atom_site_fract_x
 _atom_site_fract_y
 _atom_site_fract_z
 _atom_site_occupancy
  Np  Np0  1  0.504655  0.495364  0.499992  1
  Np  Np1  1  0.995372  0.495364  0.990709  1
  Np  Np2  1  0.995377  0.004651  0.500032  1
  Np  Np3  1  0.504619  0.004651  0.009273  1
  Ga  Ga4  1  0.002901  0.712666  0.709765  1
  Ga  Ga5  1  0.287329  0.997106  0.290230  1
  Ga  Ga6  1  0.497099  0.247994  0.750895  1
  Ga  Ga7  1  0.752097  0.503022  0.249077  1
  Ga  Ga8  1  0.250025  0.749918  0.499893  1
  Ga  Ga9  1  0.253945  0.503022  0.750925  1
  Ga  Ga10  1  0.706876  0.997106  0.709777  1
  Ga  Ga11  1  0.496849  0.745954  0.249105  1
  Ga  Ga12  1  0.712365  0.712323  0.999958  1
  Ga  Ga13  1  0.287637  0.287683  0.000045  1
  Ga  Ga14  1  0.002886  0.293103  0.290217  1
  Si  Si15  1  0.749971  0.250085  0.500114  1
  Ru  Ru16  1  0.999998  0.999990  0.999992  1
