# generated using pymatgen
data_Ac20Si15Bi
_symmetry_space_group_name_H-M   'P 1'
_cell_length_a   8.31508623
_cell_length_b   8.35668501
_cell_length_c   16.42926913
_cell_angle_alpha   89.60738022
_cell_angle_beta   90.16012378
_cell_angle_gamma   90.08030156
_symmetry_Int_Tables_number   1
_chemical_formula_structural   Ac20Si15Bi
_chemical_formula_sum   'Ac20 Si15 Bi1'
_cell_volume   1141.58098519
_cell_formula_units_Z   1
loop_
 _symmetry_equiv_pos_site_id
 _symmetry_equiv_pos_as_xyz
  1  'x, y, z'
loop_
 _atom_site_type_symbol
 _atom_site_label
 _atom_site_symmetry_multiplicity
 _atom_site_fract_x
 _atom_site_fract_y
 _atom_site_fract_z
 _atom_site_occupancy
  Ac  Ac0  1  0.476201  0.374280  0.127052  1
  Ac  Ac1  1  0.963729  0.138176  0.628730  1
  Ac  Ac2  1  0.872427  0.025584  0.878223  1
  Ac  Ac3  1  0.125769  0.971745  0.373166  1
  Ac  Ac4  1  0.527629  0.617490  0.627918  1
  Ac  Ac5  1  0.373996  0.476128  0.874398  1
  Ac  Ac6  1  0.630808  0.521044  0.369083  1
  Ac  Ac7  1  0.023893  0.873285  0.121627  1
  Ac  Ac8  1  0.628750  0.986712  0.442092  1
  Ac  Ac9  1  0.379171  0.014026  0.949576  1
  Ac  Ac10  1  0.986330  0.616411  0.554405  1
  Ac  Ac11  1  0.485250  0.877267  0.197643  1
  Ac  Ac12  1  0.520719  0.134010  0.706817  1
  Ac  Ac13  1  0.879752  0.487616  0.806399  1
  Ac  Ac14  1  0.119296  0.509329  0.300011  1
  Ac  Ac15  1  0.013043  0.378660  0.053075  1
  Ac  Ac16  1  0.307362  0.323371  0.496249  1
  Ac  Ac17  1  0.188388  0.810102  0.760319  1
  Ac  Ac18  1  0.812270  0.187363  0.247165  1
  Ac  Ac19  1  0.686848  0.691253  0.999085  1
  Si  Si20  1  0.709542  0.080961  0.059800  1
  Si  Si21  1  0.919567  0.283758  0.439637  1
  Si  Si22  1  0.421105  0.203973  0.308671  1
  Si  Si23  1  0.579756  0.789697  0.809670  1
  Si  Si24  1  0.210812  0.421997  0.691369  1
  Si  Si25  1  0.788338  0.580971  0.187506  1
  Si  Si26  1  0.079249  0.708804  0.943148  1
  Si  Si27  1  0.801842  0.829335  0.709167  1
  Si  Si28  1  0.198531  0.168321  0.207377  1
  Si  Si29  1  0.829460  0.802737  0.288049  1
  Si  Si30  1  0.332415  0.681665  0.442857  1
  Si  Si31  1  0.668960  0.301709  0.958851  1
  Si  Si32  1  0.695656  0.329643  0.537517  1
  Si  Si33  1  0.302378  0.669444  0.042675  1
  Si  Si34  1  0.169447  0.199705  0.793671  1
  Bi  Bi35  1  0.291315  0.933430  0.567001  1
