# generated using pymatgen
data_LiPr16In3Ru4
_symmetry_space_group_name_H-M   'P 1'
_cell_length_a   10.02556591
_cell_length_b   10.02556543
_cell_length_c   10.02556515
_cell_angle_alpha   59.79887950
_cell_angle_beta   59.79888261
_cell_angle_gamma   59.79888222
_symmetry_Int_Tables_number   1
_chemical_formula_structural   LiPr16In3Ru4
_chemical_formula_sum   'Li1 Pr16 In3 Ru4'
_cell_volume   709.29073110
_cell_formula_units_Z   1
loop_
 _symmetry_equiv_pos_site_id
 _symmetry_equiv_pos_as_xyz
  1  'x, y, z'
loop_
 _atom_site_type_symbol
 _atom_site_label
 _atom_site_symmetry_multiplicity
 _atom_site_fract_x
 _atom_site_fract_y
 _atom_site_fract_z
 _atom_site_occupancy
  Li  Li0  1  0.429477  0.429477  0.429477  1
  Pr  Pr1  1  0.060306  0.439903  0.439903  1
  Pr  Pr2  1  0.188877  0.810862  0.188877  1
  Pr  Pr3  1  0.652814  0.652814  0.652814  1
  Pr  Pr4  1  0.439903  0.439903  0.060306  1
  Pr  Pr5  1  0.058827  0.440229  0.058827  1
  Pr  Pr6  1  0.440229  0.058827  0.058827  1
  Pr  Pr7  1  0.058827  0.058827  0.440229  1
  Pr  Pr8  1  0.653637  0.653637  0.040431  1
  Pr  Pr9  1  0.653637  0.040431  0.653637  1
  Pr  Pr10  1  0.192826  0.805874  0.805874  1
  Pr  Pr11  1  0.439903  0.060306  0.439903  1
  Pr  Pr12  1  0.188877  0.188877  0.810862  1
  Pr  Pr13  1  0.040431  0.653637  0.653637  1
  Pr  Pr14  1  0.805874  0.805874  0.192826  1
  Pr  Pr15  1  0.810862  0.188877  0.188877  1
  Pr  Pr16  1  0.805874  0.192826  0.805874  1
  In  In17  1  0.419111  0.741145  0.419111  1
  In  In18  1  0.741145  0.419111  0.419111  1
  In  In19  1  0.419111  0.419111  0.741145  1
  Ru  Ru20  1  0.861192  0.861192  0.861192  1
  Ru  Ru21  1  0.414078  0.862092  0.862092  1
  Ru  Ru22  1  0.862092  0.414078  0.862092  1
  Ru  Ru23  1  0.862092  0.862092  0.414078  1
