# generated using pymatgen
data_K2BaPu3O9
_symmetry_space_group_name_H-M   'P 1'
_cell_length_a   6.11862700
_cell_length_b   6.11862725
_cell_length_c   7.48361500
_cell_angle_alpha   90.00000000
_cell_angle_beta   90.00000000
_cell_angle_gamma   119.99999322
_symmetry_Int_Tables_number   1
_chemical_formula_structural   K2BaPu3O9
_chemical_formula_sum   'K2 Ba1 Pu3 O9'
_cell_volume   242.63311497
_cell_formula_units_Z   1
loop_
 _symmetry_equiv_pos_site_id
 _symmetry_equiv_pos_as_xyz
  1  'x, y, z'
loop_
 _atom_site_type_symbol
 _atom_site_label
 _atom_site_symmetry_multiplicity
 _atom_site_fract_x
 _atom_site_fract_y
 _atom_site_fract_z
 _atom_site_occupancy
  K  K0  1  0.666667  0.333333  0.334624  1
  K  K1  1  0.333333  0.666667  0.665376  1
  Ba  Ba2  1  0.000000  0.000000  0.000000  1
  Pu  Pu3  1  0.000000  0.000000  0.500000  1
  Pu  Pu4  1  0.666667  0.333333  0.831423  1
  Pu  Pu5  1  0.333333  0.666667  0.168577  1
  O  O6  1  0.673312  0.836656  0.326057  1
  O  O7  1  0.326688  0.163344  0.673943  1
  O  O8  1  0.000000  0.500000  0.000000  1
  O  O9  1  0.836656  0.673312  0.673943  1
  O  O10  1  0.500000  0.000000  0.000000  1
  O  O11  1  0.163344  0.326688  0.326057  1
  O  O12  1  0.836656  0.163344  0.673943  1
  O  O13  1  0.500000  0.500000  0.000000  1
  O  O14  1  0.163344  0.836656  0.326057  1
