# generated using pymatgen
data_Pr17Ho3Sn16
_symmetry_space_group_name_H-M   'P 1'
_cell_length_a   8.31182159
_cell_length_b   8.47197944
_cell_length_c   16.06964500
_cell_angle_alpha   90.00000000
_cell_angle_beta   90.00000000
_cell_angle_gamma   90.10496109
_symmetry_Int_Tables_number   1
_chemical_formula_structural   Pr17Ho3Sn16
_chemical_formula_sum   'Pr17 Ho3 Sn16'
_cell_volume   1131.58363902
_cell_formula_units_Z   1
loop_
 _symmetry_equiv_pos_site_id
 _symmetry_equiv_pos_as_xyz
  1  'x, y, z'
loop_
 _atom_site_type_symbol
 _atom_site_label
 _atom_site_symmetry_multiplicity
 _atom_site_fract_x
 _atom_site_fract_y
 _atom_site_fract_z
 _atom_site_occupancy
  Pr  Pr0  1  0.367567  0.837166  0.878397  1
  Pr  Pr1  1  0.867768  0.662803  0.620473  1
  Pr  Pr2  1  0.633099  0.163740  0.379818  1
  Pr  Pr3  1  0.131245  0.337205  0.119809  1
  Pr  Pr4  1  0.633099  0.163740  0.120182  1
  Pr  Pr5  1  0.131245  0.337205  0.380191  1
  Pr  Pr6  1  0.367567  0.837166  0.621603  1
  Pr  Pr7  1  0.867768  0.662803  0.879527  1
  Pr  Pr8  1  0.518233  0.318280  0.900901  1
  Pr  Pr9  1  0.018466  0.181645  0.599601  1
  Pr  Pr10  1  0.481995  0.680777  0.401321  1
  Pr  Pr11  1  0.981044  0.817550  0.098498  1
  Pr  Pr12  1  0.481995  0.680777  0.098679  1
  Pr  Pr13  1  0.981044  0.817550  0.401502  1
  Pr  Pr14  1  0.518233  0.318280  0.599099  1
  Pr  Pr15  1  0.018466  0.181645  0.900399  1
  Pr  Pr16  1  0.303250  0.001540  0.250000  1
  Ho  Ho17  1  0.199559  0.501212  0.750000  1
  Ho  Ho18  1  0.699522  0.998384  0.750000  1
  Ho  Ho19  1  0.800932  0.498082  0.250000  1
  Sn  Sn20  1  0.291474  0.035316  0.041688  1
  Sn  Sn21  1  0.791461  0.466707  0.455554  1
  Sn  Sn22  1  0.708306  0.966879  0.544853  1
  Sn  Sn23  1  0.208729  0.533539  0.955055  1
  Sn  Sn24  1  0.708306  0.966879  0.955147  1
  Sn  Sn25  1  0.208729  0.533539  0.544945  1
  Sn  Sn26  1  0.291474  0.035316  0.458312  1
  Sn  Sn27  1  0.791461  0.466707  0.044446  1
  Sn  Sn28  1  0.564339  0.616318  0.750000  1
  Sn  Sn29  1  0.063686  0.883512  0.750000  1
  Sn  Sn30  1  0.437474  0.386561  0.250000  1
  Sn  Sn31  1  0.931134  0.117609  0.250000  1
  Sn  Sn32  1  0.323678  0.146922  0.750000  1
  Sn  Sn33  1  0.823068  0.354019  0.750000  1
  Sn  Sn34  1  0.679379  0.852101  0.250000  1
  Sn  Sn35  1  0.175207  0.640524  0.250000  1
