# generated using pymatgen
data_K3TlTe3
_symmetry_space_group_name_H-M   'P 1'
_cell_length_a   8.67758800
_cell_length_b   8.98160737
_cell_length_c   18.04682533
_cell_angle_alpha   60.98298983
_cell_angle_beta   90.00000000
_cell_angle_gamma   90.00000000
_symmetry_Int_Tables_number   1
_chemical_formula_structural   K3TlTe3
_chemical_formula_sum   'K12 Tl4 Te12'
_cell_volume   1229.99025758
_cell_formula_units_Z   4
loop_
 _symmetry_equiv_pos_site_id
 _symmetry_equiv_pos_as_xyz
  1  'x, y, z'
loop_
 _atom_site_type_symbol
 _atom_site_label
 _atom_site_symmetry_multiplicity
 _atom_site_fract_x
 _atom_site_fract_y
 _atom_site_fract_z
 _atom_site_occupancy
  K  K0  1  0.023244  0.947152  0.278316  1
  K  K1  1  0.523244  0.052848  0.221684  1
  K  K2  1  0.976756  0.052848  0.721684  1
  K  K3  1  0.476756  0.947152  0.778316  1
  K  K4  1  0.999813  0.718831  0.103847  1
  K  K5  1  0.499813  0.281169  0.396153  1
  K  K6  1  0.000187  0.281169  0.896153  1
  K  K7  1  0.500187  0.718831  0.603847  1
  K  K8  1  0.998954  0.317716  0.400572  1
  K  K9  1  0.498954  0.682284  0.099428  1
  K  K10  1  0.001046  0.682284  0.599428  1
  K  K11  1  0.501046  0.317716  0.900572  1
  Tl  Tl12  1  0.645635  0.667635  0.416482  1
  Tl  Tl13  1  0.145635  0.332365  0.083518  1
  Tl  Tl14  1  0.354365  0.332365  0.583518  1
  Tl  Tl15  1  0.854365  0.667635  0.916482  1
  Te  Te16  1  0.800702  0.348095  0.072121  1
  Te  Te17  1  0.300702  0.651905  0.427879  1
  Te  Te18  1  0.199298  0.651905  0.927879  1
  Te  Te19  1  0.699298  0.348095  0.572121  1
  Te  Te20  1  0.242410  0.345100  0.231375  1
  Te  Te21  1  0.742410  0.654900  0.268625  1
  Te  Te22  1  0.757590  0.654900  0.768625  1
  Te  Te23  1  0.257590  0.345100  0.731375  1
  Te  Te24  1  0.758312  0.955694  0.426158  1
  Te  Te25  1  0.258312  0.044306  0.073842  1
  Te  Te26  1  0.241688  0.044306  0.573842  1
  Te  Te27  1  0.741688  0.955694  0.926158  1
