# generated using pymatgen
data_V4Ga2GeMo5
_symmetry_space_group_name_H-M   'P 1'
_cell_length_a   4.89453124
_cell_length_b   4.89490990
_cell_length_c   14.61180390
_cell_angle_alpha   90.03050097
_cell_angle_beta   90.02233420
_cell_angle_gamma   90.22234907
_symmetry_Int_Tables_number   1
_chemical_formula_structural   V4Ga2GeMo5
_chemical_formula_sum   'V8 Ga4 Ge2 Mo10'
_cell_volume   350.07111463
_cell_formula_units_Z   2
loop_
 _symmetry_equiv_pos_site_id
 _symmetry_equiv_pos_as_xyz
  1  'x, y, z'
loop_
 _atom_site_type_symbol
 _atom_site_label
 _atom_site_symmetry_multiplicity
 _atom_site_fract_x
 _atom_site_fract_y
 _atom_site_fract_z
 _atom_site_occupancy
  V  V0  1  0.502887  0.997192  0.417971  1
  V  V1  1  0.502991  0.998046  0.748422  1
  V  V2  1  0.248787  0.502973  0.999010  1
  V  V3  1  0.247453  0.503590  0.333629  1
  V  V4  1  0.248389  0.503667  0.665013  1
  V  V5  1  0.996643  0.249882  0.167887  1
  V  V6  1  0.995634  0.248285  0.501692  1
  V  V7  1  0.994625  0.250754  0.832871  1
  Ga  Ga8  1  0.492337  0.494313  0.166440  1
  Ga  Ga9  1  0.492671  0.493036  0.498126  1
  Ga  Ga10  1  0.491894  0.493888  0.830730  1
  Ga  Ga11  1  0.005490  0.007019  0.000095  1
  Ge  Ge12  1  0.007862  0.009352  0.336081  1
  Ge  Ge13  1  0.007795  0.008686  0.668753  1
  Mo  Mo14  1  0.502838  0.998539  0.253670  1
  Mo  Mo15  1  0.502405  0.997571  0.583556  1
  Mo  Mo16  1  0.501935  0.997161  0.913308  1
  Mo  Mo17  1  0.752416  0.500491  0.999046  1
  Mo  Mo18  1  0.753408  0.501867  0.334002  1
  Mo  Mo19  1  0.752718  0.500632  0.665506  1
  Mo  Mo20  1  0.998670  0.748270  0.167703  1
  Mo  Mo21  1  0.999314  0.749727  0.500983  1
  Mo  Mo22  1  0.998718  0.747337  0.832526  1
  Mo  Mo23  1  0.502119  0.997720  0.082981  1
