# generated using pymatgen
data_DyTi2(Nb2Sn3)2
_symmetry_space_group_name_H-M   'P 1'
_cell_length_a   5.77248600
_cell_length_b   5.76792689
_cell_length_c   9.66349500
_cell_angle_alpha   90.00000000
_cell_angle_beta   90.00000000
_cell_angle_gamma   120.02613898
_symmetry_Int_Tables_number   1
_chemical_formula_structural   DyTi2(Nb2Sn3)2
_chemical_formula_sum   'Dy1 Ti2 Nb4 Sn6'
_cell_volume   278.56916521
_cell_formula_units_Z   1
loop_
 _symmetry_equiv_pos_site_id
 _symmetry_equiv_pos_as_xyz
  1  'x, y, z'
loop_
 _atom_site_type_symbol
 _atom_site_label
 _atom_site_symmetry_multiplicity
 _atom_site_fract_x
 _atom_site_fract_y
 _atom_site_fract_z
 _atom_site_occupancy
  Dy  Dy0  1  0.000000  0.000000  0.000000  1
  Ti  Ti1  1  0.500000  0.000000  0.750947  1
  Ti  Ti2  1  0.500000  0.000000  0.249053  1
  Nb  Nb3  1  0.000000  0.500000  0.751934  1
  Nb  Nb4  1  0.500000  0.500000  0.751934  1
  Nb  Nb5  1  0.000000  0.500000  0.248066  1
  Nb  Nb6  1  0.500000  0.500000  0.248066  1
  Sn  Sn7  1  0.665181  0.330362  0.500000  1
  Sn  Sn8  1  0.334819  0.669638  0.500000  1
  Sn  Sn9  1  0.663887  0.327771  0.000000  1
  Sn  Sn10  1  0.336113  0.672229  0.000000  1
  Sn  Sn11  1  0.000000  0.000000  0.680141  1
  Sn  Sn12  1  0.000000  0.000000  0.319859  1
