# generated using pymatgen
data_Yb4TmLu5(CuPb3)2
_symmetry_space_group_name_H-M   'P 1'
_cell_length_a   9.06024800
_cell_length_b   9.06374096
_cell_length_c   6.79962100
_cell_angle_alpha   90.00141133
_cell_angle_beta   89.99717626
_cell_angle_gamma   119.98725264
_symmetry_Int_Tables_number   1
_chemical_formula_structural   Yb4TmLu5(CuPb3)2
_chemical_formula_sum   'Yb4 Tm1 Lu5 Cu2 Pb6'
_cell_volume   483.63606589
_cell_formula_units_Z   1
loop_
 _symmetry_equiv_pos_site_id
 _symmetry_equiv_pos_as_xyz
  1  'x, y, z'
loop_
 _atom_site_type_symbol
 _atom_site_label
 _atom_site_symmetry_multiplicity
 _atom_site_fract_x
 _atom_site_fract_y
 _atom_site_fract_z
 _atom_site_occupancy
  Yb  Yb0  1  0.333353  0.666517  0.499929  1
  Yb  Yb1  1  0.666836  0.333483  0.499929  1
  Yb  Yb2  1  0.666834  0.333485  0.000067  1
  Yb  Yb3  1  0.333348  0.666515  0.000067  1
  Tm  Tm4  1  0.251851  0.000000  0.750011  1
  Lu  Lu5  1  0.748623  0.000000  0.249999  1
  Lu  Lu6  1  0.000022  0.251334  0.749980  1
  Lu  Lu7  1  0.999822  0.748676  0.250009  1
  Lu  Lu8  1  0.748688  0.748666  0.749980  1
  Lu  Lu9  1  0.251146  0.251324  0.250009  1
  Cu  Cu10  1  0.999728  0.000000  0.499850  1
  Cu  Cu11  1  0.999732  0.000000  0.000159  1
  Pb  Pb12  1  0.608743  0.000000  0.750002  1
  Pb  Pb13  1  0.391607  0.000000  0.250000  1
  Pb  Pb14  1  0.999626  0.607869  0.750005  1
  Pb  Pb15  1  0.999899  0.391514  0.250000  1
  Pb  Pb16  1  0.391757  0.392131  0.750005  1
  Pb  Pb17  1  0.608386  0.608486  0.250000  1
