# generated using pymatgen
data_Ti3Be2IrN
_symmetry_space_group_name_H-M   'P 1'
_cell_length_a   7.79578488
_cell_length_b   7.79578483
_cell_length_c   7.79578500
_cell_angle_alpha   60.00000353
_cell_angle_beta   60.00000372
_cell_angle_gamma   60.00000474
_symmetry_Int_Tables_number   1
_chemical_formula_structural   Ti3Be2IrN
_chemical_formula_sum   'Ti12 Be8 Ir4 N4'
_cell_volume   335.01525642
_cell_formula_units_Z   4
loop_
 _symmetry_equiv_pos_site_id
 _symmetry_equiv_pos_as_xyz
  1  'x, y, z'
loop_
 _atom_site_type_symbol
 _atom_site_label
 _atom_site_symmetry_multiplicity
 _atom_site_fract_x
 _atom_site_fract_y
 _atom_site_fract_z
 _atom_site_occupancy
  Ti  Ti0  1  0.807691  0.807691  0.192309  1
  Ti  Ti1  1  0.192309  0.192309  0.807691  1
  Ti  Ti2  1  0.807691  0.192309  0.807691  1
  Ti  Ti3  1  0.192309  0.807691  0.192309  1
  Ti  Ti4  1  0.192309  0.807691  0.807691  1
  Ti  Ti5  1  0.807691  0.192309  0.192309  1
  Ti  Ti6  1  0.442309  0.442309  0.057691  1
  Ti  Ti7  1  0.057691  0.057691  0.442309  1
  Ti  Ti8  1  0.442309  0.057691  0.442309  1
  Ti  Ti9  1  0.057691  0.442309  0.057691  1
  Ti  Ti10  1  0.057691  0.442309  0.442309  1
  Ti  Ti11  1  0.442309  0.057691  0.057691  1
  Be  Be12  1  0.738909  0.420364  0.420364  1
  Be  Be13  1  0.420364  0.738909  0.420364  1
  Be  Be14  1  0.420364  0.420364  0.738909  1
  Be  Be15  1  0.420364  0.420364  0.420364  1
  Be  Be16  1  0.511091  0.829636  0.829636  1
  Be  Be17  1  0.829636  0.511091  0.829636  1
  Be  Be18  1  0.829636  0.829636  0.511091  1
  Be  Be19  1  0.829636  0.829636  0.829636  1
  Ir  Ir20  1  0.125000  0.625000  0.625000  1
  Ir  Ir21  1  0.625000  0.125000  0.625000  1
  Ir  Ir22  1  0.625000  0.625000  0.125000  1
  Ir  Ir23  1  0.625000  0.625000  0.625000  1
  N  N24  1  0.625000  0.125000  0.125000  1
  N  N25  1  0.125000  0.625000  0.125000  1
  N  N26  1  0.125000  0.125000  0.625000  1
  N  N27  1  0.125000  0.125000  0.125000  1
