# generated using pymatgen
data_Dy11Ho9Sn16
_symmetry_space_group_name_H-M   'P 1'
_cell_length_a   8.02464703
_cell_length_b   8.16073216
_cell_length_c   15.43145753
_cell_angle_alpha   89.95728023
_cell_angle_beta   89.99261669
_cell_angle_gamma   90.00759102
_symmetry_Int_Tables_number   1
_chemical_formula_structural   Dy11Ho9Sn16
_chemical_formula_sum   'Dy11 Ho9 Sn16'
_cell_volume   1010.55948561
_cell_formula_units_Z   1
loop_
 _symmetry_equiv_pos_site_id
 _symmetry_equiv_pos_as_xyz
  1  'x, y, z'
loop_
 _atom_site_type_symbol
 _atom_site_label
 _atom_site_symmetry_multiplicity
 _atom_site_fract_x
 _atom_site_fract_y
 _atom_site_fract_z
 _atom_site_occupancy
  Dy  Dy0  1  0.132979  0.337286  0.377515  1
  Dy  Dy1  1  0.367283  0.837264  0.622559  1
  Dy  Dy2  1  0.867094  0.662944  0.877833  1
  Dy  Dy3  1  0.519764  0.320604  0.903118  1
  Dy  Dy4  1  0.019850  0.179274  0.597246  1
  Dy  Dy5  1  0.480072  0.679127  0.402932  1
  Dy  Dy6  1  0.980151  0.820942  0.097006  1
  Dy  Dy7  1  0.480697  0.679305  0.096847  1
  Dy  Dy8  1  0.980395  0.820760  0.402974  1
  Dy  Dy9  1  0.519663  0.320832  0.597061  1
  Dy  Dy10  1  0.019664  0.179176  0.902943  1
  Ho  Ho11  1  0.366550  0.837717  0.877220  1
  Ho  Ho12  1  0.866602  0.662099  0.622656  1
  Ho  Ho13  1  0.633287  0.162118  0.377410  1
  Ho  Ho14  1  0.133474  0.337772  0.122370  1
  Ho  Ho15  1  0.632872  0.162616  0.122530  1
  Ho  Ho16  1  0.197976  0.503178  0.750312  1
  Ho  Ho17  1  0.698049  0.996814  0.749861  1
  Ho  Ho18  1  0.801754  0.496588  0.250022  1
  Ho  Ho19  1  0.301695  0.003381  0.249703  1
  Sn  Sn20  1  0.293867  0.038057  0.041173  1
  Sn  Sn21  1  0.793057  0.461981  0.458639  1
  Sn  Sn22  1  0.707126  0.962149  0.541429  1
  Sn  Sn23  1  0.207051  0.537968  0.958586  1
  Sn  Sn24  1  0.705205  0.962763  0.958547  1
  Sn  Sn25  1  0.205743  0.537687  0.541825  1
  Sn  Sn26  1  0.294095  0.037471  0.458275  1
  Sn  Sn27  1  0.794095  0.461855  0.041778  1
  Sn  Sn28  1  0.564229  0.618242  0.750340  1
  Sn  Sn29  1  0.064004  0.881695  0.749863  1
  Sn  Sn30  1  0.436107  0.381753  0.249736  1
  Sn  Sn31  1  0.935571  0.118244  0.249747  1
  Sn  Sn32  1  0.329633  0.148540  0.750049  1
  Sn  Sn33  1  0.829401  0.351573  0.750057  1
  Sn  Sn34  1  0.670349  0.851648  0.249954  1
  Sn  Sn35  1  0.170597  0.648578  0.249884  1
