# generated using pymatgen
data_SnSb7Pd5S2
_symmetry_space_group_name_H-M   'P 1'
_cell_length_a   19.88230980
_cell_length_b   19.88230880
_cell_length_c   6.40576500
_cell_angle_alpha   70.30039186
_cell_angle_beta   70.30039290
_cell_angle_gamma   8.32978067
_symmetry_Int_Tables_number   1
_chemical_formula_structural   SnSb7Pd5S2
_chemical_formula_sum   'Sn1 Sb7 Pd5 S2'
_cell_volume   345.25881591
_cell_formula_units_Z   1
loop_
 _symmetry_equiv_pos_site_id
 _symmetry_equiv_pos_as_xyz
  1  'x, y, z'
loop_
 _atom_site_type_symbol
 _atom_site_label
 _atom_site_symmetry_multiplicity
 _atom_site_fract_x
 _atom_site_fract_y
 _atom_site_fract_z
 _atom_site_occupancy
  Sn  Sn0  1  0.934369  0.934369  0.290560  1
  Sb  Sb1  1  0.676448  0.676448  0.713249  1
  Sb  Sb2  1  0.278508  0.278508  0.724785  1
  Sb  Sb3  1  0.878757  0.878757  0.734819  1
  Sb  Sb4  1  0.531173  0.531173  0.280355  1
  Sb  Sb5  1  0.131334  0.131334  0.256635  1
  Sb  Sb6  1  0.734194  0.734194  0.266462  1
  Sb  Sb7  1  0.338928  0.338928  0.266898  1
  Pd  Pd8  1  0.004528  0.004528  0.984236  1
  Pd  Pd9  1  0.600609  0.600609  0.971741  1
  Pd  Pd10  1  0.204893  0.204893  0.991597  1
  Pd  Pd11  1  0.807264  0.807264  0.003145  1
  Pd  Pd12  1  0.410354  0.410354  0.995676  1
  S  S13  1  0.077299  0.077299  0.742814  1
  S  S14  1  0.477063  0.477063  0.777029  1
