# generated using pymatgen
data_Dy3Ho2In2Bi
_symmetry_space_group_name_H-M   'P 1'
_cell_length_a   9.04375503
_cell_length_b   9.04061846
_cell_length_c   6.61409100
_cell_angle_alpha   90.00000000
_cell_angle_beta   90.00000000
_cell_angle_gamma   119.98852685
_symmetry_Int_Tables_number   1
_chemical_formula_structural   Dy3Ho2In2Bi
_chemical_formula_sum   'Dy6 Ho4 In4 Bi2'
_cell_volume   468.37955144
_cell_formula_units_Z   2
loop_
 _symmetry_equiv_pos_site_id
 _symmetry_equiv_pos_as_xyz
  1  'x, y, z'
loop_
 _atom_site_type_symbol
 _atom_site_label
 _atom_site_symmetry_multiplicity
 _atom_site_fract_x
 _atom_site_fract_y
 _atom_site_fract_z
 _atom_site_occupancy
  Dy  Dy0  1  0.768684  0.760454  0.750000  1
  Dy  Dy1  1  0.231316  0.991771  0.750000  1
  Dy  Dy2  1  0.000000  0.242766  0.750000  1
  Dy  Dy3  1  0.237896  0.238222  0.250000  1
  Dy  Dy4  1  0.762104  0.000326  0.250000  1
  Dy  Dy5  1  0.000000  0.760328  0.250000  1
  Ho  Ho6  1  0.670789  0.337897  0.006410  1
  Ho  Ho7  1  0.329211  0.667109  0.006410  1
  Ho  Ho8  1  0.329211  0.667109  0.493590  1
  Ho  Ho9  1  0.670789  0.337897  0.493590  1
  In  In10  1  0.000000  0.598605  0.750000  1
  In  In11  1  0.604368  0.606281  0.250000  1
  In  In12  1  0.395632  0.001913  0.250000  1
  In  In13  1  0.000000  0.395723  0.250000  1
  Bi  Bi14  1  0.395037  0.394320  0.750000  1
  Bi  Bi15  1  0.604963  0.999282  0.750000  1
