# generated using pymatgen
data_Dy6Sc4Bi5Pb
_symmetry_space_group_name_H-M   'P 1'
_cell_length_a   9.02502600
_cell_length_b   9.02502682
_cell_length_c   6.23255900
_cell_angle_alpha   90.00000000
_cell_angle_beta   90.00000000
_cell_angle_gamma   119.94195507
_symmetry_Int_Tables_number   1
_chemical_formula_structural   Dy6Sc4Bi5Pb
_chemical_formula_sum   'Dy6 Sc4 Bi5 Pb1'
_cell_volume   439.89367194
_cell_formula_units_Z   1
loop_
 _symmetry_equiv_pos_site_id
 _symmetry_equiv_pos_as_xyz
  1  'x, y, z'
loop_
 _atom_site_type_symbol
 _atom_site_label
 _atom_site_symmetry_multiplicity
 _atom_site_fract_x
 _atom_site_fract_y
 _atom_site_fract_z
 _atom_site_occupancy
  Dy  Dy0  1  0.755143  0.755143  0.750000  1
  Dy  Dy1  1  0.243900  0.003092  0.750000  1
  Dy  Dy2  1  0.003092  0.243900  0.750000  1
  Dy  Dy3  1  0.243340  0.243340  0.250000  1
  Dy  Dy4  1  0.756338  0.999154  0.250000  1
  Dy  Dy5  1  0.999154  0.756338  0.250000  1
  Sc  Sc6  1  0.665974  0.333476  0.999654  1
  Sc  Sc7  1  0.333476  0.665974  0.999654  1
  Sc  Sc8  1  0.333476  0.665974  0.500346  1
  Sc  Sc9  1  0.665974  0.333476  0.500346  1
  Bi  Bi10  1  0.605283  0.000418  0.750000  1
  Bi  Bi11  1  0.000418  0.605283  0.750000  1
  Bi  Bi12  1  0.603871  0.603871  0.250000  1
  Bi  Bi13  1  0.394631  0.999483  0.250000  1
  Bi  Bi14  1  0.999483  0.394631  0.250000  1
  Pb  Pb15  1  0.396449  0.396449  0.750000  1
