# generated using pymatgen
data_Eu2Zn14Ni3
_symmetry_space_group_name_H-M   'P 1'
_cell_length_a   6.74628864
_cell_length_b   6.74628760
_cell_length_c   6.74628851
_cell_angle_alpha   83.55514910
_cell_angle_beta   83.55515107
_cell_angle_gamma   83.55515615
_symmetry_Int_Tables_number   1
_chemical_formula_structural   Eu2Zn14Ni3
_chemical_formula_sum   'Eu2 Zn14 Ni3'
_cell_volume   301.62351102
_cell_formula_units_Z   1
loop_
 _symmetry_equiv_pos_site_id
 _symmetry_equiv_pos_as_xyz
  1  'x, y, z'
loop_
 _atom_site_type_symbol
 _atom_site_label
 _atom_site_symmetry_multiplicity
 _atom_site_fract_x
 _atom_site_fract_y
 _atom_site_fract_z
 _atom_site_occupancy
  Eu  Eu0  1  0.345120  0.345120  0.345120  1
  Eu  Eu1  1  0.654880  0.654880  0.654880  1
  Zn  Zn2  1  0.708945  0.291055  0.000000  1
  Zn  Zn3  1  0.291055  0.708945  0.000000  1
  Zn  Zn4  1  0.105131  0.105131  0.105131  1
  Zn  Zn5  1  0.656645  0.656645  0.140437  1
  Zn  Zn6  1  0.708945  0.000000  0.291055  1
  Zn  Zn7  1  0.000000  0.708945  0.291055  1
  Zn  Zn8  1  0.859563  0.343356  0.343355  1
  Zn  Zn9  1  0.343356  0.859563  0.343355  1
  Zn  Zn10  1  0.656644  0.140437  0.656645  1
  Zn  Zn11  1  0.140437  0.656644  0.656645  1
  Zn  Zn12  1  0.291055  0.000000  0.708944  1
  Zn  Zn13  1  0.000000  0.291055  0.708944  1
  Zn  Zn14  1  0.343355  0.343355  0.859563  1
  Zn  Zn15  1  0.894869  0.894869  0.894869  1
  Ni  Ni16  1  0.500000  0.000000  0.000000  1
  Ni  Ni17  1  0.000000  0.500000  0.000000  1
  Ni  Ni18  1  0.000000  0.000000  0.500000  1
