# generated using pymatgen
data_Pr16CdHg3(IrOs)2
_symmetry_space_group_name_H-M   'P 1'
_cell_length_a   10.01199441
_cell_length_b   10.03254036
_cell_length_c   10.09648800
_cell_angle_alpha   59.78893069
_cell_angle_beta   59.72044405
_cell_angle_gamma   59.58758006
_symmetry_Int_Tables_number   1
_chemical_formula_structural   Pr16CdHg3(IrOs)2
_chemical_formula_sum   'Pr16 Cd1 Hg3 Ir2 Os2'
_cell_volume   712.20388122
_cell_formula_units_Z   1
loop_
 _symmetry_equiv_pos_site_id
 _symmetry_equiv_pos_as_xyz
  1  'x, y, z'
loop_
 _atom_site_type_symbol
 _atom_site_label
 _atom_site_symmetry_multiplicity
 _atom_site_fract_x
 _atom_site_fract_y
 _atom_site_fract_z
 _atom_site_occupancy
  Pr  Pr0  1  0.347223  0.347127  0.349449  1
  Pr  Pr1  1  0.347223  0.347127  0.956199  1
  Pr  Pr2  1  0.345955  0.957905  0.348070  1
  Pr  Pr3  1  0.955604  0.346575  0.348911  1
  Pr  Pr4  1  0.809189  0.191590  0.192397  1
  Pr  Pr5  1  0.190363  0.810025  0.807645  1
  Pr  Pr6  1  0.190363  0.810025  0.191967  1
  Pr  Pr7  1  0.809189  0.191590  0.806823  1
  Pr  Pr8  1  0.190949  0.191491  0.808780  1
  Pr  Pr9  1  0.807648  0.807855  0.192249  1
  Pr  Pr10  1  0.939553  0.558314  0.561846  1
  Pr  Pr11  1  0.557461  0.940483  0.940467  1
  Pr  Pr12  1  0.557461  0.940483  0.561589  1
  Pr  Pr13  1  0.939553  0.558314  0.940287  1
  Pr  Pr14  1  0.560108  0.560642  0.939625  1
  Pr  Pr15  1  0.940586  0.941220  0.559097  1
  Cd  Cd16  1  0.263346  0.578448  0.579103  1
  Hg  Hg17  1  0.581835  0.584455  0.584330  1
  Hg  Hg18  1  0.581835  0.584455  0.249379  1
  Hg  Hg19  1  0.581846  0.248597  0.584779  1
  Ir  Ir20  1  0.142252  0.578999  0.139375  1
  Ir  Ir21  1  0.579092  0.142476  0.139217  1
  Os  Os22  1  0.140683  0.140901  0.137098  1
  Os  Os23  1  0.140683  0.140901  0.581318  1
