# generated using pymatgen
data_Hf8Zr2Cu2(SnSb)3
_symmetry_space_group_name_H-M   'P 1'
_cell_length_a   8.61502691
_cell_length_b   8.60275083
_cell_length_c   5.79555100
_cell_angle_alpha   90.00000000
_cell_angle_beta   90.00000000
_cell_angle_gamma   119.95287009
_symmetry_Int_Tables_number   1
_chemical_formula_structural   Hf8Zr2Cu2(SnSb)3
_chemical_formula_sum   'Hf8 Zr2 Cu2 Sn3 Sb3'
_cell_volume   372.15632308
_cell_formula_units_Z   1
loop_
 _symmetry_equiv_pos_site_id
 _symmetry_equiv_pos_as_xyz
  1  'x, y, z'
loop_
 _atom_site_type_symbol
 _atom_site_label
 _atom_site_symmetry_multiplicity
 _atom_site_fract_x
 _atom_site_fract_y
 _atom_site_fract_z
 _atom_site_occupancy
  Hf  Hf0  1  0.666930  0.333706  0.998427  1
  Hf  Hf1  1  0.333070  0.666777  0.998427  1
  Hf  Hf2  1  0.333070  0.666777  0.501573  1
  Hf  Hf3  1  0.666930  0.333706  0.501573  1
  Hf  Hf4  1  0.733274  0.732730  0.750000  1
  Hf  Hf5  1  0.266726  0.999456  0.750000  1
  Hf  Hf6  1  0.000000  0.267006  0.750000  1
  Hf  Hf7  1  0.000000  0.738831  0.250000  1
  Zr  Zr8  1  0.261944  0.262190  0.250000  1
  Zr  Zr9  1  0.738056  0.000245  0.250000  1
  Cu  Cu10  1  0.000000  0.998860  0.511704  1
  Cu  Cu11  1  0.000000  0.998860  0.988296  1
  Sn  Sn12  1  0.384547  0.384623  0.750000  1
  Sn  Sn13  1  0.615453  0.000076  0.750000  1
  Sn  Sn14  1  0.000000  0.615416  0.750000  1
  Sb  Sb15  1  0.612473  0.612094  0.250000  1
  Sb  Sb16  1  0.387527  0.999621  0.250000  1
  Sb  Sb17  1  0.000000  0.389027  0.250000  1
