# generated using pymatgen
data_Li3Ho(Si4Tc3)2
_symmetry_space_group_name_H-M   'P 1'
_cell_length_a   6.40148500
_cell_length_b   6.70079579
_cell_length_c   12.27802600
_cell_angle_alpha   90.36877253
_cell_angle_beta   90.00000000
_cell_angle_gamma   90.00000000
_symmetry_Int_Tables_number   1
_chemical_formula_structural   Li3Ho(Si4Tc3)2
_chemical_formula_sum   'Li6 Ho2 Si16 Tc12'
_cell_volume   526.65555372
_cell_formula_units_Z   2
loop_
 _symmetry_equiv_pos_site_id
 _symmetry_equiv_pos_as_xyz
  1  'x, y, z'
loop_
 _atom_site_type_symbol
 _atom_site_label
 _atom_site_symmetry_multiplicity
 _atom_site_fract_x
 _atom_site_fract_y
 _atom_site_fract_z
 _atom_site_occupancy
  Li  Li0  1  0.478356  0.334603  0.085029  1
  Li  Li1  1  0.978356  0.165397  0.414971  1
  Li  Li2  1  0.522599  0.668592  0.593506  1
  Li  Li3  1  0.022599  0.831408  0.906494  1
  Li  Li4  1  0.523547  0.661722  0.908414  1
  Li  Li5  1  0.023547  0.838278  0.591586  1
  Ho  Ho6  1  0.496365  0.333872  0.418859  1
  Ho  Ho7  1  0.996365  0.166128  0.081141  1
  Si  Si8  1  0.670385  0.019357  0.549864  1
  Si  Si9  1  0.170385  0.480643  0.950136  1
  Si  Si10  1  0.347917  0.954488  0.042735  1
  Si  Si11  1  0.847917  0.545512  0.457265  1
  Si  Si12  1  0.326711  0.955368  0.458971  1
  Si  Si13  1  0.826711  0.544632  0.041029  1
  Si  Si14  1  0.662991  0.025679  0.944980  1
  Si  Si15  1  0.162991  0.474321  0.555020  1
  Si  Si16  1  0.524686  0.390565  0.750590  1
  Si  Si17  1  0.024686  0.109435  0.749410  1
  Si  Si18  1  0.469336  0.623135  0.244162  1
  Si  Si19  1  0.969336  0.876865  0.255838  1
  Si  Si20  1  0.810958  0.657764  0.748894  1
  Si  Si21  1  0.310958  0.842236  0.751106  1
  Si  Si22  1  0.186851  0.351746  0.253700  1
  Si  Si23  1  0.686851  0.148254  0.246300  1
  Tc  Tc24  1  0.821270  0.333551  0.625504  1
  Tc  Tc25  1  0.321270  0.166449  0.874496  1
  Tc  Tc26  1  0.167663  0.666990  0.125174  1
  Tc  Tc27  1  0.667663  0.833010  0.374826  1
  Tc  Tc28  1  0.175515  0.661678  0.374444  1
  Tc  Tc29  1  0.675515  0.838322  0.125556  1
  Tc  Tc30  1  0.823285  0.334941  0.871823  1
  Tc  Tc31  1  0.323285  0.165059  0.628177  1
  Tc  Tc32  1  0.662023  0.992287  0.747786  1
  Tc  Tc33  1  0.162023  0.507713  0.752214  1
  Tc  Tc34  1  0.329542  0.008316  0.252082  1
  Tc  Tc35  1  0.829542  0.491684  0.247918  1
