# generated using pymatgen
data_Sc2Fe4P7(IrRu)4
_symmetry_space_group_name_H-M   'P 1'
_cell_length_a   9.24604870
_cell_length_b   9.25301054
_cell_length_c   3.79808800
_cell_angle_alpha   90.00000000
_cell_angle_beta   90.00000000
_cell_angle_gamma   120.31632639
_symmetry_Int_Tables_number   1
_chemical_formula_structural   Sc2Fe4P7(IrRu)4
_chemical_formula_sum   'Sc2 Fe4 P7 Ir4 Ru4'
_cell_volume   280.50572170
_cell_formula_units_Z   1
loop_
 _symmetry_equiv_pos_site_id
 _symmetry_equiv_pos_as_xyz
  1  'x, y, z'
loop_
 _atom_site_type_symbol
 _atom_site_label
 _atom_site_symmetry_multiplicity
 _atom_site_fract_x
 _atom_site_fract_y
 _atom_site_fract_z
 _atom_site_occupancy
  Sc  Sc0  1  0.659550  0.326090  0.500000  1
  Sc  Sc1  1  0.331485  0.667854  0.000000  1
  Fe  Fe2  1  0.724006  0.885869  0.000000  1
  Fe  Fe3  1  0.117509  0.847872  0.000000  1
  Fe  Fe4  1  0.163944  0.273214  0.000000  1
  Fe  Fe5  1  0.427577  0.059516  0.000000  1
  P  P6  1  0.600132  0.724316  0.500000  1
  P  P7  1  0.999144  0.001138  0.000000  1
  P  P8  1  0.280274  0.882342  0.500000  1
  P  P9  1  0.121839  0.403951  0.500000  1
  P  P10  1  0.895043  0.592886  0.000000  1
  P  P11  1  0.410432  0.283477  0.000000  1
  P  P12  1  0.688631  0.110353  0.000000  1
  Ir  Ir13  1  0.554825  0.946968  0.500000  1
  Ir  Ir14  1  0.388922  0.449179  0.500000  1
  Ir  Ir15  1  0.930085  0.360396  0.000000  1
  Ir  Ir16  1  0.636250  0.562261  0.000000  1
  Ru  Ru17  1  0.913735  0.123961  0.500000  1
  Ru  Ru18  1  0.226389  0.098006  0.500000  1
  Ru  Ru19  1  0.874451  0.786358  0.500000  1
  Ru  Ru20  1  0.055782  0.613991  0.500000  1
