# generated using pymatgen
data_Hf4TcMoIr2
_symmetry_space_group_name_H-M   'P 1'
_cell_length_a   6.50744400
_cell_length_b   4.63861400
_cell_length_c   9.27700500
_cell_angle_alpha   90.00000000
_cell_angle_beta   89.99994888
_cell_angle_gamma   90.00000000
_symmetry_Int_Tables_number   1
_chemical_formula_structural   Hf4TcMoIr2
_chemical_formula_sum   'Hf8 Tc2 Mo2 Ir4'
_cell_volume   280.03122778
_cell_formula_units_Z   2
loop_
 _symmetry_equiv_pos_site_id
 _symmetry_equiv_pos_as_xyz
  1  'x, y, z'
loop_
 _atom_site_type_symbol
 _atom_site_label
 _atom_site_symmetry_multiplicity
 _atom_site_fract_x
 _atom_site_fract_y
 _atom_site_fract_z
 _atom_site_occupancy
  Hf  Hf0  1  0.499931  0.749999  0.124796  1
  Hf  Hf1  1  0.000050  0.749999  0.124796  1
  Hf  Hf2  1  0.500068  0.250001  0.375200  1
  Hf  Hf3  1  0.999942  0.250001  0.375201  1
  Hf  Hf4  1  0.999896  0.749999  0.625227  1
  Hf  Hf5  1  0.500092  0.749999  0.625228  1
  Hf  Hf6  1  0.000107  0.250001  0.874775  1
  Hf  Hf7  1  0.499914  0.250001  0.874774  1
  Tc  Tc8  1  0.750000  0.250001  0.625824  1
  Tc  Tc9  1  0.250000  0.749999  0.874174  1
  Mo  Mo10  1  0.749999  0.250001  0.124098  1
  Mo  Mo11  1  0.249998  0.749999  0.375904  1
  Ir  Ir12  1  0.249997  0.250001  0.124259  1
  Ir  Ir13  1  0.749999  0.749999  0.375743  1
  Ir  Ir14  1  0.250003  0.250001  0.625982  1
  Ir  Ir15  1  0.750003  0.749999  0.874014  1
