# generated using pymatgen
data_Ca13Pr(PbN4)2
_symmetry_space_group_name_H-M   'P 1'
_cell_length_a   3.62364300
_cell_length_b   12.10789768
_cell_length_c   11.63134818
_cell_angle_alpha   90.02798491
_cell_angle_beta   90.00000000
_cell_angle_gamma   90.00000000
_symmetry_Int_Tables_number   1
_chemical_formula_structural   Ca13Pr(PbN4)2
_chemical_formula_sum   'Ca13 Pr1 Pb2 N8'
_cell_volume   510.32183563
_cell_formula_units_Z   1
loop_
 _symmetry_equiv_pos_site_id
 _symmetry_equiv_pos_as_xyz
  1  'x, y, z'
loop_
 _atom_site_type_symbol
 _atom_site_label
 _atom_site_symmetry_multiplicity
 _atom_site_fract_x
 _atom_site_fract_y
 _atom_site_fract_z
 _atom_site_occupancy
  Ca  Ca0  1  0.500395  0.672212  0.240394  1
  Ca  Ca1  1  0.500395  0.327788  0.759606  1
  Ca  Ca2  1  0.499540  0.168224  0.263177  1
  Ca  Ca3  1  0.499540  0.831776  0.736823  1
  Ca  Ca4  1  0.500303  0.000000  0.500000  1
  Ca  Ca5  1  0.999717  0.929786  0.263835  1
  Ca  Ca6  1  0.999717  0.070214  0.736165  1
  Ca  Ca7  1  0.000946  0.424922  0.243408  1
  Ca  Ca8  1  0.000946  0.575078  0.756592  1
  Ca  Ca9  1  0.000563  0.767244  0.479081  1
  Ca  Ca10  1  0.000563  0.232756  0.520919  1
  Ca  Ca11  1  0.998349  0.256953  0.023228  1
  Ca  Ca12  1  0.998349  0.743047  0.976772  1
  Pr  Pr13  1  0.499126  0.500000  0.000000  1
  Pb  Pb14  1  0.524834  0.500000  0.500000  1
  Pb  Pb15  1  0.475596  0.000000  0.000000  1
  N  N16  1  0.000355  0.599411  0.125436  1
  N  N17  1  0.000355  0.400589  0.874564  1
  N  N18  1  0.999736  0.102235  0.369538  1
  N  N19  1  0.999736  0.897765  0.630462  1
  N  N20  1  0.499936  0.832290  0.357612  1
  N  N21  1  0.499936  0.167710  0.642388  1
  N  N22  1  0.500533  0.335717  0.140737  1
  N  N23  1  0.500533  0.664283  0.859263  1
