# generated using pymatgen
data_Ca4DyP12Ir16Rh3
_symmetry_space_group_name_H-M   'P 1'
_cell_length_a   12.68772800
_cell_length_b   12.70208874
_cell_length_c   3.97822700
_cell_angle_alpha   90.00000000
_cell_angle_beta   90.00000000
_cell_angle_gamma   119.96260771
_symmetry_Int_Tables_number   1
_chemical_formula_structural   Ca4DyP12Ir16Rh3
_chemical_formula_sum   'Ca4 Dy1 P12 Ir16 Rh3'
_cell_volume   555.44710672
_cell_formula_units_Z   1
loop_
 _symmetry_equiv_pos_site_id
 _symmetry_equiv_pos_as_xyz
  1  'x, y, z'
loop_
 _atom_site_type_symbol
 _atom_site_label
 _atom_site_symmetry_multiplicity
 _atom_site_fract_x
 _atom_site_fract_y
 _atom_site_fract_z
 _atom_site_occupancy
  Ca  Ca0  1  0.333394  0.666638  0.500000  1
  Ca  Ca1  1  0.666757  0.333362  0.500000  1
  Ca  Ca2  1  0.000026  0.815292  0.000000  1
  Ca  Ca3  1  0.184732  0.184708  0.000000  1
  Dy  Dy4  1  0.815393  0.000000  0.000000  1
  P  P5  1  0.999974  0.639754  0.500000  1
  P  P6  1  0.360220  0.360246  0.500000  1
  P  P7  1  0.639684  0.000000  0.500000  1
  P  P8  1  0.515797  0.686665  0.000000  1
  P  P9  1  0.312550  0.829148  0.000000  1
  P  P10  1  0.170931  0.483706  0.000000  1
  P  P11  1  0.483402  0.170852  0.000000  1
  P  P12  1  0.687224  0.516294  0.000000  1
  P  P13  1  0.829132  0.313335  0.000000  1
  P  P14  1  0.000631  0.180348  0.500000  1
  P  P15  1  0.820283  0.819652  0.500000  1
  P  P16  1  0.179999  0.000000  0.500000  1
  Ir  Ir17  1  0.509718  0.869126  0.000000  1
  Ir  Ir18  1  0.130572  0.640523  0.000000  1
  Ir  Ir19  1  0.359183  0.489900  0.000000  1
  Ir  Ir20  1  0.490050  0.359477  0.000000  1
  Ir  Ir21  1  0.869284  0.510100  0.000000  1
  Ir  Ir22  1  0.640593  0.130874  0.000000  1
  Ir  Ir23  1  0.999577  0.283255  0.000000  1
  Ir  Ir24  1  0.716322  0.716745  0.000000  1
  Ir  Ir25  1  0.284620  0.000000  0.000000  1
  Ir  Ir26  1  0.625988  0.806194  0.500000  1
  Ir  Ir27  1  0.195901  0.819373  0.500000  1
  Ir  Ir28  1  0.180397  0.376544  0.500000  1
  Ir  Ir29  1  0.376528  0.180627  0.500000  1
  Ir  Ir30  1  0.803854  0.623456  0.500000  1
  Ir  Ir31  1  0.819794  0.193806  0.500000  1
  Ir  Ir32  1  0.997556  0.000000  0.500000  1
  Rh  Rh33  1  0.000020  0.460586  0.500000  1
  Rh  Rh34  1  0.539434  0.539414  0.500000  1
  Rh  Rh35  1  0.460484  0.000000  0.500000  1
