# generated using pymatgen
data_ScTc3P4Rh3
_symmetry_space_group_name_H-M   'P 1'
_cell_length_a   6.94639700
_cell_length_b   6.94639688
_cell_length_c   3.73547400
_cell_angle_alpha   90.00000000
_cell_angle_beta   90.00000000
_cell_angle_gamma   119.99999451
_symmetry_Int_Tables_number   1
_chemical_formula_structural   ScTc3P4Rh3
_chemical_formula_sum   'Sc1 Tc3 P4 Rh3'
_cell_volume   156.09736333
_cell_formula_units_Z   1
loop_
 _symmetry_equiv_pos_site_id
 _symmetry_equiv_pos_as_xyz
  1  'x, y, z'
loop_
 _atom_site_type_symbol
 _atom_site_label
 _atom_site_symmetry_multiplicity
 _atom_site_fract_x
 _atom_site_fract_y
 _atom_site_fract_z
 _atom_site_occupancy
  Sc  Sc0  1  0.000000  0.000000  0.000000  1
  Tc  Tc1  1  0.467656  0.931451  0.000000  1
  Tc  Tc2  1  0.463795  0.532344  0.000000  1
  Tc  Tc3  1  0.068549  0.536205  0.000000  1
  P  P4  1  0.666667  0.333333  0.000000  1
  P  P5  1  0.191684  0.381847  0.500000  1
  P  P6  1  0.190162  0.808316  0.500000  1
  P  P7  1  0.618153  0.809838  0.500000  1
  Rh  Rh8  1  0.806416  0.615138  0.500000  1
  Rh  Rh9  1  0.808723  0.193584  0.500000  1
  Rh  Rh10  1  0.384862  0.191277  0.500000  1
