# generated using pymatgen
data_Sm4Al15(SiRh2)3
_symmetry_space_group_name_H-M   'P 1'
_cell_length_a   7.56500210
_cell_length_b   7.53216127
_cell_length_c   9.50349844
_cell_angle_alpha   90.00021345
_cell_angle_beta   89.94503327
_cell_angle_gamma   119.77344796
_symmetry_Int_Tables_number   1
_chemical_formula_structural   Sm4Al15(SiRh2)3
_chemical_formula_sum   'Sm4 Al15 Si3 Rh6'
_cell_volume   470.03420633
_cell_formula_units_Z   1
loop_
 _symmetry_equiv_pos_site_id
 _symmetry_equiv_pos_as_xyz
  1  'x, y, z'
loop_
 _atom_site_type_symbol
 _atom_site_label
 _atom_site_symmetry_multiplicity
 _atom_site_fract_x
 _atom_site_fract_y
 _atom_site_fract_z
 _atom_site_occupancy
  Sm  Sm0  1  0.994546  0.664403  0.247438  1
  Sm  Sm1  1  0.005928  0.340535  0.753374  1
  Sm  Sm2  1  0.674429  0.000136  0.247930  1
  Sm  Sm3  1  0.321346  0.993951  0.749972  1
  Al  Al4  1  0.130371  0.127841  0.250091  1
  Al  Al5  1  0.870550  0.870081  0.749286  1
  Al  Al6  1  0.338727  0.003846  0.425014  1
  Al  Al7  1  0.002184  0.330444  0.430942  1
  Al  Al8  1  0.665839  0.000981  0.574289  1
  Al  Al9  1  0.662063  0.996903  0.923368  1
  Al  Al10  1  0.338499  0.004091  0.075490  1
  Al  Al11  1  0.334113  0.332563  0.552571  1
  Al  Al12  1  0.663805  0.667228  0.448664  1
  Al  Al13  1  0.663105  0.666596  0.052807  1
  Al  Al14  1  0.335928  0.332736  0.947830  1
  Al  Al15  1  0.338719  0.548804  0.250360  1
  Al  Al16  1  0.660796  0.451323  0.750347  1
  Al  Al17  1  0.547441  0.343231  0.250225  1
  Al  Al18  1  0.455527  0.657810  0.749723  1
  Si  Si19  1  0.003356  0.328697  0.073634  1
  Si  Si20  1  0.995976  0.671454  0.931598  1
  Si  Si21  1  0.996993  0.665749  0.563963  1
  Rh  Rh22  1  0.687370  0.337009  0.001373  1
  Rh  Rh23  1  0.312530  0.663386  0.997897  1
  Rh  Rh24  1  0.320303  0.670317  0.502348  1
  Rh  Rh25  1  0.679195  0.336072  0.499936  1
  Rh  Rh26  1  0.999826  0.000353  0.999281  1
  Rh  Rh27  1  0.000535  0.993457  0.500249  1
