# generated using pymatgen
data_CeI19
_symmetry_space_group_name_H-M   'P 1'
_cell_length_a   10.79729270
_cell_length_b   10.79729322
_cell_length_c   10.79729244
_cell_angle_alpha   93.02031934
_cell_angle_beta   93.02031776
_cell_angle_gamma   93.02032484
_symmetry_Int_Tables_number   1
_chemical_formula_structural   CeI19
_chemical_formula_sum   'Ce1 I19'
_cell_volume   1253.32708294
_cell_formula_units_Z   1
loop_
 _symmetry_equiv_pos_site_id
 _symmetry_equiv_pos_as_xyz
  1  'x, y, z'
loop_
 _atom_site_type_symbol
 _atom_site_label
 _atom_site_symmetry_multiplicity
 _atom_site_fract_x
 _atom_site_fract_y
 _atom_site_fract_z
 _atom_site_occupancy
  Ce  Ce0  1  0.500000  0.500000  0.500000  1
  I  I1  1  0.484872  0.477752  0.216677  1
  I  I2  1  0.216677  0.484872  0.477752  1
  I  I3  1  0.477752  0.216677  0.484872  1
  I  I4  1  0.515128  0.522248  0.783323  1
  I  I5  1  0.783323  0.515128  0.522248  1
  I  I6  1  0.522248  0.783323  0.515128  1
  I  I7  1  0.000000  0.000000  0.000000  1
  I  I8  1  0.049525  0.335959  0.982093  1
  I  I9  1  0.982093  0.049525  0.335959  1
  I  I10  1  0.335959  0.982093  0.049525  1
  I  I11  1  0.950475  0.664041  0.017907  1
  I  I12  1  0.017907  0.950475  0.664041  1
  I  I13  1  0.664041  0.017907  0.950475  1
  I  I14  1  0.730863  0.581208  0.123018  1
  I  I15  1  0.123018  0.730863  0.581208  1
  I  I16  1  0.581208  0.123018  0.730863  1
  I  I17  1  0.269137  0.418792  0.876982  1
  I  I18  1  0.876982  0.269137  0.418792  1
  I  I19  1  0.418792  0.876982  0.269137  1
