# generated using pymatgen
data_CsCr2InO8
_symmetry_space_group_name_H-M   'P 1'
_cell_length_a   5.71204201
_cell_length_b   9.97945574
_cell_length_c   9.30066032
_cell_angle_alpha   66.15719439
_cell_angle_beta   90.00206561
_cell_angle_gamma   106.62275151
_symmetry_Int_Tables_number   1
_chemical_formula_structural   CsCr2InO8
_chemical_formula_sum   'Cs2 Cr4 In2 O16'
_cell_volume   460.59576077
_cell_formula_units_Z   2
loop_
 _symmetry_equiv_pos_site_id
 _symmetry_equiv_pos_as_xyz
  1  'x, y, z'
loop_
 _atom_site_type_symbol
 _atom_site_label
 _atom_site_symmetry_multiplicity
 _atom_site_fract_x
 _atom_site_fract_y
 _atom_site_fract_z
 _atom_site_occupancy
  Cs  Cs0  1  0.499952  0.000012  0.500157  1
  Cs  Cs1  1  0.000066  0.000135  0.999902  1
  Cr  Cr2  1  0.649845  0.299488  0.981186  1
  Cr  Cr3  1  0.149664  0.299351  0.481159  1
  Cr  Cr4  1  0.850191  0.700335  0.518979  1
  Cr  Cr5  1  0.350339  0.700804  0.018658  1
  In  In6  1  0.750011  0.500062  0.250005  1
  In  In7  1  0.250076  0.499933  0.750005  1
  O  O8  1  0.561812  0.123484  0.118076  1
  O  O9  1  0.061618  0.123372  0.617980  1
  O  O10  1  0.938174  0.876292  0.382114  1
  O  O11  1  0.438294  0.876863  0.881837  1
  O  O12  1  0.713554  0.427095  0.058798  1
  O  O13  1  0.213407  0.426817  0.558872  1
  O  O14  1  0.786381  0.572769  0.441350  1
  O  O15  1  0.286615  0.573251  0.940968  1
  O  O16  1  0.904228  0.323391  0.869172  1
  O  O17  1  0.404004  0.323336  0.369159  1
  O  O18  1  0.595917  0.676492  0.630919  1
  O  O19  1  0.095878  0.676749  0.130682  1
  O  O20  1  0.419406  0.323350  0.869148  1
  O  O21  1  0.919303  0.323333  0.369193  1
  O  O22  1  0.080591  0.676486  0.630947  1
  O  O23  1  0.580677  0.676801  0.130735  1
