# generated using pymatgen
data_Dy2Y2Co3SiI2
_symmetry_space_group_name_H-M   'P 1'
_cell_length_a   4.00844200
_cell_length_b   4.00844198
_cell_length_c   16.96317000
_cell_angle_alpha   90.00000000
_cell_angle_beta   90.00000000
_cell_angle_gamma   120.00001668
_symmetry_Int_Tables_number   1
_chemical_formula_structural   Dy2Y2Co3SiI2
_chemical_formula_sum   'Dy2 Y2 Co3 Si1 I2'
_cell_volume   236.04172448
_cell_formula_units_Z   1
loop_
 _symmetry_equiv_pos_site_id
 _symmetry_equiv_pos_as_xyz
  1  'x, y, z'
loop_
 _atom_site_type_symbol
 _atom_site_label
 _atom_site_symmetry_multiplicity
 _atom_site_fract_x
 _atom_site_fract_y
 _atom_site_fract_z
 _atom_site_occupancy
  Dy  Dy0  1  0.000000  0.000000  0.102336  1
  Dy  Dy1  1  0.000000  0.000000  0.897875  1
  Y  Y2  1  0.000000  0.000000  0.605194  1
  Y  Y3  1  0.000000  0.000000  0.397043  1
  Co  Co4  1  0.666667  0.333333  0.494681  1
  Co  Co5  1  0.666667  0.333333  0.001403  1
  Co  Co6  1  0.333333  0.666667  0.998595  1
  Si  Si7  1  0.333333  0.666667  0.503835  1
  I  I8  1  0.333333  0.666667  0.250417  1
  I  I9  1  0.666667  0.333333  0.748619  1
