# generated using pymatgen
data_Tb4Nd4Sc12Si15Hg
_symmetry_space_group_name_H-M   'P 1'
_cell_length_a   7.21163995
_cell_length_b   7.46417217
_cell_length_c   14.22751046
_cell_angle_alpha   89.98483684
_cell_angle_beta   89.67239889
_cell_angle_gamma   90.24194882
_symmetry_Int_Tables_number   1
_chemical_formula_structural   Tb4Nd4Sc12Si15Hg
_chemical_formula_sum   'Tb4 Nd4 Sc12 Si15 Hg1'
_cell_volume   765.83217465
_cell_formula_units_Z   1
loop_
 _symmetry_equiv_pos_site_id
 _symmetry_equiv_pos_as_xyz
  1  'x, y, z'
loop_
 _atom_site_type_symbol
 _atom_site_label
 _atom_site_symmetry_multiplicity
 _atom_site_fract_x
 _atom_site_fract_y
 _atom_site_fract_z
 _atom_site_occupancy
  Tb  Tb0  1  0.511707  0.324322  0.098352  1
  Tb  Tb1  1  0.007881  0.171589  0.396688  1
  Tb  Tb2  1  0.512042  0.322738  0.398589  1
  Tb  Tb3  1  0.496319  0.681142  0.600156  1
  Nd  Nd4  1  0.011791  0.173721  0.097950  1
  Nd  Nd5  1  0.987755  0.828096  0.904299  1
  Nd  Nd6  1  0.488781  0.673386  0.905039  1
  Nd  Nd7  1  0.989009  0.832903  0.596721  1
  Sc  Sc8  1  0.162376  0.499560  0.753960  1
  Sc  Sc9  1  0.837069  0.499105  0.250347  1
  Sc  Sc10  1  0.338263  0.999626  0.249021  1
  Sc  Sc11  1  0.664464  0.999756  0.751695  1
  Sc  Sc12  1  0.342820  0.168932  0.628696  1
  Sc  Sc13  1  0.664148  0.823839  0.372814  1
  Sc  Sc14  1  0.167788  0.677006  0.370689  1
  Sc  Sc15  1  0.668917  0.823756  0.125364  1
  Sc  Sc16  1  0.824181  0.325433  0.625274  1
  Sc  Sc17  1  0.330055  0.175330  0.875741  1
  Sc  Sc18  1  0.829063  0.323972  0.876031  1
  Sc  Sc19  1  0.169672  0.675040  0.125674  1
  Si  Si20  1  0.036521  0.126609  0.751023  1
  Si  Si21  1  0.963637  0.879423  0.249384  1
  Si  Si22  1  0.465870  0.617113  0.248368  1
  Si  Si23  1  0.534860  0.381797  0.751112  1
  Si  Si24  1  0.287768  0.877179  0.750288  1
  Si  Si25  1  0.710005  0.124819  0.249386  1
  Si  Si26  1  0.214749  0.374937  0.249646  1
  Si  Si27  1  0.788055  0.622026  0.750782  1
  Si  Si28  1  0.833160  0.536525  0.457622  1
  Si  Si29  1  0.342461  0.962852  0.459241  1
  Si  Si30  1  0.843795  0.535202  0.040195  1
  Si  Si31  1  0.653946  0.039201  0.536141  1
  Si  Si32  1  0.152506  0.462595  0.962292  1
  Si  Si33  1  0.651815  0.039907  0.962006  1
  Si  Si34  1  0.347709  0.965680  0.040767  1
  Hg  Hg35  1  0.169043  0.454880  0.538647  1
