# generated using pymatgen
data_Lu5GaP11Ir19
_symmetry_space_group_name_H-M   'P 1'
_cell_length_a   12.71098000
_cell_length_b   12.71098054
_cell_length_c   3.95199600
_cell_angle_alpha   90.00000000
_cell_angle_beta   90.00000000
_cell_angle_gamma   119.83232065
_symmetry_Int_Tables_number   1
_chemical_formula_structural   Lu5GaP11Ir19
_chemical_formula_sum   'Lu5 Ga1 P11 Ir19'
_cell_volume   553.90660676
_cell_formula_units_Z   1
loop_
 _symmetry_equiv_pos_site_id
 _symmetry_equiv_pos_as_xyz
  1  'x, y, z'
loop_
 _atom_site_type_symbol
 _atom_site_label
 _atom_site_symmetry_multiplicity
 _atom_site_fract_x
 _atom_site_fract_y
 _atom_site_fract_z
 _atom_site_occupancy
  Lu  Lu0  1  0.334903  0.666134  0.500000  1
  Lu  Lu1  1  0.666134  0.334903  0.500000  1
  Lu  Lu2  1  0.178925  0.178925  0.000000  1
  Lu  Lu3  1  0.816447  0.001840  0.000000  1
  Lu  Lu4  1  0.001840  0.816447  0.000000  1
  Ga  Ga5  1  0.354341  0.354341  0.500000  1
  P  P6  1  0.311978  0.825890  0.000000  1
  P  P7  1  0.174558  0.484928  0.000000  1
  P  P8  1  0.518686  0.684922  0.000000  1
  P  P9  1  0.825890  0.311978  0.000000  1
  P  P10  1  0.484928  0.174558  0.000000  1
  P  P11  1  0.684922  0.518686  0.000000  1
  P  P12  1  0.645271  0.000423  0.500000  1
  P  P13  1  0.000423  0.645271  0.500000  1
  P  P14  1  0.826099  0.826099  0.500000  1
  P  P15  1  0.179181  0.998749  0.500000  1
  P  P16  1  0.998749  0.179181  0.500000  1
  Ir  Ir17  1  0.193581  0.816567  0.500000  1
  Ir  Ir18  1  0.170059  0.381229  0.500000  1
  Ir  Ir19  1  0.630603  0.809945  0.500000  1
  Ir  Ir20  1  0.816567  0.193581  0.500000  1
  Ir  Ir21  1  0.381229  0.170059  0.500000  1
  Ir  Ir22  1  0.809945  0.630603  0.500000  1
  Ir  Ir23  1  0.131215  0.636796  0.000000  1
  Ir  Ir24  1  0.361378  0.494145  0.000000  1
  Ir  Ir25  1  0.505476  0.861479  0.000000  1
  Ir  Ir26  1  0.636796  0.131215  0.000000  1
  Ir  Ir27  1  0.494145  0.361378  0.000000  1
  Ir  Ir28  1  0.861479  0.505476  0.000000  1
  Ir  Ir29  1  0.551127  0.551127  0.500000  1
  Ir  Ir30  1  0.461720  0.992285  0.500000  1
  Ir  Ir31  1  0.992285  0.461720  0.500000  1
  Ir  Ir32  1  0.719686  0.719686  0.000000  1
  Ir  Ir33  1  0.280851  0.995333  0.000000  1
  Ir  Ir34  1  0.995333  0.280851  0.000000  1
  Ir  Ir35  1  0.003253  0.003253  0.500000  1
