# generated using pymatgen
data_Sc3Nb7(GaSn3)2
_symmetry_space_group_name_H-M   'P 1'
_cell_length_a   8.44024000
_cell_length_b   8.44024201
_cell_length_c   5.70711900
_cell_angle_alpha   90.00000000
_cell_angle_beta   90.00000000
_cell_angle_gamma   119.99999995
_symmetry_Int_Tables_number   1
_chemical_formula_structural   Sc3Nb7(GaSn3)2
_chemical_formula_sum   'Sc3 Nb7 Ga2 Sn6'
_cell_volume   352.09289041
_cell_formula_units_Z   1
loop_
 _symmetry_equiv_pos_site_id
 _symmetry_equiv_pos_as_xyz
  1  'x, y, z'
loop_
 _atom_site_type_symbol
 _atom_site_label
 _atom_site_symmetry_multiplicity
 _atom_site_fract_x
 _atom_site_fract_y
 _atom_site_fract_z
 _atom_site_occupancy
  Sc  Sc0  1  0.268459  0.268459  0.250000  1
  Sc  Sc1  1  0.731541  0.000000  0.250000  1
  Sc  Sc2  1  0.000000  0.731541  0.250000  1
  Nb  Nb3  1  0.726513  0.726513  0.750000  1
  Nb  Nb4  1  0.273487  0.000000  0.750000  1
  Nb  Nb5  1  0.000000  0.273487  0.750000  1
  Nb  Nb6  1  0.666667  0.333333  0.002402  1
  Nb  Nb7  1  0.333333  0.666667  0.002402  1
  Nb  Nb8  1  0.333333  0.666667  0.497598  1
  Nb  Nb9  1  0.666667  0.333333  0.497598  1
  Ga  Ga10  1  0.000000  0.000000  0.992289  1
  Ga  Ga11  1  0.000000  0.000000  0.507711  1
  Sn  Sn12  1  0.387954  0.387954  0.750000  1
  Sn  Sn13  1  0.612046  0.000000  0.750000  1
  Sn  Sn14  1  0.000000  0.612046  0.750000  1
  Sn  Sn15  1  0.611829  0.611829  0.250000  1
  Sn  Sn16  1  0.388171  0.000000  0.250000  1
  Sn  Sn17  1  0.000000  0.388171  0.250000  1
