# generated using pymatgen
data_Ba2Sr6Sb4H2O
_symmetry_space_group_name_H-M   'P 1'
_cell_length_a   5.00842475
_cell_length_b   5.00842499
_cell_length_c   18.72660519
_cell_angle_alpha   97.68489534
_cell_angle_beta   97.68489448
_cell_angle_gamma   90.00000425
_symmetry_Int_Tables_number   1
_chemical_formula_structural   Ba2Sr6Sb4H2O
_chemical_formula_sum   'Ba2 Sr6 Sb4 H2 O1'
_cell_volume   461.26753779
_cell_formula_units_Z   1
loop_
 _symmetry_equiv_pos_site_id
 _symmetry_equiv_pos_as_xyz
  1  'x, y, z'
loop_
 _atom_site_type_symbol
 _atom_site_label
 _atom_site_symmetry_multiplicity
 _atom_site_fract_x
 _atom_site_fract_y
 _atom_site_fract_z
 _atom_site_occupancy
  Ba  Ba0  1  0.337871  0.337871  0.675740  1
  Ba  Ba1  1  0.915602  0.915602  0.831204  1
  Sr  Sr2  1  0.504645  0.004646  0.009293  1
  Sr  Sr3  1  0.004646  0.504645  0.009293  1
  Sr  Sr4  1  0.082567  0.082567  0.165132  1
  Sr  Sr5  1  0.658596  0.658596  0.317193  1
  Sr  Sr6  1  0.746010  0.246011  0.492021  1
  Sr  Sr7  1  0.246011  0.746010  0.492021  1
  Sb  Sb8  1  0.568498  0.568498  0.136998  1
  Sb  Sb9  1  0.177934  0.177934  0.355868  1
  Sb  Sb10  1  0.816047  0.816047  0.632096  1
  Sb  Sb11  1  0.437369  0.437369  0.874737  1
  H  H12  1  0.725990  0.725990  0.451983  1
  H  H13  1  0.267225  0.267225  0.534451  1
  O  O14  1  0.010984  0.010984  0.021969  1
