# generated using pymatgen
data_Nd3Cd3Pb2Au
_symmetry_space_group_name_H-M   'P 1'
_cell_length_a   7.80377900
_cell_length_b   7.80377887
_cell_length_c   4.60068100
_cell_angle_alpha   90.00000000
_cell_angle_beta   90.00000000
_cell_angle_gamma   119.99999631
_symmetry_Int_Tables_number   1
_chemical_formula_structural   Nd3Cd3Pb2Au
_chemical_formula_sum   'Nd3 Cd3 Pb2 Au1'
_cell_volume   242.64016118
_cell_formula_units_Z   1
loop_
 _symmetry_equiv_pos_site_id
 _symmetry_equiv_pos_as_xyz
  1  'x, y, z'
loop_
 _atom_site_type_symbol
 _atom_site_label
 _atom_site_symmetry_multiplicity
 _atom_site_fract_x
 _atom_site_fract_y
 _atom_site_fract_z
 _atom_site_occupancy
  Nd  Nd0  1  0.601393  0.000000  0.000000  1
  Nd  Nd1  1  0.000000  0.601393  0.000000  1
  Nd  Nd2  1  0.398607  0.398607  0.000000  1
  Cd  Cd3  1  0.236818  0.000000  0.500000  1
  Cd  Cd4  1  0.000000  0.236818  0.500000  1
  Cd  Cd5  1  0.763182  0.763182  0.500000  1
  Pb  Pb6  1  0.333333  0.666667  0.500000  1
  Pb  Pb7  1  0.666667  0.333333  0.500000  1
  Au  Au8  1  0.000000  0.000000  0.000000  1
