# generated using pymatgen
data_SmMnPt4
_symmetry_space_group_name_H-M   'P 1'
_cell_length_a   5.52304700
_cell_length_b   5.25597019
_cell_length_c   4.44567100
_cell_angle_alpha   90.00000000
_cell_angle_beta   90.00000000
_cell_angle_gamma   121.69563958
_symmetry_Int_Tables_number   1
_chemical_formula_structural   SmMnPt4
_chemical_formula_sum   'Sm1 Mn1 Pt4'
_cell_volume   109.80510084
_cell_formula_units_Z   1
loop_
 _symmetry_equiv_pos_site_id
 _symmetry_equiv_pos_as_xyz
  1  'x, y, z'
loop_
 _atom_site_type_symbol
 _atom_site_label
 _atom_site_symmetry_multiplicity
 _atom_site_fract_x
 _atom_site_fract_y
 _atom_site_fract_z
 _atom_site_occupancy
  Sm  Sm0  1  0.000000  0.000000  0.000000  1
  Mn  Mn1  1  0.500000  0.000000  0.499999  1
  Pt  Pt2  1  0.663138  0.326277  0.000000  1
  Pt  Pt3  1  0.336861  0.673722  0.000000  1
  Pt  Pt4  1  0.000000  0.500001  0.499999  1
  Pt  Pt5  1  0.499999  0.500001  0.499999  1
