# generated using pymatgen
data_Tm2MnAl9Pt2
_symmetry_space_group_name_H-M   'P 1'
_cell_length_a   7.53139761
_cell_length_b   7.53139725
_cell_length_c   9.40946800
_cell_angle_alpha   90.00000000
_cell_angle_beta   90.00000000
_cell_angle_gamma   119.10660576
_symmetry_Int_Tables_number   1
_chemical_formula_structural   Tm2MnAl9Pt2
_chemical_formula_sum   'Tm4 Mn2 Al18 Pt4'
_cell_volume   466.32270660
_cell_formula_units_Z   2
loop_
 _symmetry_equiv_pos_site_id
 _symmetry_equiv_pos_as_xyz
  1  'x, y, z'
loop_
 _atom_site_type_symbol
 _atom_site_label
 _atom_site_symmetry_multiplicity
 _atom_site_fract_x
 _atom_site_fract_y
 _atom_site_fract_z
 _atom_site_occupancy
  Tm  Tm0  1  0.993091  0.671295  0.250000  1
  Tm  Tm1  1  0.006909  0.328705  0.750000  1
  Tm  Tm2  1  0.671295  0.993091  0.250000  1
  Tm  Tm3  1  0.328705  0.006909  0.750000  1
  Mn  Mn4  1  0.000000  0.000000  0.000000  1
  Mn  Mn5  1  0.000000  0.000000  0.500000  1
  Al  Al6  1  0.115854  0.115854  0.250000  1
  Al  Al7  1  0.884146  0.884146  0.750000  1
  Al  Al8  1  0.999870  0.325293  0.074860  1
  Al  Al9  1  0.000130  0.674707  0.925140  1
  Al  Al10  1  0.000130  0.674707  0.574860  1
  Al  Al11  1  0.325293  0.999870  0.425140  1
  Al  Al12  1  0.999870  0.325293  0.425140  1
  Al  Al13  1  0.674707  0.000130  0.574860  1
  Al  Al14  1  0.674707  0.000130  0.925140  1
  Al  Al15  1  0.325293  0.999870  0.074860  1
  Al  Al16  1  0.322429  0.322429  0.551336  1
  Al  Al17  1  0.677571  0.677571  0.448664  1
  Al  Al18  1  0.677571  0.677571  0.051336  1
  Al  Al19  1  0.322429  0.322429  0.948664  1
  Al  Al20  1  0.340631  0.545115  0.250000  1
  Al  Al21  1  0.659369  0.454885  0.750000  1
  Al  Al22  1  0.545115  0.340631  0.250000  1
  Al  Al23  1  0.454885  0.659369  0.750000  1
  Pt  Pt24  1  0.672127  0.327873  0.000000  1
  Pt  Pt25  1  0.327873  0.672127  0.000000  1
  Pt  Pt26  1  0.327873  0.672127  0.500000  1
  Pt  Pt27  1  0.672127  0.327873  0.500000  1
