# generated using pymatgen
data_Nd2Y4CoBr10
_symmetry_space_group_name_H-M   'P 1'
_cell_length_a   7.41449837
_cell_length_b   9.27614968
_cell_length_c   9.29243691
_cell_angle_alpha   108.24560410
_cell_angle_beta   96.81478938
_cell_angle_gamma   103.95478429
_symmetry_Int_Tables_number   1
_chemical_formula_structural   Nd2Y4CoBr10
_chemical_formula_sum   'Nd2 Y4 Co1 Br10'
_cell_volume   575.84915218
_cell_formula_units_Z   1
loop_
 _symmetry_equiv_pos_site_id
 _symmetry_equiv_pos_as_xyz
  1  'x, y, z'
loop_
 _atom_site_type_symbol
 _atom_site_label
 _atom_site_symmetry_multiplicity
 _atom_site_fract_x
 _atom_site_fract_y
 _atom_site_fract_z
 _atom_site_occupancy
  Nd  Nd0  1  0.465012  0.785414  0.590125  1
  Nd  Nd1  1  0.534988  0.214586  0.409875  1
  Y  Y2  1  0.377600  0.454795  0.745746  1
  Y  Y3  1  0.622400  0.545205  0.254254  1
  Y  Y4  1  0.853499  0.627395  0.676488  1
  Y  Y5  1  0.146501  0.372605  0.323512  1
  Co  Co6  1  0.500000  0.500000  0.500000  1
  Br  Br7  1  0.411047  0.137270  0.679240  1
  Br  Br8  1  0.588953  0.862730  0.320760  1
  Br  Br9  1  0.039816  0.675726  0.413980  1
  Br  Br10  1  0.960184  0.324274  0.586020  1
  Br  Br11  1  0.269490  0.745991  0.849277  1
  Br  Br12  1  0.730510  0.254009  0.150723  1
  Br  Br13  1  0.253962  0.416163  0.043120  1
  Br  Br14  1  0.746038  0.583837  0.956880  1
  Br  Br15  1  0.854479  0.943272  0.771177  1
  Br  Br16  1  0.145521  0.056728  0.228823  1
