# generated using pymatgen
data_Dy3Ho2Zr3(Co4P3)4
_symmetry_space_group_name_H-M   'P 1'
_cell_length_a   12.33413105
_cell_length_b   12.33413104
_cell_length_c   3.72479500
_cell_angle_alpha   90.00000000
_cell_angle_beta   90.00000000
_cell_angle_gamma   119.99001517
_symmetry_Int_Tables_number   1
_chemical_formula_structural   Dy3Ho2Zr3(Co4P3)4
_chemical_formula_sum   'Dy3 Ho2 Zr3 Co16 P12'
_cell_volume   490.78785956
_cell_formula_units_Z   1
loop_
 _symmetry_equiv_pos_site_id
 _symmetry_equiv_pos_as_xyz
  1  'x, y, z'
loop_
 _atom_site_type_symbol
 _atom_site_label
 _atom_site_symmetry_multiplicity
 _atom_site_fract_x
 _atom_site_fract_y
 _atom_site_fract_z
 _atom_site_occupancy
  Dy  Dy0  1  0.666631  0.333322  0.000000  1
  Dy  Dy1  1  0.333322  0.666631  0.000000  1
  Dy  Dy2  1  0.817945  0.817945  0.500000  1
  Ho  Ho3  1  0.182170  0.000045  0.500000  1
  Ho  Ho4  1  0.000045  0.182170  0.500000  1
  Zr  Zr5  1  0.441186  0.441186  0.000000  1
  Zr  Zr6  1  0.558565  0.000020  0.000000  1
  Zr  Zr7  1  0.000020  0.558565  0.000000  1
  Co  Co8  1  0.875583  0.354806  0.500000  1
  Co  Co9  1  0.645133  0.520669  0.500000  1
  Co  Co10  1  0.479194  0.124441  0.500000  1
  Co  Co11  1  0.354806  0.875583  0.500000  1
  Co  Co12  1  0.520669  0.645133  0.500000  1
  Co  Co13  1  0.124441  0.479194  0.500000  1
  Co  Co14  1  0.805669  0.178456  0.000000  1
  Co  Co15  1  0.821636  0.627052  0.000000  1
  Co  Co16  1  0.372697  0.194336  0.000000  1
  Co  Co17  1  0.178456  0.805669  0.000000  1
  Co  Co18  1  0.627052  0.821636  0.000000  1
  Co  Co19  1  0.194336  0.372697  0.000000  1
  Co  Co20  1  0.277054  0.277054  0.500000  1
  Co  Co21  1  0.722857  0.000170  0.500000  1
  Co  Co22  1  0.000170  0.722857  0.500000  1
  Co  Co23  1  0.000244  0.000244  0.000000  1
  P  P24  1  0.694013  0.171984  0.500000  1
  P  P25  1  0.828071  0.522130  0.500000  1
  P  P26  1  0.477875  0.305902  0.500000  1
  P  P27  1  0.171984  0.694013  0.500000  1
  P  P28  1  0.522130  0.828071  0.500000  1
  P  P29  1  0.305902  0.477875  0.500000  1
  P  P30  1  0.178019  0.178019  0.000000  1
  P  P31  1  0.822075  0.000353  0.000000  1
  P  P32  1  0.000353  0.822075  0.000000  1
  P  P33  1  0.648920  0.648920  0.000000  1
  P  P34  1  0.350752  0.000023  0.000000  1
  P  P35  1  0.000023  0.350752  0.000000  1
