# generated using pymatgen
data_Ho3Er(Ge4Mo3)2
_symmetry_space_group_name_H-M   'P 1'
_cell_length_a   7.04643103
_cell_length_b   6.89635081
_cell_length_c   6.98662317
_cell_angle_alpha   70.60083473
_cell_angle_beta   90.00688587
_cell_angle_gamma   89.99558405
_symmetry_Int_Tables_number   1
_chemical_formula_structural   Ho3Er(Ge4Mo3)2
_chemical_formula_sum   'Ho3 Er1 Ge8 Mo6'
_cell_volume   320.23759600
_cell_formula_units_Z   1
loop_
 _symmetry_equiv_pos_site_id
 _symmetry_equiv_pos_as_xyz
  1  'x, y, z'
loop_
 _atom_site_type_symbol
 _atom_site_label
 _atom_site_symmetry_multiplicity
 _atom_site_fract_x
 _atom_site_fract_y
 _atom_site_fract_z
 _atom_site_occupancy
  Ho  Ho0  1  0.328480  0.556049  0.809423  1
  Ho  Ho1  1  0.828541  0.943978  0.190541  1
  Ho  Ho2  1  0.671493  0.443970  0.190570  1
  Er  Er3  1  0.171577  0.055980  0.809329  1
  Ge  Ge4  1  0.545912  0.857380  0.908534  1
  Ge  Ge5  1  0.046105  0.642842  0.091341  1
  Ge  Ge6  1  0.453853  0.142671  0.091362  1
  Ge  Ge7  1  0.954038  0.357142  0.908512  1
  Ge  Ge8  1  0.136997  0.867488  0.495985  1
  Ge  Ge9  1  0.636985  0.632631  0.504178  1
  Ge  Ge10  1  0.863108  0.132586  0.504265  1
  Ge  Ge11  1  0.362911  0.367203  0.495980  1
  Mo  Mo12  1  0.499955  0.000032  0.500039  1
  Mo  Mo13  1  0.000015  0.499909  0.500040  1
  Mo  Mo14  1  0.842323  0.747328  0.751878  1
  Mo  Mo15  1  0.342181  0.752840  0.248063  1
  Mo  Mo16  1  0.157776  0.252742  0.248128  1
  Mo  Mo17  1  0.657751  0.247228  0.751832  1
