# generated using pymatgen
data_Hf6GaP5Ru6
_symmetry_space_group_name_H-M   'P 1'
_cell_length_a   7.50714524
_cell_length_b   7.52465060
_cell_length_c   7.50714478
_cell_angle_alpha   128.54949943
_cell_angle_beta   119.64946712
_cell_angle_gamma   83.16224012
_symmetry_Int_Tables_number   1
_chemical_formula_structural   Hf6GaP5Ru6
_chemical_formula_sum   'Hf6 Ga1 P5 Ru6'
_cell_volume   276.83145995
_cell_formula_units_Z   1
loop_
 _symmetry_equiv_pos_site_id
 _symmetry_equiv_pos_as_xyz
  1  'x, y, z'
loop_
 _atom_site_type_symbol
 _atom_site_label
 _atom_site_symmetry_multiplicity
 _atom_site_fract_x
 _atom_site_fract_y
 _atom_site_fract_z
 _atom_site_occupancy
  Hf  Hf0  1  0.466007  0.693139  0.727131  1
  Hf  Hf1  1  0.527010  0.252109  0.225099  1
  Hf  Hf2  1  0.747737  0.834987  0.587250  1
  Hf  Hf3  1  0.249206  0.821549  0.072342  1
  Hf  Hf4  1  0.052257  0.256977  0.704721  1
  Hf  Hf5  1  0.956235  0.667754  0.211518  1
  Ga  Ga6  1  0.269852  0.264998  0.495147  1
  P  P7  1  0.731368  0.233599  0.002231  1
  P  P8  1  0.330051  0.586178  0.250242  1
  P  P9  1  0.671778  0.920778  0.259726  1
  P  P10  1  0.161052  0.920778  0.748999  1
  P  P11  1  0.835935  0.586178  0.756127  1
  Ru  Ru12  1  0.515956  0.503064  0.019225  1
  Ru  Ru13  1  0.983839  0.503064  0.487108  1
  Ru  Ru14  1  0.091646  0.253943  0.093996  1
  Ru  Ru15  1  0.881538  0.003281  0.134693  1
  Ru  Ru16  1  0.368588  0.003281  0.621743  1
  Ru  Ru17  1  0.659947  0.253943  0.662299  1
