# generated using pymatgen
data_Dy3YBOs2C3
_symmetry_space_group_name_H-M   'P 1'
_cell_length_a   5.13961700
_cell_length_b   6.55677564
_cell_length_c   9.84077403
_cell_angle_alpha   90.31794815
_cell_angle_beta   90.00000000
_cell_angle_gamma   90.00000000
_symmetry_Int_Tables_number   1
_chemical_formula_structural   Dy3YBOs2C3
_chemical_formula_sum   'Dy6 Y2 B2 Os4 C6'
_cell_volume   331.62224315
_cell_formula_units_Z   2
loop_
 _symmetry_equiv_pos_site_id
 _symmetry_equiv_pos_as_xyz
  1  'x, y, z'
loop_
 _atom_site_type_symbol
 _atom_site_label
 _atom_site_symmetry_multiplicity
 _atom_site_fract_x
 _atom_site_fract_y
 _atom_site_fract_z
 _atom_site_occupancy
  Dy  Dy0  1  0.750000  0.824399  0.052489  1
  Dy  Dy1  1  0.250000  0.175601  0.947511  1
  Dy  Dy2  1  0.250000  0.522743  0.211649  1
  Dy  Dy3  1  0.750000  0.477257  0.788351  1
  Dy  Dy4  1  0.750000  0.974311  0.715798  1
  Dy  Dy5  1  0.250000  0.025689  0.284202  1
  Y  Y6  1  0.250000  0.681123  0.549621  1
  Y  Y7  1  0.750000  0.318877  0.450379  1
  B  B8  1  0.250000  0.453760  0.757664  1
  B  B9  1  0.750000  0.546240  0.242336  1
  Os  Os10  1  0.250000  0.728440  0.862863  1
  Os  Os11  1  0.750000  0.271560  0.137137  1
  Os  Os12  1  0.750000  0.785752  0.369735  1
  Os  Os13  1  0.250000  0.214248  0.630265  1
  C  C14  1  0.750000  0.042115  0.260032  1
  C  C15  1  0.250000  0.957885  0.739968  1
  C  C16  1  0.250000  0.821672  0.050183  1
  C  C17  1  0.750000  0.178328  0.949817  1
  C  C18  1  0.750000  0.677061  0.552081  1
  C  C19  1  0.250000  0.322939  0.447919  1
