# generated using pymatgen
data_Li4Al8IrPd3
_symmetry_space_group_name_H-M   'P 1'
_cell_length_a   4.32171926
_cell_length_b   6.01821000
_cell_length_c   8.68258751
_cell_angle_alpha   90.00000000
_cell_angle_beta   89.96064754
_cell_angle_gamma   90.00000000
_symmetry_Int_Tables_number   1
_chemical_formula_structural   Li4Al8IrPd3
_chemical_formula_sum   'Li4 Al8 Ir1 Pd3'
_cell_volume   225.82548721
_cell_formula_units_Z   1
loop_
 _symmetry_equiv_pos_site_id
 _symmetry_equiv_pos_as_xyz
  1  'x, y, z'
loop_
 _atom_site_type_symbol
 _atom_site_label
 _atom_site_symmetry_multiplicity
 _atom_site_fract_x
 _atom_site_fract_y
 _atom_site_fract_z
 _atom_site_occupancy
  Li  Li0  1  0.247048  0.250000  0.123137  1
  Li  Li1  1  0.747119  0.749999  0.374948  1
  Li  Li2  1  0.253087  0.250000  0.626985  1
  Li  Li3  1  0.753069  0.749999  0.874939  1
  Al  Al4  1  0.747876  0.495910  0.120346  1
  Al  Al5  1  0.747876  0.004092  0.120346  1
  Al  Al6  1  0.247639  0.000175  0.375022  1
  Al  Al7  1  0.247639  0.499825  0.375022  1
  Al  Al8  1  0.752340  0.495912  0.629612  1
  Al  Al9  1  0.752340  0.004090  0.629612  1
  Al  Al10  1  0.252178  0.003826  0.875014  1
  Al  Al11  1  0.252178  0.496174  0.875014  1
  Ir  Ir12  1  0.751971  0.250000  0.874982  1
  Pd  Pd13  1  0.247791  0.749999  0.128122  1
  Pd  Pd14  1  0.747561  0.250000  0.374995  1
  Pd  Pd15  1  0.252286  0.749999  0.621909  1
