# generated using pymatgen
data_TbHo7(SiI6)2
_symmetry_space_group_name_H-M   'P 1'
_cell_length_a   4.20024600
_cell_length_b   13.94151228
_cell_length_c   14.72260030
_cell_angle_alpha   89.97690070
_cell_angle_beta   90.00000000
_cell_angle_gamma   90.00000000
_symmetry_Int_Tables_number   1
_chemical_formula_structural   TbHo7(SiI6)2
_chemical_formula_sum   'Tb1 Ho7 Si2 I12'
_cell_volume   862.12273697
_cell_formula_units_Z   1
loop_
 _symmetry_equiv_pos_site_id
 _symmetry_equiv_pos_as_xyz
  1  'x, y, z'
loop_
 _atom_site_type_symbol
 _atom_site_label
 _atom_site_symmetry_multiplicity
 _atom_site_fract_x
 _atom_site_fract_y
 _atom_site_fract_z
 _atom_site_occupancy
  Tb  Tb0  1  0.000000  0.111152  0.574307  1
  Ho  Ho1  1  0.500000  0.113746  0.347845  1
  Ho  Ho2  1  0.500000  0.886207  0.652100  1
  Ho  Ho3  1  0.500000  0.613800  0.152188  1
  Ho  Ho4  1  0.500000  0.386185  0.847794  1
  Ho  Ho5  1  0.000000  0.889139  0.425927  1
  Ho  Ho6  1  0.000000  0.610719  0.925989  1
  Ho  Ho7  1  0.000000  0.389253  0.073988  1
  Si  Si8  1  0.500000  0.999270  0.499503  1
  Si  Si9  1  0.500000  0.500005  0.000015  1
  I  I10  1  0.500000  0.245519  0.161572  1
  I  I11  1  0.500000  0.754463  0.838421  1
  I  I12  1  0.500000  0.745448  0.338350  1
  I  I13  1  0.500000  0.255236  0.662088  1
  I  I14  1  0.000000  0.258635  0.413348  1
  I  I15  1  0.000000  0.741604  0.586197  1
  I  I16  1  0.000000  0.758357  0.086152  1
  I  I17  1  0.000000  0.241635  0.913842  1
  I  I18  1  0.000000  0.999446  0.240657  1
  I  I19  1  0.000000  0.000175  0.759720  1
  I  I20  1  0.000000  0.499424  0.259286  1
  I  I21  1  0.000000  0.500585  0.740712  1
