# generated using pymatgen
data_Tm3Lu7(RuRh)2
_symmetry_space_group_name_H-M   'P 1'
_cell_length_a   6.26702136
_cell_length_b   7.19825364
_cell_length_c   8.33333917
_cell_angle_alpha   96.79660475
_cell_angle_beta   112.44382507
_cell_angle_gamma   90.02787819
_symmetry_Int_Tables_number   1
_chemical_formula_structural   Tm3Lu7(RuRh)2
_chemical_formula_sum   'Tm3 Lu7 Ru2 Rh2'
_cell_volume   344.58608674
_cell_formula_units_Z   1
loop_
 _symmetry_equiv_pos_site_id
 _symmetry_equiv_pos_as_xyz
  1  'x, y, z'
loop_
 _atom_site_type_symbol
 _atom_site_label
 _atom_site_symmetry_multiplicity
 _atom_site_fract_x
 _atom_site_fract_y
 _atom_site_fract_z
 _atom_site_occupancy
  Tm  Tm0  1  0.523852  0.081792  0.815529  1
  Tm  Tm1  1  0.475914  0.918160  0.184255  1
  Tm  Tm2  1  0.710614  0.415880  0.187818  1
  Lu  Lu3  1  0.289426  0.584301  0.812064  1
  Lu  Lu4  1  0.290727  0.312840  0.435603  1
  Lu  Lu5  1  0.709561  0.687248  0.564716  1
  Lu  Lu6  1  0.858687  0.182495  0.562626  1
  Lu  Lu7  1  0.141396  0.817390  0.437527  1
  Lu  Lu8  1  0.079463  0.247797  0.999351  1
  Lu  Lu9  1  0.920725  0.752169  0.000522  1
  Ru  Ru10  1  0.105249  0.922878  0.782277  1
  Ru  Ru11  1  0.894993  0.076805  0.217774  1
  Rh  Rh12  1  0.323779  0.575293  0.222788  1
  Rh  Rh13  1  0.675613  0.424954  0.777150  1
