# generated using pymatgen
data_Ba4InOsO8
_symmetry_space_group_name_H-M   'P 1'
_cell_length_a   7.31704856
_cell_length_b   7.31704825
_cell_length_c   5.96498800
_cell_angle_alpha   90.00000000
_cell_angle_beta   90.00000000
_cell_angle_gamma   131.98467053
_symmetry_Int_Tables_number   1
_chemical_formula_structural   Ba4InOsO8
_chemical_formula_sum   'Ba4 In1 Os1 O8'
_cell_volume   237.38839471
_cell_formula_units_Z   1
loop_
 _symmetry_equiv_pos_site_id
 _symmetry_equiv_pos_as_xyz
  1  'x, y, z'
loop_
 _atom_site_type_symbol
 _atom_site_label
 _atom_site_symmetry_multiplicity
 _atom_site_fract_x
 _atom_site_fract_y
 _atom_site_fract_z
 _atom_site_occupancy
  Ba  Ba0  1  0.355502  0.644498  0.000000  1
  Ba  Ba1  1  0.855403  0.144597  0.500000  1
  Ba  Ba2  1  0.144597  0.855403  0.500000  1
  Ba  Ba3  1  0.644498  0.355502  0.000000  1
  In  In4  1  0.000000  0.000000  0.000000  1
  Os  Os5  1  0.500000  0.500000  0.500000  1
  O  O6  1  0.262560  0.262560  0.734555  1
  O  O7  1  0.737440  0.737440  0.265445  1
  O  O8  1  0.737440  0.737440  0.734555  1
  O  O9  1  0.262560  0.262560  0.265445  1
  O  O10  1  0.159826  0.840174  0.000000  1
  O  O11  1  0.651845  0.348155  0.500000  1
  O  O12  1  0.348155  0.651845  0.500000  1
  O  O13  1  0.840174  0.159826  0.000000  1
