# generated using pymatgen
data_Er5In2(HgPd)2
_symmetry_space_group_name_H-M   'P 1'
_cell_length_a   3.64234100
_cell_length_b   7.90637900
_cell_length_c   18.20492900
_cell_angle_alpha   90.00000000
_cell_angle_beta   90.00000000
_cell_angle_gamma   90.00000000
_symmetry_Int_Tables_number   1
_chemical_formula_structural   Er5In2(HgPd)2
_chemical_formula_sum   'Er10 In4 Hg4 Pd4'
_cell_volume   524.26060076
_cell_formula_units_Z   2
loop_
 _symmetry_equiv_pos_site_id
 _symmetry_equiv_pos_as_xyz
  1  'x, y, z'
loop_
 _atom_site_type_symbol
 _atom_site_label
 _atom_site_symmetry_multiplicity
 _atom_site_fract_x
 _atom_site_fract_y
 _atom_site_fract_z
 _atom_site_occupancy
  Er  Er0  1  0.000000  0.500000  0.500000  1
  Er  Er1  1  0.000000  0.000000  0.000000  1
  Er  Er2  1  0.000000  0.741185  0.282637  1
  Er  Er3  1  0.000000  0.258815  0.717363  1
  Er  Er4  1  0.000000  0.758815  0.782637  1
  Er  Er5  1  0.000000  0.241185  0.217363  1
  Er  Er6  1  0.000000  0.610051  0.083860  1
  Er  Er7  1  0.000000  0.389949  0.916140  1
  Er  Er8  1  0.000000  0.889949  0.583860  1
  Er  Er9  1  0.000000  0.110051  0.416140  1
  In  In10  1  0.500000  0.580549  0.648586  1
  In  In11  1  0.500000  0.419451  0.351414  1
  In  In12  1  0.500000  0.919451  0.148586  1
  In  In13  1  0.500000  0.080549  0.851414  1
  Hg  Hg14  1  0.500000  0.714853  0.932636  1
  Hg  Hg15  1  0.500000  0.285147  0.067364  1
  Hg  Hg16  1  0.500000  0.785147  0.432636  1
  Hg  Hg17  1  0.500000  0.214853  0.567364  1
  Pd  Pd18  1  0.500000  0.527981  0.196985  1
  Pd  Pd19  1  0.500000  0.472019  0.803015  1
  Pd  Pd20  1  0.500000  0.972019  0.696985  1
  Pd  Pd21  1  0.500000  0.027981  0.303015  1
