# generated using pymatgen
data_Pr3Nd(Sc3Ga4)2
_symmetry_space_group_name_H-M   'P 1'
_cell_length_a   7.44556922
_cell_length_b   7.69736900
_cell_length_c   14.70384800
_cell_angle_alpha   90.00000000
_cell_angle_beta   89.98615618
_cell_angle_gamma   90.00000000
_symmetry_Int_Tables_number   1
_chemical_formula_structural   Pr3Nd(Sc3Ga4)2
_chemical_formula_sum   'Pr6 Nd2 Sc12 Ga16'
_cell_volume   842.69652637
_cell_formula_units_Z   2
loop_
 _symmetry_equiv_pos_site_id
 _symmetry_equiv_pos_as_xyz
  1  'x, y, z'
loop_
 _atom_site_type_symbol
 _atom_site_label
 _atom_site_symmetry_multiplicity
 _atom_site_fract_x
 _atom_site_fract_y
 _atom_site_fract_z
 _atom_site_occupancy
  Pr  Pr0  1  0.487419  0.675394  0.904483  1
  Pr  Pr1  1  0.487944  0.675529  0.595211  1
  Pr  Pr2  1  0.987944  0.824471  0.595211  1
  Pr  Pr3  1  0.987419  0.824606  0.904483  1
  Pr  Pr4  1  0.512153  0.325040  0.095460  1
  Pr  Pr5  1  0.012153  0.174960  0.095460  1
  Nd  Nd6  1  0.012844  0.176654  0.404099  1
  Nd  Nd7  1  0.512844  0.323346  0.404099  1
  Sc  Sc8  1  0.329839  0.173593  0.624604  1
  Sc  Sc9  1  0.670289  0.826938  0.375420  1
  Sc  Sc10  1  0.661532  0.001427  0.750110  1
  Sc  Sc11  1  0.170289  0.673062  0.375420  1
  Sc  Sc12  1  0.829767  0.326247  0.875122  1
  Sc  Sc13  1  0.829839  0.326407  0.624604  1
  Sc  Sc14  1  0.838153  0.501603  0.249939  1
  Sc  Sc15  1  0.338153  0.998397  0.249939  1
  Sc  Sc16  1  0.329767  0.173753  0.875122  1
  Sc  Sc17  1  0.170313  0.673391  0.124898  1
  Sc  Sc18  1  0.670313  0.826609  0.124898  1
  Sc  Sc19  1  0.161532  0.498573  0.750110  1
  Ga  Ga20  1  0.286778  0.881144  0.749891  1
  Ga  Ga21  1  0.468133  0.622887  0.250626  1
  Ga  Ga22  1  0.031830  0.123690  0.749911  1
  Ga  Ga23  1  0.531830  0.376310  0.749911  1
  Ga  Ga24  1  0.156533  0.461072  0.540191  1
  Ga  Ga25  1  0.968133  0.877113  0.250626  1
  Ga  Ga26  1  0.713291  0.119804  0.251055  1
  Ga  Ga27  1  0.844268  0.538022  0.040748  1
  Ga  Ga28  1  0.344268  0.961978  0.040748  1
  Ga  Ga29  1  0.155958  0.461607  0.959337  1
  Ga  Ga30  1  0.656533  0.038928  0.540191  1
  Ga  Ga31  1  0.342956  0.963131  0.458893  1
  Ga  Ga32  1  0.842956  0.536869  0.458893  1
  Ga  Ga33  1  0.786778  0.618856  0.749891  1
  Ga  Ga34  1  0.213291  0.380196  0.251055  1
  Ga  Ga35  1  0.655958  0.038393  0.959337  1
