# generated using pymatgen
data_Ho3In3Ag2Ru
_symmetry_space_group_name_H-M   'P 1'
_cell_length_a   7.96929200
_cell_length_b   7.96929259
_cell_length_c   3.73741000
_cell_angle_alpha   90.00000000
_cell_angle_beta   90.00000000
_cell_angle_gamma   119.99999756
_symmetry_Int_Tables_number   1
_chemical_formula_structural   Ho3In3Ag2Ru
_chemical_formula_sum   'Ho3 In3 Ag2 Ru1'
_cell_volume   205.56108320
_cell_formula_units_Z   1
loop_
 _symmetry_equiv_pos_site_id
 _symmetry_equiv_pos_as_xyz
  1  'x, y, z'
loop_
 _atom_site_type_symbol
 _atom_site_label
 _atom_site_symmetry_multiplicity
 _atom_site_fract_x
 _atom_site_fract_y
 _atom_site_fract_z
 _atom_site_occupancy
  Ho  Ho0  1  0.577872  0.612391  0.000000  1
  Ho  Ho1  1  0.387609  0.965482  0.000000  1
  Ho  Ho2  1  0.034518  0.422128  0.000000  1
  In  In3  1  0.996768  0.726533  0.500000  1
  In  In4  1  0.273467  0.270236  0.500000  1
  In  In5  1  0.729764  0.003232  0.500000  1
  Ag  Ag6  1  0.000000  0.000000  0.000000  1
  Ag  Ag7  1  0.666667  0.333333  0.500000  1
  Ru  Ru8  1  0.333333  0.666667  0.500000  1
