# generated using pymatgen
data_CaGd3Pt4
_symmetry_space_group_name_H-M   'P 1'
_cell_length_a   4.48966400
_cell_length_b   5.61942364
_cell_length_c   7.19702000
_cell_angle_alpha   89.26239924
_cell_angle_beta   90.00000000
_cell_angle_gamma   90.00000000
_symmetry_Int_Tables_number   1
_chemical_formula_structural   CaGd3Pt4
_chemical_formula_sum   'Ca1 Gd3 Pt4'
_cell_volume   181.56090369
_cell_formula_units_Z   1
loop_
 _symmetry_equiv_pos_site_id
 _symmetry_equiv_pos_as_xyz
  1  'x, y, z'
loop_
 _atom_site_type_symbol
 _atom_site_label
 _atom_site_symmetry_multiplicity
 _atom_site_fract_x
 _atom_site_fract_y
 _atom_site_fract_z
 _atom_site_occupancy
  Ca  Ca0  1  0.250000  0.357715  0.681803  1
  Gd  Gd1  1  0.250000  0.140600  0.181055  1
  Gd  Gd2  1  0.750000  0.638877  0.320459  1
  Gd  Gd3  1  0.750000  0.860759  0.816805  1
  Pt  Pt4  1  0.250000  0.848925  0.540735  1
  Pt  Pt5  1  0.250000  0.660019  0.045765  1
  Pt  Pt6  1  0.750000  0.147442  0.446649  1
  Pt  Pt7  1  0.750000  0.345663  0.966729  1
