# generated using pymatgen
data_HoSc4P12IrRu18
_symmetry_space_group_name_H-M   'P 1'
_cell_length_a   12.44998000
_cell_length_b   12.44998004
_cell_length_c   3.93206500
_cell_angle_alpha   90.00000000
_cell_angle_beta   90.00000000
_cell_angle_gamma   119.99999990
_symmetry_Int_Tables_number   1
_chemical_formula_structural   HoSc4P12IrRu18
_chemical_formula_sum   'Ho1 Sc4 P12 Ir1 Ru18'
_cell_volume   527.82338727
_cell_formula_units_Z   1
loop_
 _symmetry_equiv_pos_site_id
 _symmetry_equiv_pos_as_xyz
  1  'x, y, z'
loop_
 _atom_site_type_symbol
 _atom_site_label
 _atom_site_symmetry_multiplicity
 _atom_site_fract_x
 _atom_site_fract_y
 _atom_site_fract_z
 _atom_site_occupancy
  Ho  Ho0  1  0.333333  0.666667  0.000000  1
  Sc  Sc1  1  0.666667  0.333333  0.000000  1
  Sc  Sc2  1  0.814157  0.000082  0.500000  1
  Sc  Sc3  1  0.999918  0.814075  0.500000  1
  Sc  Sc4  1  0.185925  0.185843  0.500000  1
  P  P5  1  0.183054  0.001917  0.000000  1
  P  P6  1  0.998083  0.181137  0.000000  1
  P  P7  1  0.818863  0.816946  0.000000  1
  P  P8  1  0.168829  0.476033  0.500000  1
  P  P9  1  0.523967  0.692796  0.500000  1
  P  P10  1  0.307204  0.831171  0.500000  1
  P  P11  1  0.693259  0.521585  0.500000  1
  P  P12  1  0.828326  0.306741  0.500000  1
  P  P13  1  0.478415  0.171674  0.500000  1
  P  P14  1  0.627691  0.000249  0.000000  1
  P  P15  1  0.999751  0.627442  0.000000  1
  P  P16  1  0.372558  0.372309  0.000000  1
  Ir  Ir17  1  0.000000  0.000000  0.000000  1
  Ru  Ru18  1  0.443713  0.000058  0.000000  1
  Ru  Ru19  1  0.999942  0.443655  0.000000  1
  Ru  Ru20  1  0.556345  0.556287  0.000000  1
  Ru  Ru21  1  0.364782  0.490266  0.500000  1
  Ru  Ru22  1  0.509734  0.874516  0.500000  1
  Ru  Ru23  1  0.125484  0.635218  0.500000  1
  Ru  Ru24  1  0.871352  0.505806  0.500000  1
  Ru  Ru25  1  0.634453  0.128648  0.500000  1
  Ru  Ru26  1  0.494194  0.365547  0.500000  1
  Ru  Ru27  1  0.184016  0.371759  0.000000  1
  Ru  Ru28  1  0.628241  0.812258  0.000000  1
  Ru  Ru29  1  0.187742  0.815984  0.000000  1
  Ru  Ru30  1  0.810542  0.624229  0.000000  1
  Ru  Ru31  1  0.813688  0.189458  0.000000  1
  Ru  Ru32  1  0.375771  0.186312  0.000000  1
  Ru  Ru33  1  0.278614  0.001423  0.500000  1
  Ru  Ru34  1  0.998577  0.277192  0.500000  1
  Ru  Ru35  1  0.722808  0.721386  0.500000  1
