# generated using pymatgen
data_Ti2AlSiOs4
_symmetry_space_group_name_H-M   'P 1'
_cell_length_a   4.30312600
_cell_length_b   4.29955024
_cell_length_c   7.44134814
_cell_angle_alpha   73.23338565
_cell_angle_beta   90.00215339
_cell_angle_gamma   120.02673925
_symmetry_Int_Tables_number   1
_chemical_formula_structural   Ti2AlSiOs4
_chemical_formula_sum   'Ti2 Al1 Si1 Os4'
_cell_volume   112.38872508
_cell_formula_units_Z   1
loop_
 _symmetry_equiv_pos_site_id
 _symmetry_equiv_pos_as_xyz
  1  'x, y, z'
loop_
 _atom_site_type_symbol
 _atom_site_label
 _atom_site_symmetry_multiplicity
 _atom_site_fract_x
 _atom_site_fract_y
 _atom_site_fract_z
 _atom_site_occupancy
  Ti  Ti0  1  0.375877  0.751766  0.872329  1
  Ti  Ti1  1  0.874148  0.748289  0.377593  1
  Al  Al2  1  0.124992  0.249972  0.625040  1
  Si  Si3  1  0.624993  0.249987  0.125025  1
  Os  Os4  1  0.998641  0.997297  0.005301  1
  Os  Os5  1  0.747951  0.495913  0.755051  1
  Os  Os6  1  0.502046  0.004076  0.494963  1
  Os  Os7  1  0.251359  0.502699  0.244699  1
