# generated using pymatgen
data_La19Nd(Ir5Rh)2
_symmetry_space_group_name_H-M   'P 1'
_cell_length_a   11.38600000
_cell_length_b   11.38598200
_cell_length_c   6.75793200
_cell_angle_alpha   90.00000000
_cell_angle_beta   90.00000000
_cell_angle_gamma   89.99714175
_symmetry_Int_Tables_number   1
_chemical_formula_structural   La19Nd(Ir5Rh)2
_chemical_formula_sum   'La19 Nd1 Ir10 Rh2'
_cell_volume   876.10364981
_cell_formula_units_Z   1
loop_
 _symmetry_equiv_pos_site_id
 _symmetry_equiv_pos_as_xyz
  1  'x, y, z'
loop_
 _atom_site_type_symbol
 _atom_site_label
 _atom_site_symmetry_multiplicity
 _atom_site_fract_x
 _atom_site_fract_y
 _atom_site_fract_z
 _atom_site_occupancy
  La  La0  1  0.091472  0.292128  0.106805  1
  La  La1  1  0.792784  0.408341  0.105681  1
  La  La2  1  0.207216  0.591659  0.105681  1
  La  La3  1  0.908528  0.707872  0.106805  1
  La  La4  1  0.407376  0.792682  0.393073  1
  La  La5  1  0.592624  0.207318  0.393073  1
  La  La6  1  0.291684  0.092374  0.394966  1
  La  La7  1  0.708316  0.907626  0.394966  1
  La  La8  1  0.408309  0.207250  0.892746  1
  La  La9  1  0.707886  0.091537  0.891675  1
  La  La10  1  0.292114  0.908463  0.891675  1
  La  La11  1  0.591691  0.792750  0.892746  1
  La  La12  1  0.092396  0.708320  0.606515  1
  La  La13  1  0.907604  0.291680  0.606515  1
  La  La14  1  0.207306  0.407333  0.608461  1
  La  La15  1  0.792694  0.592667  0.608461  1
  La  La16  1  0.000000  0.000000  0.000013  1
  La  La17  1  0.500000  0.500000  0.999989  1
  La  La18  1  0.500000  0.500000  0.500037  1
  Nd  Nd19  1  0.000000  0.000000  0.499988  1
  Ir  Ir20  1  0.153088  0.846561  0.249609  1
  Ir  Ir21  1  0.346625  0.346515  0.250170  1
  Ir  Ir22  1  0.653375  0.653485  0.250170  1
  Ir  Ir23  1  0.846912  0.153439  0.249609  1
  Ir  Ir24  1  0.346547  0.653375  0.749836  1
  Ir  Ir25  1  0.153438  0.153063  0.750439  1
  Ir  Ir26  1  0.846562  0.846937  0.750439  1
  Ir  Ir27  1  0.653453  0.346625  0.749836  1
  Ir  Ir28  1  0.500000  0.000000  0.623463  1
  Ir  Ir29  1  0.000000  0.500000  0.875302  1
  Rh  Rh30  1  0.000000  0.500000  0.378496  1
  Rh  Rh31  1  0.500000  0.000000  0.122761  1
