# generated using pymatgen
data_Tb5(InTe)2
_symmetry_space_group_name_H-M   'P 1'
_cell_length_a   8.97493500
_cell_length_b   8.97493354
_cell_length_c   8.20797500
_cell_angle_alpha   90.00000000
_cell_angle_beta   90.00000000
_cell_angle_gamma   125.79909279
_symmetry_Int_Tables_number   1
_chemical_formula_structural   Tb5(InTe)2
_chemical_formula_sum   'Tb10 In4 Te4'
_cell_volume   536.23920929
_cell_formula_units_Z   2
loop_
 _symmetry_equiv_pos_site_id
 _symmetry_equiv_pos_as_xyz
  1  'x, y, z'
loop_
 _atom_site_type_symbol
 _atom_site_label
 _atom_site_symmetry_multiplicity
 _atom_site_fract_x
 _atom_site_fract_y
 _atom_site_fract_z
 _atom_site_occupancy
  Tb  Tb0  1  0.000000  0.000000  0.000000  1
  Tb  Tb1  1  0.500000  0.500000  0.500000  1
  Tb  Tb2  1  0.803914  0.533270  0.167120  1
  Tb  Tb3  1  0.466730  0.196086  0.832880  1
  Tb  Tb4  1  0.966730  0.696086  0.667120  1
  Tb  Tb5  1  0.303914  0.033270  0.332880  1
  Tb  Tb6  1  0.196086  0.466730  0.832880  1
  Tb  Tb7  1  0.533270  0.803914  0.167120  1
  Tb  Tb8  1  0.033270  0.303914  0.332880  1
  Tb  Tb9  1  0.696086  0.966730  0.667120  1
  In  In10  1  0.870335  0.870335  0.372199  1
  In  In11  1  0.129665  0.129665  0.627801  1
  In  In12  1  0.629665  0.629665  0.872199  1
  In  In13  1  0.370335  0.370335  0.127801  1
  Te  Te14  1  0.202419  0.797581  0.000000  1
  Te  Te15  1  0.702419  0.297581  0.500000  1
  Te  Te16  1  0.797581  0.202419  0.000000  1
  Te  Te17  1  0.297581  0.702419  0.500000  1
