# generated using pymatgen
data_Pr4Ag3Pt
_symmetry_space_group_name_H-M   'P 1'
_cell_length_a   4.84090100
_cell_length_b   5.98085940
_cell_length_c   7.51146992
_cell_angle_alpha   90.71825348
_cell_angle_beta   90.00000000
_cell_angle_gamma   90.00000000
_symmetry_Int_Tables_number   1
_chemical_formula_structural   Pr4Ag3Pt
_chemical_formula_sum   'Pr4 Ag3 Pt1'
_cell_volume   217.46060968
_cell_formula_units_Z   1
loop_
 _symmetry_equiv_pos_site_id
 _symmetry_equiv_pos_as_xyz
  1  'x, y, z'
loop_
 _atom_site_type_symbol
 _atom_site_label
 _atom_site_symmetry_multiplicity
 _atom_site_fract_x
 _atom_site_fract_y
 _atom_site_fract_z
 _atom_site_occupancy
  Pr  Pr0  1  0.250000  0.358741  0.695497  1
  Pr  Pr1  1  0.250000  0.152115  0.168625  1
  Pr  Pr2  1  0.750000  0.628736  0.311620  1
  Pr  Pr3  1  0.750000  0.863563  0.828056  1
  Ag  Ag4  1  0.250000  0.860369  0.534093  1
  Ag  Ag5  1  0.250000  0.650380  0.042378  1
  Ag  Ag6  1  0.750000  0.131069  0.461729  1
  Pt  Pt7  1  0.750000  0.355028  0.958003  1
