# generated using pymatgen
data_Nb13VNi8(MoN2)2
_symmetry_space_group_name_H-M   'P 1'
_cell_length_a   8.17158665
_cell_length_b   8.14479971
_cell_length_c   8.17158600
_cell_angle_alpha   60.06865273
_cell_angle_beta   60.17625455
_cell_angle_gamma   60.06865933
_symmetry_Int_Tables_number   1
_chemical_formula_structural   Nb13VNi8(MoN2)2
_chemical_formula_sum   'Nb13 V1 Ni8 Mo2 N4'
_cell_volume   385.48228534
_cell_formula_units_Z   1
loop_
 _symmetry_equiv_pos_site_id
 _symmetry_equiv_pos_as_xyz
  1  'x, y, z'
loop_
 _atom_site_type_symbol
 _atom_site_label
 _atom_site_symmetry_multiplicity
 _atom_site_fract_x
 _atom_site_fract_y
 _atom_site_fract_z
 _atom_site_occupancy
  Nb  Nb0  1  0.625000  0.625000  0.625000  1
  Nb  Nb1  1  0.814842  0.814435  0.183772  1
  Nb  Nb2  1  0.185770  0.186939  0.813600  1
  Nb  Nb3  1  0.815619  0.183268  0.815619  1
  Nb  Nb4  1  0.187514  0.812029  0.187514  1
  Nb  Nb5  1  0.183772  0.814435  0.814842  1
  Nb  Nb6  1  0.813600  0.186939  0.185770  1
  Nb  Nb7  1  0.435158  0.435565  0.066228  1
  Nb  Nb8  1  0.064230  0.063061  0.436400  1
  Nb  Nb9  1  0.434381  0.066732  0.434381  1
  Nb  Nb10  1  0.062486  0.437971  0.062486  1
  Nb  Nb11  1  0.066228  0.435565  0.435158  1
  Nb  Nb12  1  0.436400  0.063061  0.064230  1
  V  V13  1  0.625000  0.125000  0.625000  1
  Ni  Ni14  1  0.737644  0.412282  0.422569  1
  Ni  Ni15  1  0.419542  0.736416  0.419542  1
  Ni  Ni16  1  0.422569  0.412282  0.737644  1
  Ni  Ni17  1  0.424927  0.415172  0.424927  1
  Ni  Ni18  1  0.512356  0.837718  0.827431  1
  Ni  Ni19  1  0.830458  0.513584  0.830458  1
  Ni  Ni20  1  0.827431  0.837718  0.512356  1
  Ni  Ni21  1  0.825073  0.834828  0.825073  1
  Mo  Mo22  1  0.125000  0.625000  0.625000  1
  Mo  Mo23  1  0.625000  0.625000  0.125000  1
  N  N24  1  0.625000  0.125000  0.125000  1
  N  N25  1  0.125000  0.625000  0.125000  1
  N  N26  1  0.125000  0.125000  0.625000  1
  N  N27  1  0.125000  0.125000  0.125000  1
