# generated using pymatgen
data_AcTmP7Ru12
_symmetry_space_group_name_H-M   'P 1'
_cell_length_a   9.52129400
_cell_length_b   9.52129308
_cell_length_c   3.97414400
_cell_angle_alpha   90.00000000
_cell_angle_beta   90.00000000
_cell_angle_gamma   119.99999624
_symmetry_Int_Tables_number   1
_chemical_formula_structural   AcTmP7Ru12
_chemical_formula_sum   'Ac1 Tm1 P7 Ru12'
_cell_volume   312.00830696
_cell_formula_units_Z   1
loop_
 _symmetry_equiv_pos_site_id
 _symmetry_equiv_pos_as_xyz
  1  'x, y, z'
loop_
 _atom_site_type_symbol
 _atom_site_label
 _atom_site_symmetry_multiplicity
 _atom_site_fract_x
 _atom_site_fract_y
 _atom_site_fract_z
 _atom_site_occupancy
  Ac  Ac0  1  0.333333  0.666667  0.000000  1
  Tm  Tm1  1  0.666667  0.333333  0.500000  1
  P  P2  1  0.611486  0.718240  0.500000  1
  P  P3  1  0.000000  0.000000  0.000000  1
  P  P4  1  0.281760  0.893246  0.500000  1
  P  P5  1  0.106754  0.388514  0.500000  1
  P  P6  1  0.887966  0.569960  0.000000  1
  P  P7  1  0.430040  0.318006  0.000000  1
  P  P8  1  0.681994  0.112034  0.000000  1
  Ru  Ru9  1  0.562244  0.961474  0.500000  1
  Ru  Ru10  1  0.399232  0.437756  0.500000  1
  Ru  Ru11  1  0.914373  0.117160  0.500000  1
  Ru  Ru12  1  0.202787  0.085627  0.500000  1
  Ru  Ru13  1  0.882840  0.797213  0.500000  1
  Ru  Ru14  1  0.729628  0.892927  0.000000  1
  Ru  Ru15  1  0.107073  0.836701  0.000000  1
  Ru  Ru16  1  0.163299  0.270372  0.000000  1
  Ru  Ru17  1  0.421046  0.072894  0.000000  1
  Ru  Ru18  1  0.927106  0.348154  0.000000  1
  Ru  Ru19  1  0.651846  0.578954  0.000000  1
  Ru  Ru20  1  0.038526  0.600768  0.500000  1
