# generated using pymatgen
data_Dy12InCo4Pt
_symmetry_space_group_name_H-M   'P 1'
_cell_length_a   8.32508127
_cell_length_b   8.32508070
_cell_length_c   8.32508096
_cell_angle_alpha   111.07000596
_cell_angle_beta   110.40307191
_cell_angle_gamma   106.96990383
_symmetry_Int_Tables_number   1
_chemical_formula_structural   Dy12InCo4Pt
_chemical_formula_sum   'Dy12 In1 Co4 Pt1'
_cell_volume   443.51700102
_cell_formula_units_Z   1
loop_
 _symmetry_equiv_pos_site_id
 _symmetry_equiv_pos_as_xyz
  1  'x, y, z'
loop_
 _atom_site_type_symbol
 _atom_site_label
 _atom_site_symmetry_multiplicity
 _atom_site_fract_x
 _atom_site_fract_y
 _atom_site_fract_z
 _atom_site_occupancy
  Dy  Dy0  1  0.315271  0.620191  0.304919  1
  Dy  Dy1  1  0.684729  0.379809  0.695081  1
  Dy  Dy2  1  0.315271  0.010352  0.695081  1
  Dy  Dy3  1  0.684729  0.989648  0.304919  1
  Dy  Dy4  1  0.185736  0.291777  0.477513  1
  Dy  Dy5  1  0.814264  0.708223  0.522487  1
  Dy  Dy6  1  0.185736  0.708223  0.893959  1
  Dy  Dy7  1  0.814264  0.291777  0.106041  1
  Dy  Dy8  1  0.412972  0.214781  0.198190  1
  Dy  Dy9  1  0.587028  0.785219  0.801810  1
  Dy  Dy10  1  0.016591  0.214781  0.801810  1
  Dy  Dy11  1  0.983409  0.785219  0.198190  1
  In  In12  1  0.500000  0.500000  0.000000  1
  Co  Co13  1  0.111769  0.611769  0.500000  1
  Co  Co14  1  0.888231  0.388231  0.500000  1
  Co  Co15  1  0.379876  0.000000  0.379876  1
  Co  Co16  1  0.620124  0.000000  0.620124  1
  Pt  Pt17  1  0.000000  0.000000  0.000000  1
