# generated using pymatgen
data_HoEr3GeBi5Rh7
_symmetry_space_group_name_H-M   'P 1'
_cell_length_a   7.71301365
_cell_length_b   7.71346902
_cell_length_c   7.70400900
_cell_angle_alpha   106.93883878
_cell_angle_beta   110.71576169
_cell_angle_gamma   110.76429075
_symmetry_Int_Tables_number   1
_chemical_formula_structural   HoEr3GeBi5Rh7
_chemical_formula_sum   'Ho1 Er3 Ge1 Bi5 Rh7'
_cell_volume   352.42561664
_cell_formula_units_Z   1
loop_
 _symmetry_equiv_pos_site_id
 _symmetry_equiv_pos_as_xyz
  1  'x, y, z'
loop_
 _atom_site_type_symbol
 _atom_site_label
 _atom_site_symmetry_multiplicity
 _atom_site_fract_x
 _atom_site_fract_y
 _atom_site_fract_z
 _atom_site_occupancy
  Ho  Ho0  1  0.000000  0.983606  0.531092  1
  Er  Er1  1  0.000000  0.531937  0.982782  1
  Er  Er2  1  0.450915  0.982685  0.982792  1
  Er  Er3  1  0.549085  0.531769  0.531876  1
  Ge  Ge4  1  0.000000  0.645028  0.644917  1
  Bi  Bi5  1  0.689330  0.705830  0.016226  1
  Bi  Bi6  1  0.310670  0.016500  0.326897  1
  Bi  Bi7  1  0.000000  0.304413  0.303867  1
  Bi  Bi8  1  0.310384  0.326767  0.016759  1
  Bi  Bi9  1  0.689616  0.016383  0.706374  1
  Rh  Rh10  1  0.754047  0.257882  0.503768  1
  Rh  Rh11  1  0.753839  0.503174  0.257598  1
  Rh  Rh12  1  0.500551  0.262621  0.762868  1
  Rh  Rh13  1  0.245953  0.503836  0.749721  1
  Rh  Rh14  1  0.246161  0.749335  0.503759  1
  Rh  Rh15  1  0.499449  0.762070  0.262317  1
  Rh  Rh16  1  0.000000  0.916164  0.916385  1
