# generated using pymatgen
data_Nd4ReOs7
_symmetry_space_group_name_H-M   'P 1'
_cell_length_a   5.32539087
_cell_length_b   5.47004085
_cell_length_c   9.17934600
_cell_angle_alpha   90.00000000
_cell_angle_beta   90.00000000
_cell_angle_gamma   120.90266903
_symmetry_Int_Tables_number   1
_chemical_formula_structural   Nd4ReOs7
_chemical_formula_sum   'Nd4 Re1 Os7'
_cell_volume   229.43614157
_cell_formula_units_Z   1
loop_
 _symmetry_equiv_pos_site_id
 _symmetry_equiv_pos_as_xyz
  1  'x, y, z'
loop_
 _atom_site_type_symbol
 _atom_site_label
 _atom_site_symmetry_multiplicity
 _atom_site_fract_x
 _atom_site_fract_y
 _atom_site_fract_z
 _atom_site_occupancy
  Nd  Nd0  1  0.324523  0.662262  0.435125  1
  Nd  Nd1  1  0.661005  0.330502  0.562514  1
  Nd  Nd2  1  0.661005  0.330502  0.937486  1
  Nd  Nd3  1  0.324523  0.662262  0.064875  1
  Re  Re4  1  0.682870  0.841435  0.750000  1
  Os  Os5  1  0.976661  0.988330  0.499400  1
  Os  Os6  1  0.976661  0.988330  0.000600  1
  Os  Os7  1  0.834533  0.161550  0.250000  1
  Os  Os8  1  0.834533  0.672983  0.250000  1
  Os  Os9  1  0.359008  0.179504  0.250000  1
  Os  Os10  1  0.182340  0.832329  0.750000  1
  Os  Os11  1  0.182340  0.350011  0.750000  1
