# generated using pymatgen
data_HfNb5(InRu2)6
_symmetry_space_group_name_H-M   'P 1'
_cell_length_a   4.53586400
_cell_length_b   6.40687700
_cell_length_c   13.57985400
_cell_angle_alpha   89.99737324
_cell_angle_beta   90.00265801
_cell_angle_gamma   89.99936231
_symmetry_Int_Tables_number   1
_chemical_formula_structural   HfNb5(InRu2)6
_chemical_formula_sum   'Hf1 Nb5 In6 Ru12'
_cell_volume   394.64037154
_cell_formula_units_Z   1
loop_
 _symmetry_equiv_pos_site_id
 _symmetry_equiv_pos_as_xyz
  1  'x, y, z'
loop_
 _atom_site_type_symbol
 _atom_site_label
 _atom_site_symmetry_multiplicity
 _atom_site_fract_x
 _atom_site_fract_y
 _atom_site_fract_z
 _atom_site_occupancy
  Hf  Hf0  1  0.000000  0.500000  0.000000  1
  Nb  Nb1  1  0.499978  0.000033  0.165939  1
  Nb  Nb2  1  0.999860  0.499930  0.332677  1
  Nb  Nb3  1  0.500001  0.000000  0.500000  1
  Nb  Nb4  1  0.000140  0.500070  0.667323  1
  Nb  Nb5  1  0.500021  0.999967  0.834061  1
  In  In6  1  0.000000  0.000000  0.000000  1
  In  In7  1  0.499820  0.500042  0.166180  1
  In  In8  1  0.999953  0.999956  0.334139  1
  In  In9  1  0.500001  0.500000  0.500000  1
  In  In10  1  0.000048  0.000044  0.665861  1
  In  In11  1  0.500179  0.499958  0.833820  1
  Ru  Ru12  1  0.500046  0.244532  0.000031  1
  Ru  Ru13  1  0.499954  0.755467  0.999969  1
  Ru  Ru14  1  0.999818  0.247712  0.168988  1
  Ru  Ru15  1  0.999871  0.752354  0.169009  1
  Ru  Ru16  1  0.499944  0.250585  0.333910  1
  Ru  Ru17  1  0.499930  0.749366  0.333892  1
  Ru  Ru18  1  0.999994  0.249867  0.500000  1
  Ru  Ru19  1  0.000006  0.750134  0.500000  1
  Ru  Ru20  1  0.500070  0.250633  0.666108  1
  Ru  Ru21  1  0.500056  0.749414  0.666090  1
  Ru  Ru22  1  0.000129  0.247646  0.830991  1
  Ru  Ru23  1  0.000182  0.752288  0.831012  1
