# generated using pymatgen
data_DyTm4Pt9
_symmetry_space_group_name_H-M   'P 1'
_cell_length_a   9.72197126
_cell_length_b   9.69450327
_cell_length_c   5.74971500
_cell_angle_alpha   90.00000000
_cell_angle_beta   90.00000000
_cell_angle_gamma   90.10743015
_symmetry_Int_Tables_number   1
_chemical_formula_structural   DyTm4Pt9
_chemical_formula_sum   'Dy2 Tm8 Pt18'
_cell_volume   541.90785889
_cell_formula_units_Z   2
loop_
 _symmetry_equiv_pos_site_id
 _symmetry_equiv_pos_as_xyz
  1  'x, y, z'
loop_
 _atom_site_type_symbol
 _atom_site_label
 _atom_site_symmetry_multiplicity
 _atom_site_fract_x
 _atom_site_fract_y
 _atom_site_fract_z
 _atom_site_occupancy
  Dy  Dy0  1  0.452635  0.808760  0.000000  1
  Dy  Dy1  1  0.547365  0.191240  0.000000  1
  Tm  Tm2  1  0.190588  0.547243  0.000000  1
  Tm  Tm3  1  0.809412  0.452757  0.000000  1
  Tm  Tm4  1  0.500000  0.500000  0.500000  1
  Tm  Tm5  1  0.308193  0.047792  0.500000  1
  Tm  Tm6  1  0.691807  0.952208  0.500000  1
  Tm  Tm7  1  0.952729  0.690823  0.500000  1
  Tm  Tm8  1  0.047271  0.309177  0.500000  1
  Tm  Tm9  1  0.000000  0.000000  0.000000  1
  Pt  Pt10  1  0.190769  0.807916  0.251621  1
  Pt  Pt11  1  0.809231  0.192084  0.748379  1
  Pt  Pt12  1  0.809231  0.192084  0.251621  1
  Pt  Pt13  1  0.190769  0.807916  0.748379  1
  Pt  Pt14  1  0.441807  0.782300  0.500000  1
  Pt  Pt15  1  0.558193  0.217700  0.500000  1
  Pt  Pt16  1  0.218030  0.558015  0.500000  1
  Pt  Pt17  1  0.781970  0.441985  0.500000  1
  Pt  Pt18  1  0.306499  0.308510  0.249543  1
  Pt  Pt19  1  0.693501  0.691490  0.750457  1
  Pt  Pt20  1  0.693501  0.691490  0.249543  1
  Pt  Pt21  1  0.306499  0.308510  0.750457  1
  Pt  Pt22  1  0.279880  0.058790  0.000000  1
  Pt  Pt23  1  0.720120  0.941210  0.000000  1
  Pt  Pt24  1  0.942578  0.717468  0.000000  1
  Pt  Pt25  1  0.057422  0.282532  0.000000  1
  Pt  Pt26  1  0.000000  0.000000  0.500000  1
  Pt  Pt27  1  0.500000  0.500000  0.000000  1
