# generated using pymatgen
data_Tb2Y10Os3Rh
_symmetry_space_group_name_H-M   'P 1'
_cell_length_a   6.41565047
_cell_length_b   7.38367887
_cell_length_c   9.16817200
_cell_angle_alpha   90.00000000
_cell_angle_beta   90.00000000
_cell_angle_gamma   90.17562906
_symmetry_Int_Tables_number   1
_chemical_formula_structural   Tb2Y10Os3Rh
_chemical_formula_sum   'Tb2 Y10 Os3 Rh1'
_cell_volume   434.30437816
_cell_formula_units_Z   1
loop_
 _symmetry_equiv_pos_site_id
 _symmetry_equiv_pos_as_xyz
  1  'x, y, z'
loop_
 _atom_site_type_symbol
 _atom_site_label
 _atom_site_symmetry_multiplicity
 _atom_site_fract_x
 _atom_site_fract_y
 _atom_site_fract_z
 _atom_site_occupancy
  Tb  Tb0  1  0.131138  0.460614  0.750000  1
  Tb  Tb1  1  0.366854  0.960413  0.750000  1
  Y  Y2  1  0.333073  0.672492  0.062250  1
  Y  Y3  1  0.170485  0.177612  0.437443  1
  Y  Y4  1  0.670668  0.324608  0.564365  1
  Y  Y5  1  0.826005  0.824406  0.932635  1
  Y  Y6  1  0.670668  0.324608  0.935635  1
  Y  Y7  1  0.826005  0.824406  0.567365  1
  Y  Y8  1  0.333073  0.672492  0.437750  1
  Y  Y9  1  0.170485  0.177612  0.062557  1
  Y  Y10  1  0.867684  0.539219  0.250000  1
  Y  Y11  1  0.632115  0.040674  0.250000  1
  Os  Os12  1  0.460039  0.382833  0.250000  1
  Os  Os13  1  0.963223  0.116612  0.750000  1
  Os  Os14  1  0.536179  0.617417  0.750000  1
  Rh  Rh15  1  0.042308  0.883985  0.250000  1
