# generated using pymatgen
data_Tm12MnFeHg2Os
_symmetry_space_group_name_H-M   'P 1'
_cell_length_a   8.22270167
_cell_length_b   8.22270393
_cell_length_c   8.22270323
_cell_angle_alpha   108.46705355
_cell_angle_beta   108.46704723
_cell_angle_gamma   111.49878750
_symmetry_Int_Tables_number   1
_chemical_formula_structural   Tm12MnFeHg2Os
_chemical_formula_sum   'Tm12 Mn1 Fe1 Hg2 Os1'
_cell_volume   427.57490137
_cell_formula_units_Z   1
loop_
 _symmetry_equiv_pos_site_id
 _symmetry_equiv_pos_as_xyz
  1  'x, y, z'
loop_
 _atom_site_type_symbol
 _atom_site_label
 _atom_site_symmetry_multiplicity
 _atom_site_fract_x
 _atom_site_fract_y
 _atom_site_fract_z
 _atom_site_occupancy
  Tm  Tm0  1  0.190641  0.430419  0.239777  1
  Tm  Tm1  1  0.809184  0.569686  0.760502  1
  Tm  Tm2  1  0.190641  0.950865  0.760223  1
  Tm  Tm3  1  0.950865  0.190641  0.760223  1
  Tm  Tm4  1  0.809184  0.048681  0.239498  1
  Tm  Tm5  1  0.048681  0.809184  0.239498  1
  Tm  Tm6  1  0.430419  0.190641  0.239777  1
  Tm  Tm7  1  0.569686  0.809184  0.760502  1
  Tm  Tm8  1  0.307644  0.307644  0.617380  1
  Tm  Tm9  1  0.690263  0.690263  0.382620  1
  Tm  Tm10  1  0.690263  0.307644  0.000000  1
  Tm  Tm11  1  0.307644  0.690263  0.000000  1
  Mn  Mn12  1  0.386607  0.386607  0.000000  1
  Fe  Fe13  1  0.618759  0.618759  0.000000  1
  Hg  Hg14  1  0.999795  0.499795  0.500000  1
  Hg  Hg15  1  0.499795  0.999795  0.500000  1
  Os  Os16  1  0.999927  0.999927  0.000000  1
