# generated using pymatgen
data_YbLuMnIr3
_symmetry_space_group_name_H-M   'P 1'
_cell_length_a   5.13339105
_cell_length_b   5.43830709
_cell_length_c   5.43830700
_cell_angle_alpha   59.99999448
_cell_angle_beta   58.01485538
_cell_angle_gamma   58.01486590
_symmetry_Int_Tables_number   1
_chemical_formula_structural   YbLuMnIr3
_chemical_formula_sum   'Yb1 Lu1 Mn1 Ir3'
_cell_volume   104.01882802
_cell_formula_units_Z   1
loop_
 _symmetry_equiv_pos_site_id
 _symmetry_equiv_pos_as_xyz
  1  'x, y, z'
loop_
 _atom_site_type_symbol
 _atom_site_label
 _atom_site_symmetry_multiplicity
 _atom_site_fract_x
 _atom_site_fract_y
 _atom_site_fract_z
 _atom_site_occupancy
  Yb  Yb0  1  0.750022  0.749993  0.749993  1
  Lu  Lu1  1  0.500274  0.499908  0.499908  1
  Mn  Mn2  1  0.623806  0.125398  0.125398  1
  Ir  Ir3  1  0.125299  0.124431  0.124431  1
  Ir  Ir4  1  0.125299  0.124431  0.625840  1
  Ir  Ir5  1  0.125299  0.625840  0.124431  1
