# generated using pymatgen
data_Ca3Pr4Nd13Ga12
_symmetry_space_group_name_H-M   'P 1'
_cell_length_a   7.90631313
_cell_length_b   7.90687904
_cell_length_c   14.59676216
_cell_angle_alpha   90.00090156
_cell_angle_beta   90.01716420
_cell_angle_gamma   89.98818801
_symmetry_Int_Tables_number   1
_chemical_formula_structural   Ca3Pr4Nd13Ga12
_chemical_formula_sum   'Ca3 Pr4 Nd13 Ga12'
_cell_volume   912.50574792
_cell_formula_units_Z   1
loop_
 _symmetry_equiv_pos_site_id
 _symmetry_equiv_pos_as_xyz
  1  'x, y, z'
loop_
 _atom_site_type_symbol
 _atom_site_label
 _atom_site_symmetry_multiplicity
 _atom_site_fract_x
 _atom_site_fract_y
 _atom_site_fract_z
 _atom_site_occupancy
  Ca  Ca0  1  0.999816  0.500042  0.735451  1
  Ca  Ca1  1  0.999971  0.500164  0.239077  1
  Ca  Ca2  1  0.499973  0.999846  0.257558  1
  Pr  Pr3  1  0.822962  0.166444  0.100883  1
  Pr  Pr4  1  0.321468  0.660807  0.898017  1
  Pr  Pr5  1  0.333360  0.323146  0.100871  1
  Pr  Pr6  1  0.160547  0.178671  0.898067  1
  Nd  Nd7  1  0.818597  0.834138  0.602956  1
  Nd  Nd8  1  0.176742  0.833224  0.101518  1
  Nd  Nd9  1  0.166980  0.821921  0.396767  1
  Nd  Nd10  1  0.833023  0.177957  0.396730  1
  Nd  Nd11  1  0.678030  0.667035  0.396789  1
  Nd  Nd12  1  0.665804  0.318692  0.602943  1
  Nd  Nd13  1  0.334258  0.681389  0.602967  1
  Nd  Nd14  1  0.666604  0.676947  0.101516  1
  Nd  Nd15  1  0.679068  0.340027  0.897557  1
  Nd  Nd16  1  0.839709  0.821031  0.897530  1
  Nd  Nd17  1  0.322009  0.333062  0.396720  1
  Nd  Nd18  1  0.181287  0.165702  0.602940  1
  Nd  Nd19  1  0.500218  0.000145  0.783571  1
  Ga  Ga20  1  0.617832  0.383038  0.249756  1
  Ga  Ga21  1  0.119521  0.882633  0.748103  1
  Ga  Ga22  1  0.383105  0.379996  0.748092  1
  Ga  Ga23  1  0.382355  0.617747  0.249507  1
  Ga  Ga24  1  0.882728  0.881832  0.249583  1
  Ga  Ga25  1  0.617705  0.619868  0.748269  1
  Ga  Ga26  1  0.999993  0.499950  0.503326  1
  Ga  Ga27  1  0.879647  0.117239  0.748260  1
  Ga  Ga28  1  0.500009  0.999987  0.492082  1
  Ga  Ga29  1  0.500358  0.999151  0.999037  1
  Ga  Ga30  1  0.117433  0.117316  0.249676  1
  Ga  Ga31  1  0.998886  0.500851  0.003884  1
