# generated using pymatgen
data_Dy2Ga2CuRu
_symmetry_space_group_name_H-M   'P 1'
_cell_length_a   4.47020300
_cell_length_b   6.98200257
_cell_length_c   7.10696300
_cell_angle_alpha   89.63002045
_cell_angle_beta   90.00000000
_cell_angle_gamma   90.00000000
_symmetry_Int_Tables_number   1
_chemical_formula_structural   Dy2Ga2CuRu
_chemical_formula_sum   'Dy4 Ga4 Cu2 Ru2'
_cell_volume   221.81057600
_cell_formula_units_Z   2
loop_
 _symmetry_equiv_pos_site_id
 _symmetry_equiv_pos_as_xyz
  1  'x, y, z'
loop_
 _atom_site_type_symbol
 _atom_site_label
 _atom_site_symmetry_multiplicity
 _atom_site_fract_x
 _atom_site_fract_y
 _atom_site_fract_z
 _atom_site_occupancy
  Dy  Dy0  1  0.750000  0.195568  0.521950  1
  Dy  Dy1  1  0.250000  0.804432  0.478050  1
  Dy  Dy2  1  0.750000  0.303651  0.016226  1
  Dy  Dy3  1  0.250000  0.696349  0.983774  1
  Ga  Ga4  1  0.750000  0.904745  0.206303  1
  Ga  Ga5  1  0.250000  0.095255  0.793697  1
  Ga  Ga6  1  0.750000  0.608631  0.694969  1
  Ga  Ga7  1  0.250000  0.391369  0.305031  1
  Cu  Cu8  1  0.250000  0.428278  0.668356  1
  Cu  Cu9  1  0.750000  0.571722  0.331644  1
  Ru  Ru10  1  0.250000  0.067802  0.154375  1
  Ru  Ru11  1  0.750000  0.932198  0.845625  1
