# generated using pymatgen
data_HfZr11(Zn3N)4
_symmetry_space_group_name_H-M   'P 1'
_cell_length_a   8.61535887
_cell_length_b   8.61535906
_cell_length_c   8.59229200
_cell_angle_alpha   60.08852168
_cell_angle_beta   60.08852097
_cell_angle_gamma   59.98993498
_symmetry_Int_Tables_number   1
_chemical_formula_structural   HfZr11(Zn3N)4
_chemical_formula_sum   'Hf1 Zr11 Zn12 N4'
_cell_volume   451.53086443
_cell_formula_units_Z   1
loop_
 _symmetry_equiv_pos_site_id
 _symmetry_equiv_pos_as_xyz
  1  'x, y, z'
loop_
 _atom_site_type_symbol
 _atom_site_label
 _atom_site_symmetry_multiplicity
 _atom_site_fract_x
 _atom_site_fract_y
 _atom_site_fract_z
 _atom_site_occupancy
  Hf  Hf0  1  0.065805  0.065805  0.434195  1
  Zr  Zr1  1  0.813484  0.185973  0.186614  1
  Zr  Zr2  1  0.185973  0.813484  0.186614  1
  Zr  Zr3  1  0.813999  0.813999  0.186001  1
  Zr  Zr4  1  0.185973  0.813484  0.813929  1
  Zr  Zr5  1  0.813484  0.185973  0.813929  1
  Zr  Zr6  1  0.185377  0.185377  0.814623  1
  Zr  Zr7  1  0.435839  0.064392  0.063774  1
  Zr  Zr8  1  0.064392  0.435839  0.063774  1
  Zr  Zr9  1  0.436411  0.436411  0.063589  1
  Zr  Zr10  1  0.064392  0.435839  0.435995  1
  Zr  Zr11  1  0.435839  0.064392  0.435995  1
  Zn  Zn12  1  0.418863  0.418863  0.743070  1
  Zn  Zn13  1  0.418863  0.418863  0.419204  1
  Zn  Zn14  1  0.744867  0.417168  0.418982  1
  Zn  Zn15  1  0.417168  0.744867  0.418982  1
  Zn  Zn16  1  0.831454  0.831454  0.506510  1
  Zn  Zn17  1  0.831454  0.831454  0.830584  1
  Zn  Zn18  1  0.506697  0.831344  0.830980  1
  Zn  Zn19  1  0.831344  0.506697  0.830980  1
  Zn  Zn20  1  0.625038  0.625038  0.125377  1
  Zn  Zn21  1  0.625038  0.625038  0.624546  1
  Zn  Zn22  1  0.124953  0.625487  0.624780  1
  Zn  Zn23  1  0.625487  0.124953  0.624780  1
  N  N24  1  0.123879  0.123879  0.622180  1
  N  N25  1  0.123879  0.123879  0.130063  1
  N  N26  1  0.625109  0.124938  0.124977  1
  N  N27  1  0.124938  0.625109  0.124977  1
