# generated using pymatgen
data_Tb4Y2Al24Os5Pt3
_symmetry_space_group_name_H-M   'P 1'
_cell_length_a   8.82002514
_cell_length_b   8.83921613
_cell_length_c   9.55865023
_cell_angle_alpha   90.12219494
_cell_angle_beta   89.74405669
_cell_angle_gamma   119.54095088
_symmetry_Int_Tables_number   1
_chemical_formula_structural   Tb4Y2Al24Os5Pt3
_chemical_formula_sum   'Tb4 Y2 Al24 Os5 Pt3'
_cell_volume   648.33105440
_cell_formula_units_Z   1
loop_
 _symmetry_equiv_pos_site_id
 _symmetry_equiv_pos_as_xyz
  1  'x, y, z'
loop_
 _atom_site_type_symbol
 _atom_site_label
 _atom_site_symmetry_multiplicity
 _atom_site_fract_x
 _atom_site_fract_y
 _atom_site_fract_z
 _atom_site_occupancy
  Tb  Tb0  1  0.188194  0.382994  0.250552  1
  Tb  Tb1  1  0.811806  0.617006  0.749448  1
  Tb  Tb2  1  0.614262  0.813359  0.252202  1
  Tb  Tb3  1  0.385738  0.186641  0.747798  1
  Y  Y4  1  0.194541  0.808692  0.251290  1
  Y  Y5  1  0.805459  0.191308  0.748710  1
  Al  Al6  1  0.335413  0.671509  0.028338  1
  Al  Al7  1  0.664587  0.328491  0.971662  1
  Al  Al8  1  0.669382  0.331370  0.527400  1
  Al  Al9  1  0.330618  0.668630  0.472600  1
  Al  Al10  1  0.158009  0.325855  0.574539  1
  Al  Al11  1  0.841991  0.674145  0.425461  1
  Al  Al12  1  0.673482  0.841111  0.575226  1
  Al  Al13  1  0.836830  0.676015  0.077652  1
  Al  Al14  1  0.326518  0.158889  0.424774  1
  Al  Al15  1  0.163170  0.323985  0.922348  1
  Al  Al16  1  0.163886  0.835080  0.575843  1
  Al  Al17  1  0.325593  0.158391  0.076228  1
  Al  Al18  1  0.836114  0.164920  0.424157  1
  Al  Al19  1  0.674407  0.841609  0.923772  1
  Al  Al20  1  0.831498  0.158829  0.077727  1
  Al  Al21  1  0.168502  0.841171  0.922273  1
  Al  Al22  1  0.560626  0.124564  0.249949  1
  Al  Al23  1  0.439374  0.875436  0.750051  1
  Al  Al24  1  0.873860  0.437544  0.252832  1
  Al  Al25  1  0.126140  0.562456  0.747168  1
  Al  Al26  1  0.562786  0.436180  0.249844  1
  Al  Al27  1  0.437214  0.563820  0.750156  1
  Al  Al28  1  0.998848  0.002496  0.250227  1
  Al  Al29  1  0.001152  0.997504  0.749773  1
  Os  Os30  1  0.500000  0.000000  0.000000  1
  Os  Os31  1  0.500000  0.000000  0.500000  1
  Os  Os32  1  0.000000  0.500000  0.500000  1
  Os  Os33  1  0.000000  0.000000  0.000000  1
  Os  Os34  1  0.000000  0.000000  0.500000  1
  Pt  Pt35  1  0.000000  0.500000  0.000000  1
  Pt  Pt36  1  0.500000  0.500000  0.000000  1
  Pt  Pt37  1  0.500000  0.500000  0.500000  1
