# generated using pymatgen
data_Yb7Ta4CdO18
_symmetry_space_group_name_H-M   'P 1'
_cell_length_a   5.60804100
_cell_length_b   5.60804077
_cell_length_c   14.73468800
_cell_angle_alpha   90.00000000
_cell_angle_beta   90.00000000
_cell_angle_gamma   119.99999543
_symmetry_Int_Tables_number   1
_chemical_formula_structural   Yb7Ta4CdO18
_chemical_formula_sum   'Yb7 Ta4 Cd1 O18'
_cell_volume   401.32289708
_cell_formula_units_Z   1
loop_
 _symmetry_equiv_pos_site_id
 _symmetry_equiv_pos_as_xyz
  1  'x, y, z'
loop_
 _atom_site_type_symbol
 _atom_site_label
 _atom_site_symmetry_multiplicity
 _atom_site_fract_x
 _atom_site_fract_y
 _atom_site_fract_z
 _atom_site_occupancy
  Yb  Yb0  1  0.333334  0.666668  0.021644  1
  Yb  Yb1  1  0.666668  0.333334  0.191845  1
  Yb  Yb2  1  0.333334  0.666668  0.305483  1
  Yb  Yb3  1  0.666668  0.333334  0.476326  1
  Yb  Yb4  1  0.333334  0.666668  0.523055  1
  Yb  Yb5  1  0.666668  0.333334  0.694819  1
  Yb  Yb6  1  0.333334  0.666668  0.805263  1
  Ta  Ta7  1  0.000000  0.000000  0.147393  1
  Ta  Ta8  1  0.000000  0.000000  0.354590  1
  Ta  Ta9  1  0.000000  0.000000  0.645426  1
  Ta  Ta10  1  0.000000  0.000000  0.853058  1
  Cd  Cd11  1  0.666668  0.333334  0.975941  1
  O  O12  1  0.709660  0.034315  0.089558  1
  O  O13  1  0.324656  0.290340  0.089558  1
  O  O14  1  0.965684  0.675344  0.089558  1
  O  O15  1  0.266578  0.002749  0.250852  1
  O  O16  1  0.997251  0.263829  0.250852  1
  O  O17  1  0.736171  0.733422  0.250852  1
  O  O18  1  0.285708  0.328827  0.412365  1
  O  O19  1  0.043119  0.714291  0.412365  1
  O  O20  1  0.671172  0.956879  0.412365  1
  O  O21  1  0.328807  0.042510  0.588374  1
  O  O22  1  0.957491  0.286298  0.588374  1
  O  O23  1  0.713702  0.671191  0.588374  1
  O  O24  1  0.735008  0.999010  0.749897  1
  O  O25  1  0.264001  0.264991  0.749897  1
  O  O26  1  0.000990  0.735998  0.749897  1
  O  O27  1  0.038891  0.328492  0.910674  1
  O  O28  1  0.671508  0.710398  0.910674  1
  O  O29  1  0.289601  0.961107  0.910674  1
