# generated using pymatgen
data_GdLu5Te2PtO18
_symmetry_space_group_name_H-M   'P 1'
_cell_length_a   9.04813412
_cell_length_b   9.06576510
_cell_length_c   5.11947209
_cell_angle_alpha   90.01055504
_cell_angle_beta   90.10717083
_cell_angle_gamma   119.88376496
_symmetry_Int_Tables_number   1
_chemical_formula_structural   GdLu5Te2PtO18
_chemical_formula_sum   'Gd1 Lu5 Te2 Pt1 O18'
_cell_volume   364.10418015
_cell_formula_units_Z   1
loop_
 _symmetry_equiv_pos_site_id
 _symmetry_equiv_pos_as_xyz
  1  'x, y, z'
loop_
 _atom_site_type_symbol
 _atom_site_label
 _atom_site_symmetry_multiplicity
 _atom_site_fract_x
 _atom_site_fract_y
 _atom_site_fract_z
 _atom_site_occupancy
  Gd  Gd0  1  0.998438  0.619503  0.000135  1
  Lu  Lu1  1  0.005545  0.291088  0.498644  1
  Lu  Lu2  1  0.374534  0.372789  0.001942  1
  Lu  Lu3  1  0.287205  0.995083  0.501187  1
  Lu  Lu4  1  0.708328  0.713794  0.498579  1
  Lu  Lu5  1  0.626442  0.002906  0.000129  1
  Te  Te6  1  0.999714  0.002499  0.001338  1
  Te  Te7  1  0.663061  0.330297  0.502473  1
  Pt  Pt8  1  0.336911  0.666853  0.498461  1
  O  O9  1  0.083905  0.884866  0.784872  1
  O  O10  1  0.228095  0.765913  0.280448  1
  O  O11  1  0.131746  0.539039  0.714690  1
  O  O12  1  0.415777  0.872369  0.725233  1
  O  O13  1  0.237280  0.460061  0.270783  1
  O  O14  1  0.119839  0.207007  0.791018  1
  O  O15  1  0.204647  0.120339  0.215809  1
  O  O16  1  0.543301  0.779191  0.272794  1
  O  O17  1  0.458908  0.583013  0.719760  1
  O  O18  1  0.794671  0.916446  0.787412  1
  O  O19  1  0.457792  0.235108  0.716060  1
  O  O20  1  0.585035  0.455053  0.281185  1
  O  O21  1  0.541064  0.126697  0.285786  1
  O  O22  1  0.771006  0.538339  0.709016  1
  O  O23  1  0.915479  0.801097  0.218452  1
  O  O24  1  0.763635  0.225579  0.720731  1
  O  O25  1  0.867027  0.406699  0.291248  1
  O  O26  1  0.880615  0.088375  0.211815  1
