# generated using pymatgen
data_Tb4TiTc3B16
_symmetry_space_group_name_H-M   'P 1'
_cell_length_a   3.60611400
_cell_length_b   6.00320974
_cell_length_c   11.60456171
_cell_angle_alpha   90.06666050
_cell_angle_beta   90.00000000
_cell_angle_gamma   90.00000000
_symmetry_Int_Tables_number   1
_chemical_formula_structural   Tb4TiTc3B16
_chemical_formula_sum   'Tb4 Ti1 Tc3 B16'
_cell_volume   251.21838386
_cell_formula_units_Z   1
loop_
 _symmetry_equiv_pos_site_id
 _symmetry_equiv_pos_as_xyz
  1  'x, y, z'
loop_
 _atom_site_type_symbol
 _atom_site_label
 _atom_site_symmetry_multiplicity
 _atom_site_fract_x
 _atom_site_fract_y
 _atom_site_fract_z
 _atom_site_occupancy
  Tb  Tb0  1  0.000000  0.123944  0.150251  1
  Tb  Tb1  1  0.000000  0.874906  0.850930  1
  Tb  Tb2  1  0.000000  0.627455  0.348179  1
  Tb  Tb3  1  0.000000  0.372645  0.651021  1
  Ti  Ti4  1  0.000000  0.371152  0.916507  1
  Tc  Tc5  1  0.000000  0.132731  0.414574  1
  Tc  Tc6  1  0.000000  0.866473  0.583360  1
  Tc  Tc7  1  0.000000  0.628645  0.086231  1
  B  B8  1  0.500000  0.477105  0.192198  1
  B  B9  1  0.500000  0.525229  0.806638  1
  B  B10  1  0.500000  0.976551  0.308052  1
  B  B11  1  0.500000  0.023302  0.692066  1
  B  B12  1  0.500000  0.284371  0.314557  1
  B  B13  1  0.500000  0.715906  0.684854  1
  B  B14  1  0.500000  0.785673  0.184774  1
  B  B15  1  0.500000  0.210939  0.812786  1
  B  B16  1  0.500000  0.363966  0.468296  1
  B  B17  1  0.500000  0.636398  0.531323  1
  B  B18  1  0.500000  0.863636  0.032935  1
  B  B19  1  0.500000  0.133761  0.968277  1
  B  B20  1  0.500000  0.388331  0.048003  1
  B  B21  1  0.500000  0.615429  0.954641  1
  B  B22  1  0.500000  0.888209  0.452577  1
  B  B23  1  0.500000  0.113245  0.546970  1
