# generated using pymatgen
data_Ba4Al5In3Au20
_symmetry_space_group_name_H-M   'P 1'
_cell_length_a   7.39639700
_cell_length_b   9.39715834
_cell_length_c   10.24075017
_cell_angle_alpha   90.09771645
_cell_angle_beta   90.00000000
_cell_angle_gamma   90.00000000
_symmetry_Int_Tables_number   1
_chemical_formula_structural   Ba4Al5In3Au20
_chemical_formula_sum   'Ba4 Al5 In3 Au20'
_cell_volume   711.78347026
_cell_formula_units_Z   1
loop_
 _symmetry_equiv_pos_site_id
 _symmetry_equiv_pos_as_xyz
  1  'x, y, z'
loop_
 _atom_site_type_symbol
 _atom_site_label
 _atom_site_symmetry_multiplicity
 _atom_site_fract_x
 _atom_site_fract_y
 _atom_site_fract_z
 _atom_site_occupancy
  Ba  Ba0  1  0.250000  0.244202  0.116557  1
  Ba  Ba1  1  0.250000  0.750626  0.380953  1
  Ba  Ba2  1  0.750000  0.754234  0.881327  1
  Ba  Ba3  1  0.750000  0.255085  0.620863  1
  Al  Al4  1  0.250000  0.056404  0.616003  1
  Al  Al5  1  0.250000  0.554396  0.878639  1
  Al  Al6  1  0.750000  0.947691  0.380926  1
  Al  Al7  1  0.750000  0.443735  0.120988  1
  Al  Al8  1  0.250000  0.346360  0.481593  1
  In  In9  1  0.250000  0.855414  0.024313  1
  In  In10  1  0.750000  0.648149  0.524288  1
  In  In11  1  0.750000  0.144561  0.975268  1
  Au  Au12  1  0.056261  0.111898  0.400058  1
  Au  Au13  1  0.441559  0.591006  0.105132  1
  Au  Au14  1  0.556415  0.908921  0.599259  1
  Au  Au15  1  0.944072  0.406080  0.896232  1
  Au  Au16  1  0.943585  0.908921  0.599259  1
  Au  Au17  1  0.555928  0.406080  0.896232  1
  Au  Au18  1  0.443739  0.111898  0.400058  1
  Au  Au19  1  0.058441  0.591006  0.105132  1
  Au  Au20  1  0.050324  0.055283  0.844132  1
  Au  Au21  1  0.446024  0.547795  0.641058  1
  Au  Au22  1  0.550020  0.942498  0.159669  1
  Au  Au23  1  0.972832  0.439554  0.358676  1
  Au  Au24  1  0.949980  0.942498  0.159669  1
  Au  Au25  1  0.527168  0.439554  0.358676  1
  Au  Au26  1  0.449676  0.055283  0.844132  1
  Au  Au27  1  0.053976  0.547795  0.641058  1
  Au  Au28  1  0.250000  0.299235  0.735581  1
  Au  Au29  1  0.250000  0.795357  0.752216  1
  Au  Au30  1  0.750000  0.691007  0.256432  1
  Au  Au31  1  0.750000  0.207472  0.245620  1
