# generated using pymatgen
data_UMn(PO5)2
_symmetry_space_group_name_H-M   'P 1'
_cell_length_a   5.75697426
_cell_length_b   5.21027001
_cell_length_c   7.48911200
_cell_angle_alpha   104.69499314
_cell_angle_beta   110.49754686
_cell_angle_gamma   96.70520703
_symmetry_Int_Tables_number   1
_chemical_formula_structural   UMn(PO5)2
_chemical_formula_sum   'U1 Mn1 P2 O10'
_cell_volume   198.22467865
_cell_formula_units_Z   1
loop_
 _symmetry_equiv_pos_site_id
 _symmetry_equiv_pos_as_xyz
  1  'x, y, z'
loop_
 _atom_site_type_symbol
 _atom_site_label
 _atom_site_symmetry_multiplicity
 _atom_site_fract_x
 _atom_site_fract_y
 _atom_site_fract_z
 _atom_site_occupancy
  U  U0  1  0.000000  0.500000  0.000000  1
  Mn  Mn1  1  0.000000  0.500000  0.500000  1
  P  P2  1  0.320495  0.126181  0.736177  1
  P  P3  1  0.679505  0.873819  0.263823  1
  O  O4  1  0.184961  0.185945  0.885589  1
  O  O5  1  0.283053  0.816079  0.638439  1
  O  O6  1  0.946184  0.559152  0.748279  1
  O  O7  1  0.226269  0.268269  0.574186  1
  O  O8  1  0.773731  0.731731  0.425814  1
  O  O9  1  0.612536  0.236355  0.856501  1
  O  O10  1  0.387464  0.763645  0.143499  1
  O  O11  1  0.053816  0.440848  0.251721  1
  O  O12  1  0.716947  0.183921  0.361561  1
  O  O13  1  0.815039  0.814055  0.114411  1
