# generated using pymatgen
data_Ho5HgBiAu
_symmetry_space_group_name_H-M   'P 1'
_cell_length_a   8.69255654
_cell_length_b   8.69255674
_cell_length_c   8.76281117
_cell_angle_alpha   123.52342477
_cell_angle_beta   123.52342674
_cell_angle_gamma   83.48386587
_symmetry_Int_Tables_number   1
_chemical_formula_structural   Ho5HgBiAu
_chemical_formula_sum   'Ho10 Hg2 Bi2 Au2'
_cell_volume   442.34903715
_cell_formula_units_Z   2
loop_
 _symmetry_equiv_pos_site_id
 _symmetry_equiv_pos_as_xyz
  1  'x, y, z'
loop_
 _atom_site_type_symbol
 _atom_site_label
 _atom_site_symmetry_multiplicity
 _atom_site_fract_x
 _atom_site_fract_y
 _atom_site_fract_z
 _atom_site_occupancy
  Ho  Ho0  1  0.000000  0.000000  0.000000  1
  Ho  Ho1  1  0.500000  0.500000  0.000000  1
  Ho  Ho2  1  0.005486  0.505486  0.795875  1
  Ho  Ho3  1  0.709611  0.209611  0.204125  1
  Ho  Ho4  1  0.518310  0.698694  0.500000  1
  Ho  Ho5  1  0.198694  0.018310  0.500000  1
  Ho  Ho6  1  0.994514  0.494514  0.204125  1
  Ho  Ho7  1  0.290389  0.790389  0.795875  1
  Ho  Ho8  1  0.481690  0.301306  0.500000  1
  Ho  Ho9  1  0.801306  0.981690  0.500000  1
  Hg  Hg10  1  0.640982  0.140982  0.781962  1
  Hg  Hg11  1  0.359018  0.859018  0.218038  1
  Bi  Bi12  1  0.750000  0.750000  0.000000  1
  Bi  Bi13  1  0.250000  0.250000  0.000000  1
  Au  Au14  1  0.136916  0.363084  0.500000  1
  Au  Au15  1  0.863084  0.636916  0.500000  1
