# generated using pymatgen
data_SmTh(MgNi4)2
_symmetry_space_group_name_H-M   'P 1'
_cell_length_a   4.98895400
_cell_length_b   4.98895352
_cell_length_c   8.66581446
_cell_angle_alpha   73.27056575
_cell_angle_beta   90.00000000
_cell_angle_gamma   120.00000321
_symmetry_Int_Tables_number   1
_chemical_formula_structural   SmTh(MgNi4)2
_chemical_formula_sum   'Sm1 Th1 Mg2 Ni8'
_cell_volume   176.17209392
_cell_formula_units_Z   1
loop_
 _symmetry_equiv_pos_site_id
 _symmetry_equiv_pos_as_xyz
  1  'x, y, z'
loop_
 _atom_site_type_symbol
 _atom_site_label
 _atom_site_symmetry_multiplicity
 _atom_site_fract_x
 _atom_site_fract_y
 _atom_site_fract_z
 _atom_site_occupancy
  Sm  Sm0  1  0.000735  0.001470  0.997793  1
  Th  Th1  1  0.499439  0.998878  0.501683  1
  Mg  Mg2  1  0.878085  0.756172  0.365743  1
  Mg  Mg3  1  0.372464  0.744927  0.882609  1
  Ni  Ni4  1  0.435354  0.375180  0.189466  1
  Ni  Ni5  1  0.934943  0.377448  0.687610  1
  Ni  Ni6  1  0.435354  0.870707  0.189466  1
  Ni  Ni7  1  0.934943  0.869885  0.687610  1
  Ni  Ni8  1  0.188382  0.376764  0.434855  1
  Ni  Ni9  1  0.687971  0.375942  0.936086  1
  Ni  Ni10  1  0.939827  0.375180  0.189466  1
  Ni  Ni11  1  0.442505  0.377448  0.687610  1
