# generated using pymatgen
data_Dy4Y8TcOs3
_symmetry_space_group_name_H-M   'P 1'
_cell_length_a   6.32021804
_cell_length_b   7.43712148
_cell_length_c   9.11669008
_cell_angle_alpha   90.01036747
_cell_angle_beta   90.01075311
_cell_angle_gamma   90.07157683
_symmetry_Int_Tables_number   1
_chemical_formula_structural   Dy4Y8TcOs3
_chemical_formula_sum   'Dy4 Y8 Tc1 Os3'
_cell_volume   428.52264217
_cell_formula_units_Z   1
loop_
 _symmetry_equiv_pos_site_id
 _symmetry_equiv_pos_as_xyz
  1  'x, y, z'
loop_
 _atom_site_type_symbol
 _atom_site_label
 _atom_site_symmetry_multiplicity
 _atom_site_fract_x
 _atom_site_fract_y
 _atom_site_fract_z
 _atom_site_occupancy
  Dy  Dy0  1  0.668284  0.324959  0.936878  1
  Dy  Dy1  1  0.833011  0.825168  0.563573  1
  Dy  Dy2  1  0.334018  0.674334  0.436928  1
  Dy  Dy3  1  0.166954  0.174979  0.063416  1
  Y  Y4  1  0.333903  0.674727  0.063059  1
  Y  Y5  1  0.166882  0.175192  0.436624  1
  Y  Y6  1  0.668376  0.324665  0.562980  1
  Y  Y7  1  0.833050  0.824972  0.936608  1
  Y  Y8  1  0.870508  0.540062  0.250041  1
  Y  Y9  1  0.627692  0.040256  0.249931  1
  Y  Y10  1  0.131211  0.459165  0.750045  1
  Y  Y11  1  0.368554  0.959987  0.749932  1
  Tc  Tc12  1  0.039388  0.884489  0.250113  1
  Os  Os13  1  0.459262  0.383445  0.249888  1
  Os  Os14  1  0.958751  0.117337  0.750114  1
  Os  Os15  1  0.540156  0.616263  0.749870  1
