# generated using pymatgen
data_Tb2Al18CuNi5
_symmetry_space_group_name_H-M   'P 1'
_cell_length_a   10.10176170
_cell_length_b   10.10880649
_cell_length_c   10.10347189
_cell_angle_alpha   42.44562212
_cell_angle_beta   42.43009748
_cell_angle_gamma   42.42468574
_symmetry_Int_Tables_number   1
_chemical_formula_structural   Tb2Al18CuNi5
_chemical_formula_sum   'Tb2 Al18 Cu1 Ni5'
_cell_volume   425.25876508
_cell_formula_units_Z   1
loop_
 _symmetry_equiv_pos_site_id
 _symmetry_equiv_pos_as_xyz
  1  'x, y, z'
loop_
 _atom_site_type_symbol
 _atom_site_label
 _atom_site_symmetry_multiplicity
 _atom_site_fract_x
 _atom_site_fract_y
 _atom_site_fract_z
 _atom_site_occupancy
  Tb  Tb0  1  0.168900  0.166557  0.165563  1
  Tb  Tb1  1  0.831486  0.835155  0.832835  1
  Al  Al2  1  0.099953  0.437209  0.762203  1
  Al  Al3  1  0.432901  0.755723  0.110232  1
  Al  Al4  1  0.568162  0.896947  0.238545  1
  Al  Al5  1  0.948172  0.948310  0.948105  1
  Al  Al6  1  0.047033  0.050930  0.054501  1
  Al  Al7  1  0.290460  0.709240  0.500410  1
  Al  Al8  1  0.898453  0.238426  0.567708  1
  Al  Al9  1  0.385309  0.387500  0.383332  1
  Al  Al10  1  0.501903  0.297096  0.706886  1
  Al  Al11  1  0.237261  0.569155  0.898049  1
  Al  Al12  1  0.720878  0.713762  0.717156  1
  Al  Al13  1  0.612558  0.613543  0.613226  1
  Al  Al14  1  0.333699  0.998015  0.664806  1
  Al  Al15  1  0.710267  0.499918  0.290404  1
  Al  Al16  1  0.665429  0.334004  0.999353  1
  Al  Al17  1  0.282187  0.281313  0.281979  1
  Al  Al18  1  0.999599  0.665304  0.333384  1
  Al  Al19  1  0.766395  0.104673  0.428302  1
  Cu  Cu20  1  0.419390  0.077847  0.761088  1
  Ni  Ni21  1  0.581848  0.242021  0.922122  1
  Ni  Ni22  1  0.078122  0.756889  0.418045  1
  Ni  Ni23  1  0.757487  0.417704  0.078405  1
  Ni  Ni24  1  0.921200  0.581662  0.242199  1
  Ni  Ni25  1  0.240947  0.921096  0.581165  1
