# generated using pymatgen
data_Ta12Co9Si3C2
_symmetry_space_group_name_H-M   'P 1'
_cell_length_a   7.93921753
_cell_length_b   7.93921696
_cell_length_c   7.93921742
_cell_angle_alpha   59.50622210
_cell_angle_beta   59.50622268
_cell_angle_gamma   59.50622423
_symmetry_Int_Tables_number   1
_chemical_formula_structural   Ta12Co9Si3C2
_chemical_formula_sum   'Ta12 Co9 Si3 C2'
_cell_volume   349.87556998
_cell_formula_units_Z   1
loop_
 _symmetry_equiv_pos_site_id
 _symmetry_equiv_pos_as_xyz
  1  'x, y, z'
loop_
 _atom_site_type_symbol
 _atom_site_label
 _atom_site_symmetry_multiplicity
 _atom_site_fract_x
 _atom_site_fract_y
 _atom_site_fract_z
 _atom_site_occupancy
  Ta  Ta0  1  0.055137  0.055137  0.446795  1
  Ta  Ta1  1  0.450672  0.048488  0.450672  1
  Ta  Ta2  1  0.048488  0.450672  0.450672  1
  Ta  Ta3  1  0.450672  0.450672  0.048488  1
  Ta  Ta4  1  0.055137  0.446795  0.055137  1
  Ta  Ta5  1  0.446795  0.055137  0.055137  1
  Ta  Ta6  1  0.194863  0.194863  0.803205  1
  Ta  Ta7  1  0.799328  0.201512  0.799328  1
  Ta  Ta8  1  0.201512  0.799328  0.799328  1
  Ta  Ta9  1  0.799328  0.799328  0.201512  1
  Ta  Ta10  1  0.194863  0.803205  0.194863  1
  Ta  Ta11  1  0.803205  0.194863  0.194863  1
  Co  Co12  1  0.418998  0.418998  0.740174  1
  Co  Co13  1  0.418998  0.740174  0.418998  1
  Co  Co14  1  0.740174  0.418998  0.418998  1
  Co  Co15  1  0.419491  0.419491  0.419491  1
  Co  Co16  1  0.831002  0.831002  0.509826  1
  Co  Co17  1  0.831002  0.509826  0.831002  1
  Co  Co18  1  0.509826  0.831002  0.831002  1
  Co  Co19  1  0.830509  0.830509  0.830509  1
  Co  Co20  1  0.625000  0.625000  0.625000  1
  Si  Si21  1  0.625000  0.625000  0.125000  1
  Si  Si22  1  0.625000  0.125000  0.625000  1
  Si  Si23  1  0.125000  0.625000  0.625000  1
  C  C24  1  0.251430  0.251430  0.251430  1
  C  C25  1  0.998570  0.998570  0.998570  1
