# generated using pymatgen
data_HoEr5TcRh
_symmetry_space_group_name_H-M   'P 1'
_cell_length_a   6.28728100
_cell_length_b   7.29318200
_cell_length_c   9.10715200
_cell_angle_alpha   90.00000000
_cell_angle_beta   90.00000000
_cell_angle_gamma   90.00000000
_symmetry_Int_Tables_number   1
_chemical_formula_structural   HoEr5TcRh
_chemical_formula_sum   'Ho2 Er10 Tc2 Rh2'
_cell_volume   417.60193987
_cell_formula_units_Z   2
loop_
 _symmetry_equiv_pos_site_id
 _symmetry_equiv_pos_as_xyz
  1  'x, y, z'
loop_
 _atom_site_type_symbol
 _atom_site_label
 _atom_site_symmetry_multiplicity
 _atom_site_fract_x
 _atom_site_fract_y
 _atom_site_fract_z
 _atom_site_occupancy
  Ho  Ho0  1  0.866766  0.960044  0.750000  1
  Ho  Ho1  1  0.366766  0.539956  0.250000  1
  Er  Er2  1  0.670706  0.176127  0.064647  1
  Er  Er3  1  0.170706  0.323873  0.935353  1
  Er  Er4  1  0.832578  0.678754  0.438716  1
  Er  Er5  1  0.332578  0.821246  0.561284  1
  Er  Er6  1  0.332578  0.821246  0.938716  1
  Er  Er7  1  0.832578  0.678754  0.061284  1
  Er  Er8  1  0.170706  0.323873  0.564647  1
  Er  Er9  1  0.670706  0.176127  0.435353  1
  Er  Er10  1  0.630774  0.460806  0.750000  1
  Er  Er11  1  0.130774  0.039194  0.250000  1
  Tc  Tc12  1  0.039382  0.612514  0.750000  1
  Tc  Tc13  1  0.539382  0.887486  0.250000  1
  Rh  Rh14  1  0.456510  0.116009  0.750000  1
  Rh  Rh15  1  0.956510  0.383991  0.250000  1
