# generated using pymatgen
data_Na3LiRu2F12
_symmetry_space_group_name_H-M   'P 1'
_cell_length_a   5.24433000
_cell_length_b   5.24433000
_cell_length_c   18.71030500
_cell_angle_alpha   90.00000000
_cell_angle_beta   90.00000000
_cell_angle_gamma   90.00000000
_symmetry_Int_Tables_number   1
_chemical_formula_structural   Na3LiRu2F12
_chemical_formula_sum   'Na6 Li2 Ru4 F24'
_cell_volume   514.58946507
_cell_formula_units_Z   2
loop_
 _symmetry_equiv_pos_site_id
 _symmetry_equiv_pos_as_xyz
  1  'x, y, z'
loop_
 _atom_site_type_symbol
 _atom_site_label
 _atom_site_symmetry_multiplicity
 _atom_site_fract_x
 _atom_site_fract_y
 _atom_site_fract_z
 _atom_site_occupancy
  Na  Na0  1  0.000000  0.500000  0.305025  1
  Na  Na1  1  0.500000  0.000000  0.694975  1
  Na  Na2  1  0.500000  0.000000  0.194975  1
  Na  Na3  1  0.000000  0.500000  0.805025  1
  Na  Na4  1  0.000000  0.000000  0.500000  1
  Na  Na5  1  0.500000  0.500000  0.000000  1
  Li  Li6  1  0.000000  0.000000  0.000000  1
  Li  Li7  1  0.500000  0.500000  0.500000  1
  Ru  Ru8  1  0.000000  0.500000  0.123585  1
  Ru  Ru9  1  0.500000  0.000000  0.876415  1
  Ru  Ru10  1  0.500000  0.000000  0.376415  1
  Ru  Ru11  1  0.000000  0.500000  0.623585  1
  F  F12  1  0.203960  0.211271  0.381405  1
  F  F13  1  0.796040  0.788729  0.381405  1
  F  F14  1  0.211271  0.796040  0.618595  1
  F  F15  1  0.296040  0.711271  0.118595  1
  F  F16  1  0.788729  0.203960  0.618595  1
  F  F17  1  0.703960  0.288729  0.118595  1
  F  F18  1  0.288729  0.296040  0.881405  1
  F  F19  1  0.711271  0.703960  0.881405  1
  F  F20  1  0.152731  0.290645  0.199384  1
  F  F21  1  0.847269  0.709355  0.199384  1
  F  F22  1  0.290645  0.847269  0.800616  1
  F  F23  1  0.347269  0.790645  0.300616  1
  F  F24  1  0.709355  0.152731  0.800616  1
  F  F25  1  0.652731  0.209355  0.300616  1
  F  F26  1  0.209355  0.347269  0.699384  1
  F  F27  1  0.790645  0.652731  0.699384  1
  F  F28  1  0.156858  0.281168  0.047860  1
  F  F29  1  0.843142  0.718832  0.047860  1
  F  F30  1  0.281168  0.843142  0.952140  1
  F  F31  1  0.343142  0.781168  0.452140  1
  F  F32  1  0.718832  0.156858  0.952140  1
  F  F33  1  0.656858  0.218832  0.452140  1
  F  F34  1  0.218832  0.343142  0.547860  1
  F  F35  1  0.781168  0.656858  0.547860  1
