# generated using pymatgen
data_Y12InCu3Ni2
_symmetry_space_group_name_H-M   'P 1'
_cell_length_a   8.45029745
_cell_length_b   8.45029885
_cell_length_c   8.45029800
_cell_angle_alpha   110.19949446
_cell_angle_beta   111.92649492
_cell_angle_gamma   106.33741228
_symmetry_Int_Tables_number   1
_chemical_formula_structural   Y12InCu3Ni2
_chemical_formula_sum   'Y12 In1 Cu3 Ni2'
_cell_volume   463.36241265
_cell_formula_units_Z   1
loop_
 _symmetry_equiv_pos_site_id
 _symmetry_equiv_pos_as_xyz
  1  'x, y, z'
loop_
 _atom_site_type_symbol
 _atom_site_label
 _atom_site_symmetry_multiplicity
 _atom_site_fract_x
 _atom_site_fract_y
 _atom_site_fract_z
 _atom_site_occupancy
  Y  Y0  1  0.291029  0.179668  0.470696  1
  Y  Y1  1  0.708971  0.820332  0.529304  1
  Y  Y2  1  0.291029  0.820332  0.111360  1
  Y  Y3  1  0.708971  0.179668  0.888640  1
  Y  Y4  1  0.624306  0.317921  0.306385  1
  Y  Y5  1  0.375694  0.682079  0.693615  1
  Y  Y6  1  0.011536  0.317921  0.693615  1
  Y  Y7  1  0.988464  0.682079  0.306385  1
  Y  Y8  1  0.227913  0.418406  0.190494  1
  Y  Y9  1  0.772087  0.581594  0.809506  1
  Y  Y10  1  0.227913  0.037420  0.809506  1
  Y  Y11  1  0.772087  0.962580  0.190494  1
  In  In12  1  0.500000  0.500000  0.000000  1
  Cu  Cu13  1  0.000000  0.358763  0.358763  1
  Cu  Cu14  1  0.000000  0.641237  0.641237  1
  Cu  Cu15  1  0.000000  0.000000  0.000000  1
  Ni  Ni16  1  0.379274  0.879274  0.500000  1
  Ni  Ni17  1  0.620726  0.120726  0.500000  1
