# generated using pymatgen
data_Er12Th4Mg4MnIr3
_symmetry_space_group_name_H-M   'P 1'
_cell_length_a   9.69418465
_cell_length_b   9.69418604
_cell_length_c   9.69418500
_cell_angle_alpha   59.78326443
_cell_angle_beta   59.78326651
_cell_angle_gamma   59.78326854
_symmetry_Int_Tables_number   1
_chemical_formula_structural   Er12Th4Mg4MnIr3
_chemical_formula_sum   'Er12 Th4 Mg4 Mn1 Ir3'
_cell_volume   641.02756036
_cell_formula_units_Z   1
loop_
 _symmetry_equiv_pos_site_id
 _symmetry_equiv_pos_as_xyz
  1  'x, y, z'
loop_
 _atom_site_type_symbol
 _atom_site_label
 _atom_site_symmetry_multiplicity
 _atom_site_fract_x
 _atom_site_fract_y
 _atom_site_fract_z
 _atom_site_occupancy
  Er  Er0  1  0.069001  0.436054  0.436054  1
  Er  Er1  1  0.436389  0.062202  0.062202  1
  Er  Er2  1  0.436054  0.069001  0.436054  1
  Er  Er3  1  0.062202  0.436389  0.062202  1
  Er  Er4  1  0.436054  0.436054  0.069001  1
  Er  Er5  1  0.062202  0.062202  0.436389  1
  Er  Er6  1  0.184210  0.813938  0.813938  1
  Er  Er7  1  0.812234  0.183589  0.183589  1
  Er  Er8  1  0.813938  0.184210  0.813938  1
  Er  Er9  1  0.183589  0.812234  0.183589  1
  Er  Er10  1  0.813938  0.813938  0.184210  1
  Er  Er11  1  0.183589  0.183589  0.812234  1
  Th  Th12  1  0.600368  0.600368  0.600368  1
  Th  Th13  1  0.592415  0.592415  0.211412  1
  Th  Th14  1  0.592415  0.211412  0.592415  1
  Th  Th15  1  0.211412  0.592415  0.592415  1
  Mg  Mg16  1  0.829127  0.829127  0.829127  1
  Mg  Mg17  1  0.831046  0.831046  0.506813  1
  Mg  Mg18  1  0.831046  0.506813  0.831046  1
  Mg  Mg19  1  0.506813  0.831046  0.831046  1
  Mn  Mn20  1  0.397281  0.397281  0.397281  1
  Ir  Ir21  1  0.394835  0.394835  0.825005  1
  Ir  Ir22  1  0.394835  0.825005  0.394835  1
  Ir  Ir23  1  0.825005  0.394835  0.394835  1
