# generated using pymatgen
data_Sr4As7Ir8
_symmetry_space_group_name_H-M   'P 1'
_cell_length_a   4.18677400
_cell_length_b   13.38838057
_cell_length_c   13.71886979
_cell_angle_alpha   98.52080895
_cell_angle_beta   90.00000000
_cell_angle_gamma   90.00000000
_symmetry_Int_Tables_number   1
_chemical_formula_structural   Sr4As7Ir8
_chemical_formula_sum   'Sr8 As14 Ir16'
_cell_volume   760.51110003
_cell_formula_units_Z   2
loop_
 _symmetry_equiv_pos_site_id
 _symmetry_equiv_pos_as_xyz
  1  'x, y, z'
loop_
 _atom_site_type_symbol
 _atom_site_label
 _atom_site_symmetry_multiplicity
 _atom_site_fract_x
 _atom_site_fract_y
 _atom_site_fract_z
 _atom_site_occupancy
  Sr  Sr0  1  0.750000  0.213518  0.565499  1
  Sr  Sr1  1  0.250000  0.786482  0.434501  1
  Sr  Sr2  1  0.750000  0.513237  0.709036  1
  Sr  Sr3  1  0.250000  0.486763  0.290964  1
  Sr  Sr4  1  0.750000  0.286349  0.894926  1
  Sr  Sr5  1  0.250000  0.713651  0.105074  1
  Sr  Sr6  1  0.750000  0.101787  0.205636  1
  Sr  Sr7  1  0.250000  0.898213  0.794364  1
  As  As8  1  0.750000  0.744029  0.916311  1
  As  As9  1  0.250000  0.255971  0.083689  1
  As  As10  1  0.750000  0.906621  0.586838  1
  As  As11  1  0.250000  0.093379  0.413162  1
  As  As12  1  0.750000  0.528061  0.127093  1
  As  As13  1  0.250000  0.471939  0.872907  1
  As  As14  1  0.750000  0.849390  0.279512  1
  As  As15  1  0.250000  0.150610  0.720488  1
  As  As16  1  0.750000  0.608148  0.438121  1
  As  As17  1  0.250000  0.391852  0.561879  1
  As  As18  1  0.750000  0.310297  0.312083  1
  As  As19  1  0.250000  0.689703  0.687917  1
  As  As20  1  0.750000  0.056713  0.900915  1
  As  As21  1  0.250000  0.943287  0.099085  1
  Ir  Ir22  1  0.750000  0.344059  0.139285  1
  Ir  Ir23  1  0.250000  0.655941  0.860715  1
  Ir  Ir24  1  0.750000  0.721707  0.602258  1
  Ir  Ir25  1  0.250000  0.278293  0.397742  1
  Ir  Ir26  1  0.750000  0.919139  0.001128  1
  Ir  Ir27  1  0.250000  0.080861  0.998872  1
  Ir  Ir28  1  0.750000  0.425917  0.471308  1
  Ir  Ir29  1  0.250000  0.574083  0.528692  1
  Ir  Ir30  1  0.750000  0.056293  0.719961  1
  Ir  Ir31  1  0.250000  0.943707  0.280039  1
  Ir  Ir32  1  0.750000  0.554926  0.952270  1
  Ir  Ir33  1  0.250000  0.445074  0.047730  1
  Ir  Ir34  1  0.750000  0.666432  0.271376  1
  Ir  Ir35  1  0.250000  0.333568  0.728624  1
  Ir  Ir36  1  0.750000  0.984351  0.427399  1
  Ir  Ir37  1  0.250000  0.015649  0.572601  1
