# generated using pymatgen
data_Zr4Co3TcOs4
_symmetry_space_group_name_H-M   'P 1'
_cell_length_a   5.11814902
_cell_length_b   5.05760159
_cell_length_c   8.46186400
_cell_angle_alpha   90.00000000
_cell_angle_beta   90.00000000
_cell_angle_gamma   119.43487406
_symmetry_Int_Tables_number   1
_chemical_formula_structural   Zr4Co3TcOs4
_chemical_formula_sum   'Zr4 Co3 Tc1 Os4'
_cell_volume   190.76525608
_cell_formula_units_Z   1
loop_
 _symmetry_equiv_pos_site_id
 _symmetry_equiv_pos_as_xyz
  1  'x, y, z'
loop_
 _atom_site_type_symbol
 _atom_site_label
 _atom_site_symmetry_multiplicity
 _atom_site_fract_x
 _atom_site_fract_y
 _atom_site_fract_z
 _atom_site_occupancy
  Zr  Zr0  1  0.330117  0.666441  0.438408  1
  Zr  Zr1  1  0.664510  0.335439  0.568615  1
  Zr  Zr2  1  0.664510  0.335439  0.931385  1
  Zr  Zr3  1  0.330117  0.666441  0.061592  1
  Co  Co4  1  0.831258  0.657781  0.250000  1
  Co  Co5  1  0.176120  0.831530  0.750000  1
  Co  Co6  1  0.174262  0.340665  0.750000  1
  Tc  Tc7  1  0.828374  0.167733  0.250000  1
  Os  Os8  1  0.000169  0.999683  0.504772  1
  Os  Os9  1  0.000169  0.999683  0.995228  1
  Os  Os10  1  0.345980  0.169302  0.250000  1
  Os  Os11  1  0.654411  0.829865  0.750000  1
