# generated using pymatgen
data_La3TmSb10
_symmetry_space_group_name_H-M   'P 1'
_cell_length_a   4.32369100
_cell_length_b   13.63326921
_cell_length_c   15.20497916
_cell_angle_alpha   78.37332141
_cell_angle_beta   90.00000000
_cell_angle_gamma   90.00000000
_symmetry_Int_Tables_number   1
_chemical_formula_structural   La3TmSb10
_chemical_formula_sum   'La6 Tm2 Sb20'
_cell_volume   877.88319077
_cell_formula_units_Z   2
loop_
 _symmetry_equiv_pos_site_id
 _symmetry_equiv_pos_as_xyz
  1  'x, y, z'
loop_
 _atom_site_type_symbol
 _atom_site_label
 _atom_site_symmetry_multiplicity
 _atom_site_fract_x
 _atom_site_fract_y
 _atom_site_fract_z
 _atom_site_occupancy
  La  La0  1  0.750000  0.334216  0.142050  1
  La  La1  1  0.250000  0.947073  0.364164  1
  La  La2  1  0.250000  0.665784  0.857950  1
  La  La3  1  0.250000  0.666272  0.577321  1
  La  La4  1  0.750000  0.052927  0.635836  1
  La  La5  1  0.750000  0.333728  0.422679  1
  Tm  Tm6  1  0.250000  0.398152  0.771932  1
  Tm  Tm7  1  0.750000  0.601848  0.228068  1
  Sb  Sb8  1  0.750000  0.856173  0.817645  1
  Sb  Sb9  1  0.250000  0.863081  0.675497  1
  Sb  Sb10  1  0.250000  0.145911  0.475496  1
  Sb  Sb11  1  0.750000  0.287946  0.930350  1
  Sb  Sb12  1  0.250000  0.151129  0.781239  1
  Sb  Sb13  1  0.750000  0.575793  0.438220  1
  Sb  Sb14  1  0.750000  0.136919  0.324503  1
  Sb  Sb15  1  0.250000  0.703001  0.350291  1
  Sb  Sb16  1  0.750000  0.296999  0.649709  1
  Sb  Sb17  1  0.750000  0.848871  0.218761  1
  Sb  Sb18  1  0.250000  0.419757  0.969931  1
  Sb  Sb19  1  0.250000  0.424207  0.561780  1
  Sb  Sb20  1  0.750000  0.567953  0.739012  1
  Sb  Sb21  1  0.250000  0.432047  0.260988  1
  Sb  Sb22  1  0.750000  0.854089  0.524504  1
  Sb  Sb23  1  0.750000  0.037443  0.887018  1
  Sb  Sb24  1  0.250000  0.712054  0.069650  1
  Sb  Sb25  1  0.250000  0.962557  0.112982  1
  Sb  Sb26  1  0.250000  0.143827  0.182355  1
  Sb  Sb27  1  0.750000  0.580243  0.030069  1
