# generated using pymatgen
data_Hf4Zr6Sn6BH
_symmetry_space_group_name_H-M   'P 1'
_cell_length_a   8.51815700
_cell_length_b   8.51815694
_cell_length_c   5.79396200
_cell_angle_alpha   90.00000000
_cell_angle_beta   90.00000000
_cell_angle_gamma   120.00000411
_symmetry_Int_Tables_number   1
_chemical_formula_structural   Hf4Zr6Sn6BH
_chemical_formula_sum   'Hf4 Zr6 Sn6 B1 H1'
_cell_volume   364.08059654
_cell_formula_units_Z   1
loop_
 _symmetry_equiv_pos_site_id
 _symmetry_equiv_pos_as_xyz
  1  'x, y, z'
loop_
 _atom_site_type_symbol
 _atom_site_label
 _atom_site_symmetry_multiplicity
 _atom_site_fract_x
 _atom_site_fract_y
 _atom_site_fract_z
 _atom_site_occupancy
  Hf  Hf0  1  0.666667  0.333333  0.000000  1
  Hf  Hf1  1  0.333333  0.666667  0.000000  1
  Hf  Hf2  1  0.333333  0.666667  0.500000  1
  Hf  Hf3  1  0.666667  0.333333  0.500000  1
  Zr  Zr4  1  0.765659  0.765659  0.745794  1
  Zr  Zr5  1  0.234341  0.000000  0.745794  1
  Zr  Zr6  1  0.000000  0.234341  0.745794  1
  Zr  Zr7  1  0.234341  0.234341  0.254206  1
  Zr  Zr8  1  0.765659  0.000000  0.254206  1
  Zr  Zr9  1  0.000000  0.765659  0.254206  1
  Sn  Sn10  1  0.397519  0.397519  0.750428  1
  Sn  Sn11  1  0.602481  0.000000  0.750428  1
  Sn  Sn12  1  0.000000  0.602481  0.750428  1
  Sn  Sn13  1  0.602481  0.602481  0.249572  1
  Sn  Sn14  1  0.397519  0.000000  0.249572  1
  Sn  Sn15  1  0.000000  0.397519  0.249572  1
  B  B16  1  0.000000  0.000000  0.500000  1
  H  H17  1  0.000000  0.000000  0.000000  1
