# generated using pymatgen
data_Sc22Fe2RuRh5
_symmetry_space_group_name_H-M   'P 1'
_cell_length_a   9.45612162
_cell_length_b   9.48029718
_cell_length_c   9.45612065
_cell_angle_alpha   59.91538851
_cell_angle_beta   59.77632870
_cell_angle_gamma   59.91538914
_symmetry_Int_Tables_number   1
_chemical_formula_structural   Sc22Fe2RuRh5
_chemical_formula_sum   'Sc22 Fe2 Ru1 Rh5'
_cell_volume   597.63877731
_cell_formula_units_Z   1
loop_
 _symmetry_equiv_pos_site_id
 _symmetry_equiv_pos_as_xyz
  1  'x, y, z'
loop_
 _atom_site_type_symbol
 _atom_site_label
 _atom_site_symmetry_multiplicity
 _atom_site_fract_x
 _atom_site_fract_y
 _atom_site_fract_z
 _atom_site_occupancy
  Sc  Sc0  1  0.808698  0.808742  0.191302  1
  Sc  Sc1  1  0.191204  0.808796  0.191204  1
  Sc  Sc2  1  0.808698  0.191258  0.191302  1
  Sc  Sc3  1  0.191302  0.191258  0.808698  1
  Sc  Sc4  1  0.808796  0.191204  0.808796  1
  Sc  Sc5  1  0.191302  0.808742  0.808698  1
  Sc  Sc6  1  0.616308  0.612907  0.157878  1
  Sc  Sc7  1  0.614188  0.158750  0.614188  1
  Sc  Sc8  1  0.157878  0.612907  0.616308  1
  Sc  Sc9  1  0.614188  0.612874  0.614188  1
  Sc  Sc10  1  0.383692  0.387093  0.842122  1
  Sc  Sc11  1  0.385812  0.841250  0.385812  1
  Sc  Sc12  1  0.842122  0.387093  0.383692  1
  Sc  Sc13  1  0.385812  0.387126  0.385812  1
  Sc  Sc14  1  0.841353  0.841754  0.475138  1
  Sc  Sc15  1  0.842568  0.474705  0.842568  1
  Sc  Sc16  1  0.475138  0.841754  0.841353  1
  Sc  Sc17  1  0.842568  0.840159  0.842568  1
  Sc  Sc18  1  0.158647  0.158246  0.524862  1
  Sc  Sc19  1  0.157432  0.525295  0.157432  1
  Sc  Sc20  1  0.524862  0.158246  0.158647  1
  Sc  Sc21  1  0.157432  0.159841  0.157432  1
  Fe  Fe22  1  0.000000  0.000000  0.000000  1
  Fe  Fe23  1  0.500000  0.500000  0.500000  1
  Ru  Ru24  1  0.000000  0.500000  0.000000  1
  Rh  Rh25  1  0.000000  0.000000  0.500000  1
  Rh  Rh26  1  0.500000  0.000000  0.500000  1
  Rh  Rh27  1  0.000000  0.500000  0.500000  1
  Rh  Rh28  1  0.500000  0.500000  0.000000  1
  Rh  Rh29  1  0.500000  0.000000  0.000000  1
