# generated using pymatgen
data_Dy2Er2ReB12Ru
_symmetry_space_group_name_H-M   'P 1'
_cell_length_a   3.65752600
_cell_length_b   9.13119641
_cell_length_c   11.52046307
_cell_angle_alpha   90.19487896
_cell_angle_beta   90.00000000
_cell_angle_gamma   90.00000000
_symmetry_Int_Tables_number   1
_chemical_formula_structural   Dy2Er2ReB12Ru
_chemical_formula_sum   'Dy4 Er4 Re2 B24 Ru2'
_cell_volume   384.75345695
_cell_formula_units_Z   2
loop_
 _symmetry_equiv_pos_site_id
 _symmetry_equiv_pos_as_xyz
  1  'x, y, z'
loop_
 _atom_site_type_symbol
 _atom_site_label
 _atom_site_symmetry_multiplicity
 _atom_site_fract_x
 _atom_site_fract_y
 _atom_site_fract_z
 _atom_site_occupancy
  Dy  Dy0  1  0.000000  0.320931  0.412573  1
  Dy  Dy1  1  0.000000  0.679069  0.587427  1
  Dy  Dy2  1  0.000000  0.824449  0.084613  1
  Dy  Dy3  1  0.000000  0.175551  0.915387  1
  Er  Er4  1  0.000000  0.942994  0.370601  1
  Er  Er5  1  0.000000  0.057006  0.629399  1
  Er  Er6  1  0.000000  0.443099  0.129261  1
  Er  Er7  1  0.000000  0.556901  0.870739  1
  Re  Re8  1  0.000000  0.138762  0.179873  1
  Re  Re9  1  0.000000  0.861238  0.820127  1
  B  B10  1  0.500000  0.554115  0.432978  1
  B  B11  1  0.500000  0.445885  0.567022  1
  B  B12  1  0.500000  0.053344  0.066889  1
  B  B13  1  0.500000  0.946656  0.933111  1
  B  B14  1  0.500000  0.749058  0.418871  1
  B  B15  1  0.500000  0.250942  0.581129  1
  B  B16  1  0.500000  0.249510  0.081030  1
  B  B17  1  0.500000  0.750490  0.918970  1
  B  B18  1  0.500000  0.790937  0.265857  1
  B  B19  1  0.500000  0.209063  0.734143  1
  B  B20  1  0.500000  0.292160  0.234782  1
  B  B21  1  0.500000  0.707840  0.765218  1
  B  B22  1  0.500000  0.630845  0.185881  1
  B  B23  1  0.500000  0.369155  0.814119  1
  B  B24  1  0.500000  0.131143  0.315014  1
  B  B25  1  0.500000  0.868857  0.684986  1
  B  B26  1  0.500000  0.982518  0.212598  1
  B  B27  1  0.500000  0.017482  0.787402  1
  B  B28  1  0.500000  0.483341  0.287993  1
  B  B29  1  0.500000  0.516659  0.712007  1
  B  B30  1  0.500000  0.602495  0.028519  1
  B  B31  1  0.500000  0.397505  0.971481  1
  B  B32  1  0.500000  0.103008  0.471660  1
  B  B33  1  0.500000  0.896992  0.528340  1
  Ru  Ru34  1  0.000000  0.638097  0.321358  1
  Ru  Ru35  1  0.000000  0.361903  0.678642  1
