# generated using pymatgen
data_LiY4Sc3(B6Ir)4
_symmetry_space_group_name_H-M   'P 1'
_cell_length_a   3.54934400
_cell_length_b   8.97292012
_cell_length_c   11.35514967
_cell_angle_alpha   90.07867921
_cell_angle_beta   90.00000000
_cell_angle_gamma   90.00000000
_symmetry_Int_Tables_number   1
_chemical_formula_structural   LiY4Sc3(B6Ir)4
_chemical_formula_sum   'Li1 Y4 Sc3 B24 Ir4'
_cell_volume   361.63824079
_cell_formula_units_Z   1
loop_
 _symmetry_equiv_pos_site_id
 _symmetry_equiv_pos_as_xyz
  1  'x, y, z'
loop_
 _atom_site_type_symbol
 _atom_site_label
 _atom_site_symmetry_multiplicity
 _atom_site_fract_x
 _atom_site_fract_y
 _atom_site_fract_z
 _atom_site_occupancy
  Li  Li0  1  0.500000  0.446447  0.122204  1
  Y  Y1  1  0.500000  0.320165  0.412448  1
  Y  Y2  1  0.500000  0.680390  0.585497  1
  Y  Y3  1  0.500000  0.182624  0.915755  1
  Y  Y4  1  0.500000  0.816946  0.086411  1
  Sc  Sc5  1  0.500000  0.553265  0.880274  1
  Sc  Sc6  1  0.500000  0.055205  0.623775  1
  Sc  Sc7  1  0.500000  0.945032  0.375163  1
  B  B8  1  0.000000  0.100554  0.472809  1
  B  B9  1  0.000000  0.899624  0.526739  1
  B  B10  1  0.000000  0.400890  0.974442  1
  B  B11  1  0.000000  0.598028  0.027540  1
  B  B12  1  0.000000  0.129846  0.317119  1
  B  B13  1  0.000000  0.870748  0.681540  1
  B  B14  1  0.000000  0.370321  0.820975  1
  B  B15  1  0.000000  0.626072  0.180593  1
  B  B16  1  0.000000  0.056061  0.067130  1
  B  B17  1  0.000000  0.944349  0.934585  1
  B  B18  1  0.000000  0.444257  0.565443  1
  B  B19  1  0.000000  0.555505  0.432325  1
  B  B20  1  0.000000  0.481840  0.282825  1
  B  B21  1  0.000000  0.517767  0.716095  1
  B  B22  1  0.000000  0.018927  0.784797  1
  B  B23  1  0.000000  0.981911  0.214657  1
  B  B24  1  0.000000  0.257893  0.081625  1
  B  B25  1  0.000000  0.744371  0.921532  1
  B  B26  1  0.000000  0.246137  0.579537  1
  B  B27  1  0.000000  0.754129  0.419015  1
  B  B28  1  0.000000  0.296548  0.233469  1
  B  B29  1  0.000000  0.704267  0.765886  1
  B  B30  1  0.000000  0.205525  0.735990  1
  B  B31  1  0.000000  0.793129  0.264756  1
  Ir  Ir32  1  0.500000  0.142281  0.182068  1
  Ir  Ir33  1  0.500000  0.859433  0.817354  1
  Ir  Ir34  1  0.500000  0.359784  0.679576  1
  Ir  Ir35  1  0.500000  0.639728  0.318052  1
