# generated using pymatgen
data_VWF6
_symmetry_space_group_name_H-M   'P 1'
_cell_length_a   5.69982616
_cell_length_b   5.69982594
_cell_length_c   5.69982500
_cell_angle_alpha   58.08668479
_cell_angle_beta   58.08668615
_cell_angle_gamma   58.08668242
_symmetry_Int_Tables_number   1
_chemical_formula_structural   VWF6
_chemical_formula_sum   'V1 W1 F6'
_cell_volume   125.19508009
_cell_formula_units_Z   1
loop_
 _symmetry_equiv_pos_site_id
 _symmetry_equiv_pos_as_xyz
  1  'x, y, z'
loop_
 _atom_site_type_symbol
 _atom_site_label
 _atom_site_symmetry_multiplicity
 _atom_site_fract_x
 _atom_site_fract_y
 _atom_site_fract_z
 _atom_site_occupancy
  V  V0  1  0.000000  0.000000  0.000000  1
  W  W1  1  0.500000  0.500000  0.500000  1
  F  F2  1  0.669841  0.848212  0.239121  1
  F  F3  1  0.848212  0.239121  0.669841  1
  F  F4  1  0.760879  0.330159  0.151788  1
  F  F5  1  0.151788  0.760879  0.330159  1
  F  F6  1  0.330159  0.151788  0.760879  1
  F  F7  1  0.239121  0.669841  0.848212  1
