# generated using pymatgen
data_Pu3Ga3NiGe2
_symmetry_space_group_name_H-M   'P 1'
_cell_length_a   6.96157200
_cell_length_b   6.96090345
_cell_length_c   4.22512400
_cell_angle_alpha   90.00000000
_cell_angle_beta   90.00000000
_cell_angle_gamma   120.00384728
_symmetry_Int_Tables_number   1
_chemical_formula_structural   Pu3Ga3NiGe2
_chemical_formula_sum   'Pu3 Ga3 Ni1 Ge2'
_cell_volume   177.30712260
_cell_formula_units_Z   1
loop_
 _symmetry_equiv_pos_site_id
 _symmetry_equiv_pos_as_xyz
  1  'x, y, z'
loop_
 _atom_site_type_symbol
 _atom_site_label
 _atom_site_symmetry_multiplicity
 _atom_site_fract_x
 _atom_site_fract_y
 _atom_site_fract_z
 _atom_site_occupancy
  Pu  Pu0  1  0.408823  0.000000  0.500000  1
  Pu  Pu1  1  0.999999  0.408827  0.500000  1
  Pu  Pu2  1  0.591173  0.591170  0.500000  1
  Ga  Ga3  1  0.770726  0.999996  0.000000  1
  Ga  Ga4  1  0.999996  0.770725  0.000000  1
  Ga  Ga5  1  0.229284  0.229285  0.000000  1
  Ni  Ni6  1  0.000005  0.000006  0.500000  1
  Ge  Ge7  1  0.333326  0.666665  0.000000  1
  Ge  Ge8  1  0.666668  0.333327  0.000000  1
