# generated using pymatgen
data_Gd3ErTc3B16W
_symmetry_space_group_name_H-M   'P 1'
_cell_length_a   3.60629200
_cell_length_b   6.00588220
_cell_length_c   11.62163754
_cell_angle_alpha   89.85494682
_cell_angle_beta   90.00000000
_cell_angle_gamma   90.00000000
_symmetry_Int_Tables_number   1
_chemical_formula_structural   Gd3ErTc3B16W
_chemical_formula_sum   'Gd3 Er1 Tc3 B16 W1'
_cell_volume   251.71183354
_cell_formula_units_Z   1
loop_
 _symmetry_equiv_pos_site_id
 _symmetry_equiv_pos_as_xyz
  1  'x, y, z'
loop_
 _atom_site_type_symbol
 _atom_site_label
 _atom_site_symmetry_multiplicity
 _atom_site_fract_x
 _atom_site_fract_y
 _atom_site_fract_z
 _atom_site_occupancy
  Gd  Gd0  1  0.000000  0.626302  0.347538  1
  Gd  Gd1  1  0.000000  0.372000  0.652908  1
  Gd  Gd2  1  0.000000  0.126417  0.148280  1
  Er  Er3  1  0.000000  0.873213  0.852419  1
  Tc  Tc4  1  0.000000  0.635139  0.087224  1
  Tc  Tc5  1  0.000000  0.365906  0.912958  1
  Tc  Tc6  1  0.000000  0.129145  0.414703  1
  B  B7  1  0.500000  0.786251  0.183874  1
  B  B8  1  0.500000  0.214218  0.816184  1
  B  B9  1  0.500000  0.286079  0.314900  1
  B  B10  1  0.500000  0.711487  0.687686  1
  B  B11  1  0.500000  0.863959  0.030684  1
  B  B12  1  0.500000  0.136715  0.968186  1
  B  B13  1  0.500000  0.363781  0.467153  1
  B  B14  1  0.500000  0.633433  0.531320  1
  B  B15  1  0.500000  0.887260  0.451317  1
  B  B16  1  0.500000  0.115637  0.546205  1
  B  B17  1  0.500000  0.387866  0.046335  1
  B  B18  1  0.500000  0.614341  0.952773  1
  B  B19  1  0.500000  0.977708  0.306990  1
  B  B20  1  0.500000  0.024332  0.694375  1
  B  B21  1  0.500000  0.476140  0.190963  1
  B  B22  1  0.500000  0.523384  0.809164  1
  W  W23  1  0.000000  0.869287  0.585860  1
