# generated using pymatgen
data_ScPa5Se18
_symmetry_space_group_name_H-M   'P 1'
_cell_length_a   3.93730600
_cell_length_b   10.77495131
_cell_length_c   16.48040400
_cell_angle_alpha   71.76612347
_cell_angle_beta   90.00000000
_cell_angle_gamma   90.00000000
_symmetry_Int_Tables_number   1
_chemical_formula_structural   ScPa5Se18
_chemical_formula_sum   'Sc1 Pa5 Se18'
_cell_volume   664.06204454
_cell_formula_units_Z   1
loop_
 _symmetry_equiv_pos_site_id
 _symmetry_equiv_pos_as_xyz
  1  'x, y, z'
loop_
 _atom_site_type_symbol
 _atom_site_label
 _atom_site_symmetry_multiplicity
 _atom_site_fract_x
 _atom_site_fract_y
 _atom_site_fract_z
 _atom_site_occupancy
  Sc  Sc0  1  0.750000  0.840897  0.458196  1
  Pa  Pa1  1  0.250000  0.467761  0.879347  1
  Pa  Pa2  1  0.750000  0.525505  0.119157  1
  Pa  Pa3  1  0.750000  0.889363  0.792365  1
  Pa  Pa4  1  0.250000  0.111603  0.212961  1
  Pa  Pa5  1  0.250000  0.146815  0.542444  1
  Se  Se6  1  0.750000  0.623887  0.932660  1
  Se  Se7  1  0.250000  0.370992  0.068810  1
  Se  Se8  1  0.750000  0.256358  0.933304  1
  Se  Se9  1  0.250000  0.736525  0.074217  1
  Se  Se10  1  0.750000  0.442972  0.766681  1
  Se  Se11  1  0.250000  0.564422  0.230052  1
  Se  Se12  1  0.250000  0.899864  0.917040  1
  Se  Se13  1  0.750000  0.098148  0.084408  1
  Se  Se14  1  0.250000  0.091175  0.728994  1
  Se  Se15  1  0.750000  0.918037  0.265218  1
  Se  Se16  1  0.250000  0.729361  0.749758  1
  Se  Se17  1  0.750000  0.275529  0.254187  1
  Se  Se18  1  0.750000  0.324408  0.572750  1
  Se  Se19  1  0.250000  0.688799  0.420412  1
  Se  Se20  1  0.750000  0.951814  0.599789  1
  Se  Se21  1  0.250000  0.042209  0.404228  1
  Se  Se22  1  0.750000  0.310226  0.429047  1
  Se  Se23  1  0.250000  0.693329  0.563974  1
