# generated using pymatgen
data_Dy11Y(IrPd)6
_symmetry_space_group_name_H-M   'P 1'
_cell_length_a   4.89966600
_cell_length_b   7.01866400
_cell_length_c   14.76294300
_cell_angle_alpha   89.99998367
_cell_angle_beta   89.99983629
_cell_angle_gamma   89.99995102
_symmetry_Int_Tables_number   1
_chemical_formula_structural   Dy11Y(IrPd)6
_chemical_formula_sum   'Dy11 Y1 Ir6 Pd6'
_cell_volume   507.68446139
_cell_formula_units_Z   1
loop_
 _symmetry_equiv_pos_site_id
 _symmetry_equiv_pos_as_xyz
  1  'x, y, z'
loop_
 _atom_site_type_symbol
 _atom_site_label
 _atom_site_symmetry_multiplicity
 _atom_site_fract_x
 _atom_site_fract_y
 _atom_site_fract_z
 _atom_site_occupancy
  Dy  Dy0  1  0.499999  0.250330  0.999875  1
  Dy  Dy1  1  0.500001  0.749762  0.999772  1
  Dy  Dy2  1  0.999943  0.249594  0.166708  1
  Dy  Dy3  1  0.999943  0.750317  0.166649  1
  Dy  Dy4  1  0.499933  0.250259  0.333342  1
  Dy  Dy5  1  0.499935  0.749751  0.333341  1
  Dy  Dy6  1  0.999999  0.249598  0.499964  1
  Dy  Dy7  1  0.000001  0.750314  0.500022  1
  Dy  Dy8  1  0.500064  0.250332  0.666785  1
  Dy  Dy9  1  0.500066  0.749760  0.666888  1
  Dy  Dy10  1  0.000058  0.249614  0.833326  1
  Y  Y11  1  0.000061  0.750359  0.833340  1
  Ir  Ir12  1  0.999999  0.499856  0.000140  1
  Ir  Ir13  1  0.499955  0.000002  0.166631  1
  Ir  Ir14  1  0.999969  0.500006  0.333339  1
  Ir  Ir15  1  0.500000  0.000004  0.500029  1
  Ir  Ir16  1  0.000030  0.499857  0.666518  1
  Ir  Ir17  1  0.500045  0.000258  0.833337  1
  Pd  Pd18  1  0.000001  0.000098  0.000061  1
  Pd  Pd19  1  0.499834  0.499996  0.166629  1
  Pd  Pd20  1  0.999811  0.000005  0.333329  1
  Pd  Pd21  1  0.500001  0.499996  0.500055  1
  Pd  Pd22  1  0.000188  0.000101  0.666608  1
  Pd  Pd23  1  0.500160  0.499826  0.833314  1
