# generated using pymatgen
data_TePF34
_symmetry_space_group_name_H-M   'P 1'
_cell_length_a   8.96000027
_cell_length_b   8.54785843
_cell_length_c   10.12721319
_cell_angle_alpha   80.47468695
_cell_angle_beta   87.19950923
_cell_angle_gamma   65.14314855
_symmetry_Int_Tables_number   1
_chemical_formula_structural   TePF34
_chemical_formula_sum   'Te1 P1 F34'
_cell_volume   693.88836315
_cell_formula_units_Z   1
loop_
 _symmetry_equiv_pos_site_id
 _symmetry_equiv_pos_as_xyz
  1  'x, y, z'
loop_
 _atom_site_type_symbol
 _atom_site_label
 _atom_site_symmetry_multiplicity
 _atom_site_fract_x
 _atom_site_fract_y
 _atom_site_fract_z
 _atom_site_occupancy
  Te  Te0  1  0.865168  0.248595  0.761562  1
  P  P1  1  0.138571  0.747127  0.245378  1
  F  F2  1  0.607833  0.204524  0.477936  1
  F  F3  1  0.388951  0.789522  0.515865  1
  F  F4  1  0.833210  0.722861  0.721911  1
  F  F5  1  0.162592  0.314844  0.308414  1
  F  F6  1  0.112545  0.732351  0.870684  1
  F  F7  1  0.916343  0.242069  0.146706  1
  F  F8  1  0.560123  0.143380  0.371533  1
  F  F9  1  0.442113  0.855236  0.616279  1
  F  F10  1  0.649619  0.331347  0.696055  1
  F  F11  1  0.326383  0.678346  0.302757  1
  F  F12  1  0.933472  0.070035  0.658484  1
  F  F13  1  0.077000  0.906899  0.332858  1
  F  F14  1  0.907874  0.391338  0.619021  1
  F  F15  1  0.100091  0.626329  0.373951  1
  F  F16  1  0.871867  0.789914  0.593455  1
  F  F17  1  0.157087  0.160002  0.380207  1
  F  F18  1  0.798109  0.428873  0.863196  1
  F  F19  1  0.198007  0.584050  0.161898  1
  F  F20  1  0.213240  0.689759  0.757360  1
  F  F21  1  0.776219  0.322855  0.224218  1
  F  F22  1  0.951482  0.815074  0.187942  1
  F  F23  1  0.079329  0.166954  0.828669  1
  F  F24  1  0.819766  0.105727  0.902360  1
  F  F25  1  0.176832  0.868948  0.119441  1
  F  F26  1  0.482575  0.596690  0.987393  1
  F  F27  1  0.498137  0.421777  0.012087  1
  F  F28  1  0.446979  0.097568  0.865396  1
  F  F29  1  0.522241  0.920919  0.138739  1
  F  F30  1  0.285601  0.256232  0.599803  1
  F  F31  1  0.712709  0.739564  0.388017  1
  F  F32  1  0.254591  0.402751  0.664171  1
  F  F33  1  0.745389  0.599309  0.316468  1
  F  F34  1  0.547976  0.929652  0.832337  1
  F  F35  1  0.439973  0.098578  0.157446  1
