# generated using pymatgen
data_Dy18Er2Si15Au
_symmetry_space_group_name_H-M   'P 1'
_cell_length_a   7.42807758
_cell_length_b   7.67074252
_cell_length_c   14.57921600
_cell_angle_alpha   89.77458812
_cell_angle_beta   89.69888266
_cell_angle_gamma   90.19972468
_symmetry_Int_Tables_number   1
_chemical_formula_structural   Dy18Er2Si15Au
_chemical_formula_sum   'Dy18 Er2 Si15 Au1'
_cell_volume   830.68425361
_cell_formula_units_Z   1
loop_
 _symmetry_equiv_pos_site_id
 _symmetry_equiv_pos_as_xyz
  1  'x, y, z'
loop_
 _atom_site_type_symbol
 _atom_site_label
 _atom_site_symmetry_multiplicity
 _atom_site_fract_x
 _atom_site_fract_y
 _atom_site_fract_z
 _atom_site_occupancy
  Dy  Dy0  1  0.848466  0.487905  0.751624  1
  Dy  Dy1  1  0.352417  0.011422  0.751012  1
  Dy  Dy2  1  0.974720  0.819617  0.099622  1
  Dy  Dy3  1  0.470834  0.683331  0.401075  1
  Dy  Dy4  1  0.524016  0.318111  0.900452  1
  Dy  Dy5  1  0.030329  0.183606  0.599008  1
  Dy  Dy6  1  0.031183  0.178576  0.900329  1
  Dy  Dy7  1  0.529753  0.316854  0.598361  1
  Dy  Dy8  1  0.473715  0.682325  0.101156  1
  Dy  Dy9  1  0.969237  0.817172  0.400463  1
  Dy  Dy10  1  0.678857  0.821632  0.878276  1
  Dy  Dy11  1  0.179954  0.681624  0.621725  1
  Dy  Dy12  1  0.817779  0.327138  0.123042  1
  Dy  Dy13  1  0.315879  0.177689  0.376563  1
  Dy  Dy14  1  0.320783  0.178025  0.123983  1
  Dy  Dy15  1  0.819233  0.320101  0.377037  1
  Dy  Dy16  1  0.181877  0.675941  0.877311  1
  Dy  Dy17  1  0.682255  0.821144  0.622333  1
  Er  Er18  1  0.647310  0.991641  0.249673  1
  Er  Er19  1  0.148924  0.511493  0.248175  1
  Si  Si20  1  0.765968  0.630563  0.252073  1
  Si  Si21  1  0.265923  0.871459  0.250942  1
  Si  Si22  1  0.735103  0.124603  0.748927  1
  Si  Si23  1  0.233061  0.373929  0.746963  1
  Si  Si24  1  0.018845  0.103781  0.249351  1
  Si  Si25  1  0.521545  0.396923  0.252113  1
  Si  Si26  1  0.474894  0.605374  0.747311  1
  Si  Si27  1  0.978226  0.894750  0.748525  1
  Si  Si28  1  0.354497  0.972232  0.540130  1
  Si  Si29  1  0.648030  0.027590  0.042622  1
  Si  Si30  1  0.147089  0.470411  0.459814  1
  Si  Si31  1  0.159618  0.472015  0.042986  1
  Si  Si32  1  0.644390  0.028365  0.458631  1
  Si  Si33  1  0.352813  0.968390  0.961850  1
  Si  Si34  1  0.854246  0.529820  0.538893  1
  Au  Au35  1  0.848234  0.524450  0.957648  1
