# generated using pymatgen
data_Li4MgUS6
_symmetry_space_group_name_H-M   'P 1'
_cell_length_a   6.43425724
_cell_length_b   6.43425765
_cell_length_c   6.47683944
_cell_angle_alpha   99.68562730
_cell_angle_beta   99.68562903
_cell_angle_gamma   119.92566277
_symmetry_Int_Tables_number   1
_chemical_formula_structural   Li4MgUS6
_chemical_formula_sum   'Li4 Mg1 U1 S6'
_cell_volume   218.86946667
_cell_formula_units_Z   1
loop_
 _symmetry_equiv_pos_site_id
 _symmetry_equiv_pos_as_xyz
  1  'x, y, z'
loop_
 _atom_site_type_symbol
 _atom_site_label
 _atom_site_symmetry_multiplicity
 _atom_site_fract_x
 _atom_site_fract_y
 _atom_site_fract_z
 _atom_site_occupancy
  Li  Li0  1  0.499623  0.500375  0.000000  1
  Li  Li1  1  0.005070  0.994931  0.499998  1
  Li  Li2  1  0.665658  0.334340  0.500000  1
  Li  Li3  1  0.328897  0.671101  0.500000  1
  Mg  Mg4  1  0.834370  0.165628  0.000000  1
  U  U5  1  0.166832  0.833166  0.000000  1
  S  S6  1  0.924131  0.585248  0.239211  1
  S  S7  1  0.241750  0.236144  0.245805  1
  S  S8  1  0.575248  0.920189  0.244171  1
  S  S9  1  0.079813  0.424754  0.755831  1
  S  S10  1  0.763857  0.758250  0.754197  1
  S  S11  1  0.414754  0.075871  0.760790  1
