# generated using pymatgen
data_CaDyPa2(Al3Ir)6
_symmetry_space_group_name_H-M   'P 1'
_cell_length_a   7.60234895
_cell_length_b   7.59957953
_cell_length_c   9.39161200
_cell_angle_alpha   90.00000000
_cell_angle_beta   90.00000000
_cell_angle_gamma   119.62899007
_symmetry_Int_Tables_number   1
_chemical_formula_structural   CaDyPa2(Al3Ir)6
_chemical_formula_sum   'Ca1 Dy1 Pa2 Al18 Ir6'
_cell_volume   471.64980169
_cell_formula_units_Z   1
loop_
 _symmetry_equiv_pos_site_id
 _symmetry_equiv_pos_as_xyz
  1  'x, y, z'
loop_
 _atom_site_type_symbol
 _atom_site_label
 _atom_site_symmetry_multiplicity
 _atom_site_fract_x
 _atom_site_fract_y
 _atom_site_fract_z
 _atom_site_occupancy
  Ca  Ca0  1  0.670161  0.993793  0.750000  1
  Dy  Dy1  1  0.330903  0.006688  0.250000  1
  Pa  Pa2  1  0.997849  0.671792  0.750000  1
  Pa  Pa3  1  0.002175  0.328114  0.250000  1
  Al  Al4  1  0.131260  0.126729  0.750000  1
  Al  Al5  1  0.868978  0.872446  0.250000  1
  Al  Al6  1  0.999848  0.331182  0.578479  1
  Al  Al7  1  0.999134  0.668063  0.421827  1
  Al  Al8  1  0.999134  0.668063  0.078173  1
  Al  Al9  1  0.339112  0.003360  0.924698  1
  Al  Al10  1  0.999848  0.331182  0.921521  1
  Al  Al11  1  0.661669  0.996320  0.073752  1
  Al  Al12  1  0.661669  0.996320  0.426248  1
  Al  Al13  1  0.339112  0.003360  0.575302  1
  Al  Al14  1  0.335305  0.333528  0.053666  1
  Al  Al15  1  0.664529  0.666923  0.946323  1
  Al  Al16  1  0.664529  0.666923  0.553677  1
  Al  Al17  1  0.335305  0.333528  0.446334  1
  Al  Al18  1  0.339427  0.547688  0.750000  1
  Al  Al19  1  0.659381  0.452517  0.250000  1
  Al  Al20  1  0.549611  0.343110  0.750000  1
  Al  Al21  1  0.451448  0.659083  0.250000  1
  Ir  Ir22  1  0.675771  0.330748  0.498430  1
  Ir  Ir23  1  0.322593  0.668766  0.499300  1
  Ir  Ir24  1  0.322593  0.668766  0.000700  1
  Ir  Ir25  1  0.675771  0.330748  0.001570  1
  Ir  Ir26  1  0.001443  0.000129  0.498887  1
  Ir  Ir27  1  0.001443  0.000129  0.001113  1
