# generated using pymatgen
data_La2Ho3Sn3Pb
_symmetry_space_group_name_H-M   'P 1'
_cell_length_a   8.29409100
_cell_length_b   8.44462800
_cell_length_c   15.94422800
_cell_angle_alpha   90.00000000
_cell_angle_beta   90.00000000
_cell_angle_gamma   90.00000000
_symmetry_Int_Tables_number   1
_chemical_formula_structural   La2Ho3Sn3Pb
_chemical_formula_sum   'La8 Ho12 Sn12 Pb4'
_cell_volume   1116.74190999
_cell_formula_units_Z   4
loop_
 _symmetry_equiv_pos_site_id
 _symmetry_equiv_pos_as_xyz
  1  'x, y, z'
loop_
 _atom_site_type_symbol
 _atom_site_label
 _atom_site_symmetry_multiplicity
 _atom_site_fract_x
 _atom_site_fract_y
 _atom_site_fract_z
 _atom_site_occupancy
  La  La0  1  0.520817  0.320699  0.901627  1
  La  La1  1  0.020817  0.179301  0.598373  1
  La  La2  1  0.479183  0.679301  0.401627  1
  La  La3  1  0.979183  0.820699  0.098373  1
  La  La4  1  0.484345  0.678134  0.098518  1
  La  La5  1  0.984345  0.821866  0.401482  1
  La  La6  1  0.515655  0.321866  0.598518  1
  La  La7  1  0.015655  0.178134  0.901482  1
  Ho  Ho8  1  0.363965  0.838497  0.875147  1
  Ho  Ho9  1  0.863965  0.661503  0.624853  1
  Ho  Ho10  1  0.636035  0.161503  0.375147  1
  Ho  Ho11  1  0.136035  0.338497  0.124853  1
  Ho  Ho12  1  0.639125  0.162694  0.123562  1
  Ho  Ho13  1  0.139125  0.337306  0.376438  1
  Ho  Ho14  1  0.360875  0.837306  0.623562  1
  Ho  Ho15  1  0.860875  0.662694  0.876438  1
  Ho  Ho16  1  0.195942  0.504549  0.748561  1
  Ho  Ho17  1  0.695942  0.995451  0.751439  1
  Ho  Ho18  1  0.804058  0.495451  0.248561  1
  Ho  Ho19  1  0.304058  0.004549  0.251439  1
  Sn  Sn20  1  0.697910  0.958781  0.956851  1
  Sn  Sn21  1  0.197910  0.541219  0.543149  1
  Sn  Sn22  1  0.302090  0.041219  0.456851  1
  Sn  Sn23  1  0.802090  0.458781  0.043149  1
  Sn  Sn24  1  0.559647  0.627496  0.749916  1
  Sn  Sn25  1  0.059647  0.872504  0.750084  1
  Sn  Sn26  1  0.440353  0.372504  0.249916  1
  Sn  Sn27  1  0.940353  0.127496  0.250084  1
  Sn  Sn28  1  0.326285  0.141916  0.750201  1
  Sn  Sn29  1  0.826285  0.358084  0.749799  1
  Sn  Sn30  1  0.673715  0.858084  0.250201  1
  Sn  Sn31  1  0.173715  0.641916  0.249799  1
  Pb  Pb32  1  0.300498  0.041374  0.042526  1
  Pb  Pb33  1  0.800498  0.458626  0.457474  1
  Pb  Pb34  1  0.699502  0.958626  0.542526  1
  Pb  Pb35  1  0.199502  0.541374  0.957474  1
