# generated using pymatgen
data_LiU2P3O14
_symmetry_space_group_name_H-M   'P 1'
_cell_length_a   10.46570300
_cell_length_b   10.95257800
_cell_length_c   11.30327900
_cell_angle_alpha   90.00000000
_cell_angle_beta   90.00000000
_cell_angle_gamma   90.00000000
_symmetry_Int_Tables_number   1
_chemical_formula_structural   LiU2P3O14
_chemical_formula_sum   'Li4 U8 P12 O56'
_cell_volume   1295.65450134
_cell_formula_units_Z   4
loop_
 _symmetry_equiv_pos_site_id
 _symmetry_equiv_pos_as_xyz
  1  'x, y, z'
loop_
 _atom_site_type_symbol
 _atom_site_label
 _atom_site_symmetry_multiplicity
 _atom_site_fract_x
 _atom_site_fract_y
 _atom_site_fract_z
 _atom_site_occupancy
  Li  Li0  1  0.487387  0.000000  0.250000  1
  Li  Li1  1  0.012613  0.500000  0.750000  1
  Li  Li2  1  0.987387  0.500000  0.250000  1
  Li  Li3  1  0.512613  0.000000  0.750000  1
  U  U4  1  0.683389  0.793859  0.120095  1
  U  U5  1  0.183389  0.293859  0.379905  1
  U  U6  1  0.816611  0.706141  0.620095  1
  U  U7  1  0.183389  0.706141  0.120095  1
  U  U8  1  0.316611  0.206141  0.879905  1
  U  U9  1  0.316611  0.793859  0.620095  1
  U  U10  1  0.816611  0.293859  0.879905  1
  U  U11  1  0.683389  0.206141  0.379905  1
  P  P12  1  0.571379  0.500000  0.750000  1
  P  P13  1  0.435524  0.676407  0.902557  1
  P  P14  1  0.564476  0.676407  0.402557  1
  P  P15  1  0.064476  0.176407  0.097443  1
  P  P16  1  0.935524  0.823593  0.902557  1
  P  P17  1  0.928621  0.000000  0.250000  1
  P  P18  1  0.064476  0.823593  0.402557  1
  P  P19  1  0.564476  0.323593  0.097443  1
  P  P20  1  0.428621  0.500000  0.250000  1
  P  P21  1  0.071379  0.000000  0.750000  1
  P  P22  1  0.935524  0.176407  0.597443  1
  P  P23  1  0.435524  0.323593  0.597443  1
  O  O24  1  0.425938  0.762191  0.795567  1
  O  O25  1  0.768654  0.651536  0.137967  1
  O  O26  1  0.976582  0.959110  0.853176  1
  O  O27  1  0.093469  0.562234  0.120781  1
  O  O28  1  0.193771  0.153664  0.038948  1
  O  O29  1  0.574062  0.237809  0.204433  1
  O  O30  1  0.731346  0.151536  0.862033  1
  O  O31  1  0.853107  0.890239  0.210158  1
  O  O32  1  0.768654  0.348464  0.362033  1
  O  O33  1  0.693771  0.653664  0.461052  1
  O  O34  1  0.476582  0.540890  0.853176  1
  O  O35  1  0.406531  0.062234  0.879219  1
  O  O36  1  0.540382  0.285722  0.511442  1
  O  O37  1  0.925938  0.737809  0.795567  1
  O  O38  1  0.806229  0.153664  0.538948  1
  O  O39  1  0.023418  0.959110  0.353176  1
  O  O40  1  0.425938  0.237809  0.704433  1
  O  O41  1  0.959618  0.214278  0.011442  1
  O  O42  1  0.353107  0.390239  0.289842  1
  O  O43  1  0.853107  0.109761  0.289842  1
  O  O44  1  0.593469  0.062234  0.379219  1
  O  O45  1  0.476582  0.459110  0.646824  1
  O  O46  1  0.040382  0.785722  0.988558  1
  O  O47  1  0.231346  0.348464  0.862033  1
  O  O48  1  0.093469  0.437766  0.379219  1
  O  O49  1  0.231346  0.651536  0.637967  1
  O  O50  1  0.074062  0.737809  0.295567  1
  O  O51  1  0.959618  0.785722  0.488558  1
  O  O52  1  0.146893  0.890239  0.710158  1
  O  O53  1  0.925938  0.262191  0.704433  1
  O  O54  1  0.306229  0.653664  0.961052  1
  O  O55  1  0.268654  0.151536  0.362033  1
  O  O56  1  0.523418  0.459110  0.146824  1
  O  O57  1  0.906531  0.562234  0.620781  1
  O  O58  1  0.574062  0.762191  0.295567  1
  O  O59  1  0.406531  0.937766  0.620781  1
  O  O60  1  0.306229  0.346336  0.538948  1
  O  O61  1  0.540382  0.714278  0.988558  1
  O  O62  1  0.353107  0.609761  0.210158  1
  O  O63  1  0.646893  0.609761  0.710158  1
  O  O64  1  0.023418  0.040890  0.146824  1
  O  O65  1  0.459618  0.714278  0.488558  1
  O  O66  1  0.806229  0.846336  0.961052  1
  O  O67  1  0.906531  0.437766  0.879219  1
  O  O68  1  0.040382  0.214278  0.511442  1
  O  O69  1  0.459618  0.285722  0.011442  1
  O  O70  1  0.646893  0.390239  0.789842  1
  O  O71  1  0.146893  0.109761  0.789842  1
  O  O72  1  0.074062  0.262191  0.204433  1
  O  O73  1  0.268654  0.848464  0.137967  1
  O  O74  1  0.693771  0.346336  0.038948  1
  O  O75  1  0.523418  0.540890  0.353176  1
  O  O76  1  0.593469  0.937766  0.120781  1
  O  O77  1  0.731346  0.848464  0.637967  1
  O  O78  1  0.976582  0.040890  0.646824  1
  O  O79  1  0.193771  0.846336  0.461052  1
