# generated using pymatgen
data_Mn3Al3(PdPt)5
_symmetry_space_group_name_H-M   'P 1'
_cell_length_a   4.07293600
_cell_length_b   5.46416995
_cell_length_c   10.76454945
_cell_angle_alpha   89.52220795
_cell_angle_beta   90.00000000
_cell_angle_gamma   90.00000000
_symmetry_Int_Tables_number   1
_chemical_formula_structural   Mn3Al3(PdPt)5
_chemical_formula_sum   'Mn3 Al3 Pd5 Pt5'
_cell_volume   239.55902712
_cell_formula_units_Z   1
loop_
 _symmetry_equiv_pos_site_id
 _symmetry_equiv_pos_as_xyz
  1  'x, y, z'
loop_
 _atom_site_type_symbol
 _atom_site_label
 _atom_site_symmetry_multiplicity
 _atom_site_fract_x
 _atom_site_fract_y
 _atom_site_fract_z
 _atom_site_occupancy
  Mn  Mn0  1  0.500000  0.193560  0.638304  1
  Mn  Mn1  1  0.500000  0.812682  0.363001  1
  Mn  Mn2  1  0.500000  0.686915  0.861649  1
  Al  Al3  1  0.500000  0.320070  0.141199  1
  Al  Al4  1  0.000000  0.499319  0.500872  1
  Al  Al5  1  0.000000  0.982751  0.996044  1
  Pd  Pd6  1  0.000000  0.440205  0.743856  1
  Pd  Pd7  1  0.000000  0.570504  0.260972  1
  Pd  Pd8  1  0.000000  0.940543  0.757836  1
  Pd  Pd9  1  0.000000  0.072684  0.232338  1
  Pd  Pd10  1  0.000000  0.484035  0.005243  1
  Pt  Pt11  1  0.500000  0.303309  0.388150  1
  Pt  Pt12  1  0.500000  0.698891  0.608854  1
  Pt  Pt13  1  0.500000  0.800222  0.108445  1
  Pt  Pt14  1  0.500000  0.192290  0.895799  1
  Pt  Pt15  1  0.000000  0.002017  0.497439  1
