# generated using pymatgen
data_HoPa2Ga8Fe3
_symmetry_space_group_name_H-M   'P 1'
_cell_length_a   7.93087010
_cell_length_b   7.93087155
_cell_length_c   7.93087105
_cell_angle_alpha   149.27508500
_cell_angle_beta   104.01281883
_cell_angle_gamma   84.15894903
_symmetry_Int_Tables_number   1
_chemical_formula_structural   HoPa2Ga8Fe3
_chemical_formula_sum   'Ho1 Pa2 Ga8 Fe3'
_cell_volume   241.52082566
_cell_formula_units_Z   1
loop_
 _symmetry_equiv_pos_site_id
 _symmetry_equiv_pos_as_xyz
  1  'x, y, z'
loop_
 _atom_site_type_symbol
 _atom_site_label
 _atom_site_symmetry_multiplicity
 _atom_site_fract_x
 _atom_site_fract_y
 _atom_site_fract_z
 _atom_site_occupancy
  Ho  Ho0  1  0.500000  0.500000  0.000000  1
  Pa  Pa1  1  0.157027  0.157027  0.000000  1
  Pa  Pa2  1  0.842973  0.842973  0.000000  1
  Ga  Ga3  1  0.661925  0.381587  0.280339  1
  Ga  Ga4  1  0.338075  0.618413  0.719661  1
  Ga  Ga5  1  0.101248  0.381587  0.719661  1
  Ga  Ga6  1  0.898752  0.618413  0.280339  1
  Ga  Ga7  1  0.532041  0.163063  0.368979  1
  Ga  Ga8  1  0.467959  0.836937  0.631021  1
  Ga  Ga9  1  0.794084  0.163063  0.631021  1
  Ga  Ga10  1  0.205916  0.836937  0.368979  1
  Fe  Fe11  1  0.000000  0.500000  0.500000  1
  Fe  Fe12  1  0.197859  0.000000  0.197859  1
  Fe  Fe13  1  0.802141  0.000000  0.802141  1
