# generated using pymatgen
data_Rb4ZrPtI12
_symmetry_space_group_name_H-M   'P 1'
_cell_length_a   8.15471400
_cell_length_b   8.15471400
_cell_length_c   12.25139600
_cell_angle_alpha   90.00000000
_cell_angle_beta   90.00000000
_cell_angle_gamma   90.00000000
_symmetry_Int_Tables_number   1
_chemical_formula_structural   Rb4ZrPtI12
_chemical_formula_sum   'Rb4 Zr1 Pt1 I12'
_cell_volume   814.70999827
_cell_formula_units_Z   1
loop_
 _symmetry_equiv_pos_site_id
 _symmetry_equiv_pos_as_xyz
  1  'x, y, z'
loop_
 _atom_site_type_symbol
 _atom_site_label
 _atom_site_symmetry_multiplicity
 _atom_site_fract_x
 _atom_site_fract_y
 _atom_site_fract_z
 _atom_site_occupancy
  Rb  Rb0  1  0.500000  0.000000  0.755087  1
  Rb  Rb1  1  0.000000  0.500000  0.755087  1
  Rb  Rb2  1  0.500000  0.000000  0.244913  1
  Rb  Rb3  1  0.000000  0.500000  0.244913  1
  Zr  Zr4  1  0.500000  0.500000  0.500000  1
  Pt  Pt5  1  0.000000  0.000000  0.000000  1
  I  I6  1  0.725820  0.188694  0.000000  1
  I  I7  1  0.689663  0.201482  0.500000  1
  I  I8  1  0.310337  0.798518  0.500000  1
  I  I9  1  0.274180  0.811306  0.000000  1
  I  I10  1  0.798518  0.689663  0.500000  1
  I  I11  1  0.201482  0.310337  0.500000  1
  I  I12  1  0.000000  0.000000  0.221569  1
  I  I13  1  0.500000  0.500000  0.262322  1
  I  I14  1  0.000000  0.000000  0.778431  1
  I  I15  1  0.500000  0.500000  0.737678  1
  I  I16  1  0.811306  0.725820  0.000000  1
  I  I17  1  0.188694  0.274180  0.000000  1
