# generated using pymatgen
data_Tb2Y6Re3B24Ru
_symmetry_space_group_name_H-M   'P 1'
_cell_length_a   3.68403900
_cell_length_b   9.18679768
_cell_length_c   11.58016551
_cell_angle_alpha   89.90567800
_cell_angle_beta   90.00000000
_cell_angle_gamma   90.00000000
_symmetry_Int_Tables_number   1
_chemical_formula_structural   Tb2Y6Re3B24Ru
_chemical_formula_sum   'Tb2 Y6 Re3 B24 Ru1'
_cell_volume   391.92462293
_cell_formula_units_Z   1
loop_
 _symmetry_equiv_pos_site_id
 _symmetry_equiv_pos_as_xyz
  1  'x, y, z'
loop_
 _atom_site_type_symbol
 _atom_site_label
 _atom_site_symmetry_multiplicity
 _atom_site_fract_x
 _atom_site_fract_y
 _atom_site_fract_z
 _atom_site_occupancy
  Tb  Tb0  1  0.000000  0.323460  0.413604  1
  Tb  Tb1  1  0.000000  0.675011  0.584376  1
  Y  Y2  1  0.000000  0.822982  0.087760  1
  Y  Y3  1  0.000000  0.177938  0.914093  1
  Y  Y4  1  0.000000  0.943100  0.371187  1
  Y  Y5  1  0.000000  0.056920  0.630519  1
  Y  Y6  1  0.000000  0.443596  0.128899  1
  Y  Y7  1  0.000000  0.558304  0.869912  1
  Re  Re8  1  0.000000  0.638064  0.320757  1
  Re  Re9  1  0.000000  0.361826  0.679690  1
  Re  Re10  1  0.000000  0.137574  0.178066  1
  B  B11  1  0.500000  0.552883  0.432469  1
  B  B12  1  0.500000  0.446733  0.567157  1
  B  B13  1  0.500000  0.052643  0.066887  1
  B  B14  1  0.500000  0.946187  0.932509  1
  B  B15  1  0.500000  0.748101  0.418587  1
  B  B16  1  0.500000  0.251141  0.581647  1
  B  B17  1  0.500000  0.248675  0.081146  1
  B  B18  1  0.500000  0.752225  0.918455  1
  B  B19  1  0.500000  0.791776  0.266076  1
  B  B20  1  0.500000  0.208543  0.734799  1
  B  B21  1  0.500000  0.291559  0.233823  1
  B  B22  1  0.500000  0.709590  0.765785  1
  B  B23  1  0.500000  0.631464  0.185833  1
  B  B24  1  0.500000  0.368987  0.814606  1
  B  B25  1  0.500000  0.130636  0.313497  1
  B  B26  1  0.500000  0.868430  0.686264  1
  B  B27  1  0.500000  0.981939  0.211965  1
  B  B28  1  0.500000  0.016209  0.788344  1
  B  B29  1  0.500000  0.482593  0.287489  1
  B  B30  1  0.500000  0.517306  0.711909  1
  B  B31  1  0.500000  0.603267  0.028283  1
  B  B32  1  0.500000  0.399137  0.971171  1
  B  B33  1  0.500000  0.101489  0.472192  1
  B  B34  1  0.500000  0.897979  0.529092  1
  Ru  Ru35  1  0.000000  0.861733  0.821154  1
