# generated using pymatgen
data_La4Pr8Al3Ga5Rh8
_symmetry_space_group_name_H-M   'P 1'
_cell_length_a   5.78040296
_cell_length_b   8.30902713
_cell_length_c   13.74498790
_cell_angle_alpha   89.96504122
_cell_angle_beta   90.03455635
_cell_angle_gamma   89.94377521
_symmetry_Int_Tables_number   1
_chemical_formula_structural   La4Pr8Al3Ga5Rh8
_chemical_formula_sum   'La4 Pr8 Al3 Ga5 Rh8'
_cell_volume   660.16467896
_cell_formula_units_Z   1
loop_
 _symmetry_equiv_pos_site_id
 _symmetry_equiv_pos_as_xyz
  1  'x, y, z'
loop_
 _atom_site_type_symbol
 _atom_site_label
 _atom_site_symmetry_multiplicity
 _atom_site_fract_x
 _atom_site_fract_y
 _atom_site_fract_z
 _atom_site_occupancy
  La  La0  1  0.146393  0.400981  0.404945  1
  La  La1  1  0.147240  0.098513  0.595004  1
  La  La2  1  0.144566  0.101082  0.903356  1
  La  La3  1  0.854870  0.900212  0.096344  1
  Pr  Pr4  1  0.634156  0.257025  0.252040  1
  Pr  Pr5  1  0.366336  0.741258  0.748888  1
  Pr  Pr6  1  0.365479  0.756924  0.250016  1
  Pr  Pr7  1  0.635219  0.244358  0.749047  1
  Pr  Pr8  1  0.139592  0.399780  0.100115  1
  Pr  Pr9  1  0.859662  0.599078  0.899990  1
  Pr  Pr10  1  0.856444  0.602852  0.599684  1
  Pr  Pr11  1  0.855912  0.898026  0.400540  1
  Al  Al12  1  0.614697  0.252140  0.001302  1
  Al  Al13  1  0.384583  0.747734  0.998836  1
  Al  Al14  1  0.383745  0.750200  0.499820  1
  Ga  Ga15  1  0.139560  0.110740  0.250285  1
  Ga  Ga16  1  0.858407  0.889624  0.750395  1
  Ga  Ga17  1  0.858730  0.610707  0.250355  1
  Ga  Ga18  1  0.139695  0.389286  0.748961  1
  Ga  Ga19  1  0.629196  0.249707  0.500015  1
  Rh  Rh20  1  0.356084  0.026635  0.088848  1
  Rh  Rh21  1  0.642078  0.973408  0.910918  1
  Rh  Rh22  1  0.637236  0.968905  0.591385  1
  Rh  Rh23  1  0.638974  0.530862  0.409534  1
  Rh  Rh24  1  0.356988  0.026925  0.410417  1
  Rh  Rh25  1  0.355868  0.473390  0.588662  1
  Rh  Rh26  1  0.357411  0.470593  0.910200  1
  Rh  Rh27  1  0.640881  0.529054  0.090097  1
