# generated using pymatgen
data_DyGaCu3Au
_symmetry_space_group_name_H-M   'P 1'
_cell_length_a   5.06701665
_cell_length_b   5.06701545
_cell_length_c   5.06701718
_cell_angle_alpha   60.67563467
_cell_angle_beta   60.67564272
_cell_angle_gamma   60.67563026
_symmetry_Int_Tables_number   1
_chemical_formula_structural   DyGaCu3Au
_chemical_formula_sum   'Dy1 Ga1 Cu3 Au1'
_cell_volume   93.39328606
_cell_formula_units_Z   1
loop_
 _symmetry_equiv_pos_site_id
 _symmetry_equiv_pos_as_xyz
  1  'x, y, z'
loop_
 _atom_site_type_symbol
 _atom_site_label
 _atom_site_symmetry_multiplicity
 _atom_site_fract_x
 _atom_site_fract_y
 _atom_site_fract_z
 _atom_site_occupancy
  Dy  Dy0  1  0.247607  0.247607  0.247607  1
  Ga  Ga1  1  0.628426  0.628426  0.628426  1
  Cu  Cu2  1  0.625937  0.625937  0.125592  1
  Cu  Cu3  1  0.625937  0.125592  0.625937  1
  Cu  Cu4  1  0.125592  0.625937  0.625937  1
  Au  Au5  1  0.996499  0.996499  0.996499  1
