# generated using pymatgen
data_MoP4Ru6W
_symmetry_space_group_name_H-M   'P 1'
_cell_length_a   3.91947300
_cell_length_b   6.05378422
_cell_length_c   6.87925961
_cell_angle_alpha   89.98930272
_cell_angle_beta   90.00000000
_cell_angle_gamma   90.00000000
_symmetry_Int_Tables_number   1
_chemical_formula_structural   MoP4Ru6W
_chemical_formula_sum   'Mo1 P4 Ru6 W1'
_cell_volume   163.22861897
_cell_formula_units_Z   1
loop_
 _symmetry_equiv_pos_site_id
 _symmetry_equiv_pos_as_xyz
  1  'x, y, z'
loop_
 _atom_site_type_symbol
 _atom_site_label
 _atom_site_symmetry_multiplicity
 _atom_site_fract_x
 _atom_site_fract_y
 _atom_site_fract_z
 _atom_site_occupancy
  Mo  Mo0  1  0.750000  0.024753  0.661303  1
  P  P1  1  0.250000  0.740173  0.612284  1
  P  P2  1  0.750000  0.257256  0.387207  1
  P  P3  1  0.250000  0.240875  0.887232  1
  P  P4  1  0.750000  0.761298  0.114365  1
  Ru  Ru5  1  0.250000  0.970174  0.343828  1
  Ru  Ru6  1  0.250000  0.471875  0.154111  1
  Ru  Ru7  1  0.250000  0.359778  0.572852  1
  Ru  Ru8  1  0.750000  0.641682  0.427218  1
  Ru  Ru9  1  0.250000  0.859797  0.927398  1
  Ru  Ru10  1  0.750000  0.145659  0.072681  1
  W  W11  1  0.750000  0.526678  0.839521  1
