# generated using pymatgen
data_Zr6Al16Co4Cu2Ru
_symmetry_space_group_name_H-M   'P 1'
_cell_length_a   8.57244311
_cell_length_b   8.60830127
_cell_length_c   8.57243389
_cell_angle_alpha   59.85918461
_cell_angle_beta   60.27575641
_cell_angle_gamma   59.85930462
_symmetry_Int_Tables_number   1
_chemical_formula_structural   Zr6Al16Co4Cu2Ru
_chemical_formula_sum   'Zr6 Al16 Co4 Cu2 Ru1'
_cell_volume   447.27743069
_cell_formula_units_Z   1
loop_
 _symmetry_equiv_pos_site_id
 _symmetry_equiv_pos_as_xyz
  1  'x, y, z'
loop_
 _atom_site_type_symbol
 _atom_site_label
 _atom_site_symmetry_multiplicity
 _atom_site_fract_x
 _atom_site_fract_y
 _atom_site_fract_z
 _atom_site_occupancy
  Zr  Zr0  1  0.702304  0.702312  0.297688  1
  Zr  Zr1  1  0.323669  0.676329  0.323670  1
  Zr  Zr2  1  0.702312  0.297689  0.297696  1
  Zr  Zr3  1  0.297696  0.297688  0.702312  1
  Zr  Zr4  1  0.676331  0.323671  0.676330  1
  Zr  Zr5  1  0.297688  0.702311  0.702304  1
  Al  Al6  1  0.892995  0.873530  0.359973  1
  Al  Al7  1  0.873520  0.359969  0.873520  1
  Al  Al8  1  0.359973  0.873529  0.892995  1
  Al  Al9  1  0.873511  0.893001  0.873511  1
  Al  Al10  1  0.107005  0.126470  0.640027  1
  Al  Al11  1  0.126480  0.640031  0.126480  1
  Al  Al12  1  0.640027  0.126471  0.107005  1
  Al  Al13  1  0.126489  0.106999  0.126489  1
  Al  Al14  1  0.663540  0.666477  0.003537  1
  Al  Al15  1  0.666465  0.003540  0.666465  1
  Al  Al16  1  0.003537  0.666477  0.663540  1
  Al  Al17  1  0.666457  0.663549  0.666456  1
  Al  Al18  1  0.336460  0.333523  0.996463  1
  Al  Al19  1  0.333535  0.996460  0.333535  1
  Al  Al20  1  0.996463  0.333523  0.336460  1
  Al  Al21  1  0.333543  0.336451  0.333544  1
  Co  Co22  1  0.000000  0.000000  0.500000  1
  Co  Co23  1  0.000000  0.500000  0.500000  1
  Co  Co24  1  0.500000  0.500000  0.000000  1
  Co  Co25  1  0.500000  0.000000  0.000000  1
  Cu  Cu26  1  0.500000  0.000000  0.500000  1
  Cu  Cu27  1  0.000000  0.500000  0.000000  1
  Ru  Ru28  1  0.000000  0.000000  0.000000  1
