# generated using pymatgen
data_KEuMoH9
_symmetry_space_group_name_H-M   'P 1'
_cell_length_a   8.93046100
_cell_length_b   8.93046030
_cell_length_c   5.43560700
_cell_angle_alpha   90.00000000
_cell_angle_beta   90.00000000
_cell_angle_gamma   120.00000629
_symmetry_Int_Tables_number   1
_chemical_formula_structural   KEuMoH9
_chemical_formula_sum   'K3 Eu3 Mo3 H27'
_cell_volume   375.42775461
_cell_formula_units_Z   3
loop_
 _symmetry_equiv_pos_site_id
 _symmetry_equiv_pos_as_xyz
  1  'x, y, z'
loop_
 _atom_site_type_symbol
 _atom_site_label
 _atom_site_symmetry_multiplicity
 _atom_site_fract_x
 _atom_site_fract_y
 _atom_site_fract_z
 _atom_site_occupancy
  K  K0  1  0.000000  0.587678  0.000000  1
  K  K1  1  0.412322  0.412322  0.000000  1
  K  K2  1  0.587678  0.000000  0.000000  1
  Eu  Eu3  1  0.000000  0.268499  0.500000  1
  Eu  Eu4  1  0.731501  0.731501  0.500000  1
  Eu  Eu5  1  0.268499  0.000000  0.500000  1
  Mo  Mo6  1  0.666667  0.333333  0.500000  1
  Mo  Mo7  1  0.333333  0.666667  0.500000  1
  Mo  Mo8  1  0.000000  0.000000  0.000000  1
  H  H9  1  0.788797  0.304002  0.732729  1
  H  H10  1  0.695998  0.484794  0.732729  1
  H  H11  1  0.515206  0.211203  0.732729  1
  H  H12  1  0.211203  0.515206  0.267271  1
  H  H13  1  0.515206  0.211203  0.267271  1
  H  H14  1  0.788797  0.304002  0.267271  1
  H  H15  1  0.695998  0.484794  0.267271  1
  H  H16  1  0.304002  0.788797  0.732729  1
  H  H17  1  0.484794  0.695998  0.732729  1
  H  H18  1  0.195524  0.000000  0.000000  1
  H  H19  1  0.804476  0.804476  0.000000  1
  H  H20  1  0.000000  0.195524  0.000000  1
  H  H21  1  0.861522  0.000000  0.236375  1
  H  H22  1  0.138478  0.138478  0.763625  1
  H  H23  1  0.000000  0.861522  0.763625  1
  H  H24  1  0.000000  0.861522  0.236375  1
  H  H25  1  0.138478  0.138478  0.236375  1
  H  H26  1  0.861522  0.000000  0.763625  1
  H  H27  1  0.123826  0.629567  0.500000  1
  H  H28  1  0.505741  0.876174  0.500000  1
  H  H29  1  0.370433  0.494259  0.500000  1
  H  H30  1  0.494259  0.370433  0.500000  1
  H  H31  1  0.876174  0.505741  0.500000  1
  H  H32  1  0.629567  0.123826  0.500000  1
  H  H33  1  0.211203  0.515206  0.732729  1
  H  H34  1  0.304002  0.788797  0.267271  1
  H  H35  1  0.484794  0.695998  0.267271  1
