# generated using pymatgen
data_Zr3Re3Ge2P
_symmetry_space_group_name_H-M   'P 1'
_cell_length_a   7.06561300
_cell_length_b   7.06561295
_cell_length_c   3.41792600
_cell_angle_alpha   90.00000000
_cell_angle_beta   90.00000000
_cell_angle_gamma   120.00000494
_symmetry_Int_Tables_number   1
_chemical_formula_structural   Zr3Re3Ge2P
_chemical_formula_sum   'Zr3 Re3 Ge2 P1'
_cell_volume   147.77227361
_cell_formula_units_Z   1
loop_
 _symmetry_equiv_pos_site_id
 _symmetry_equiv_pos_as_xyz
  1  'x, y, z'
loop_
 _atom_site_type_symbol
 _atom_site_label
 _atom_site_symmetry_multiplicity
 _atom_site_fract_x
 _atom_site_fract_y
 _atom_site_fract_z
 _atom_site_occupancy
  Zr  Zr0  1  0.399551  0.000000  0.500000  1
  Zr  Zr1  1  0.000000  0.399551  0.500000  1
  Zr  Zr2  1  0.600449  0.600449  0.500000  1
  Re  Re3  1  0.755090  0.000000  0.000000  1
  Re  Re4  1  0.000000  0.755090  0.000000  1
  Re  Re5  1  0.244910  0.244910  0.000000  1
  Ge  Ge6  1  0.333333  0.666667  0.000000  1
  Ge  Ge7  1  0.666667  0.333333  0.000000  1
  P  P8  1  0.000000  0.000000  0.500000  1
