# generated using pymatgen
data_La2CdOsO8
_symmetry_space_group_name_H-M   'P 1'
_cell_length_a   6.32935000
_cell_length_b   7.30905278
_cell_length_c   7.53616846
_cell_angle_alpha   72.48244754
_cell_angle_beta   90.00000000
_cell_angle_gamma   90.00000000
_symmetry_Int_Tables_number   1
_chemical_formula_structural   La2CdOsO8
_chemical_formula_sum   'La4 Cd2 Os2 O16'
_cell_volume   332.46684177
_cell_formula_units_Z   2
loop_
 _symmetry_equiv_pos_site_id
 _symmetry_equiv_pos_as_xyz
  1  'x, y, z'
loop_
 _atom_site_type_symbol
 _atom_site_label
 _atom_site_symmetry_multiplicity
 _atom_site_fract_x
 _atom_site_fract_y
 _atom_site_fract_z
 _atom_site_occupancy
  La  La0  1  0.250000  0.404121  0.401656  1
  La  La1  1  0.750000  0.595879  0.598344  1
  La  La2  1  0.250000  0.315605  0.900070  1
  La  La3  1  0.750000  0.684395  0.099930  1
  Cd  Cd4  1  0.750000  0.099846  0.699058  1
  Cd  Cd5  1  0.250000  0.900154  0.300942  1
  Os  Os6  1  0.250000  0.811789  0.797337  1
  Os  Os7  1  0.750000  0.188211  0.202663  1
  O  O8  1  0.002003  0.323490  0.662436  1
  O  O9  1  0.502003  0.676510  0.337564  1
  O  O10  1  0.997997  0.676510  0.337564  1
  O  O11  1  0.497997  0.323490  0.662436  1
  O  O12  1  0.950689  0.807562  0.795990  1
  O  O13  1  0.450689  0.192438  0.204010  1
  O  O14  1  0.049311  0.192438  0.204010  1
  O  O15  1  0.549311  0.807562  0.795990  1
  O  O16  1  0.750000  0.989193  0.418066  1
  O  O17  1  0.250000  0.010807  0.581934  1
  O  O18  1  0.750000  0.366208  0.334185  1
  O  O19  1  0.250000  0.633792  0.665815  1
  O  O20  1  0.750000  0.406644  0.979695  1
  O  O21  1  0.250000  0.593356  0.020305  1
  O  O22  1  0.750000  0.032555  0.048778  1
  O  O23  1  0.250000  0.967445  0.951222  1
