# generated using pymatgen
data_Y9Er(TmGa10)2
_symmetry_space_group_name_H-M   'P 1'
_cell_length_a   6.11494603
_cell_length_b   9.64934500
_cell_length_c   11.56528917
_cell_angle_alpha   90.00000000
_cell_angle_beta   89.99567444
_cell_angle_gamma   90.00000000
_symmetry_Int_Tables_number   1
_chemical_formula_structural   Y9Er(TmGa10)2
_chemical_formula_sum   'Y9 Er1 Tm2 Ga20'
_cell_volume   682.41247489
_cell_formula_units_Z   1
loop_
 _symmetry_equiv_pos_site_id
 _symmetry_equiv_pos_as_xyz
  1  'x, y, z'
loop_
 _atom_site_type_symbol
 _atom_site_label
 _atom_site_symmetry_multiplicity
 _atom_site_fract_x
 _atom_site_fract_y
 _atom_site_fract_z
 _atom_site_occupancy
  Y  Y0  1  0.848995  0.750000  0.075317  1
  Y  Y1  1  0.890588  0.509292  0.351371  1
  Y  Y2  1  0.609421  0.990831  0.850848  1
  Y  Y3  1  0.109748  0.010094  0.648506  1
  Y  Y4  1  0.389744  0.490316  0.148628  1
  Y  Y5  1  0.109748  0.489906  0.648506  1
  Y  Y6  1  0.389744  0.009684  0.148628  1
  Y  Y7  1  0.890588  0.990708  0.351371  1
  Y  Y8  1  0.609421  0.509169  0.850848  1
  Er  Er9  1  0.651639  0.750000  0.574638  1
  Tm  Tm10  1  0.151212  0.250000  0.924901  1
  Tm  Tm11  1  0.348711  0.250000  0.425037  1
  Ga  Ga12  1  0.875072  0.054835  0.089554  1
  Ga  Ga13  1  0.624633  0.446478  0.589368  1
  Ga  Ga14  1  0.124460  0.552494  0.909941  1
  Ga  Ga15  1  0.375304  0.947361  0.410841  1
  Ga  Ga16  1  0.124460  0.947506  0.909941  1
  Ga  Ga17  1  0.375304  0.552639  0.410841  1
  Ga  Ga18  1  0.875072  0.445165  0.089554  1
  Ga  Ga19  1  0.624633  0.053522  0.589368  1
  Ga  Ga20  1  0.174192  0.750000  0.253110  1
  Ga  Ga21  1  0.328402  0.750000  0.751590  1
  Ga  Ga22  1  0.828610  0.250000  0.747908  1
  Ga  Ga23  1  0.671385  0.250000  0.248106  1
  Ga  Ga24  1  0.372043  0.750000  0.003300  1
  Ga  Ga25  1  0.126614  0.750000  0.504627  1
  Ga  Ga26  1  0.624623  0.250000  0.995605  1
  Ga  Ga27  1  0.874197  0.250000  0.495778  1
  Ga  Ga28  1  0.601251  0.750000  0.301374  1
  Ga  Ga29  1  0.899244  0.750000  0.798837  1
  Ga  Ga30  1  0.398953  0.250000  0.700691  1
  Ga  Ga31  1  0.101987  0.250000  0.201061  1
