# generated using pymatgen
data_Y9MgCd3Tc
_symmetry_space_group_name_H-M   'P 1'
_cell_length_a   9.52708100
_cell_length_b   9.52707974
_cell_length_c   9.84696800
_cell_angle_alpha   90.00000000
_cell_angle_beta   90.00000000
_cell_angle_gamma   120.00000091
_symmetry_Int_Tables_number   1
_chemical_formula_structural   Y9MgCd3Tc
_chemical_formula_sum   'Y18 Mg2 Cd6 Tc2'
_cell_volume   774.02112167
_cell_formula_units_Z   2
loop_
 _symmetry_equiv_pos_site_id
 _symmetry_equiv_pos_as_xyz
  1  'x, y, z'
loop_
 _atom_site_type_symbol
 _atom_site_label
 _atom_site_symmetry_multiplicity
 _atom_site_fract_x
 _atom_site_fract_y
 _atom_site_fract_z
 _atom_site_occupancy
  Y  Y0  1  0.208644  0.791356  0.441962  1
  Y  Y1  1  0.208644  0.417288  0.441962  1
  Y  Y2  1  0.582712  0.791356  0.441962  1
  Y  Y3  1  0.791356  0.208644  0.558038  1
  Y  Y4  1  0.791356  0.582712  0.558038  1
  Y  Y5  1  0.417288  0.208644  0.558038  1
  Y  Y6  1  0.791356  0.208644  0.941962  1
  Y  Y7  1  0.791356  0.582712  0.941962  1
  Y  Y8  1  0.417288  0.208644  0.941962  1
  Y  Y9  1  0.208644  0.791356  0.058038  1
  Y  Y10  1  0.208644  0.417288  0.058038  1
  Y  Y11  1  0.582712  0.791356  0.058038  1
  Y  Y12  1  0.540520  0.459480  0.250000  1
  Y  Y13  1  0.540520  0.081042  0.250000  1
  Y  Y14  1  0.918958  0.459480  0.250000  1
  Y  Y15  1  0.459480  0.540520  0.750000  1
  Y  Y16  1  0.459480  0.918958  0.750000  1
  Y  Y17  1  0.081042  0.540520  0.750000  1
  Mg  Mg18  1  0.000000  0.000000  0.500000  1
  Mg  Mg19  1  0.000000  0.000000  0.000000  1
  Cd  Cd20  1  0.888568  0.111432  0.250000  1
  Cd  Cd21  1  0.888568  0.777136  0.250000  1
  Cd  Cd22  1  0.222864  0.111432  0.250000  1
  Cd  Cd23  1  0.111432  0.888568  0.750000  1
  Cd  Cd24  1  0.111432  0.222864  0.750000  1
  Cd  Cd25  1  0.777136  0.888568  0.750000  1
  Tc  Tc26  1  0.333333  0.666667  0.250000  1
  Tc  Tc27  1  0.666667  0.333333  0.750000  1
