# generated using pymatgen
data_Hf16Ni4Mo2OsPt
_symmetry_space_group_name_H-M   'P 1'
_cell_length_a   8.66444961
_cell_length_b   8.66444888
_cell_length_c   8.63207418
_cell_angle_alpha   60.13565956
_cell_angle_beta   60.13565961
_cell_angle_gamma   60.19200965
_symmetry_Int_Tables_number   1
_chemical_formula_structural   Hf16Ni4Mo2OsPt
_chemical_formula_sum   'Hf16 Ni4 Mo2 Os1 Pt1'
_cell_volume   459.83116377
_cell_formula_units_Z   1
loop_
 _symmetry_equiv_pos_site_id
 _symmetry_equiv_pos_as_xyz
  1  'x, y, z'
loop_
 _atom_site_type_symbol
 _atom_site_label
 _atom_site_symmetry_multiplicity
 _atom_site_fract_x
 _atom_site_fract_y
 _atom_site_fract_z
 _atom_site_occupancy
  Hf  Hf0  1  0.683820  0.106558  0.105807  1
  Hf  Hf1  1  0.106558  0.683820  0.105807  1
  Hf  Hf2  1  0.103676  0.103676  0.689506  1
  Hf  Hf3  1  0.102906  0.102906  0.103959  1
  Hf  Hf4  1  0.316204  0.316204  0.677836  1
  Hf  Hf5  1  0.684916  0.684916  0.314582  1
  Hf  Hf6  1  0.315862  0.686996  0.314451  1
  Hf  Hf7  1  0.690916  0.316485  0.676972  1
  Hf  Hf8  1  0.686996  0.315862  0.314451  1
  Hf  Hf9  1  0.316485  0.690916  0.676972  1
  Hf  Hf10  1  0.952669  0.952669  0.547881  1
  Hf  Hf11  1  0.548467  0.548467  0.953307  1
  Hf  Hf12  1  0.947202  0.550862  0.950204  1
  Hf  Hf13  1  0.547844  0.951120  0.550000  1
  Hf  Hf14  1  0.550862  0.947202  0.950204  1
  Hf  Hf15  1  0.951120  0.547844  0.550000  1
  Ni  Ni16  1  0.323289  0.888744  0.894853  1
  Ni  Ni17  1  0.888744  0.323289  0.894853  1
  Ni  Ni18  1  0.891754  0.891754  0.321280  1
  Ni  Ni19  1  0.891287  0.891287  0.896154  1
  Mo  Mo20  1  0.999049  0.333168  0.335693  1
  Mo  Mo21  1  0.333168  0.999049  0.335693  1
  Os  Os22  1  0.333425  0.333425  0.339602  1
  Pt  Pt23  1  0.332776  0.332776  0.999925  1
