# generated using pymatgen
data_Pr2Sb4PtRh2
_symmetry_space_group_name_H-M   'P 1'
_cell_length_a   4.60820500
_cell_length_b   11.26121400
_cell_length_c   16.40991900
_cell_angle_alpha   90.00000000
_cell_angle_beta   90.00000000
_cell_angle_gamma   90.00000000
_symmetry_Int_Tables_number   1
_chemical_formula_structural   Pr2Sb4PtRh2
_chemical_formula_sum   'Pr8 Sb16 Pt4 Rh8'
_cell_volume   851.57605205
_cell_formula_units_Z   4
loop_
 _symmetry_equiv_pos_site_id
 _symmetry_equiv_pos_as_xyz
  1  'x, y, z'
loop_
 _atom_site_type_symbol
 _atom_site_label
 _atom_site_symmetry_multiplicity
 _atom_site_fract_x
 _atom_site_fract_y
 _atom_site_fract_z
 _atom_site_occupancy
  Pr  Pr0  1  0.250000  0.748301  0.503812  1
  Pr  Pr1  1  0.250000  0.751699  0.003812  1
  Pr  Pr2  1  0.750000  0.251699  0.496188  1
  Pr  Pr3  1  0.750000  0.248301  0.996188  1
  Pr  Pr4  1  0.250000  0.586740  0.751578  1
  Pr  Pr5  1  0.250000  0.913260  0.251578  1
  Pr  Pr6  1  0.750000  0.413260  0.248422  1
  Pr  Pr7  1  0.750000  0.086740  0.748422  1
  Sb  Sb8  1  0.250000  0.268435  0.652325  1
  Sb  Sb9  1  0.250000  0.231565  0.152325  1
  Sb  Sb10  1  0.750000  0.731565  0.347675  1
  Sb  Sb11  1  0.750000  0.768435  0.847675  1
  Sb  Sb12  1  0.250000  0.885766  0.708999  1
  Sb  Sb13  1  0.250000  0.614234  0.208999  1
  Sb  Sb14  1  0.750000  0.114234  0.291001  1
  Sb  Sb15  1  0.750000  0.385766  0.791001  1
  Sb  Sb16  1  0.250000  0.072538  0.895320  1
  Sb  Sb17  1  0.250000  0.427462  0.395320  1
  Sb  Sb18  1  0.750000  0.927462  0.104680  1
  Sb  Sb19  1  0.750000  0.572538  0.604680  1
  Sb  Sb20  1  0.250000  0.446057  0.932793  1
  Sb  Sb21  1  0.250000  0.053943  0.432793  1
  Sb  Sb22  1  0.750000  0.553943  0.067207  1
  Sb  Sb23  1  0.750000  0.946057  0.567207  1
  Pt  Pt24  1  0.250000  0.463256  0.559226  1
  Pt  Pt25  1  0.250000  0.036744  0.059226  1
  Pt  Pt26  1  0.750000  0.536744  0.440774  1
  Pt  Pt27  1  0.750000  0.963256  0.940774  1
  Rh  Rh28  1  0.250000  0.052959  0.592778  1
  Rh  Rh29  1  0.250000  0.447041  0.092778  1
  Rh  Rh30  1  0.750000  0.947041  0.407222  1
  Rh  Rh31  1  0.750000  0.552959  0.907222  1
  Rh  Rh32  1  0.250000  0.279260  0.817650  1
  Rh  Rh33  1  0.250000  0.220740  0.317650  1
  Rh  Rh34  1  0.750000  0.720740  0.182350  1
  Rh  Rh35  1  0.750000  0.779260  0.682350  1
