# generated using pymatgen
data_TbErZr3P12Ru19
_symmetry_space_group_name_H-M   'P 1'
_cell_length_a   12.46658111
_cell_length_b   12.47119189
_cell_length_c   3.94830300
_cell_angle_alpha   90.00000000
_cell_angle_beta   90.00000000
_cell_angle_gamma   119.98789099
_symmetry_Int_Tables_number   1
_chemical_formula_structural   TbErZr3P12Ru19
_chemical_formula_sum   'Tb1 Er1 Zr3 P12 Ru19'
_cell_volume   531.67888487
_cell_formula_units_Z   1
loop_
 _symmetry_equiv_pos_site_id
 _symmetry_equiv_pos_as_xyz
  1  'x, y, z'
loop_
 _atom_site_type_symbol
 _atom_site_label
 _atom_site_symmetry_multiplicity
 _atom_site_fract_x
 _atom_site_fract_y
 _atom_site_fract_z
 _atom_site_occupancy
  Tb  Tb0  1  0.813153  0.000264  0.500000  1
  Er  Er1  1  0.000167  0.813062  0.500000  1
  Zr  Zr2  1  0.188315  0.188448  0.500000  1
  Zr  Zr3  1  0.331829  0.664664  0.000000  1
  Zr  Zr4  1  0.664550  0.331861  0.000000  1
  P  P5  1  0.816767  0.816058  0.000000  1
  P  P6  1  0.183737  0.000560  0.000000  1
  P  P7  1  0.001219  0.183752  0.000000  1
  P  P8  1  0.173902  0.479436  0.500000  1
  P  P9  1  0.520384  0.694887  0.500000  1
  P  P10  1  0.304684  0.826865  0.500000  1
  P  P11  1  0.694902  0.520154  0.500000  1
  P  P12  1  0.826780  0.304904  0.500000  1
  P  P13  1  0.478910  0.173630  0.500000  1
  P  P14  1  0.370242  0.370180  0.000000  1
  P  P15  1  0.628036  0.000104  0.000000  1
  P  P16  1  0.000145  0.628530  0.000000  1
  Ru  Ru17  1  0.553122  0.552848  0.000000  1
  Ru  Ru18  1  0.446024  0.002923  0.000000  1
  Ru  Ru19  1  0.003208  0.446698  0.000000  1
  Ru  Ru20  1  0.717188  0.716699  0.500000  1
  Ru  Ru21  1  0.282126  0.002292  0.500000  1
  Ru  Ru22  1  0.002759  0.282971  0.500000  1
  Ru  Ru23  1  0.185986  0.374383  0.000000  1
  Ru  Ru24  1  0.619401  0.805107  0.000000  1
  Ru  Ru25  1  0.193551  0.815275  0.000000  1
  Ru  Ru26  1  0.806597  0.620299  0.000000  1
  Ru  Ru27  1  0.815565  0.194913  0.000000  1
  Ru  Ru28  1  0.374192  0.185676  0.000000  1
  Ru  Ru29  1  0.366469  0.495067  0.500000  1
  Ru  Ru30  1  0.503696  0.872613  0.500000  1
  Ru  Ru31  1  0.128702  0.633413  0.500000  1
  Ru  Ru32  1  0.872437  0.503815  0.500000  1
  Ru  Ru33  1  0.632947  0.128675  0.500000  1
  Ru  Ru34  1  0.494823  0.366338  0.500000  1
  Ru  Ru35  1  0.003486  0.002635  0.000000  1
