# generated using pymatgen
data_KPt4PbO8
_symmetry_space_group_name_H-M   'P 1'
_cell_length_a   5.86512126
_cell_length_b   6.24620043
_cell_length_c   6.91962882
_cell_angle_alpha   116.79584919
_cell_angle_beta   96.28371006
_cell_angle_gamma   110.08839940
_symmetry_Int_Tables_number   1
_chemical_formula_structural   KPt4PbO8
_chemical_formula_sum   'K1 Pt4 Pb1 O8'
_cell_volume   201.67435584
_cell_formula_units_Z   1
loop_
 _symmetry_equiv_pos_site_id
 _symmetry_equiv_pos_as_xyz
  1  'x, y, z'
loop_
 _atom_site_type_symbol
 _atom_site_label
 _atom_site_symmetry_multiplicity
 _atom_site_fract_x
 _atom_site_fract_y
 _atom_site_fract_z
 _atom_site_occupancy
  K  K0  1  0.871714  0.247778  0.124264  1
  Pt  Pt1  1  0.497470  0.498987  0.501317  1
  Pt  Pt2  1  0.999696  0.000926  0.503797  1
  Pt  Pt3  1  0.500834  0.504239  0.003658  1
  Pt  Pt4  1  0.496714  0.000015  0.499443  1
  Pb  Pb5  1  0.141932  0.743767  0.836689  1
  O  O6  1  0.513507  0.863080  0.712655  1
  O  O7  1  0.473695  0.133929  0.289359  1
  O  O8  1  0.836991  0.810486  0.170377  1
  O  O9  1  0.166400  0.184681  0.835648  1
  O  O10  1  0.862202  0.660894  0.503244  1
  O  O11  1  0.139586  0.348315  0.515845  1
  O  O12  1  0.374168  0.599824  0.276335  1
  O  O13  1  0.625089  0.403079  0.727368  1
