# generated using pymatgen
data_Zr4Nb6AlSi7
_symmetry_space_group_name_H-M   'P 1'
_cell_length_a   6.93989502
_cell_length_b   6.90382003
_cell_length_c   12.84219400
_cell_angle_alpha   90.00000000
_cell_angle_beta   90.00000000
_cell_angle_gamma   90.00962796
_symmetry_Int_Tables_number   1
_chemical_formula_structural   Zr4Nb6AlSi7
_chemical_formula_sum   'Zr8 Nb12 Al2 Si14'
_cell_volume   615.29244507
_cell_formula_units_Z   2
loop_
 _symmetry_equiv_pos_site_id
 _symmetry_equiv_pos_as_xyz
  1  'x, y, z'
loop_
 _atom_site_type_symbol
 _atom_site_label
 _atom_site_symmetry_multiplicity
 _atom_site_fract_x
 _atom_site_fract_y
 _atom_site_fract_z
 _atom_site_occupancy
  Zr  Zr0  1  0.001112  0.661835  0.032747  1
  Zr  Zr1  1  0.998888  0.338165  0.532747  1
  Zr  Zr2  1  0.654490  0.999010  0.968415  1
  Zr  Zr3  1  0.161336  0.501048  0.780475  1
  Zr  Zr4  1  0.838664  0.498952  0.280475  1
  Zr  Zr5  1  0.499223  0.157973  0.218351  1
  Zr  Zr6  1  0.500777  0.842027  0.718351  1
  Zr  Zr7  1  0.345510  0.000990  0.468415  1
  Nb  Nb8  1  0.351930  0.501917  0.375867  1
  Nb  Nb9  1  0.843497  0.000223  0.371894  1
  Nb  Nb10  1  0.005503  0.152136  0.128701  1
  Nb  Nb11  1  0.994497  0.847864  0.628701  1
  Nb  Nb12  1  0.648070  0.498083  0.875867  1
  Nb  Nb13  1  0.504670  0.347963  0.623900  1
  Nb  Nb14  1  0.495330  0.652037  0.123900  1
  Nb  Nb15  1  0.156503  0.999777  0.871894  1
  Nb  Nb16  1  0.666140  0.670341  0.501206  1
  Nb  Nb17  1  0.827299  0.168787  0.747801  1
  Nb  Nb18  1  0.172701  0.831213  0.247801  1
  Nb  Nb19  1  0.333860  0.329659  0.001206  1
  Al  Al20  1  0.044572  0.702480  0.436031  1
  Al  Al21  1  0.955428  0.297520  0.936031  1
  Si  Si22  1  0.703626  0.044421  0.562206  1
  Si  Si23  1  0.202068  0.454974  0.187489  1
  Si  Si24  1  0.797932  0.545026  0.687489  1
  Si  Si25  1  0.454606  0.203181  0.813189  1
  Si  Si26  1  0.545394  0.796819  0.313189  1
  Si  Si27  1  0.296374  0.955579  0.062206  1
  Si  Si28  1  0.864308  0.792457  0.823510  1
  Si  Si29  1  0.135692  0.207543  0.323510  1
  Si  Si30  1  0.792526  0.863750  0.178012  1
  Si  Si31  1  0.291844  0.636376  0.572329  1
  Si  Si32  1  0.708156  0.363624  0.072329  1
  Si  Si33  1  0.637151  0.293921  0.427877  1
  Si  Si34  1  0.362849  0.706079  0.927877  1
  Si  Si35  1  0.207474  0.136250  0.678012  1
