# generated using pymatgen
data_Dy12CdCo4Rh
_symmetry_space_group_name_H-M   'P 1'
_cell_length_a   8.30554193
_cell_length_b   8.30554239
_cell_length_c   8.30554361
_cell_angle_alpha   110.87435400
_cell_angle_beta   110.01167356
_cell_angle_gamma   107.54583251
_symmetry_Int_Tables_number   1
_chemical_formula_structural   Dy12CdCo4Rh
_chemical_formula_sum   'Dy12 Cd1 Co4 Rh1'
_cell_volume   440.64635257
_cell_formula_units_Z   1
loop_
 _symmetry_equiv_pos_site_id
 _symmetry_equiv_pos_as_xyz
  1  'x, y, z'
loop_
 _atom_site_type_symbol
 _atom_site_label
 _atom_site_symmetry_multiplicity
 _atom_site_fract_x
 _atom_site_fract_y
 _atom_site_fract_z
 _atom_site_occupancy
  Dy  Dy0  1  0.406299  0.210508  0.195792  1
  Dy  Dy1  1  0.593701  0.789492  0.804208  1
  Dy  Dy2  1  0.014717  0.210508  0.804208  1
  Dy  Dy3  1  0.985283  0.789492  0.195792  1
  Dy  Dy4  1  0.185209  0.292565  0.477774  1
  Dy  Dy5  1  0.814791  0.707435  0.522226  1
  Dy  Dy6  1  0.185209  0.707435  0.892643  1
  Dy  Dy7  1  0.814791  0.292565  0.107357  1
  Dy  Dy8  1  0.314775  0.619584  0.304809  1
  Dy  Dy9  1  0.685225  0.380416  0.695191  1
  Dy  Dy10  1  0.314775  0.009966  0.695191  1
  Dy  Dy11  1  0.685225  0.990034  0.304809  1
  Cd  Cd12  1  0.500000  0.500000  0.000000  1
  Co  Co13  1  0.379630  0.000000  0.379630  1
  Co  Co14  1  0.620370  0.000000  0.620370  1
  Co  Co15  1  0.112688  0.612688  0.500000  1
  Co  Co16  1  0.887312  0.387312  0.500000  1
  Rh  Rh17  1  0.000000  0.000000  0.000000  1
