# generated using pymatgen
data_Zn2Ni3BiO8
_symmetry_space_group_name_H-M   'P 1'
_cell_length_a   6.05364059
_cell_length_b   6.05363994
_cell_length_c   6.18397718
_cell_angle_alpha   60.69480133
_cell_angle_beta   119.30520631
_cell_angle_gamma   119.99999879
_symmetry_Int_Tables_number   1
_chemical_formula_structural   Zn2Ni3BiO8
_chemical_formula_sum   'Zn2 Ni3 Bi1 O8'
_cell_volume   161.90790443
_cell_formula_units_Z   1
loop_
 _symmetry_equiv_pos_site_id
 _symmetry_equiv_pos_as_xyz
  1  'x, y, z'
loop_
 _atom_site_type_symbol
 _atom_site_label
 _atom_site_symmetry_multiplicity
 _atom_site_fract_x
 _atom_site_fract_y
 _atom_site_fract_z
 _atom_site_occupancy
  Zn  Zn0  1  0.867476  0.132524  0.602429  1
  Zn  Zn1  1  0.132524  0.867476  0.397571  1
  Ni  Ni2  1  0.500000  0.500000  0.000000  1
  Ni  Ni3  1  0.500000  0.000000  0.000000  1
  Ni  Ni4  1  0.000000  0.500000  0.000000  1
  Bi  Bi5  1  0.500000  0.500000  0.500000  1
  O  O6  1  0.746356  0.728566  0.764145  1
  O  O7  1  0.746356  0.253644  0.764145  1
  O  O8  1  0.263112  0.736888  0.789336  1
  O  O9  1  0.271434  0.253644  0.764145  1
  O  O10  1  0.728566  0.746356  0.235855  1
  O  O11  1  0.736888  0.263112  0.210664  1
  O  O12  1  0.253644  0.746356  0.235855  1
  O  O13  1  0.253644  0.271434  0.235855  1
