# generated using pymatgen
data_YbMgZn2CuIr
_symmetry_space_group_name_H-M   'P 1'
_cell_length_a   5.32276229
_cell_length_b   5.17446479
_cell_length_c   5.17446636
_cell_angle_alpha   60.92969926
_cell_angle_beta   59.46578175
_cell_angle_gamma   59.46578984
_symmetry_Int_Tables_number   1
_chemical_formula_structural   YbMgZn2CuIr
_chemical_formula_sum   'Yb1 Mg1 Zn2 Cu1 Ir1'
_cell_volume   100.62506349
_cell_formula_units_Z   1
loop_
 _symmetry_equiv_pos_site_id
 _symmetry_equiv_pos_as_xyz
  1  'x, y, z'
loop_
 _atom_site_type_symbol
 _atom_site_label
 _atom_site_symmetry_multiplicity
 _atom_site_fract_x
 _atom_site_fract_y
 _atom_site_fract_z
 _atom_site_occupancy
  Yb  Yb0  1  0.247782  0.255202  0.255202  1
  Mg  Mg1  1  0.994959  0.990926  0.990926  1
  Zn  Zn2  1  0.628632  0.624622  0.125778  1
  Zn  Zn3  1  0.628632  0.125778  0.624622  1
  Cu  Cu4  1  0.124768  0.625563  0.625563  1
  Ir  Ir5  1  0.625227  0.627908  0.627908  1
