# generated using pymatgen
data_Dy8GeAsI12
_symmetry_space_group_name_H-M   'P 1'
_cell_length_a   4.19582600
_cell_length_b   13.89688860
_cell_length_c   14.68782500
_cell_angle_alpha   90.05144582
_cell_angle_beta   90.00000000
_cell_angle_gamma   90.00000000
_symmetry_Int_Tables_number   1
_chemical_formula_structural   Dy8GeAsI12
_chemical_formula_sum   'Dy8 Ge1 As1 I12'
_cell_volume   856.43096336
_cell_formula_units_Z   1
loop_
 _symmetry_equiv_pos_site_id
 _symmetry_equiv_pos_as_xyz
  1  'x, y, z'
loop_
 _atom_site_type_symbol
 _atom_site_label
 _atom_site_symmetry_multiplicity
 _atom_site_fract_x
 _atom_site_fract_y
 _atom_site_fract_z
 _atom_site_occupancy
  Dy  Dy0  1  0.500000  0.114596  0.347468  1
  Dy  Dy1  1  0.500000  0.885404  0.652532  1
  Dy  Dy2  1  0.500000  0.615902  0.153975  1
  Dy  Dy3  1  0.500000  0.384098  0.846025  1
  Dy  Dy4  1  0.000000  0.109464  0.573361  1
  Dy  Dy5  1  0.000000  0.890536  0.426639  1
  Dy  Dy6  1  0.000000  0.612629  0.924370  1
  Dy  Dy7  1  0.000000  0.387371  0.075630  1
  Ge  Ge8  1  0.500000  0.500000  0.000000  1
  As  As9  1  0.500000  0.000000  0.500000  1
  I  I10  1  0.500000  0.244161  0.163217  1
  I  I11  1  0.500000  0.755839  0.836783  1
  I  I12  1  0.500000  0.746953  0.339546  1
  I  I13  1  0.500000  0.253047  0.660454  1
  I  I14  1  0.000000  0.259138  0.415365  1
  I  I15  1  0.000000  0.740862  0.584635  1
  I  I16  1  0.000000  0.760872  0.085165  1
  I  I17  1  0.000000  0.239128  0.914835  1
  I  I18  1  0.000000  0.998887  0.240494  1
  I  I19  1  0.000000  0.001113  0.759506  1
  I  I20  1  0.000000  0.499357  0.261612  1
  I  I21  1  0.000000  0.500643  0.738388  1
