# generated using pymatgen
data_Dy4MgNi2Ag
_symmetry_space_group_name_H-M   'P 1'
_cell_length_a   8.49369677
_cell_length_b   8.49369692
_cell_length_c   8.49369716
_cell_angle_alpha   128.15059821
_cell_angle_beta   128.15059953
_cell_angle_gamma   76.38119229
_symmetry_Int_Tables_number   1
_chemical_formula_structural   Dy4MgNi2Ag
_chemical_formula_sum   'Dy8 Mg2 Ni4 Ag2'
_cell_volume   368.20474060
_cell_formula_units_Z   2
loop_
 _symmetry_equiv_pos_site_id
 _symmetry_equiv_pos_as_xyz
  1  'x, y, z'
loop_
 _atom_site_type_symbol
 _atom_site_label
 _atom_site_symmetry_multiplicity
 _atom_site_fract_x
 _atom_site_fract_y
 _atom_site_fract_z
 _atom_site_occupancy
  Dy  Dy0  1  0.798361  0.298361  0.836527  1
  Dy  Dy1  1  0.201639  0.701639  0.163473  1
  Dy  Dy2  1  0.461833  0.961833  0.163473  1
  Dy  Dy3  1  0.298361  0.461833  0.500000  1
  Dy  Dy4  1  0.038167  0.201639  0.500000  1
  Dy  Dy5  1  0.538167  0.038167  0.836527  1
  Dy  Dy6  1  0.701639  0.538167  0.500000  1
  Dy  Dy7  1  0.961833  0.798361  0.500000  1
  Mg  Mg8  1  0.000000  0.000000  0.000000  1
  Mg  Mg9  1  0.500000  0.500000  0.000000  1
  Ni  Ni10  1  0.126928  0.626928  0.753856  1
  Ni  Ni11  1  0.873072  0.373072  0.246144  1
  Ni  Ni12  1  0.626928  0.873072  0.500000  1
  Ni  Ni13  1  0.373072  0.126928  0.500000  1
  Ag  Ag14  1  0.250000  0.250000  0.000000  1
  Ag  Ag15  1  0.750000  0.750000  0.000000  1
