# generated using pymatgen
data_Sr3Pd4Au5
_symmetry_space_group_name_H-M   'P 1'
_cell_length_a   10.00911133
_cell_length_b   10.03930388
_cell_length_c   9.99838197
_cell_angle_alpha   32.53257361
_cell_angle_beta   32.46705320
_cell_angle_gamma   32.41024427
_symmetry_Int_Tables_number   1
_chemical_formula_structural   Sr3Pd4Au5
_chemical_formula_sum   'Sr3 Pd4 Au5'
_cell_volume   257.46683613
_cell_formula_units_Z   1
loop_
 _symmetry_equiv_pos_site_id
 _symmetry_equiv_pos_as_xyz
  1  'x, y, z'
loop_
 _atom_site_type_symbol
 _atom_site_label
 _atom_site_symmetry_multiplicity
 _atom_site_fract_x
 _atom_site_fract_y
 _atom_site_fract_z
 _atom_site_occupancy
  Sr  Sr0  1  0.001069  0.999188  0.999600  1
  Sr  Sr1  1  0.141336  0.140663  0.139628  1
  Sr  Sr2  1  0.857835  0.859192  0.858947  1
  Pd  Pd3  1  0.499887  0.497636  0.503904  1
  Pd  Pd4  1  0.583442  0.083883  0.582839  1
  Pd  Pd5  1  0.663396  0.669080  0.669310  1
  Pd  Pd6  1  0.415501  0.416238  0.918295  1
  Au  Au7  1  0.584568  0.586499  0.080874  1
  Au  Au8  1  0.339736  0.329346  0.329843  1
  Au  Au9  1  0.916997  0.415305  0.416395  1
  Au  Au10  1  0.415214  0.916418  0.416538  1
  Au  Au11  1  0.081020  0.586554  0.583828  1
