# generated using pymatgen
data_Y3ErAl18Ir5Pt
_symmetry_space_group_name_H-M   'P 1'
_cell_length_a   7.56870562
_cell_length_b   7.56703518
_cell_length_c   9.46992914
_cell_angle_alpha   89.97431544
_cell_angle_beta   89.97252474
_cell_angle_gamma   119.59032995
_symmetry_Int_Tables_number   1
_chemical_formula_structural   Y3ErAl18Ir5Pt
_chemical_formula_sum   'Y3 Er1 Al18 Ir5 Pt1'
_cell_volume   471.63127461
_cell_formula_units_Z   1
loop_
 _symmetry_equiv_pos_site_id
 _symmetry_equiv_pos_as_xyz
  1  'x, y, z'
loop_
 _atom_site_type_symbol
 _atom_site_label
 _atom_site_symmetry_multiplicity
 _atom_site_fract_x
 _atom_site_fract_y
 _atom_site_fract_z
 _atom_site_occupancy
  Y  Y0  1  0.004976  0.329257  0.749500  1
  Y  Y1  1  0.670828  0.994959  0.250509  1
  Y  Y2  1  0.329418  0.005446  0.749372  1
  Er  Er3  1  0.994740  0.670916  0.250688  1
  Al  Al4  1  0.128404  0.127342  0.250419  1
  Al  Al5  1  0.872445  0.871612  0.749589  1
  Al  Al6  1  0.004190  0.335638  0.076170  1
  Al  Al7  1  0.002228  0.668386  0.924291  1
  Al  Al8  1  0.999903  0.664977  0.573822  1
  Al  Al9  1  0.334638  0.999767  0.425652  1
  Al  Al10  1  0.000758  0.335022  0.425215  1
  Al  Al11  1  0.665383  0.999258  0.574689  1
  Al  Al12  1  0.664743  0.995813  0.923937  1
  Al  Al13  1  0.331204  0.997403  0.076184  1
  Al  Al14  1  0.333175  0.333079  0.551479  1
  Al  Al15  1  0.667206  0.666845  0.448299  1
  Al  Al16  1  0.666516  0.669373  0.054536  1
  Al  Al17  1  0.330637  0.333749  0.945702  1
  Al  Al18  1  0.339890  0.548935  0.250332  1
  Al  Al19  1  0.660180  0.453364  0.747435  1
  Al  Al20  1  0.546977  0.340292  0.252560  1
  Al  Al21  1  0.450940  0.659695  0.749657  1
  Ir  Ir22  1  0.328235  0.671823  0.000195  1
  Ir  Ir23  1  0.328471  0.671629  0.499795  1
  Ir  Ir24  1  0.672034  0.328085  0.499764  1
  Ir  Ir25  1  0.999686  0.999928  0.000270  1
  Ir  Ir26  1  0.000100  0.999493  0.499736  1
  Pt  Pt27  1  0.672093  0.327915  0.000203  1
