# generated using pymatgen
data_CsZrCr9Se16
_symmetry_space_group_name_H-M   'P 1'
_cell_length_a   7.34359932
_cell_length_b   9.78603947
_cell_length_c   10.00381598
_cell_angle_alpha   72.46677915
_cell_angle_beta   68.49968655
_cell_angle_gamma   79.20416191
_symmetry_Int_Tables_number   1
_chemical_formula_structural   CsZrCr9Se16
_chemical_formula_sum   'Cs1 Zr1 Cr9 Se16'
_cell_volume   635.42040297
_cell_formula_units_Z   1
loop_
 _symmetry_equiv_pos_site_id
 _symmetry_equiv_pos_as_xyz
  1  'x, y, z'
loop_
 _atom_site_type_symbol
 _atom_site_label
 _atom_site_symmetry_multiplicity
 _atom_site_fract_x
 _atom_site_fract_y
 _atom_site_fract_z
 _atom_site_occupancy
  Cs  Cs0  1  0.002148  0.002376  0.993687  1
  Zr  Zr1  1  0.835494  0.701560  0.478007  1
  Cr  Cr2  1  0.338154  0.678981  0.482832  1
  Cr  Cr3  1  0.660672  0.317512  0.518562  1
  Cr  Cr4  1  0.163331  0.315807  0.518497  1
  Cr  Cr5  1  0.814952  0.407005  0.164878  1
  Cr  Cr6  1  0.316920  0.404890  0.165687  1
  Cr  Cr7  1  0.684460  0.589504  0.835671  1
  Cr  Cr8  1  0.182403  0.586608  0.841450  1
  Cr  Cr9  1  0.501219  0.998565  0.500248  1
  Cr  Cr10  1  0.999752  0.999052  0.500301  1
  Se  Se11  1  0.787371  0.151397  0.349343  1
  Se  Se12  1  0.287448  0.149605  0.351677  1
  Se  Se13  1  0.698702  0.859412  0.673371  1
  Se  Se14  1  0.213495  0.845096  0.650581  1
  Se  Se15  1  0.960919  0.475506  0.340661  1
  Se  Se16  1  0.459436  0.476492  0.343081  1
  Se  Se17  1  0.532559  0.517545  0.661495  1
  Se  Se18  1  0.046161  0.517239  0.661780  1
  Se  Se19  1  0.614636  0.835173  0.318198  1
  Se  Se20  1  0.148708  0.835671  0.318171  1
  Se  Se21  1  0.874675  0.173237  0.662785  1
  Se  Se22  1  0.377279  0.172082  0.662902  1
  Se  Se23  1  0.342735  0.650266  0.991833  1
  Se  Se24  1  0.840443  0.651753  0.990746  1
  Se  Se25  1  0.157924  0.342173  0.013540  1
  Se  Se26  1  0.658003  0.345492  0.010015  1
