# generated using pymatgen
data_AcDy3(MoN3)4
_symmetry_space_group_name_H-M   'P 1'
_cell_length_a   7.27986983
_cell_length_b   7.27986917
_cell_length_c   6.16951676
_cell_angle_alpha   76.78553077
_cell_angle_beta   76.78553195
_cell_angle_gamma   84.09448488
_symmetry_Int_Tables_number   1
_chemical_formula_structural   AcDy3(MoN3)4
_chemical_formula_sum   'Ac1 Dy3 Mo4 N12'
_cell_volume   309.43435474
_cell_formula_units_Z   1
loop_
 _symmetry_equiv_pos_site_id
 _symmetry_equiv_pos_as_xyz
  1  'x, y, z'
loop_
 _atom_site_type_symbol
 _atom_site_label
 _atom_site_symmetry_multiplicity
 _atom_site_fract_x
 _atom_site_fract_y
 _atom_site_fract_z
 _atom_site_occupancy
  Ac  Ac0  1  0.685115  0.314885  0.750000  1
  Dy  Dy1  1  0.306369  0.693631  0.250000  1
  Dy  Dy2  1  0.919570  0.080430  0.250000  1
  Dy  Dy3  1  0.093568  0.906432  0.750000  1
  Mo  Mo4  1  0.616501  0.804620  0.742007  1
  Mo  Mo5  1  0.378508  0.198273  0.265023  1
  Mo  Mo6  1  0.801727  0.621492  0.234977  1
  Mo  Mo7  1  0.195380  0.383499  0.757993  1
  N  N8  1  0.383195  0.894560  0.851613  1
  N  N9  1  0.010001  0.209120  0.856500  1
  N  N10  1  0.656411  0.623057  0.006051  1
  N  N11  1  0.105440  0.616805  0.648387  1
  N  N12  1  0.884781  0.384898  0.329098  1
  N  N13  1  0.222423  0.993857  0.355335  1
  N  N14  1  0.329054  0.377111  0.000347  1
  N  N15  1  0.790880  0.989999  0.643500  1
  N  N16  1  0.615102  0.115219  0.170902  1
  N  N17  1  0.376943  0.343589  0.493949  1
  N  N18  1  0.006143  0.777577  0.144665  1
  N  N19  1  0.622889  0.670946  0.499653  1
