# generated using pymatgen
data_Y7IrBr12
_symmetry_space_group_name_H-M   'P 1'
_cell_length_a   9.31211158
_cell_length_b   9.31211288
_cell_length_c   9.31211310
_cell_angle_alpha   106.89057854
_cell_angle_beta   106.89058206
_cell_angle_gamma   106.89058784
_symmetry_Int_Tables_number   1
_chemical_formula_structural   Y7IrBr12
_chemical_formula_sum   'Y7 Ir1 Br12'
_cell_volume   674.49418845
_cell_formula_units_Z   1
loop_
 _symmetry_equiv_pos_site_id
 _symmetry_equiv_pos_as_xyz
  1  'x, y, z'
loop_
 _atom_site_type_symbol
 _atom_site_label
 _atom_site_symmetry_multiplicity
 _atom_site_fract_x
 _atom_site_fract_y
 _atom_site_fract_z
 _atom_site_occupancy
  Y  Y0  1  0.309913  0.099992  0.022312  1
  Y  Y1  1  0.099992  0.022312  0.309913  1
  Y  Y2  1  0.022312  0.309913  0.099992  1
  Y  Y3  1  0.690087  0.900008  0.977688  1
  Y  Y4  1  0.900008  0.977688  0.690087  1
  Y  Y5  1  0.977688  0.690087  0.900008  1
  Y  Y6  1  0.500000  0.500000  0.500000  1
  Ir  Ir7  1  0.000000  0.000000  0.000000  1
  Br  Br8  1  0.220946  0.069904  0.675697  1
  Br  Br9  1  0.069904  0.675697  0.220946  1
  Br  Br10  1  0.675697  0.220946  0.069904  1
  Br  Br11  1  0.779054  0.930096  0.324303  1
  Br  Br12  1  0.930096  0.324303  0.779054  1
  Br  Br13  1  0.324303  0.779054  0.930096  1
  Br  Br14  1  0.386688  0.461311  0.168608  1
  Br  Br15  1  0.461311  0.168608  0.386688  1
  Br  Br16  1  0.168608  0.386688  0.461311  1
  Br  Br17  1  0.613312  0.538689  0.831392  1
  Br  Br18  1  0.538689  0.831392  0.613312  1
  Br  Br19  1  0.831392  0.613312  0.538689  1
