# generated using pymatgen
data_Dy9ErAlSb5
_symmetry_space_group_name_H-M   'P 1'
_cell_length_a   6.37656705
_cell_length_b   8.93406012
_cell_length_c   8.92456772
_cell_angle_alpha   120.03413688
_cell_angle_beta   90.00598120
_cell_angle_gamma   90.00799047
_symmetry_Int_Tables_number   1
_chemical_formula_structural   Dy9ErAlSb5
_chemical_formula_sum   'Dy9 Er1 Al1 Sb5'
_cell_volume   440.15345528
_cell_formula_units_Z   1
loop_
 _symmetry_equiv_pos_site_id
 _symmetry_equiv_pos_as_xyz
  1  'x, y, z'
loop_
 _atom_site_type_symbol
 _atom_site_label
 _atom_site_symmetry_multiplicity
 _atom_site_fract_x
 _atom_site_fract_y
 _atom_site_fract_z
 _atom_site_occupancy
  Dy  Dy0  1  0.500850  0.665267  0.327069  1
  Dy  Dy1  1  0.999084  0.665161  0.326823  1
  Dy  Dy2  1  0.998986  0.338387  0.673194  1
  Dy  Dy3  1  0.750001  0.248210  0.999943  1
  Dy  Dy4  1  0.749971  0.753599  0.762465  1
  Dy  Dy5  1  0.749881  0.991196  0.237486  1
  Dy  Dy6  1  0.250140  0.756980  0.999948  1
  Dy  Dy7  1  0.250087  0.245430  0.244606  1
  Dy  Dy8  1  0.250012  0.000683  0.755291  1
  Er  Er9  1  0.501100  0.338524  0.673309  1
  Al  Al10  1  0.749449  0.603905  0.999470  1
  Sb  Sb11  1  0.749513  0.388271  0.390540  1
  Sb  Sb12  1  0.749621  0.998702  0.609845  1
  Sb  Sb13  1  0.250513  0.392074  0.999466  1
  Sb  Sb14  1  0.250353  0.610485  0.608446  1
  Sb  Sb15  1  0.250439  0.003128  0.392100  1
