# generated using pymatgen
data_Pr10ZnSiPb6
_symmetry_space_group_name_H-M   'P 1'
_cell_length_a   9.68401000
_cell_length_b   9.68400905
_cell_length_c   6.95006200
_cell_angle_alpha   90.00000000
_cell_angle_beta   90.00000000
_cell_angle_gamma   120.00001007
_symmetry_Int_Tables_number   1
_chemical_formula_structural   Pr10ZnSiPb6
_chemical_formula_sum   'Pr10 Zn1 Si1 Pb6'
_cell_volume   564.45546542
_cell_formula_units_Z   1
loop_
 _symmetry_equiv_pos_site_id
 _symmetry_equiv_pos_as_xyz
  1  'x, y, z'
loop_
 _atom_site_type_symbol
 _atom_site_label
 _atom_site_symmetry_multiplicity
 _atom_site_fract_x
 _atom_site_fract_y
 _atom_site_fract_z
 _atom_site_occupancy
  Pr  Pr0  1  0.666667  0.333333  0.500000  1
  Pr  Pr1  1  0.333333  0.666667  0.500000  1
  Pr  Pr2  1  0.333333  0.666667  0.000000  1
  Pr  Pr3  1  0.666667  0.333333  0.000000  1
  Pr  Pr4  1  0.744442  0.744442  0.235979  1
  Pr  Pr5  1  0.255558  0.000000  0.235979  1
  Pr  Pr6  1  0.000000  0.255558  0.235979  1
  Pr  Pr7  1  0.255558  0.255558  0.764021  1
  Pr  Pr8  1  0.744442  0.000000  0.764021  1
  Pr  Pr9  1  0.000000  0.744442  0.764021  1
  Zn  Zn10  1  0.000000  0.000000  0.500000  1
  Si  Si11  1  0.000000  0.000000  0.000000  1
  Pb  Pb12  1  0.386984  0.386984  0.250678  1
  Pb  Pb13  1  0.613016  0.000000  0.250678  1
  Pb  Pb14  1  0.000000  0.613016  0.250678  1
  Pb  Pb15  1  0.613016  0.613016  0.749322  1
  Pb  Pb16  1  0.386984  0.000000  0.749322  1
  Pb  Pb17  1  0.000000  0.386984  0.749322  1
