# generated using pymatgen
data_Sr6Sn8BiP
_symmetry_space_group_name_H-M   'P 1'
_cell_length_a   8.95004201
_cell_length_b   8.95004184
_cell_length_c   8.95004241
_cell_angle_alpha   119.99268474
_cell_angle_beta   119.99268272
_cell_angle_gamma   90.01267325
_symmetry_Int_Tables_number   1
_chemical_formula_structural   Sr6Sn8BiP
_chemical_formula_sum   'Sr6 Sn8 Bi1 P1'
_cell_volume   507.00033381
_cell_formula_units_Z   1
loop_
 _symmetry_equiv_pos_site_id
 _symmetry_equiv_pos_as_xyz
  1  'x, y, z'
loop_
 _atom_site_type_symbol
 _atom_site_label
 _atom_site_symmetry_multiplicity
 _atom_site_fract_x
 _atom_site_fract_y
 _atom_site_fract_z
 _atom_site_occupancy
  Sr  Sr0  1  0.267254  0.267254  0.000000  1
  Sr  Sr1  1  0.732746  0.732746  0.000000  1
  Sr  Sr2  1  0.185939  0.648311  0.834252  1
  Sr  Sr3  1  0.814061  0.351689  0.165748  1
  Sr  Sr4  1  0.648311  0.814061  0.462372  1
  Sr  Sr5  1  0.351689  0.185939  0.537628  1
  Sn  Sn6  1  0.835687  0.326803  0.785881  1
  Sn  Sn7  1  0.164313  0.673197  0.214119  1
  Sn  Sn8  1  0.540922  0.049806  0.214119  1
  Sn  Sn9  1  0.326803  0.540922  0.491116  1
  Sn  Sn10  1  0.950194  0.164313  0.491116  1
  Sn  Sn11  1  0.459078  0.950194  0.785881  1
  Sn  Sn12  1  0.673197  0.459078  0.508884  1
  Sn  Sn13  1  0.049806  0.835687  0.508884  1
  Bi  Bi14  1  0.000000  0.000000  0.000000  1
  P  P15  1  0.500000  0.500000  0.000000  1
