# generated using pymatgen
data_Dy5Y3(LuIr2)2
_symmetry_space_group_name_H-M   'P 1'
_cell_length_a   6.32253409
_cell_length_b   7.25586647
_cell_length_c   8.44647000
_cell_angle_alpha   96.80961947
_cell_angle_beta   112.04035261
_cell_angle_gamma   89.87690864
_symmetry_Int_Tables_number   1
_chemical_formula_structural   Dy5Y3(LuIr2)2
_chemical_formula_sum   'Dy5 Y3 Lu2 Ir4'
_cell_volume   356.25679823
_cell_formula_units_Z   1
loop_
 _symmetry_equiv_pos_site_id
 _symmetry_equiv_pos_as_xyz
  1  'x, y, z'
loop_
 _atom_site_type_symbol
 _atom_site_label
 _atom_site_symmetry_multiplicity
 _atom_site_fract_x
 _atom_site_fract_y
 _atom_site_fract_z
 _atom_site_occupancy
  Dy  Dy0  1  0.289561  0.581682  0.814401  1
  Dy  Dy1  1  0.295556  0.312248  0.437537  1
  Dy  Dy2  1  0.704134  0.687784  0.562334  1
  Dy  Dy3  1  0.859165  0.188466  0.563375  1
  Dy  Dy4  1  0.141132  0.811490  0.437085  1
  Y  Y5  1  0.526148  0.078728  0.814406  1
  Y  Y6  1  0.473973  0.920623  0.185674  1
  Y  Y7  1  0.711425  0.419921  0.185624  1
  Lu  Lu8  1  0.074697  0.250107  0.999555  1
  Lu  Lu9  1  0.925320  0.749751  0.000147  1
  Ir  Ir10  1  0.312579  0.574325  0.216096  1
  Ir  Ir11  1  0.685352  0.425751  0.783489  1
  Ir  Ir12  1  0.096105  0.924689  0.784061  1
  Ir  Ir13  1  0.904854  0.074436  0.216217  1
