# generated using pymatgen
data_Tm2Fe3P7Ir4Ru5
_symmetry_space_group_name_H-M   'P 1'
_cell_length_a   9.34145010
_cell_length_b   9.28782523
_cell_length_c   3.84185800
_cell_angle_alpha   90.00000000
_cell_angle_beta   90.00000000
_cell_angle_gamma   120.05987531
_symmetry_Int_Tables_number   1
_chemical_formula_structural   Tm2Fe3P7Ir4Ru5
_chemical_formula_sum   'Tm2 Fe3 P7 Ir4 Ru5'
_cell_volume   288.49475911
_cell_formula_units_Z   1
loop_
 _symmetry_equiv_pos_site_id
 _symmetry_equiv_pos_as_xyz
  1  'x, y, z'
loop_
 _atom_site_type_symbol
 _atom_site_label
 _atom_site_symmetry_multiplicity
 _atom_site_fract_x
 _atom_site_fract_y
 _atom_site_fract_z
 _atom_site_occupancy
  Tm  Tm0  1  0.332267  0.666274  0.000000  1
  Tm  Tm1  1  0.001544  0.999988  0.500000  1
  Fe  Fe2  1  0.935008  0.442553  0.000000  1
  Fe  Fe3  1  0.507866  0.061942  0.000000  1
  Fe  Fe4  1  0.556995  0.494290  0.000000  1
  P  P5  1  0.968805  0.223587  0.000000  1
  P  P6  1  0.256769  0.036758  0.000000  1
  P  P7  1  0.781367  0.740831  0.000000  1
  P  P8  1  0.062288  0.614859  0.500000  1
  P  P9  1  0.545296  0.935120  0.500000  1
  P  P10  1  0.384336  0.449288  0.500000  1
  P  P11  1  0.665736  0.332932  0.000000  1
  Ir  Ir12  1  0.733293  0.967887  0.000000  1
  Ir  Ir13  1  0.108270  0.391621  0.500000  1
  Ir  Ir14  1  0.280196  0.891017  0.500000  1
  Ir  Ir15  1  0.607127  0.718952  0.500000  1
  Ru  Ru16  1  0.239818  0.272860  0.000000  1
  Ru  Ru17  1  0.033027  0.761388  0.000000  1
  Ru  Ru18  1  0.756806  0.206068  0.500000  1
  Ru  Ru19  1  0.453998  0.245428  0.500000  1
  Ru  Ru20  1  0.789193  0.546355  0.500000  1
