# generated using pymatgen
data_Tb3ErAg4
_symmetry_space_group_name_H-M   'P 1'
_cell_length_a   6.30115453
_cell_length_b   6.30115479
_cell_length_c   10.38199000
_cell_angle_alpha   90.00000000
_cell_angle_beta   90.00000000
_cell_angle_gamma   110.69175641
_symmetry_Int_Tables_number   1
_chemical_formula_structural   Tb3ErAg4
_chemical_formula_sum   'Tb6 Er2 Ag8'
_cell_volume   385.62244068
_cell_formula_units_Z   2
loop_
 _symmetry_equiv_pos_site_id
 _symmetry_equiv_pos_as_xyz
  1  'x, y, z'
loop_
 _atom_site_type_symbol
 _atom_site_label
 _atom_site_symmetry_multiplicity
 _atom_site_fract_x
 _atom_site_fract_y
 _atom_site_fract_z
 _atom_site_occupancy
  Tb  Tb0  1  0.506622  0.506622  0.250000  1
  Tb  Tb1  1  0.493378  0.493378  0.750000  1
  Tb  Tb2  1  0.248788  0.751212  0.500000  1
  Tb  Tb3  1  0.248788  0.751212  0.000000  1
  Tb  Tb4  1  0.751212  0.248788  0.500000  1
  Tb  Tb5  1  0.751212  0.248788  0.000000  1
  Er  Er6  1  0.995800  0.995800  0.250000  1
  Er  Er7  1  0.004200  0.004200  0.750000  1
  Ag  Ag8  1  0.247065  0.247065  0.006962  1
  Ag  Ag9  1  0.752935  0.752935  0.993038  1
  Ag  Ag10  1  0.247065  0.247065  0.493038  1
  Ag  Ag11  1  0.752935  0.752935  0.506962  1
  Ag  Ag12  1  0.492596  0.007760  0.250000  1
  Ag  Ag13  1  0.992240  0.507404  0.750000  1
  Ag  Ag14  1  0.507404  0.992240  0.750000  1
  Ag  Ag15  1  0.007760  0.492596  0.250000  1
