# generated using pymatgen
data_CeZr(Re2Si)4
_symmetry_space_group_name_H-M   'P 1'
_cell_length_a   7.42206677
_cell_length_b   7.42206700
_cell_length_c   4.10603700
_cell_angle_alpha   90.00000000
_cell_angle_beta   90.00000000
_cell_angle_gamma   91.53403202
_symmetry_Int_Tables_number   1
_chemical_formula_structural   CeZr(Re2Si)4
_chemical_formula_sum   'Ce1 Zr1 Re8 Si4'
_cell_volume   226.10850946
_cell_formula_units_Z   1
loop_
 _symmetry_equiv_pos_site_id
 _symmetry_equiv_pos_as_xyz
  1  'x, y, z'
loop_
 _atom_site_type_symbol
 _atom_site_label
 _atom_site_symmetry_multiplicity
 _atom_site_fract_x
 _atom_site_fract_y
 _atom_site_fract_z
 _atom_site_occupancy
  Ce  Ce0  1  0.000000  0.000000  0.500000  1
  Zr  Zr1  1  0.500000  0.500000  0.000000  1
  Re  Re2  1  0.653351  0.900718  0.000000  1
  Re  Re3  1  0.159391  0.584865  0.500000  1
  Re  Re4  1  0.099282  0.346649  0.000000  1
  Re  Re5  1  0.900718  0.653351  0.000000  1
  Re  Re6  1  0.415135  0.840609  0.500000  1
  Re  Re7  1  0.584865  0.159391  0.500000  1
  Re  Re8  1  0.346649  0.099282  0.000000  1
  Re  Re9  1  0.840609  0.415135  0.500000  1
  Si  Si10  1  0.214426  0.785574  0.000000  1
  Si  Si11  1  0.785574  0.214426  0.000000  1
  Si  Si12  1  0.700877  0.700877  0.500000  1
  Si  Si13  1  0.299123  0.299123  0.500000  1
