# generated using pymatgen
data_Cs2LiHfCuTe4
_symmetry_space_group_name_H-M   'P 1'
_cell_length_a   8.42830860
_cell_length_b   8.42830796
_cell_length_c   6.34183300
_cell_angle_alpha   90.00000000
_cell_angle_beta   90.00000000
_cell_angle_gamma   132.27959020
_symmetry_Int_Tables_number   1
_chemical_formula_structural   Cs2LiHfCuTe4
_chemical_formula_sum   'Cs2 Li1 Hf1 Cu1 Te4'
_cell_volume   333.31242706
_cell_formula_units_Z   1
loop_
 _symmetry_equiv_pos_site_id
 _symmetry_equiv_pos_as_xyz
  1  'x, y, z'
loop_
 _atom_site_type_symbol
 _atom_site_label
 _atom_site_symmetry_multiplicity
 _atom_site_fract_x
 _atom_site_fract_y
 _atom_site_fract_z
 _atom_site_occupancy
  Cs  Cs0  1  0.500000  0.000000  0.251592  1
  Cs  Cs1  1  0.000000  0.500000  0.748408  1
  Li  Li2  1  0.500000  0.500000  0.000000  1
  Hf  Hf3  1  0.000000  0.000000  0.000000  1
  Cu  Cu4  1  0.000000  0.000000  0.500000  1
  Te  Te5  1  0.864433  0.667761  0.254065  1
  Te  Te6  1  0.135567  0.332239  0.254065  1
  Te  Te7  1  0.667761  0.864433  0.745935  1
  Te  Te8  1  0.332239  0.135567  0.745935  1
