# generated using pymatgen
data_Ho2Er6Sc12Si15Rh
_symmetry_space_group_name_H-M   'P 1'
_cell_length_a   7.08577383
_cell_length_b   7.35017287
_cell_length_c   13.95665806
_cell_angle_alpha   89.90357886
_cell_angle_beta   89.81335553
_cell_angle_gamma   90.21258886
_symmetry_Int_Tables_number   1
_chemical_formula_structural   Ho2Er6Sc12Si15Rh
_chemical_formula_sum   'Ho2 Er6 Sc12 Si15 Rh1'
_cell_volume   726.87605204
_cell_formula_units_Z   1
loop_
 _symmetry_equiv_pos_site_id
 _symmetry_equiv_pos_as_xyz
  1  'x, y, z'
loop_
 _atom_site_type_symbol
 _atom_site_label
 _atom_site_symmetry_multiplicity
 _atom_site_fract_x
 _atom_site_fract_y
 _atom_site_fract_z
 _atom_site_occupancy
  Ho  Ho0  1  0.013022  0.175762  0.096793  1
  Ho  Ho1  1  0.987972  0.824050  0.903105  1
  Er  Er2  1  0.486808  0.677375  0.903023  1
  Er  Er3  1  0.988794  0.822077  0.596307  1
  Er  Er4  1  0.512729  0.323594  0.096240  1
  Er  Er5  1  0.011542  0.180265  0.403489  1
  Er  Er6  1  0.508646  0.323461  0.402982  1
  Er  Er7  1  0.485459  0.671357  0.597800  1
  Sc  Sc8  1  0.162856  0.503980  0.744975  1
  Sc  Sc9  1  0.838411  0.496726  0.252000  1
  Sc  Sc10  1  0.339248  0.999669  0.250376  1
  Sc  Sc11  1  0.662670  0.996604  0.749352  1
  Sc  Sc12  1  0.330832  0.187579  0.621184  1
  Sc  Sc13  1  0.668059  0.823446  0.373700  1
  Sc  Sc14  1  0.170793  0.664168  0.378460  1
  Sc  Sc15  1  0.671886  0.823997  0.126563  1
  Sc  Sc16  1  0.833779  0.326870  0.623284  1
  Sc  Sc17  1  0.328387  0.177167  0.875599  1
  Sc  Sc18  1  0.831419  0.322197  0.875473  1
  Sc  Sc19  1  0.170391  0.676596  0.125188  1
  Si  Si20  1  0.033741  0.113867  0.749672  1
  Si  Si21  1  0.970428  0.883787  0.251663  1
  Si  Si22  1  0.467410  0.613072  0.248433  1
  Si  Si23  1  0.536895  0.385773  0.752927  1
  Si  Si24  1  0.286119  0.876259  0.750310  1
  Si  Si25  1  0.714361  0.129495  0.249443  1
  Si  Si26  1  0.215947  0.368665  0.247922  1
  Si  Si27  1  0.783708  0.628557  0.752683  1
  Si  Si28  1  0.834605  0.536380  0.460488  1
  Si  Si29  1  0.342784  0.963385  0.460840  1
  Si  Si30  1  0.843167  0.535920  0.038790  1
  Si  Si31  1  0.655923  0.033694  0.538660  1
  Si  Si32  1  0.156700  0.465864  0.960998  1
  Si  Si33  1  0.658018  0.034308  0.961841  1
  Si  Si34  1  0.344299  0.964661  0.039061  1
  Rh  Rh35  1  0.152195  0.469377  0.540376  1
