# generated using pymatgen
data_La10Mg4Ir5Ru
_symmetry_space_group_name_H-M   'P 1'
_cell_length_a   8.84071609
_cell_length_b   8.80431586
_cell_length_c   8.80431704
_cell_angle_alpha   109.44487846
_cell_angle_beta   109.24587644
_cell_angle_gamma   109.55616316
_symmetry_Int_Tables_number   1
_chemical_formula_structural   La10Mg4Ir5Ru
_chemical_formula_sum   'La10 Mg4 Ir5 Ru1'
_cell_volume   528.62158217
_cell_formula_units_Z   1
loop_
 _symmetry_equiv_pos_site_id
 _symmetry_equiv_pos_as_xyz
  1  'x, y, z'
loop_
 _atom_site_type_symbol
 _atom_site_label
 _atom_site_symmetry_multiplicity
 _atom_site_fract_x
 _atom_site_fract_y
 _atom_site_fract_z
 _atom_site_occupancy
  La  La0  1  0.792118  0.995224  0.997860  1
  La  La1  1  0.250000  0.319349  0.069349  1
  La  La2  1  0.707884  0.705745  0.203108  1
  La  La3  1  0.181874  0.931441  0.250869  1
  La  La4  1  0.999864  0.499835  0.292149  1
  La  La5  1  0.750000  0.181510  0.431510  1
  La  La6  1  0.500137  0.792286  0.499971  1
  La  La7  1  0.928938  0.749309  0.682572  1
  La  La8  1  0.318126  0.568995  0.749567  1
  La  La9  1  0.571062  0.253634  0.820370  1
  Mg  Mg10  1  0.409759  0.000369  0.999863  1
  Mg  Mg11  1  0.499533  0.409588  0.500224  1
  Mg  Mg12  1  0.090241  0.090104  0.590610  1
  Mg  Mg13  1  0.000467  0.500691  0.910055  1
  Ir  Ir14  1  0.381212  0.749997  0.131206  1
  Ir  Ir15  1  0.630272  0.379977  0.249672  1
  Ir  Ir16  1  0.118788  0.249993  0.368784  1
  Ir  Ir17  1  0.250000  0.869208  0.619209  1
  Ir  Ir18  1  0.869727  0.119400  0.749705  1
  Ru  Ru19  1  0.750000  0.633348  0.883348  1
