# generated using pymatgen
data_Hf3Sc(Co5As3)4
_symmetry_space_group_name_H-M   'P 1'
_cell_length_a   3.70608600
_cell_length_b   10.58524733
_cell_length_c   12.07938002
_cell_angle_alpha   90.01775650
_cell_angle_beta   90.00000000
_cell_angle_gamma   90.00000000
_symmetry_Int_Tables_number   1
_chemical_formula_structural   Hf3Sc(Co5As3)4
_chemical_formula_sum   'Hf3 Sc1 Co20 As12'
_cell_volume   473.87208570
_cell_formula_units_Z   1
loop_
 _symmetry_equiv_pos_site_id
 _symmetry_equiv_pos_as_xyz
  1  'x, y, z'
loop_
 _atom_site_type_symbol
 _atom_site_label
 _atom_site_symmetry_multiplicity
 _atom_site_fract_x
 _atom_site_fract_y
 _atom_site_fract_z
 _atom_site_occupancy
  Hf  Hf0  1  0.250000  0.576969  0.701859  1
  Hf  Hf1  1  0.250000  0.923257  0.201364  1
  Hf  Hf2  1  0.750000  0.423193  0.298266  1
  Sc  Sc3  1  0.750000  0.078458  0.797958  1
  Co  Co4  1  0.250000  0.717775  0.994120  1
  Co  Co5  1  0.250000  0.782987  0.493713  1
  Co  Co6  1  0.750000  0.284001  0.005548  1
  Co  Co7  1  0.750000  0.216633  0.505731  1
  Co  Co8  1  0.250000  0.410367  0.484247  1
  Co  Co9  1  0.250000  0.090073  0.987445  1
  Co  Co10  1  0.750000  0.589915  0.515549  1
  Co  Co11  1  0.750000  0.908684  0.016275  1
  Co  Co12  1  0.250000  0.217971  0.180523  1
  Co  Co13  1  0.250000  0.284253  0.678621  1
  Co  Co14  1  0.750000  0.782089  0.821191  1
  Co  Co15  1  0.750000  0.717325  0.320083  1
  Co  Co16  1  0.250000  0.883398  0.697834  1
  Co  Co17  1  0.250000  0.613447  0.199085  1
  Co  Co18  1  0.750000  0.113547  0.300795  1
  Co  Co19  1  0.750000  0.386989  0.801096  1
  Co  Co20  1  0.250000  0.468262  0.929729  1
  Co  Co21  1  0.250000  0.031524  0.429781  1
  Co  Co22  1  0.750000  0.531066  0.070400  1
  Co  Co23  1  0.750000  0.967990  0.568905  1
  As  As24  1  0.250000  0.414265  0.115444  1
  As  As25  1  0.250000  0.084809  0.616333  1
  As  As26  1  0.750000  0.585457  0.884751  1
  As  As27  1  0.750000  0.914389  0.384147  1
  As  As28  1  0.250000  0.263567  0.869597  1
  As  As29  1  0.250000  0.235458  0.370474  1
  As  As30  1  0.750000  0.735039  0.130102  1
  As  As31  1  0.750000  0.764645  0.630208  1
  As  As32  1  0.250000  0.599731  0.388992  1
  As  As33  1  0.250000  0.902249  0.888244  1
  As  As34  1  0.750000  0.400285  0.610957  1
  As  As35  1  0.750000  0.099935  0.110635  1
