# generated using pymatgen
data_Y2Er4Zn23Se
_symmetry_space_group_name_H-M   'P 1'
_cell_length_a   9.02190561
_cell_length_b   9.02192832
_cell_length_c   9.01977300
_cell_angle_alpha   60.00770804
_cell_angle_beta   60.00784478
_cell_angle_gamma   59.98718134
_symmetry_Int_Tables_number   1
_chemical_formula_structural   Y2Er4Zn23Se
_chemical_formula_sum   'Y2 Er4 Zn23 Se1'
_cell_volume   519.14323308
_cell_formula_units_Z   1
loop_
 _symmetry_equiv_pos_site_id
 _symmetry_equiv_pos_as_xyz
  1  'x, y, z'
loop_
 _atom_site_type_symbol
 _atom_site_label
 _atom_site_symmetry_multiplicity
 _atom_site_fract_x
 _atom_site_fract_y
 _atom_site_fract_z
 _atom_site_occupancy
  Y  Y0  1  0.717272  0.282727  0.282647  1
  Y  Y1  1  0.717274  0.282725  0.717353  1
  Er  Er2  1  0.716850  0.716968  0.283093  1
  Er  Er3  1  0.282103  0.717896  0.717826  1
  Er  Er4  1  0.282115  0.717887  0.282175  1
  Er  Er5  1  0.283028  0.283153  0.716911  1
  Zn  Zn6  1  0.623752  0.123733  0.126257  1
  Zn  Zn7  1  0.124620  0.625787  0.124797  1
  Zn  Zn8  1  0.126679  0.124342  0.624774  1
  Zn  Zn9  1  0.126675  0.124342  0.124207  1
  Zn  Zn10  1  0.374212  0.875381  0.875203  1
  Zn  Zn11  1  0.876263  0.376249  0.873746  1
  Zn  Zn12  1  0.875661  0.873322  0.375222  1
  Zn  Zn13  1  0.875656  0.873322  0.875795  1
  Zn  Zn14  1  0.499514  0.999599  0.000572  1
  Zn  Zn15  1  0.499515  0.999599  0.500313  1
  Zn  Zn16  1  0.499156  0.500844  0.000000  1
  Zn  Zn17  1  0.000402  0.500486  0.499686  1
  Zn  Zn18  1  0.000401  0.500486  0.999427  1
  Zn  Zn19  1  0.000977  0.999023  0.500000  1
  Zn  Zn20  1  0.999538  0.000463  0.999997  1
  Zn  Zn21  1  0.014293  0.328881  0.328412  1
  Zn  Zn22  1  0.329110  0.012030  0.329429  1
  Zn  Zn23  1  0.328530  0.329302  0.013171  1
  Zn  Zn24  1  0.328530  0.329302  0.328997  1
  Zn  Zn25  1  0.987970  0.670890  0.670570  1
  Zn  Zn26  1  0.671117  0.985707  0.671587  1
  Zn  Zn27  1  0.670698  0.671469  0.986831  1
  Zn  Zn28  1  0.670699  0.671470  0.671004  1
  Se  Se29  1  0.497388  0.502615  0.500002  1
