# generated using pymatgen
data_Eu8ThPt6
_symmetry_space_group_name_H-M   'P 1'
_cell_length_a   7.93122913
_cell_length_b   7.93122892
_cell_length_c   7.93122839
_cell_angle_alpha   69.93226341
_cell_angle_beta   69.93226787
_cell_angle_gamma   69.93226972
_symmetry_Int_Tables_number   1
_chemical_formula_structural   Eu8ThPt6
_chemical_formula_sum   'Eu8 Th1 Pt6'
_cell_volume   425.56198107
_cell_formula_units_Z   1
loop_
 _symmetry_equiv_pos_site_id
 _symmetry_equiv_pos_as_xyz
  1  'x, y, z'
loop_
 _atom_site_type_symbol
 _atom_site_label
 _atom_site_symmetry_multiplicity
 _atom_site_fract_x
 _atom_site_fract_y
 _atom_site_fract_z
 _atom_site_occupancy
  Eu  Eu0  1  0.004684  0.004684  0.004684  1
  Eu  Eu1  1  0.199050  0.199050  0.199050  1
  Eu  Eu2  1  0.333932  0.603254  0.846104  1
  Eu  Eu3  1  0.846104  0.333932  0.603254  1
  Eu  Eu4  1  0.603254  0.846104  0.333932  1
  Eu  Eu5  1  0.666040  0.393181  0.155508  1
  Eu  Eu6  1  0.155508  0.666040  0.393181  1
  Eu  Eu7  1  0.393181  0.155508  0.666040  1
  Th  Th8  1  0.807403  0.807403  0.807403  1
  Pt  Pt9  1  0.148672  0.950051  0.600104  1
  Pt  Pt10  1  0.600104  0.148672  0.950051  1
  Pt  Pt11  1  0.950051  0.600104  0.148672  1
  Pt  Pt12  1  0.829369  0.035083  0.427566  1
  Pt  Pt13  1  0.427566  0.829369  0.035083  1
  Pt  Pt14  1  0.035083  0.427566  0.829369  1
