# generated using pymatgen
data_TbY7(BCl6)2
_symmetry_space_group_name_H-M   'P 1'
_cell_length_a   3.87696000
_cell_length_b   12.68479992
_cell_length_c   13.15714217
_cell_angle_alpha   90.11966045
_cell_angle_beta   90.00000000
_cell_angle_gamma   90.00000000
_symmetry_Int_Tables_number   1
_chemical_formula_structural   TbY7(BCl6)2
_chemical_formula_sum   'Tb1 Y7 B2 Cl12'
_cell_volume   647.04660374
_cell_formula_units_Z   1
loop_
 _symmetry_equiv_pos_site_id
 _symmetry_equiv_pos_as_xyz
  1  'x, y, z'
loop_
 _atom_site_type_symbol
 _atom_site_label
 _atom_site_symmetry_multiplicity
 _atom_site_fract_x
 _atom_site_fract_y
 _atom_site_fract_z
 _atom_site_occupancy
  Tb  Tb0  1  0.500000  0.126751  0.850852  1
  Y  Y1  1  0.000000  0.106186  0.084597  1
  Y  Y2  1  0.000000  0.893289  0.916017  1
  Y  Y3  1  0.000000  0.606395  0.415789  1
  Y  Y4  1  0.000000  0.393577  0.584199  1
  Y  Y5  1  0.500000  0.873433  0.148925  1
  Y  Y6  1  0.500000  0.626482  0.648811  1
  Y  Y7  1  0.500000  0.373517  0.351188  1
  B  B8  1  0.500000  0.999921  0.000107  1
  B  B9  1  0.500000  0.500053  0.499965  1
  Cl  Cl10  1  0.500000  0.268611  0.681963  1
  Cl  Cl11  1  0.500000  0.732015  0.317313  1
  Cl  Cl12  1  0.500000  0.767862  0.817166  1
  Cl  Cl13  1  0.500000  0.232145  0.182827  1
  Cl  Cl14  1  0.000000  0.256832  0.929509  1
  Cl  Cl15  1  0.000000  0.743506  0.070965  1
  Cl  Cl16  1  0.000000  0.477811  0.243715  1
  Cl  Cl17  1  0.000000  0.522170  0.756318  1
  Cl  Cl18  1  0.000000  0.977936  0.256501  1
  Cl  Cl19  1  0.000000  0.021523  0.743262  1
  Cl  Cl20  1  0.000000  0.243679  0.428960  1
  Cl  Cl21  1  0.000000  0.756303  0.571052  1
