# generated using pymatgen
data_Eu4NpO10
_symmetry_space_group_name_H-M   'P 1'
_cell_length_a   6.64690908
_cell_length_b   6.64686055
_cell_length_c   6.64603056
_cell_angle_alpha   99.64745678
_cell_angle_beta   99.65491415
_cell_angle_gamma   131.66389851
_symmetry_Int_Tables_number   1
_chemical_formula_structural   Eu4NpO10
_chemical_formula_sum   'Eu4 Np1 O10'
_cell_volume   200.12342632
_cell_formula_units_Z   1
loop_
 _symmetry_equiv_pos_site_id
 _symmetry_equiv_pos_as_xyz
  1  'x, y, z'
loop_
 _atom_site_type_symbol
 _atom_site_label
 _atom_site_symmetry_multiplicity
 _atom_site_fract_x
 _atom_site_fract_y
 _atom_site_fract_z
 _atom_site_occupancy
  Eu  Eu0  1  0.401618  0.198700  0.600320  1
  Eu  Eu1  1  0.801302  0.401595  0.202898  1
  Eu  Eu2  1  0.198698  0.598405  0.797102  1
  Eu  Eu3  1  0.598382  0.801300  0.399680  1
  Np  Np4  1  0.000000  0.000000  0.000000  1
  O  O5  1  0.750038  0.250040  0.500000  1
  O  O6  1  0.136124  0.416029  0.088398  1
  O  O7  1  0.583992  0.672400  0.720164  1
  O  O8  1  0.952233  0.863824  0.279839  1
  O  O9  1  0.327632  0.047727  0.911601  1
  O  O10  1  0.863876  0.583971  0.911602  1
  O  O11  1  0.249962  0.749960  0.500000  1
  O  O12  1  0.672368  0.952273  0.088399  1
  O  O13  1  0.047767  0.136176  0.720161  1
  O  O14  1  0.416008  0.327600  0.279836  1
