# generated using pymatgen
data_SmTi2(NbSn)4
_symmetry_space_group_name_H-M   'P 1'
_cell_length_a   8.52556568
_cell_length_b   8.19851830
_cell_length_c   8.52556538
_cell_angle_alpha   40.46974834
_cell_angle_beta   40.94189847
_cell_angle_gamma   40.46974861
_symmetry_Int_Tables_number   1
_chemical_formula_structural   SmTi2(NbSn)4
_chemical_formula_sum   'Sm1 Ti2 Nb4 Sn4'
_cell_volume   227.90081565
_cell_formula_units_Z   1
loop_
 _symmetry_equiv_pos_site_id
 _symmetry_equiv_pos_as_xyz
  1  'x, y, z'
loop_
 _atom_site_type_symbol
 _atom_site_label
 _atom_site_symmetry_multiplicity
 _atom_site_fract_x
 _atom_site_fract_y
 _atom_site_fract_z
 _atom_site_occupancy
  Sm  Sm0  1  0.995251  0.000000  0.004749  1
  Ti  Ti1  1  0.102484  0.627943  0.582308  1
  Ti  Ti2  1  0.417691  0.372057  0.897517  1
  Nb  Nb3  1  0.582754  0.625697  0.105758  1
  Nb  Nb4  1  0.894241  0.374303  0.417247  1
  Nb  Nb5  1  0.413494  0.843907  0.407710  1
  Nb  Nb6  1  0.592291  0.156093  0.586505  1
  Sn  Sn7  1  0.118222  0.155723  0.109833  1
  Sn  Sn8  1  0.332264  0.323320  0.338857  1
  Sn  Sn9  1  0.661143  0.676680  0.667736  1
  Sn  Sn10  1  0.890167  0.844277  0.881778  1
