# generated using pymatgen
data_Lu8Re(B8Ru)3
_symmetry_space_group_name_H-M   'P 1'
_cell_length_a   3.60056500
_cell_length_b   9.03175360
_cell_length_c   11.39905780
_cell_angle_alpha   90.11562598
_cell_angle_beta   90.00000000
_cell_angle_gamma   90.00000000
_symmetry_Int_Tables_number   1
_chemical_formula_structural   Lu8Re(B8Ru)3
_chemical_formula_sum   'Lu8 Re1 B24 Ru3'
_cell_volume   370.68994665
_cell_formula_units_Z   1
loop_
 _symmetry_equiv_pos_site_id
 _symmetry_equiv_pos_as_xyz
  1  'x, y, z'
loop_
 _atom_site_type_symbol
 _atom_site_label
 _atom_site_symmetry_multiplicity
 _atom_site_fract_x
 _atom_site_fract_y
 _atom_site_fract_z
 _atom_site_occupancy
  Lu  Lu0  1  0.000000  0.321841  0.415224  1
  Lu  Lu1  1  0.000000  0.680888  0.588011  1
  Lu  Lu2  1  0.000000  0.821886  0.083291  1
  Lu  Lu3  1  0.000000  0.176828  0.913419  1
  Lu  Lu4  1  0.000000  0.943653  0.371554  1
  Lu  Lu5  1  0.000000  0.055811  0.627566  1
  Lu  Lu6  1  0.000000  0.443225  0.128125  1
  Lu  Lu7  1  0.000000  0.555516  0.872704  1
  Re  Re8  1  0.000000  0.861983  0.821145  1
  B  B9  1  0.500000  0.553999  0.434036  1
  B  B10  1  0.500000  0.446083  0.566103  1
  B  B11  1  0.500000  0.053899  0.066708  1
  B  B12  1  0.500000  0.947169  0.934209  1
  B  B13  1  0.500000  0.749849  0.420166  1
  B  B14  1  0.500000  0.250355  0.579693  1
  B  B15  1  0.500000  0.249711  0.079968  1
  B  B16  1  0.500000  0.749560  0.920189  1
  B  B17  1  0.500000  0.792026  0.265113  1
  B  B18  1  0.500000  0.207855  0.733958  1
  B  B19  1  0.500000  0.292397  0.234913  1
  B  B20  1  0.500000  0.706668  0.765114  1
  B  B21  1  0.500000  0.631008  0.184274  1
  B  B22  1  0.500000  0.368516  0.815379  1
  B  B23  1  0.500000  0.131693  0.315854  1
  B  B24  1  0.500000  0.868873  0.684314  1
  B  B25  1  0.500000  0.982451  0.212516  1
  B  B26  1  0.500000  0.018995  0.787371  1
  B  B27  1  0.500000  0.482310  0.287970  1
  B  B28  1  0.500000  0.517452  0.712461  1
  B  B29  1  0.500000  0.603667  0.029373  1
  B  B30  1  0.500000  0.394470  0.971345  1
  B  B31  1  0.500000  0.105381  0.470528  1
  B  B32  1  0.500000  0.895418  0.528234  1
  Ru  Ru33  1  0.000000  0.638261  0.320947  1
  Ru  Ru34  1  0.000000  0.361755  0.678645  1
  Ru  Ru35  1  0.000000  0.138550  0.179580  1
