# generated using pymatgen
data_YPaPd2Pb
_symmetry_space_group_name_H-M   'P 1'
_cell_length_a   7.92897300
_cell_length_b   7.90534100
_cell_length_c   3.66017500
_cell_angle_alpha   90.00000000
_cell_angle_beta   90.00000000
_cell_angle_gamma   90.00000000
_symmetry_Int_Tables_number   1
_chemical_formula_structural   YPaPd2Pb
_chemical_formula_sum   'Y2 Pa2 Pd4 Pb2'
_cell_volume   229.42429058
_cell_formula_units_Z   2
loop_
 _symmetry_equiv_pos_site_id
 _symmetry_equiv_pos_as_xyz
  1  'x, y, z'
loop_
 _atom_site_type_symbol
 _atom_site_label
 _atom_site_symmetry_multiplicity
 _atom_site_fract_x
 _atom_site_fract_y
 _atom_site_fract_z
 _atom_site_occupancy
  Y  Y0  1  0.826541  0.672938  0.500000  1
  Y  Y1  1  0.326541  0.827062  0.500000  1
  Pa  Pa2  1  0.670406  0.170037  0.500000  1
  Pa  Pa3  1  0.170406  0.329963  0.500000  1
  Pd  Pd4  1  0.872931  0.359916  0.000000  1
  Pd  Pd5  1  0.372931  0.140084  0.000000  1
  Pd  Pd6  1  0.626995  0.890074  0.000000  1
  Pd  Pd7  1  0.126995  0.609926  0.000000  1
  Pb  Pb8  1  0.003128  0.990631  0.000000  1
  Pb  Pb9  1  0.503128  0.509369  0.000000  1
