# generated using pymatgen
data_Tb4GaSe3
_symmetry_space_group_name_H-M   'P 1'
_cell_length_a   7.16506171
_cell_length_b   7.16506155
_cell_length_c   7.16506119
_cell_angle_alpha   131.95786441
_cell_angle_beta   131.95784727
_cell_angle_gamma   70.29559643
_symmetry_Int_Tables_number   1
_chemical_formula_structural   Tb4GaSe3
_chemical_formula_sum   'Tb4 Ga1 Se3'
_cell_volume   199.36155783
_cell_formula_units_Z   1
loop_
 _symmetry_equiv_pos_site_id
 _symmetry_equiv_pos_as_xyz
  1  'x, y, z'
loop_
 _atom_site_type_symbol
 _atom_site_label
 _atom_site_symmetry_multiplicity
 _atom_site_fract_x
 _atom_site_fract_y
 _atom_site_fract_z
 _atom_site_occupancy
  Tb  Tb0  1  0.246142  0.246142  0.000000  1
  Tb  Tb1  1  0.753858  0.753858  0.000000  1
  Tb  Tb2  1  0.500000  0.000000  0.500000  1
  Tb  Tb3  1  0.000000  0.500000  0.500000  1
  Ga  Ga4  1  0.000000  0.000000  0.000000  1
  Se  Se5  1  0.750000  0.250000  0.500000  1
  Se  Se6  1  0.250000  0.750000  0.500000  1
  Se  Se7  1  0.500000  0.500000  0.000000  1
