# generated using pymatgen
data_TbCe3Sc3AlIr4
_symmetry_space_group_name_H-M   'P 1'
_cell_length_a   7.11542517
_cell_length_b   4.35500100
_cell_length_c   8.45437936
_cell_angle_alpha   90.00000000
_cell_angle_beta   93.83496678
_cell_angle_gamma   90.00000000
_symmetry_Int_Tables_number   1
_chemical_formula_structural   TbCe3Sc3AlIr4
_chemical_formula_sum   'Tb1 Ce3 Sc3 Al1 Ir4'
_cell_volume   261.39501392
_cell_formula_units_Z   1
loop_
 _symmetry_equiv_pos_site_id
 _symmetry_equiv_pos_as_xyz
  1  'x, y, z'
loop_
 _atom_site_type_symbol
 _atom_site_label
 _atom_site_symmetry_multiplicity
 _atom_site_fract_x
 _atom_site_fract_y
 _atom_site_fract_z
 _atom_site_occupancy
  Tb  Tb0  1  0.984637  0.250000  0.164330  1
  Ce  Ce1  1  0.467771  0.250000  0.310801  1
  Ce  Ce2  1  0.039405  0.750000  0.828699  1
  Ce  Ce3  1  0.519741  0.750000  0.696385  1
  Sc  Sc4  1  0.864259  0.250000  0.563875  1
  Sc  Sc5  1  0.129023  0.750000  0.430329  1
  Sc  Sc6  1  0.642010  0.750000  0.064648  1
  Al  Al7  1  0.363943  0.250000  0.937959  1
  Ir  Ir8  1  0.737301  0.250000  0.883256  1
  Ir  Ir9  1  0.246349  0.250000  0.611666  1
  Ir  Ir10  1  0.263728  0.750000  0.108947  1
  Ir  Ir11  1  0.741832  0.750000  0.399108  1
