# generated using pymatgen
data_Dy2Y4Si5SnRh12
_symmetry_space_group_name_H-M   'P 1'
_cell_length_a   5.61523500
_cell_length_b   5.61523461
_cell_length_c   15.29524200
_cell_angle_alpha   90.00000000
_cell_angle_beta   90.00000000
_cell_angle_gamma   119.99999639
_symmetry_Int_Tables_number   1
_chemical_formula_structural   Dy2Y4Si5SnRh12
_chemical_formula_sum   'Dy2 Y4 Si5 Sn1 Rh12'
_cell_volume   417.65996052
_cell_formula_units_Z   1
loop_
 _symmetry_equiv_pos_site_id
 _symmetry_equiv_pos_as_xyz
  1  'x, y, z'
loop_
 _atom_site_type_symbol
 _atom_site_label
 _atom_site_symmetry_multiplicity
 _atom_site_fract_x
 _atom_site_fract_y
 _atom_site_fract_z
 _atom_site_occupancy
  Dy  Dy0  1  0.666667  0.333333  0.964153  1
  Dy  Dy1  1  0.666667  0.333333  0.538657  1
  Y  Y2  1  0.333333  0.666667  0.036332  1
  Y  Y3  1  0.666667  0.333333  0.752601  1
  Y  Y4  1  0.333333  0.666667  0.460736  1
  Y  Y5  1  0.333333  0.666667  0.247536  1
  Si  Si6  1  0.666667  0.333333  0.243920  1
  Si  Si7  1  0.000000  0.000000  0.245559  1
  Si  Si8  1  0.000000  0.000000  0.754458  1
  Si  Si9  1  0.333333  0.666667  0.756184  1
  Si  Si10  1  0.000000  0.000000  0.000027  1
  Sn  Sn11  1  0.000000  0.000000  0.500050  1
  Rh  Rh12  1  0.166069  0.332138  0.871796  1
  Rh  Rh13  1  0.168743  0.337485  0.640593  1
  Rh  Rh14  1  0.667862  0.833931  0.871796  1
  Rh  Rh15  1  0.337532  0.168766  0.359290  1
  Rh  Rh16  1  0.831234  0.662468  0.359290  1
  Rh  Rh17  1  0.831234  0.168766  0.359290  1
  Rh  Rh18  1  0.833940  0.166060  0.128250  1
  Rh  Rh19  1  0.332120  0.166060  0.128250  1
  Rh  Rh20  1  0.662515  0.831257  0.640593  1
  Rh  Rh21  1  0.168743  0.831257  0.640593  1
  Rh  Rh22  1  0.833940  0.667880  0.128250  1
  Rh  Rh23  1  0.166069  0.833931  0.871796  1
