# generated using pymatgen
data_Nd3InSn2PdPt2
_symmetry_space_group_name_H-M   'P 1'
_cell_length_a   7.67684882
_cell_length_b   7.66707243
_cell_length_c   4.12702300
_cell_angle_alpha   90.00000000
_cell_angle_beta   90.00000000
_cell_angle_gamma   119.95787315
_symmetry_Int_Tables_number   1
_chemical_formula_structural   Nd3InSn2PdPt2
_chemical_formula_sum   'Nd3 In1 Sn2 Pd1 Pt2'
_cell_volume   210.45743643
_cell_formula_units_Z   1
loop_
 _symmetry_equiv_pos_site_id
 _symmetry_equiv_pos_as_xyz
  1  'x, y, z'
loop_
 _atom_site_type_symbol
 _atom_site_label
 _atom_site_symmetry_multiplicity
 _atom_site_fract_x
 _atom_site_fract_y
 _atom_site_fract_z
 _atom_site_occupancy
  Nd  Nd0  1  0.588921  0.587631  0.000000  1
  Nd  Nd1  1  0.411079  0.998710  0.000000  1
  Nd  Nd2  1  0.000000  0.413429  0.000000  1
  In  In3  1  0.000000  0.746892  0.500000  1
  Sn  Sn4  1  0.253151  0.251047  0.500000  1
  Sn  Sn5  1  0.746849  0.997896  0.500000  1
  Pd  Pd6  1  0.000000  0.004889  0.000000  1
  Pt  Pt7  1  0.333313  0.666410  0.500000  1
  Pt  Pt8  1  0.666687  0.333096  0.500000  1
