# generated using pymatgen
data_Er5Tm11(In3Fe)2
_symmetry_space_group_name_H-M   'P 1'
_cell_length_a   10.19664253
_cell_length_b   10.19668956
_cell_length_c   6.97497716
_cell_angle_alpha   90.02296204
_cell_angle_beta   89.97763590
_cell_angle_gamma   120.03063103
_symmetry_Int_Tables_number   1
_chemical_formula_structural   Er5Tm11(In3Fe)2
_chemical_formula_sum   'Er5 Tm11 In6 Fe2'
_cell_volume   627.84962081
_cell_formula_units_Z   1
loop_
 _symmetry_equiv_pos_site_id
 _symmetry_equiv_pos_as_xyz
  1  'x, y, z'
loop_
 _atom_site_type_symbol
 _atom_site_label
 _atom_site_symmetry_multiplicity
 _atom_site_fract_x
 _atom_site_fract_y
 _atom_site_fract_z
 _atom_site_occupancy
  Er  Er0  1  0.535430  0.070592  0.513315  1
  Er  Er1  1  0.929408  0.464574  0.513301  1
  Er  Er2  1  0.534939  0.465062  0.514149  1
  Er  Er3  1  0.464633  0.929530  0.013700  1
  Er  Er4  1  0.070454  0.535362  0.013704  1
  Tm  Tm5  1  0.464876  0.535136  0.014512  1
  Tm  Tm6  1  0.179000  0.357751  0.718966  1
  Tm  Tm7  1  0.642245  0.820999  0.718968  1
  Tm  Tm8  1  0.178911  0.821085  0.718352  1
  Tm  Tm9  1  0.820736  0.641943  0.218461  1
  Tm  Tm10  1  0.358057  0.179271  0.218452  1
  Tm  Tm11  1  0.821171  0.178834  0.218100  1
  Tm  Tm12  1  0.666555  0.333454  0.902909  1
  Tm  Tm13  1  0.333389  0.666610  0.402677  1
  Tm  Tm14  1  0.999906  0.000098  0.500376  1
  Tm  Tm15  1  0.999983  0.000020  0.000433  1
  In  In16  1  0.837190  0.674168  0.764024  1
  In  In17  1  0.325838  0.162816  0.764020  1
  In  In18  1  0.836953  0.163053  0.763667  1
  In  In19  1  0.163286  0.326367  0.263299  1
  In  In20  1  0.673638  0.836733  0.263313  1
  In  In21  1  0.162829  0.837191  0.264084  1
  Fe  Fe22  1  0.666595  0.333383  0.287273  1
  Fe  Fe23  1  0.333980  0.665964  0.787950  1
