# generated using pymatgen
data_Ta4Nb
_symmetry_space_group_name_H-M   'P 1'
_cell_length_a   12.30692144
_cell_length_b   12.21672379
_cell_length_c   2.78859998
_cell_angle_alpha   85.31569639
_cell_angle_beta   81.63256587
_cell_angle_gamma   13.05175328
_symmetry_Int_Tables_number   1
_chemical_formula_structural   Ta4Nb
_chemical_formula_sum   'Ta4 Nb1'
_cell_volume   90.22340540
_cell_formula_units_Z   1
loop_
 _symmetry_equiv_pos_site_id
 _symmetry_equiv_pos_as_xyz
  1  'x, y, z'
loop_
 _atom_site_type_symbol
 _atom_site_label
 _atom_site_symmetry_multiplicity
 _atom_site_fract_x
 _atom_site_fract_y
 _atom_site_fract_z
 _atom_site_occupancy
  Ta  Ta0  1  0.399591  0.399591  0.600409  1
  Ta  Ta1  1  0.800017  0.800017  0.199983  1
  Ta  Ta2  1  0.199983  0.199983  0.800017  1
  Ta  Ta3  1  0.600409  0.600409  0.399591  1
  Nb  Nb4  1  0.000000  0.000000  0.000000  1
