# generated using pymatgen
data_Tb4YNi16(As4Pd)3
_symmetry_space_group_name_H-M   'P 1'
_cell_length_a   12.64818900
_cell_length_b   12.64808359
_cell_length_c   3.91358700
_cell_angle_alpha   90.00000000
_cell_angle_beta   90.00000000
_cell_angle_gamma   119.99972998
_symmetry_Int_Tables_number   1
_chemical_formula_structural   Tb4YNi16(As4Pd)3
_chemical_formula_sum   'Tb4 Y1 Ni16 As12 Pd3'
_cell_volume   542.20045756
_cell_formula_units_Z   1
loop_
 _symmetry_equiv_pos_site_id
 _symmetry_equiv_pos_as_xyz
  1  'x, y, z'
loop_
 _atom_site_type_symbol
 _atom_site_label
 _atom_site_symmetry_multiplicity
 _atom_site_fract_x
 _atom_site_fract_y
 _atom_site_fract_z
 _atom_site_occupancy
  Tb  Tb0  1  0.185476  0.185466  0.500000  1
  Tb  Tb1  1  0.814524  0.999990  0.500000  1
  Tb  Tb2  1  0.333333  0.666670  0.000000  1
  Tb  Tb3  1  0.666667  0.333337  0.000000  1
  Y  Y4  1  0.000000  0.814522  0.500000  1
  Ni  Ni5  1  0.716714  0.716714  0.500000  1
  Ni  Ni6  1  0.283286  0.000000  0.500000  1
  Ni  Ni7  1  0.000000  0.283290  0.500000  1
  Ni  Ni8  1  0.183071  0.378120  0.000000  1
  Ni  Ni9  1  0.621883  0.804952  0.000000  1
  Ni  Ni10  1  0.195041  0.816933  0.000000  1
  Ni  Ni11  1  0.804959  0.621892  0.000000  1
  Ni  Ni12  1  0.816929  0.195048  0.000000  1
  Ni  Ni13  1  0.378117  0.183068  0.000000  1
  Ni  Ni14  1  0.360003  0.483374  0.500000  1
  Ni  Ni15  1  0.516625  0.876630  0.500000  1
  Ni  Ni16  1  0.123364  0.639989  0.500000  1
  Ni  Ni17  1  0.876636  0.516624  0.500000  1
  Ni  Ni18  1  0.639997  0.123371  0.500000  1
  Ni  Ni19  1  0.483375  0.360005  0.500000  1
  Ni  Ni20  1  0.000000  0.999996  0.000000  1
  As  As21  1  0.821784  0.821771  0.000000  1
  As  As22  1  0.178216  0.999987  0.000000  1
  As  As23  1  0.000000  0.178239  0.000000  1
  As  As24  1  0.171174  0.480242  0.500000  1
  As  As25  1  0.519756  0.690936  0.500000  1
  As  As26  1  0.309077  0.828825  0.500000  1
  As  As27  1  0.690923  0.519747  0.500000  1
  As  As28  1  0.828826  0.309067  0.500000  1
  As  As29  1  0.480244  0.171179  0.500000  1
  As  As30  1  0.361138  0.361140  0.000000  1
  As  As31  1  0.638862  0.000001  0.000000  1
  As  As32  1  0.000000  0.638878  0.000000  1
  Pd  Pd33  1  0.557108  0.557102  0.000000  1
  Pd  Pd34  1  0.442892  0.999994  0.000000  1
  Pd  Pd35  1  0.000000  0.442903  0.000000  1
