# generated using pymatgen
data_Y20FeBi8Rh3
_symmetry_space_group_name_H-M   'P 1'
_cell_length_a   8.02533662
_cell_length_b   9.02672100
_cell_length_c   12.44758905
_cell_angle_alpha   90.00000000
_cell_angle_beta   89.94463138
_cell_angle_gamma   90.00000000
_symmetry_Int_Tables_number   1
_chemical_formula_structural   Y20FeBi8Rh3
_chemical_formula_sum   'Y20 Fe1 Bi8 Rh3'
_cell_volume   901.73373301
_cell_formula_units_Z   1
loop_
 _symmetry_equiv_pos_site_id
 _symmetry_equiv_pos_as_xyz
  1  'x, y, z'
loop_
 _atom_site_type_symbol
 _atom_site_label
 _atom_site_symmetry_multiplicity
 _atom_site_fract_x
 _atom_site_fract_y
 _atom_site_fract_z
 _atom_site_occupancy
  Y  Y0  1  0.345948  0.750000  0.700440  1
  Y  Y1  1  0.657491  0.250000  0.292427  1
  Y  Y2  1  0.841694  0.250000  0.792451  1
  Y  Y3  1  0.159361  0.750000  0.209104  1
  Y  Y4  1  0.877858  0.750000  0.805159  1
  Y  Y5  1  0.124076  0.250000  0.194623  1
  Y  Y6  1  0.377362  0.250000  0.694737  1
  Y  Y7  1  0.617324  0.750000  0.309637  1
  Y  Y8  1  0.678015  0.547235  0.564797  1
  Y  Y9  1  0.325217  0.468259  0.436948  1
  Y  Y10  1  0.178066  0.457125  0.933087  1
  Y  Y11  1  0.325217  0.031741  0.436948  1
  Y  Y12  1  0.820914  0.541622  0.066723  1
  Y  Y13  1  0.678015  0.952765  0.564797  1
  Y  Y14  1  0.820914  0.958378  0.066723  1
  Y  Y15  1  0.178066  0.042875  0.933087  1
  Y  Y16  1  0.050943  0.750000  0.497886  1
  Y  Y17  1  0.949357  0.250000  0.502069  1
  Y  Y18  1  0.545684  0.250000  0.001207  1
  Y  Y19  1  0.450358  0.750000  0.997330  1
  Fe  Fe20  1  0.427951  0.750000  0.489267  1
  Bi  Bi21  1  0.570552  0.509067  0.826754  1
  Bi  Bi22  1  0.429472  0.491555  0.172882  1
  Bi  Bi23  1  0.071108  0.490977  0.672460  1
  Bi  Bi24  1  0.429472  0.008445  0.172882  1
  Bi  Bi25  1  0.928879  0.508652  0.327397  1
  Bi  Bi26  1  0.570552  0.990933  0.826754  1
  Bi  Bi27  1  0.928879  0.991348  0.327397  1
  Bi  Bi28  1  0.071108  0.009023  0.672460  1
  Rh  Rh29  1  0.071262  0.750000  0.990737  1
  Rh  Rh30  1  0.926941  0.250000  0.010962  1
  Rh  Rh31  1  0.571943  0.250000  0.509869  1
