# generated using pymatgen
data_Ho2AlSi4Ir2Rh
_symmetry_space_group_name_H-M   'P 1'
_cell_length_a   8.35678304
_cell_length_b   8.35678292
_cell_length_c   8.16589859
_cell_angle_alpha   139.70224563
_cell_angle_beta   106.11730761
_cell_angle_gamma   89.05249921
_symmetry_Int_Tables_number   1
_chemical_formula_structural   Ho2AlSi4Ir2Rh
_chemical_formula_sum   'Ho4 Al2 Si8 Ir4 Rh2'
_cell_volume   336.39430836
_cell_formula_units_Z   2
loop_
 _symmetry_equiv_pos_site_id
 _symmetry_equiv_pos_as_xyz
  1  'x, y, z'
loop_
 _atom_site_type_symbol
 _atom_site_label
 _atom_site_symmetry_multiplicity
 _atom_site_fract_x
 _atom_site_fract_y
 _atom_site_fract_z
 _atom_site_occupancy
  Ho  Ho0  1  0.633074  0.876112  0.777014  1
  Ho  Ho1  1  0.366926  0.123888  0.222986  1
  Ho  Ho2  1  0.099098  0.356061  0.722986  1
  Ho  Ho3  1  0.900902  0.643939  0.277014  1
  Al  Al4  1  0.273278  0.023278  0.750000  1
  Al  Al5  1  0.726722  0.976722  0.250000  1
  Si  Si6  1  0.710677  0.460677  0.750000  1
  Si  Si7  1  0.289323  0.539323  0.250000  1
  Si  Si8  1  0.439407  0.601017  0.835570  1
  Si  Si9  1  0.560593  0.398983  0.164430  1
  Si  Si10  1  0.765448  0.103837  0.664430  1
  Si  Si11  1  0.234552  0.896163  0.335570  1
  Si  Si12  1  0.018537  0.768537  0.750000  1
  Si  Si13  1  0.981463  0.231463  0.250000  1
  Ir  Ir14  1  0.240082  0.599264  0.564992  1
  Ir  Ir15  1  0.759918  0.400736  0.435008  1
  Ir  Ir16  1  0.034272  0.175090  0.935008  1
  Ir  Ir17  1  0.965728  0.824910  0.064992  1
  Rh  Rh18  1  0.494631  0.744631  0.250000  1
  Rh  Rh19  1  0.505369  0.255369  0.750000  1
