# generated using pymatgen
data_LaTb7(P7Ir8)2
_symmetry_space_group_name_H-M   'P 1'
_cell_length_a   3.95270200
_cell_length_b   12.74942245
_cell_length_c   13.17711582
_cell_angle_alpha   80.70485457
_cell_angle_beta   90.00000000
_cell_angle_gamma   90.00000000
_symmetry_Int_Tables_number   1
_chemical_formula_structural   LaTb7(P7Ir8)2
_chemical_formula_sum   'La1 Tb7 P14 Ir16'
_cell_volume   655.33691648
_cell_formula_units_Z   1
loop_
 _symmetry_equiv_pos_site_id
 _symmetry_equiv_pos_as_xyz
  1  'x, y, z'
loop_
 _atom_site_type_symbol
 _atom_site_label
 _atom_site_symmetry_multiplicity
 _atom_site_fract_x
 _atom_site_fract_y
 _atom_site_fract_z
 _atom_site_occupancy
  La  La0  1  0.250000  0.279901  0.104671  1
  Tb  Tb1  1  0.750000  0.791343  0.561271  1
  Tb  Tb2  1  0.250000  0.208623  0.439467  1
  Tb  Tb3  1  0.750000  0.479782  0.705343  1
  Tb  Tb4  1  0.250000  0.521088  0.294860  1
  Tb  Tb5  1  0.750000  0.719800  0.897367  1
  Tb  Tb6  1  0.250000  0.102824  0.788885  1
  Tb  Tb7  1  0.750000  0.897536  0.211531  1
  P  P8  1  0.250000  0.906750  0.411861  1
  P  P9  1  0.750000  0.474416  0.129392  1
  P  P10  1  0.250000  0.527624  0.870098  1
  P  P11  1  0.750000  0.092665  0.588859  1
  P  P12  1  0.250000  0.741627  0.079322  1
  P  P13  1  0.750000  0.256326  0.916886  1
  P  P14  1  0.750000  0.156969  0.284458  1
  P  P15  1  0.250000  0.843036  0.717418  1
  P  P16  1  0.250000  0.048361  0.100284  1
  P  P17  1  0.750000  0.946922  0.899165  1
  P  P18  1  0.250000  0.312281  0.688976  1
  P  P19  1  0.750000  0.688010  0.310653  1
  P  P20  1  0.250000  0.607823  0.566011  1
  P  P21  1  0.750000  0.392948  0.435386  1
  Ir  Ir22  1  0.250000  0.990359  0.576539  1
  Ir  Ir23  1  0.750000  0.009347  0.424192  1
  Ir  Ir24  1  0.250000  0.662678  0.730203  1
  Ir  Ir25  1  0.750000  0.339343  0.272545  1
  Ir  Ir26  1  0.250000  0.554779  0.045872  1
  Ir  Ir27  1  0.750000  0.450430  0.950816  1
  Ir  Ir28  1  0.250000  0.059347  0.273003  1
  Ir  Ir29  1  0.750000  0.938841  0.727543  1
  Ir  Ir30  1  0.250000  0.422484  0.525124  1
  Ir  Ir31  1  0.750000  0.578341  0.475399  1
  Ir  Ir32  1  0.250000  0.913915  0.996631  1
  Ir  Ir33  1  0.750000  0.082967  0.000926  1
  Ir  Ir34  1  0.250000  0.729356  0.394557  1
  Ir  Ir35  1  0.750000  0.270325  0.605633  1
  Ir  Ir36  1  0.250000  0.341630  0.856850  1
  Ir  Ir37  1  0.750000  0.659203  0.142005  1
