# generated using pymatgen
data_Tb2Ho6Tc3B24Os
_symmetry_space_group_name_H-M   'P 1'
_cell_length_a   3.67268500
_cell_length_b   9.14785112
_cell_length_c   11.53563002
_cell_angle_alpha   89.94222617
_cell_angle_beta   90.00000000
_cell_angle_gamma   90.00000000
_symmetry_Int_Tables_number   1
_chemical_formula_structural   Tb2Ho6Tc3B24Os
_chemical_formula_sum   'Tb2 Ho6 Tc3 B24 Os1'
_cell_volume   387.56439012
_cell_formula_units_Z   1
loop_
 _symmetry_equiv_pos_site_id
 _symmetry_equiv_pos_as_xyz
  1  'x, y, z'
loop_
 _atom_site_type_symbol
 _atom_site_label
 _atom_site_symmetry_multiplicity
 _atom_site_fract_x
 _atom_site_fract_y
 _atom_site_fract_z
 _atom_site_occupancy
  Tb  Tb0  1  0.000000  0.323436  0.413769  1
  Tb  Tb1  1  0.000000  0.675757  0.584580  1
  Ho  Ho2  1  0.000000  0.823080  0.087064  1
  Ho  Ho3  1  0.000000  0.177989  0.914597  1
  Ho  Ho4  1  0.000000  0.942593  0.369671  1
  Ho  Ho5  1  0.000000  0.058148  0.630435  1
  Ho  Ho6  1  0.000000  0.442908  0.129933  1
  Ho  Ho7  1  0.000000  0.557010  0.869726  1
  Tc  Tc8  1  0.000000  0.638822  0.319670  1
  Tc  Tc9  1  0.000000  0.361258  0.680815  1
  Tc  Tc10  1  0.000000  0.137542  0.177809  1
  B  B11  1  0.500000  0.553414  0.432342  1
  B  B12  1  0.500000  0.446491  0.567422  1
  B  B13  1  0.500000  0.052887  0.066678  1
  B  B14  1  0.500000  0.946401  0.933095  1
  B  B15  1  0.500000  0.748719  0.418118  1
  B  B16  1  0.500000  0.250938  0.581943  1
  B  B17  1  0.500000  0.249043  0.081023  1
  B  B18  1  0.500000  0.751369  0.918684  1
  B  B19  1  0.500000  0.791849  0.265011  1
  B  B20  1  0.500000  0.208331  0.735477  1
  B  B21  1  0.500000  0.291367  0.234306  1
  B  B22  1  0.500000  0.709367  0.765729  1
  B  B23  1  0.500000  0.630957  0.185151  1
  B  B24  1  0.500000  0.368924  0.815405  1
  B  B25  1  0.500000  0.130074  0.313644  1
  B  B26  1  0.500000  0.869497  0.686137  1
  B  B27  1  0.500000  0.981743  0.211477  1
  B  B28  1  0.500000  0.017051  0.788558  1
  B  B29  1  0.500000  0.482476  0.287581  1
  B  B30  1  0.500000  0.517268  0.712253  1
  B  B31  1  0.500000  0.601854  0.028049  1
  B  B32  1  0.500000  0.399199  0.971766  1
  B  B33  1  0.500000  0.100708  0.472088  1
  B  B34  1  0.500000  0.899419  0.528427  1
  Os  Os35  1  0.000000  0.862111  0.821567  1
