# generated using pymatgen
data_Ni2Pt(AuO2)3
_symmetry_space_group_name_H-M   'P 1'
_cell_length_a   5.26897000
_cell_length_b   5.26896961
_cell_length_c   18.35460900
_cell_angle_alpha   90.00000000
_cell_angle_beta   90.00000000
_cell_angle_gamma   119.99998989
_symmetry_Int_Tables_number   1
_chemical_formula_structural   Ni2Pt(AuO2)3
_chemical_formula_sum   'Ni6 Pt3 Au9 O18'
_cell_volume   441.29319754
_cell_formula_units_Z   3
loop_
 _symmetry_equiv_pos_site_id
 _symmetry_equiv_pos_as_xyz
  1  'x, y, z'
loop_
 _atom_site_type_symbol
 _atom_site_label
 _atom_site_symmetry_multiplicity
 _atom_site_fract_x
 _atom_site_fract_y
 _atom_site_fract_z
 _atom_site_occupancy
  Ni  Ni0  1  0.107057  0.892943  0.333333  1
  Ni  Ni1  1  0.107057  0.214111  0.666667  1
  Ni  Ni2  1  0.785889  0.892943  0.000000  1
  Ni  Ni3  1  0.773711  0.226289  0.333333  1
  Ni  Ni4  1  0.773711  0.547420  0.666667  1
  Ni  Ni5  1  0.452580  0.226289  0.000000  1
  Pt  Pt6  1  0.440427  0.559573  0.333333  1
  Pt  Pt7  1  0.440427  0.880853  0.666667  1
  Pt  Pt8  1  0.119147  0.559573  0.000000  1
  Au  Au9  1  0.440914  0.220456  0.500000  1
  Au  Au10  1  0.779544  0.220456  0.833333  1
  Au  Au11  1  0.779544  0.559086  0.166667  1
  Au  Au12  1  0.117269  0.558635  0.500000  1
  Au  Au13  1  0.441365  0.558635  0.833333  1
  Au  Au14  1  0.441365  0.882731  0.166667  1
  Au  Au15  1  0.763868  0.881934  0.500000  1
  Au  Au16  1  0.118066  0.881934  0.833333  1
  Au  Au17  1  0.118066  0.236132  0.166667  1
  O  O18  1  0.771672  0.559647  0.277440  1
  O  O19  1  0.440353  0.212025  0.610773  1
  O  O20  1  0.787975  0.228328  0.944107  1
  O  O21  1  0.771672  0.212025  0.722560  1
  O  O22  1  0.440353  0.228328  0.389227  1
  O  O23  1  0.787975  0.559647  0.055893  1
  O  O24  1  0.440487  0.890609  0.277337  1
  O  O25  1  0.109391  0.549879  0.610670  1
  O  O26  1  0.450121  0.559513  0.944004  1
  O  O27  1  0.440487  0.549879  0.722663  1
  O  O28  1  0.109391  0.559513  0.389330  1
  O  O29  1  0.450121  0.890609  0.055996  1
  O  O30  1  0.109463  0.228460  0.277362  1
  O  O31  1  0.771540  0.881002  0.610695  1
  O  O32  1  0.118998  0.890537  0.944028  1
  O  O33  1  0.109463  0.881002  0.722638  1
  O  O34  1  0.771540  0.890537  0.389305  1
  O  O35  1  0.118998  0.228460  0.055972  1
