# generated using pymatgen
data_Mn4ZnInPt10
_symmetry_space_group_name_H-M   'P 1'
_cell_length_a   4.02824900
_cell_length_b   5.55423720
_cell_length_c   11.08804021
_cell_angle_alpha   86.65895849
_cell_angle_beta   90.00000000
_cell_angle_gamma   90.00000000
_symmetry_Int_Tables_number   1
_chemical_formula_structural   Mn4ZnInPt10
_chemical_formula_sum   'Mn4 Zn1 In1 Pt10'
_cell_volume   247.66049493
_cell_formula_units_Z   1
loop_
 _symmetry_equiv_pos_site_id
 _symmetry_equiv_pos_as_xyz
  1  'x, y, z'
loop_
 _atom_site_type_symbol
 _atom_site_label
 _atom_site_symmetry_multiplicity
 _atom_site_fract_x
 _atom_site_fract_y
 _atom_site_fract_z
 _atom_site_occupancy
  Mn  Mn0  1  0.500000  0.742592  0.371258  1
  Mn  Mn1  1  0.500000  0.726786  0.863085  1
  Mn  Mn2  1  0.500000  0.273214  0.136915  1
  Mn  Mn3  1  0.500000  0.257408  0.628742  1
  Zn  Zn4  1  0.000000  0.000000  0.500000  1
  In  In5  1  0.000000  0.000000  0.000000  1
  Pt  Pt6  1  0.000000  0.005764  0.255482  1
  Pt  Pt7  1  0.000000  0.994236  0.744518  1
  Pt  Pt8  1  0.000000  0.500000  0.000000  1
  Pt  Pt9  1  0.000000  0.500000  0.500000  1
  Pt  Pt10  1  0.000000  0.505193  0.252379  1
  Pt  Pt11  1  0.000000  0.494807  0.747621  1
  Pt  Pt12  1  0.500000  0.240268  0.383899  1
  Pt  Pt13  1  0.500000  0.238306  0.875833  1
  Pt  Pt14  1  0.500000  0.761694  0.124167  1
  Pt  Pt15  1  0.500000  0.759732  0.616101  1
