# generated using pymatgen
data_Li2CeNd3(ZnPt2)2
_symmetry_space_group_name_H-M   'P 1'
_cell_length_a   4.11072400
_cell_length_b   7.21247064
_cell_length_c   8.52546360
_cell_angle_alpha   90.38115382
_cell_angle_beta   90.00000000
_cell_angle_gamma   90.00000000
_symmetry_Int_Tables_number   1
_chemical_formula_structural   Li2CeNd3(ZnPt2)2
_chemical_formula_sum   'Li2 Ce1 Nd3 Zn2 Pt4'
_cell_volume   252.76141122
_cell_formula_units_Z   1
loop_
 _symmetry_equiv_pos_site_id
 _symmetry_equiv_pos_as_xyz
  1  'x, y, z'
loop_
 _atom_site_type_symbol
 _atom_site_label
 _atom_site_symmetry_multiplicity
 _atom_site_fract_x
 _atom_site_fract_y
 _atom_site_fract_z
 _atom_site_occupancy
  Li  Li0  1  0.250000  0.623978  0.555230  1
  Li  Li1  1  0.250000  0.129922  0.942662  1
  Ce  Ce2  1  0.250000  0.546363  0.187658  1
  Nd  Nd3  1  0.750000  0.456696  0.808102  1
  Nd  Nd4  1  0.250000  0.046132  0.312049  1
  Nd  Nd5  1  0.750000  0.953542  0.690058  1
  Zn  Zn6  1  0.750000  0.367003  0.438147  1
  Zn  Zn7  1  0.750000  0.873054  0.062726  1
  Pt  Pt8  1  0.250000  0.751377  0.890025  1
  Pt  Pt9  1  0.250000  0.247873  0.616165  1
  Pt  Pt10  1  0.750000  0.743022  0.375038  1
  Pt  Pt11  1  0.750000  0.261038  0.122141  1
