# generated using pymatgen
data_TbErTh3Si3C
_symmetry_space_group_name_H-M   'P 1'
_cell_length_a   8.74579700
_cell_length_b   8.74579779
_cell_length_c   6.38331600
_cell_angle_alpha   90.00000000
_cell_angle_beta   90.00000000
_cell_angle_gamma   120.00000080
_symmetry_Int_Tables_number   1
_chemical_formula_structural   TbErTh3Si3C
_chemical_formula_sum   'Tb2 Er2 Th6 Si6 C2'
_cell_volume   422.83973984
_cell_formula_units_Z   2
loop_
 _symmetry_equiv_pos_site_id
 _symmetry_equiv_pos_as_xyz
  1  'x, y, z'
loop_
 _atom_site_type_symbol
 _atom_site_label
 _atom_site_symmetry_multiplicity
 _atom_site_fract_x
 _atom_site_fract_y
 _atom_site_fract_z
 _atom_site_occupancy
  Tb  Tb0  1  0.666667  0.333333  0.000000  1
  Tb  Tb1  1  0.333333  0.666667  0.000000  1
  Er  Er2  1  0.333333  0.666667  0.500000  1
  Er  Er3  1  0.666667  0.333333  0.500000  1
  Th  Th4  1  0.766687  0.766687  0.749194  1
  Th  Th5  1  0.233313  0.000000  0.749194  1
  Th  Th6  1  0.000000  0.233313  0.749194  1
  Th  Th7  1  0.233313  0.233313  0.250806  1
  Th  Th8  1  0.766687  0.000000  0.250806  1
  Th  Th9  1  0.000000  0.766687  0.250806  1
  Si  Si10  1  0.401246  0.401246  0.746402  1
  Si  Si11  1  0.598754  0.000000  0.746402  1
  Si  Si12  1  0.000000  0.598754  0.746402  1
  Si  Si13  1  0.598754  0.598754  0.253598  1
  Si  Si14  1  0.401246  0.000000  0.253598  1
  Si  Si15  1  0.000000  0.401246  0.253598  1
  C  C16  1  0.000000  0.000000  0.000000  1
  C  C17  1  0.000000  0.000000  0.500000  1
