# generated using pymatgen
data_Zr4Si4Ir3Ru
_symmetry_space_group_name_H-M   'P 1'
_cell_length_a   4.00460300
_cell_length_b   6.57055993
_cell_length_c   7.44217122
_cell_angle_alpha   90.19909238
_cell_angle_beta   90.00000000
_cell_angle_gamma   90.00000000
_symmetry_Int_Tables_number   1
_chemical_formula_structural   Zr4Si4Ir3Ru
_chemical_formula_sum   'Zr4 Si4 Ir3 Ru1'
_cell_volume   195.82082893
_cell_formula_units_Z   1
loop_
 _symmetry_equiv_pos_site_id
 _symmetry_equiv_pos_as_xyz
  1  'x, y, z'
loop_
 _atom_site_type_symbol
 _atom_site_label
 _atom_site_symmetry_multiplicity
 _atom_site_fract_x
 _atom_site_fract_y
 _atom_site_fract_z
 _atom_site_occupancy
  Zr  Zr0  1  0.250000  0.018881  0.318458  1
  Zr  Zr1  1  0.250000  0.514422  0.182743  1
  Zr  Zr2  1  0.750000  0.985312  0.682619  1
  Zr  Zr3  1  0.750000  0.482903  0.816346  1
  Si  Si4  1  0.250000  0.280140  0.621892  1
  Si  Si5  1  0.250000  0.782341  0.880880  1
  Si  Si6  1  0.750000  0.721399  0.381167  1
  Si  Si7  1  0.750000  0.217353  0.116226  1
  Ir  Ir8  1  0.250000  0.653330  0.563857  1
  Ir  Ir9  1  0.750000  0.843905  0.064055  1
  Ir  Ir10  1  0.750000  0.347302  0.434789  1
  Ru  Ru11  1  0.250000  0.152715  0.936969  1
