# generated using pymatgen
data_BaMnFeMo(PO4)3
_symmetry_space_group_name_H-M   'P 1'
_cell_length_a   9.42516720
_cell_length_b   9.42516745
_cell_length_c   9.42516800
_cell_angle_alpha   138.15798944
_cell_angle_beta   108.32619345
_cell_angle_gamma   86.59384424
_symmetry_Int_Tables_number   1
_chemical_formula_structural   BaMnFeMo(PO4)3
_chemical_formula_sum   'Ba2 Mn2 Fe2 Mo2 P6 O24'
_cell_volume   509.59261371
_cell_formula_units_Z   2
loop_
 _symmetry_equiv_pos_site_id
 _symmetry_equiv_pos_as_xyz
  1  'x, y, z'
loop_
 _atom_site_type_symbol
 _atom_site_label
 _atom_site_symmetry_multiplicity
 _atom_site_fract_x
 _atom_site_fract_y
 _atom_site_fract_z
 _atom_site_occupancy
  Ba  Ba0  1  0.749938  0.145539  0.395477  1
  Ba  Ba1  1  0.250062  0.854461  0.604523  1
  Mn  Mn2  1  0.616563  0.616563  0.500000  1
  Mn  Mn3  1  0.383437  0.383437  0.500000  1
  Fe  Fe4  1  0.117772  0.617772  0.000000  1
  Fe  Fe5  1  0.882228  0.382228  0.000000  1
  Mo  Mo6  1  0.000000  0.000000  0.000000  1
  Mo  Mo7  1  0.500000  0.500000  0.000000  1
  P  P8  1  0.323480  0.823480  0.000000  1
  P  P9  1  0.752238  0.648901  0.901138  1
  P  P10  1  0.175167  0.175167  0.500000  1
  P  P11  1  0.676520  0.176520  0.000000  1
  P  P12  1  0.247762  0.351099  0.098862  1
  P  P13  1  0.824833  0.824833  0.500000  1
  O  O14  1  0.581278  0.932754  0.786151  1
  O  O15  1  0.082679  0.297394  0.653334  1
  O  O16  1  0.841437  0.874586  0.033607  1
  O  O17  1  0.353399  0.704873  0.786151  1
  O  O18  1  0.140369  0.212189  0.355577  1
  O  O19  1  0.340980  0.307830  0.966393  1
  O  O20  1  0.643389  0.715209  0.355577  1
  O  O21  1  0.859631  0.787811  0.644423  1
  O  O22  1  0.361223  0.489833  0.351056  1
  O  O23  1  0.144060  0.929346  0.346666  1
  O  O24  1  0.643641  0.288834  0.930752  1
  O  O25  1  0.638777  0.510167  0.648944  1
  O  O26  1  0.858081  0.212889  0.069248  1
  O  O27  1  0.855940  0.070654  0.653334  1
  O  O28  1  0.356359  0.711166  0.069248  1
  O  O29  1  0.356611  0.284791  0.644423  1
  O  O30  1  0.659020  0.692170  0.033607  1
  O  O31  1  0.917321  0.702606  0.346666  1
  O  O32  1  0.158563  0.125413  0.966393  1
  O  O33  1  0.866375  0.512538  0.878913  1
  O  O34  1  0.133625  0.487462  0.121087  1
  O  O35  1  0.141919  0.787111  0.930752  1
  O  O36  1  0.646601  0.295127  0.213849  1
  O  O37  1  0.418722  0.067246  0.213849  1
