# generated using pymatgen
data_Ce3Al2SnPd2Rh
_symmetry_space_group_name_H-M   'P 1'
_cell_length_a   7.27764385
_cell_length_b   7.42489859
_cell_length_c   4.11505900
_cell_angle_alpha   90.00000000
_cell_angle_beta   90.00000000
_cell_angle_gamma   120.58333158
_symmetry_Int_Tables_number   1
_chemical_formula_structural   Ce3Al2SnPd2Rh
_chemical_formula_sum   'Ce3 Al2 Sn1 Pd2 Rh1'
_cell_volume   191.42783812
_cell_formula_units_Z   1
loop_
 _symmetry_equiv_pos_site_id
 _symmetry_equiv_pos_as_xyz
  1  'x, y, z'
loop_
 _atom_site_type_symbol
 _atom_site_label
 _atom_site_symmetry_multiplicity
 _atom_site_fract_x
 _atom_site_fract_y
 _atom_site_fract_z
 _atom_site_occupancy
  Ce  Ce0  1  0.007091  0.586562  0.500000  1
  Ce  Ce1  1  0.422075  0.426162  0.500000  1
  Ce  Ce2  1  0.571570  0.989886  0.500000  1
  Al  Al3  1  0.757546  0.758543  0.000000  1
  Al  Al4  1  0.240102  0.995569  0.000000  1
  Sn  Sn5  1  0.001042  0.241628  0.000000  1
  Pd  Pd6  1  0.000210  0.977465  0.500000  1
  Pd  Pd7  1  0.655961  0.339085  0.000000  1
  Rh  Rh8  1  0.344404  0.685100  0.000000  1
