# generated using pymatgen
data_Ho10IrRh5
_symmetry_space_group_name_H-M   'P 1'
_cell_length_a   10.85339416
_cell_length_b   10.85386600
_cell_length_c   6.33877200
_cell_angle_alpha   90.00000000
_cell_angle_beta   90.00810470
_cell_angle_gamma   90.00000000
_symmetry_Int_Tables_number   1
_chemical_formula_structural   Ho10IrRh5
_chemical_formula_sum   'Ho20 Ir2 Rh10'
_cell_volume   746.71548524
_cell_formula_units_Z   2
loop_
 _symmetry_equiv_pos_site_id
 _symmetry_equiv_pos_as_xyz
  1  'x, y, z'
loop_
 _atom_site_type_symbol
 _atom_site_label
 _atom_site_symmetry_multiplicity
 _atom_site_fract_x
 _atom_site_fract_y
 _atom_site_fract_z
 _atom_site_occupancy
  Ho  Ho0  1  0.290941  0.089573  0.377765  1
  Ho  Ho1  1  0.290941  0.910427  0.877765  1
  Ho  Ho2  1  0.709099  0.088243  0.877609  1
  Ho  Ho3  1  0.709099  0.911757  0.377609  1
  Ho  Ho4  1  0.586951  0.790219  0.877734  1
  Ho  Ho5  1  0.586951  0.209781  0.377734  1
  Ho  Ho6  1  0.411233  0.790371  0.378509  1
  Ho  Ho7  1  0.411233  0.209629  0.878509  1
  Ho  Ho8  1  0.210330  0.412714  0.621654  1
  Ho  Ho9  1  0.210330  0.587286  0.121654  1
  Ho  Ho10  1  0.790944  0.411542  0.122039  1
  Ho  Ho11  1  0.790944  0.588458  0.622039  1
  Ho  Ho12  1  0.911845  0.709252  0.122228  1
  Ho  Ho13  1  0.911845  0.290748  0.622228  1
  Ho  Ho14  1  0.089744  0.708893  0.622437  1
  Ho  Ho15  1  0.089744  0.291107  0.122437  1
  Ho  Ho16  1  0.999909  0.999791  0.500023  1
  Ho  Ho17  1  0.999909  0.000209  0.000023  1
  Ho  Ho18  1  0.499694  0.499811  0.999977  1
  Ho  Ho19  1  0.499694  0.500189  0.499977  1
  Ir  Ir20  1  0.345920  0.345262  0.249937  1
  Ir  Ir21  1  0.345920  0.654738  0.749937  1
  Rh  Rh22  1  0.845584  0.154081  0.250160  1
  Rh  Rh23  1  0.845584  0.845919  0.750160  1
  Rh  Rh24  1  0.153376  0.153672  0.749790  1
  Rh  Rh25  1  0.153376  0.846328  0.249790  1
  Rh  Rh26  1  0.654972  0.345648  0.750144  1
  Rh  Rh27  1  0.654972  0.654352  0.250144  1
  Rh  Rh28  1  0.500566  0.999788  0.122996  1
  Rh  Rh29  1  0.500566  0.000212  0.622996  1
  Rh  Rh30  1  0.998894  0.499905  0.876999  1
  Rh  Rh31  1  0.998894  0.500095  0.376999  1
