# generated using pymatgen
data_Sc7Ta(Fe3Si4)4
_symmetry_space_group_name_H-M   'P 1'
_cell_length_a   9.66724683
_cell_length_b   9.66721538
_cell_length_c   12.92841200
_cell_angle_alpha   53.06104768
_cell_angle_beta   53.02906588
_cell_angle_gamma   30.68961586
_symmetry_Int_Tables_number   1
_chemical_formula_structural   Sc7Ta(Fe3Si4)4
_chemical_formula_sum   'Sc7 Ta1 Fe12 Si16'
_cell_volume   482.16635335
_cell_formula_units_Z   1
loop_
 _symmetry_equiv_pos_site_id
 _symmetry_equiv_pos_as_xyz
  1  'x, y, z'
loop_
 _atom_site_type_symbol
 _atom_site_label
 _atom_site_symmetry_multiplicity
 _atom_site_fract_x
 _atom_site_fract_y
 _atom_site_fract_z
 _atom_site_occupancy
  Sc  Sc0  1  0.294060  0.565446  0.642454  1
  Sc  Sc1  1  0.432490  0.708179  0.858272  1
  Sc  Sc2  1  0.705851  0.435722  0.356046  1
  Sc  Sc3  1  0.568810  0.291882  0.142474  1
  Sc  Sc4  1  0.035581  0.292132  0.643287  1
  Sc  Sc5  1  0.706774  0.963229  0.857415  1
  Sc  Sc6  1  0.965346  0.708148  0.356192  1
  Ta  Ta7  1  0.297601  0.039875  0.136949  1
  Fe  Fe8  1  0.646339  0.832196  0.277226  1
  Fe  Fe9  1  0.165389  0.350344  0.220250  1
  Fe  Fe10  1  0.758806  0.481999  0.069445  1
  Fe  Fe11  1  0.831237  0.648747  0.779282  1
  Fe  Fe12  1  0.897676  0.141250  0.585534  1
  Fe  Fe13  1  0.858075  0.103116  0.914131  1
  Fe  Fe14  1  0.104867  0.857925  0.413902  1
  Fe  Fe15  1  0.142749  0.897059  0.086722  1
  Fe  Fe16  1  0.235733  0.514149  0.936434  1
  Fe  Fe17  1  0.492387  0.752567  0.565280  1
  Fe  Fe18  1  0.507425  0.247430  0.434521  1
  Fe  Fe19  1  0.352684  0.168016  0.723720  1
  Si  Si20  1  0.881792  0.120861  0.250258  1
  Si  Si21  1  0.121941  0.877710  0.749986  1
  Si  Si22  1  0.381897  0.622452  0.248802  1
  Si  Si23  1  0.617981  0.379579  0.751355  1
  Si  Si24  1  0.970090  0.257128  0.895494  1
  Si  Si25  1  0.744042  0.030965  0.604045  1
  Si  Si26  1  0.030226  0.741890  0.104813  1
  Si  Si27  1  0.255235  0.971299  0.392886  1
  Si  Si28  1  0.568004  0.093715  0.064907  1
  Si  Si29  1  0.909472  0.430546  0.433224  1
  Si  Si30  1  0.433270  0.906089  0.936616  1
  Si  Si31  1  0.090691  0.569468  0.566951  1
  Si  Si32  1  0.392781  0.135003  0.395153  1
  Si  Si33  1  0.859304  0.607893  0.104904  1
  Si  Si34  1  0.607047  0.865441  0.604712  1
  Si  Si35  1  0.136347  0.390552  0.896354  1
