# generated using pymatgen
data_Be8Fe3Ni(Mo6C)2
_symmetry_space_group_name_H-M   'P 1'
_cell_length_a   7.55463489
_cell_length_b   7.55463465
_cell_length_c   7.55463402
_cell_angle_alpha   60.00601944
_cell_angle_beta   60.00601851
_cell_angle_gamma   60.00602560
_symmetry_Int_Tables_number   1
_chemical_formula_structural   Be8Fe3Ni(Mo6C)2
_chemical_formula_sum   'Be8 Fe3 Ni1 Mo12 C2'
_cell_volume   304.91912126
_cell_formula_units_Z   1
loop_
 _symmetry_equiv_pos_site_id
 _symmetry_equiv_pos_as_xyz
  1  'x, y, z'
loop_
 _atom_site_type_symbol
 _atom_site_label
 _atom_site_symmetry_multiplicity
 _atom_site_fract_x
 _atom_site_fract_y
 _atom_site_fract_z
 _atom_site_occupancy
  Be  Be0  1  0.328921  0.328921  0.013387  1
  Be  Be1  1  0.327759  0.327759  0.327759  1
  Be  Be2  1  0.236613  0.921079  0.921079  1
  Be  Be3  1  0.922241  0.922241  0.922241  1
  Be  Be4  1  0.013387  0.328921  0.328921  1
  Be  Be5  1  0.328921  0.013387  0.328921  1
  Be  Be6  1  0.921079  0.921079  0.236613  1
  Be  Be7  1  0.921079  0.236613  0.921079  1
  Fe  Fe8  1  0.125000  0.625000  0.125000  1
  Fe  Fe9  1  0.125000  0.125000  0.625000  1
  Fe  Fe10  1  0.625000  0.125000  0.125000  1
  Ni  Ni11  1  0.125000  0.125000  0.125000  1
  Mo  Mo12  1  0.298698  0.701665  0.701665  1
  Mo  Mo13  1  0.701665  0.701665  0.298698  1
  Mo  Mo14  1  0.701665  0.298698  0.701665  1
  Mo  Mo15  1  0.299963  0.697686  0.299963  1
  Mo  Mo16  1  0.548335  0.951302  0.548335  1
  Mo  Mo17  1  0.552314  0.950037  0.950037  1
  Mo  Mo18  1  0.951302  0.548335  0.548335  1
  Mo  Mo19  1  0.950037  0.552314  0.950037  1
  Mo  Mo20  1  0.299963  0.299963  0.697686  1
  Mo  Mo21  1  0.548335  0.548335  0.951302  1
  Mo  Mo22  1  0.950037  0.950037  0.552314  1
  Mo  Mo23  1  0.697686  0.299963  0.299963  1
  C  C24  1  0.500249  0.500249  0.500249  1
  C  C25  1  0.749751  0.749751  0.749751  1
