# generated using pymatgen
data_Ba2Na2SrP4
_symmetry_space_group_name_H-M   'P 1'
_cell_length_a   7.58251300
_cell_length_b   8.23495901
_cell_length_c   17.84032398
_cell_angle_alpha   62.28364316
_cell_angle_beta   90.00000000
_cell_angle_gamma   90.00000000
_symmetry_Int_Tables_number   1
_chemical_formula_structural   Ba2Na2SrP4
_chemical_formula_sum   'Ba8 Na8 Sr4 P16'
_cell_volume   986.16280433
_cell_formula_units_Z   4
loop_
 _symmetry_equiv_pos_site_id
 _symmetry_equiv_pos_as_xyz
  1  'x, y, z'
loop_
 _atom_site_type_symbol
 _atom_site_label
 _atom_site_symmetry_multiplicity
 _atom_site_fract_x
 _atom_site_fract_y
 _atom_site_fract_z
 _atom_site_occupancy
  Ba  Ba0  1  0.536890  0.586189  0.101659  1
  Ba  Ba1  1  0.036890  0.413811  0.398341  1
  Ba  Ba2  1  0.463598  0.714101  0.601309  1
  Ba  Ba3  1  0.963598  0.285899  0.898691  1
  Ba  Ba4  1  0.463110  0.413811  0.898341  1
  Ba  Ba5  1  0.963110  0.586189  0.601659  1
  Ba  Ba6  1  0.536402  0.285899  0.398691  1
  Ba  Ba7  1  0.036402  0.714101  0.101309  1
  Na  Na8  1  0.863594  0.256291  0.250401  1
  Na  Na9  1  0.363594  0.743709  0.249599  1
  Na  Na10  1  0.136406  0.743709  0.749599  1
  Na  Na11  1  0.636406  0.256291  0.750401  1
  Na  Na12  1  0.684202  0.056292  0.123314  1
  Na  Na13  1  0.184202  0.943708  0.376686  1
  Na  Na14  1  0.315798  0.943708  0.876686  1
  Na  Na15  1  0.815798  0.056292  0.623314  1
  Sr  Sr16  1  0.317978  0.184353  0.627642  1
  Sr  Sr17  1  0.817978  0.815647  0.872358  1
  Sr  Sr18  1  0.682022  0.815647  0.372358  1
  Sr  Sr19  1  0.182022  0.184353  0.127642  1
  P  P20  1  0.870111  0.439778  0.033922  1
  P  P21  1  0.370111  0.560222  0.466078  1
  P  P22  1  0.127694  0.995603  0.535254  1
  P  P23  1  0.627694  0.004397  0.964746  1
  P  P24  1  0.129889  0.560222  0.966078  1
  P  P25  1  0.629889  0.439778  0.533922  1
  P  P26  1  0.872306  0.004397  0.464746  1
  P  P27  1  0.372306  0.995603  0.035254  1
  P  P28  1  0.972047  0.840718  0.247979  1
  P  P29  1  0.472047  0.159282  0.252021  1
  P  P30  1  0.027953  0.159282  0.752021  1
  P  P31  1  0.527953  0.840718  0.747979  1
  P  P32  1  0.754219  0.644421  0.251555  1
  P  P33  1  0.254219  0.355579  0.248445  1
  P  P34  1  0.245781  0.355579  0.748445  1
  P  P35  1  0.745781  0.644421  0.751555  1
