# generated using pymatgen
data_YEr5Al24IrRu7
_symmetry_space_group_name_H-M   'P 1'
_cell_length_a   8.77822600
_cell_length_b   8.77435672
_cell_length_c   9.57661867
_cell_angle_alpha   90.07402512
_cell_angle_beta   90.00000000
_cell_angle_gamma   120.01458088
_symmetry_Int_Tables_number   1
_chemical_formula_structural   YEr5Al24IrRu7
_chemical_formula_sum   'Y1 Er5 Al24 Ir1 Ru7'
_cell_volume   638.70535789
_cell_formula_units_Z   1
loop_
 _symmetry_equiv_pos_site_id
 _symmetry_equiv_pos_as_xyz
  1  'x, y, z'
loop_
 _atom_site_type_symbol
 _atom_site_label
 _atom_site_symmetry_multiplicity
 _atom_site_fract_x
 _atom_site_fract_y
 _atom_site_fract_z
 _atom_site_occupancy
  Y  Y0  1  0.192750  0.385498  0.249890  1
  Er  Er1  1  0.806226  0.612452  0.750207  1
  Er  Er2  1  0.612663  0.806100  0.250360  1
  Er  Er3  1  0.387254  0.194166  0.749629  1
  Er  Er4  1  0.193435  0.806100  0.250360  1
  Er  Er5  1  0.806911  0.194166  0.749629  1
  Al  Al6  1  0.332598  0.665196  0.019087  1
  Al  Al7  1  0.667546  0.335093  0.979888  1
  Al  Al8  1  0.666742  0.333484  0.520023  1
  Al  Al9  1  0.333396  0.666792  0.480965  1
  Al  Al10  1  0.163010  0.326021  0.578029  1
  Al  Al11  1  0.837078  0.674155  0.422938  1
  Al  Al12  1  0.674308  0.837513  0.577438  1
  Al  Al13  1  0.837324  0.674648  0.077024  1
  Al  Al14  1  0.326233  0.162473  0.423184  1
  Al  Al15  1  0.162771  0.325541  0.921995  1
  Al  Al16  1  0.163204  0.837513  0.577438  1
  Al  Al17  1  0.325610  0.163248  0.076817  1
  Al  Al18  1  0.836240  0.162473  0.423184  1
  Al  Al19  1  0.674919  0.836739  0.922547  1
  Al  Al20  1  0.837639  0.163248  0.076817  1
  Al  Al21  1  0.161820  0.836739  0.922547  1
  Al  Al22  1  0.561822  0.123643  0.251165  1
  Al  Al23  1  0.438337  0.876673  0.748844  1
  Al  Al24  1  0.876464  0.438270  0.249923  1
  Al  Al25  1  0.123090  0.562078  0.750077  1
  Al  Al26  1  0.561808  0.438270  0.249923  1
  Al  Al27  1  0.438987  0.562078  0.750077  1
  Al  Al28  1  0.998505  0.997010  0.249881  1
  Al  Al29  1  0.000302  0.000603  0.750119  1
  Ir  Ir30  1  0.500066  0.000131  0.999934  1
  Ru  Ru31  1  0.999781  0.500257  0.999635  1
  Ru  Ru32  1  0.500055  0.000110  0.500075  1
  Ru  Ru33  1  0.500476  0.500257  0.999635  1
  Ru  Ru34  1  0.999802  0.500267  0.500360  1
  Ru  Ru35  1  0.500465  0.500267  0.500360  1
  Ru  Ru36  1  0.000178  0.000358  0.000037  1
  Ru  Ru37  1  0.000186  0.000373  0.499957  1
