# generated using pymatgen
data_ZrSc21FeOs7
_symmetry_space_group_name_H-M   'P 1'
_cell_length_a   9.39960811
_cell_length_b   9.39960791
_cell_length_c   9.39960742
_cell_angle_alpha   60.56465396
_cell_angle_beta   60.56465695
_cell_angle_gamma   60.56465173
_symmetry_Int_Tables_number   1
_chemical_formula_structural   ZrSc21FeOs7
_chemical_formula_sum   'Zr1 Sc21 Fe1 Os7'
_cell_volume   594.72871675
_cell_formula_units_Z   1
loop_
 _symmetry_equiv_pos_site_id
 _symmetry_equiv_pos_as_xyz
  1  'x, y, z'
loop_
 _atom_site_type_symbol
 _atom_site_label
 _atom_site_symmetry_multiplicity
 _atom_site_fract_x
 _atom_site_fract_y
 _atom_site_fract_z
 _atom_site_occupancy
  Zr  Zr0  1  0.842251  0.842251  0.842251  1
  Sc  Sc1  1  0.532185  0.155341  0.155341  1
  Sc  Sc2  1  0.155341  0.155341  0.532185  1
  Sc  Sc3  1  0.155341  0.532185  0.155341  1
  Sc  Sc4  1  0.845019  0.845019  0.467981  1
  Sc  Sc5  1  0.845019  0.467981  0.845019  1
  Sc  Sc6  1  0.467981  0.845019  0.845019  1
  Sc  Sc7  1  0.158003  0.158003  0.158003  1
  Sc  Sc8  1  0.198598  0.802323  0.198598  1
  Sc  Sc9  1  0.201231  0.800236  0.800236  1
  Sc  Sc10  1  0.802323  0.198598  0.198598  1
  Sc  Sc11  1  0.800236  0.800236  0.201231  1
  Sc  Sc12  1  0.198598  0.198598  0.802323  1
  Sc  Sc13  1  0.800236  0.201231  0.800236  1
  Sc  Sc14  1  0.383154  0.383154  0.383154  1
  Sc  Sc15  1  0.156445  0.612298  0.612298  1
  Sc  Sc16  1  0.612298  0.156445  0.612298  1
  Sc  Sc17  1  0.612298  0.612298  0.156445  1
  Sc  Sc18  1  0.387032  0.844575  0.387032  1
  Sc  Sc19  1  0.387032  0.387032  0.844575  1
  Sc  Sc20  1  0.844575  0.387032  0.387032  1
  Sc  Sc21  1  0.616728  0.616728  0.616728  1
  Fe  Fe22  1  0.499904  0.499904  0.499904  1
  Os  Os23  1  0.499860  0.499860  0.999349  1
  Os  Os24  1  0.998504  0.998504  0.502478  1
  Os  Os25  1  0.499860  0.999349  0.499860  1
  Os  Os26  1  0.999349  0.499860  0.499860  1
  Os  Os27  1  0.502478  0.998504  0.998504  1
  Os  Os28  1  0.998504  0.502478  0.998504  1
  Os  Os29  1  0.999617  0.999617  0.999617  1
