# generated using pymatgen
data_Tb8ReOsI8
_symmetry_space_group_name_H-M   'P 1'
_cell_length_a   11.33861748
_cell_length_b   11.33857205
_cell_length_c   6.22486700
_cell_angle_alpha   90.00507102
_cell_angle_beta   90.00539881
_cell_angle_gamma   89.97425385
_symmetry_Int_Tables_number   1
_chemical_formula_structural   Tb8ReOsI8
_chemical_formula_sum   'Tb8 Re1 Os1 I8'
_cell_volume   800.29204054
_cell_formula_units_Z   1
loop_
 _symmetry_equiv_pos_site_id
 _symmetry_equiv_pos_as_xyz
  1  'x, y, z'
loop_
 _atom_site_type_symbol
 _atom_site_label
 _atom_site_symmetry_multiplicity
 _atom_site_fract_x
 _atom_site_fract_y
 _atom_site_fract_z
 _atom_site_occupancy
  Tb  Tb0  1  0.800441  0.082016  0.000719  1
  Tb  Tb1  1  0.082017  0.800439  0.500015  1
  Tb  Tb2  1  0.081774  0.199272  0.000623  1
  Tb  Tb3  1  0.199268  0.081782  0.499955  1
  Tb  Tb4  1  0.918218  0.800734  0.000046  1
  Tb  Tb5  1  0.917984  0.199558  0.499281  1
  Tb  Tb6  1  0.199561  0.917982  0.999984  1
  Tb  Tb7  1  0.800726  0.918225  0.499377  1
  Re  Re8  1  0.000058  0.999944  0.250000  1
  Os  Os9  1  0.999943  0.000057  0.749999  1
  I  I10  1  0.643040  0.149961  0.496910  1
  I  I11  1  0.850371  0.643115  0.503158  1
  I  I12  1  0.356885  0.149628  0.996842  1
  I  I13  1  0.149633  0.356883  0.496882  1
  I  I14  1  0.643117  0.850367  0.003117  1
  I  I15  1  0.356962  0.850040  0.503137  1
  I  I16  1  0.149961  0.643038  0.996863  1
  I  I17  1  0.850039  0.356960  0.003090  1
