# generated using pymatgen
data_Ac3Er6ThSn8
_symmetry_space_group_name_H-M   'P 1'
_cell_length_a   8.29633700
_cell_length_b   8.37357123
_cell_length_c   15.82064785
_cell_angle_alpha   90.16142936
_cell_angle_beta   90.00000000
_cell_angle_gamma   90.00000000
_symmetry_Int_Tables_number   1
_chemical_formula_structural   Ac3Er6ThSn8
_chemical_formula_sum   'Ac6 Er12 Th2 Sn16'
_cell_volume   1099.05555043
_cell_formula_units_Z   2
loop_
 _symmetry_equiv_pos_site_id
 _symmetry_equiv_pos_as_xyz
  1  'x, y, z'
loop_
 _atom_site_type_symbol
 _atom_site_label
 _atom_site_symmetry_multiplicity
 _atom_site_fract_x
 _atom_site_fract_y
 _atom_site_fract_z
 _atom_site_occupancy
  Ac  Ac0  1  0.517971  0.322103  0.903968  1
  Ac  Ac1  1  0.017971  0.177897  0.596032  1
  Ac  Ac2  1  0.483035  0.676529  0.405092  1
  Ac  Ac3  1  0.983035  0.823471  0.094908  1
  Ac  Ac4  1  0.484605  0.677677  0.094454  1
  Ac  Ac5  1  0.984605  0.822323  0.405546  1
  Er  Er6  1  0.359709  0.838090  0.874840  1
  Er  Er7  1  0.859709  0.661910  0.625160  1
  Er  Er8  1  0.637985  0.163862  0.376506  1
  Er  Er9  1  0.137985  0.336138  0.123494  1
  Er  Er10  1  0.639717  0.161012  0.123354  1
  Er  Er11  1  0.139717  0.338988  0.376646  1
  Er  Er12  1  0.359240  0.837774  0.625003  1
  Er  Er13  1  0.859240  0.662226  0.874997  1
  Er  Er14  1  0.192484  0.503220  0.750453  1
  Er  Er15  1  0.692484  0.996780  0.749547  1
  Er  Er16  1  0.806096  0.494203  0.250388  1
  Er  Er17  1  0.306096  0.005797  0.249612  1
  Th  Th18  1  0.518913  0.321624  0.599032  1
  Th  Th19  1  0.018913  0.178376  0.900968  1
  Sn  Sn20  1  0.299813  0.047869  0.039506  1
  Sn  Sn21  1  0.799813  0.452131  0.460494  1
  Sn  Sn22  1  0.689300  0.961766  0.546116  1
  Sn  Sn23  1  0.189300  0.538234  0.953884  1
  Sn  Sn24  1  0.701163  0.961643  0.953012  1
  Sn  Sn25  1  0.201163  0.538357  0.546988  1
  Sn  Sn26  1  0.310475  0.049308  0.458445  1
  Sn  Sn27  1  0.810475  0.450692  0.041555  1
  Sn  Sn28  1  0.556722  0.628063  0.747716  1
  Sn  Sn29  1  0.056722  0.871937  0.752284  1
  Sn  Sn30  1  0.442035  0.366987  0.249362  1
  Sn  Sn31  1  0.942035  0.133013  0.250638  1
  Sn  Sn32  1  0.325499  0.140420  0.748863  1
  Sn  Sn33  1  0.825499  0.359580  0.751137  1
  Sn  Sn34  1  0.675237  0.864345  0.250046  1
  Sn  Sn35  1  0.175237  0.635655  0.249954  1
