# generated using pymatgen
data_Tb3CeCdHgPt4
_symmetry_space_group_name_H-M   'P 1'
_cell_length_a   7.80844075
_cell_length_b   7.80789650
_cell_length_c   3.71843500
_cell_angle_alpha   90.00000000
_cell_angle_beta   90.00000000
_cell_angle_gamma   90.72116164
_symmetry_Int_Tables_number   1
_chemical_formula_structural   Tb3CeCdHgPt4
_chemical_formula_sum   'Tb3 Ce1 Cd1 Hg1 Pt4'
_cell_volume   226.68571805
_cell_formula_units_Z   1
loop_
 _symmetry_equiv_pos_site_id
 _symmetry_equiv_pos_as_xyz
  1  'x, y, z'
loop_
 _atom_site_type_symbol
 _atom_site_label
 _atom_site_symmetry_multiplicity
 _atom_site_fract_x
 _atom_site_fract_y
 _atom_site_fract_z
 _atom_site_occupancy
  Tb  Tb0  1  0.176944  0.343125  0.500000  1
  Tb  Tb1  1  0.339321  0.821130  0.500000  1
  Tb  Tb2  1  0.822807  0.659664  0.500000  1
  Ce  Ce3  1  0.661248  0.174577  0.500000  1
  Cd  Cd4  1  0.005787  0.999020  0.000000  1
  Hg  Hg5  1  0.498967  0.504471  0.000000  1
  Pt  Pt6  1  0.640676  0.879612  0.000000  1
  Pt  Pt7  1  0.117309  0.638139  0.000000  1
  Pt  Pt8  1  0.873589  0.355301  0.000000  1
  Pt  Pt9  1  0.363352  0.124960  0.000000  1
