# generated using pymatgen
data_Tb8Dy8Sc4Si15Os
_symmetry_space_group_name_H-M   'P 1'
_cell_length_a   7.25511142
_cell_length_b   7.71484658
_cell_length_c   14.44936200
_cell_angle_alpha   90.00000000
_cell_angle_beta   90.00000000
_cell_angle_gamma   90.15222519
_symmetry_Int_Tables_number   1
_chemical_formula_structural   Tb8Dy8Sc4Si15Os
_chemical_formula_sum   'Tb8 Dy8 Sc4 Si15 Os1'
_cell_volume   808.75786965
_cell_formula_units_Z   1
loop_
 _symmetry_equiv_pos_site_id
 _symmetry_equiv_pos_as_xyz
  1  'x, y, z'
loop_
 _atom_site_type_symbol
 _atom_site_label
 _atom_site_symmetry_multiplicity
 _atom_site_fract_x
 _atom_site_fract_y
 _atom_site_fract_z
 _atom_site_occupancy
  Tb  Tb0  1  0.016723  0.184134  0.096851  1
  Tb  Tb1  1  0.986124  0.825022  0.902189  1
  Tb  Tb2  1  0.483712  0.682625  0.903703  1
  Tb  Tb3  1  0.986124  0.825022  0.597811  1
  Tb  Tb4  1  0.516594  0.318197  0.097203  1
  Tb  Tb5  1  0.016723  0.184134  0.403149  1
  Tb  Tb6  1  0.516594  0.318197  0.402797  1
  Tb  Tb7  1  0.483712  0.682625  0.596297  1
  Dy  Dy8  1  0.313550  0.173204  0.628527  1
  Dy  Dy9  1  0.676547  0.823709  0.373758  1
  Dy  Dy10  1  0.175658  0.679757  0.374124  1
  Dy  Dy11  1  0.676547  0.823709  0.126242  1
  Dy  Dy12  1  0.832335  0.316470  0.627984  1
  Dy  Dy13  1  0.313550  0.173204  0.871473  1
  Dy  Dy14  1  0.832335  0.316470  0.872016  1
  Dy  Dy15  1  0.175658  0.679757  0.125876  1
  Sc  Sc16  1  0.156371  0.513113  0.750000  1
  Sc  Sc17  1  0.840980  0.484364  0.250000  1
  Sc  Sc18  1  0.341468  0.017917  0.250000  1
  Sc  Sc19  1  0.669795  0.985321  0.750000  1
  Si  Si20  1  0.978037  0.906351  0.250000  1
  Si  Si21  1  0.478828  0.594773  0.250000  1
  Si  Si22  1  0.520837  0.406822  0.750000  1
  Si  Si23  1  0.281271  0.858742  0.750000  1
  Si  Si24  1  0.717121  0.136381  0.250000  1
  Si  Si25  1  0.218439  0.365515  0.250000  1
  Si  Si26  1  0.774641  0.630706  0.750000  1
  Si  Si27  1  0.156230  0.472433  0.538424  1
  Si  Si28  1  0.846856  0.530101  0.460716  1
  Si  Si29  1  0.346823  0.971167  0.459932  1
  Si  Si30  1  0.846856  0.530101  0.039284  1
  Si  Si31  1  0.650747  0.030501  0.538787  1
  Si  Si32  1  0.156230  0.472433  0.961576  1
  Si  Si33  1  0.650747  0.030501  0.961213  1
  Si  Si34  1  0.346823  0.971167  0.040068  1
  Os  Os35  1  0.018415  0.085354  0.750000  1
