# generated using pymatgen
data_Sr3P6Os5Ru
_symmetry_space_group_name_H-M   'P 1'
_cell_length_a   8.57197312
_cell_length_b   8.57872176
_cell_length_c   8.57872362
_cell_angle_alpha   152.34396494
_cell_angle_beta   97.42000448
_cell_angle_gamma   89.15189309
_symmetry_Int_Tables_number   1
_chemical_formula_structural   Sr3P6Os5Ru
_chemical_formula_sum   'Sr3 P6 Os5 Ru1'
_cell_volume   283.48714078
_cell_formula_units_Z   1
loop_
 _symmetry_equiv_pos_site_id
 _symmetry_equiv_pos_as_xyz
  1  'x, y, z'
loop_
 _atom_site_type_symbol
 _atom_site_label
 _atom_site_symmetry_multiplicity
 _atom_site_fract_x
 _atom_site_fract_y
 _atom_site_fract_z
 _atom_site_occupancy
  Sr  Sr0  1  0.332261  0.332670  0.999591  1
  Sr  Sr1  1  0.667433  0.667054  0.000379  1
  Sr  Sr2  1  0.999898  0.000278  0.999620  1
  P  P3  1  0.314421  0.666478  0.647943  1
  P  P4  1  0.685652  0.333679  0.351973  1
  P  P5  1  0.981752  0.333271  0.648482  1
  P  P6  1  0.352399  0.999902  0.352497  1
  P  P7  1  0.018008  0.666511  0.351497  1
  P  P8  1  0.648037  0.000144  0.647893  1
  Os  Os9  1  0.584541  0.833799  0.750740  1
  Os  Os10  1  0.251092  0.499692  0.751399  1
  Os  Os11  1  0.748793  0.500412  0.248380  1
  Os  Os12  1  0.081877  0.832827  0.249050  1
  Os  Os13  1  0.415404  0.166615  0.248790  1
  Ru  Ru14  1  0.918432  0.166666  0.751766  1
