# generated using pymatgen
data_AsPt2SeO10
_symmetry_space_group_name_H-M   'P 1'
_cell_length_a   4.94428400
_cell_length_b   8.75679098
_cell_length_c   9.27725294
_cell_angle_alpha   90.07558672
_cell_angle_beta   90.00000000
_cell_angle_gamma   90.00000000
_symmetry_Int_Tables_number   1
_chemical_formula_structural   AsPt2SeO10
_chemical_formula_sum   'As2 Pt4 Se2 O20'
_cell_volume   401.66816464
_cell_formula_units_Z   2
loop_
 _symmetry_equiv_pos_site_id
 _symmetry_equiv_pos_as_xyz
  1  'x, y, z'
loop_
 _atom_site_type_symbol
 _atom_site_label
 _atom_site_symmetry_multiplicity
 _atom_site_fract_x
 _atom_site_fract_y
 _atom_site_fract_z
 _atom_site_occupancy
  As  As0  1  0.102739  0.526445  0.786563  1
  As  As1  1  0.602739  0.973555  0.213437  1
  Pt  Pt2  1  0.888687  0.656322  0.099723  1
  Pt  Pt3  1  0.388687  0.843678  0.900277  1
  Pt  Pt4  1  0.112352  0.154848  0.398868  1
  Pt  Pt5  1  0.612352  0.345152  0.601132  1
  Se  Se6  1  0.897699  0.026114  0.712397  1
  Se  Se7  1  0.397699  0.473886  0.287603  1
  O  O8  1  0.067009  0.498255  0.971718  1
  O  O9  1  0.567009  0.001745  0.028282  1
  O  O10  1  0.942152  0.996045  0.530767  1
  O  O11  1  0.442152  0.503955  0.469233  1
  O  O12  1  0.223701  0.708158  0.746085  1
  O  O13  1  0.723701  0.791842  0.253915  1
  O  O14  1  0.771630  0.203543  0.754036  1
  O  O15  1  0.271630  0.296457  0.245964  1
  O  O16  1  0.918659  0.333958  0.469834  1
  O  O17  1  0.418659  0.166042  0.530166  1
  O  O18  1  0.092573  0.832779  0.035761  1
  O  O19  1  0.592573  0.667221  0.964239  1
  O  O20  1  0.196050  0.624325  0.253600  1
  O  O21  1  0.696050  0.875675  0.746400  1
  O  O22  1  0.800163  0.129760  0.256660  1
  O  O23  1  0.300163  0.370240  0.743340  1
  O  O24  1  0.687650  0.469380  0.190926  1
  O  O25  1  0.187650  0.030620  0.809074  1
  O  O26  1  0.298936  0.972072  0.307226  1
  O  O27  1  0.798936  0.527928  0.692774  1
