# generated using pymatgen
data_Th3ZnPd3Au2
_symmetry_space_group_name_H-M   'P 1'
_cell_length_a   7.58585200
_cell_length_b   7.77708213
_cell_length_c   3.83254500
_cell_angle_alpha   90.00000000
_cell_angle_beta   90.00000000
_cell_angle_gamma   119.18987585
_symmetry_Int_Tables_number   1
_chemical_formula_structural   Th3ZnPd3Au2
_chemical_formula_sum   'Th3 Zn1 Pd3 Au2'
_cell_volume   197.39069235
_cell_formula_units_Z   1
loop_
 _symmetry_equiv_pos_site_id
 _symmetry_equiv_pos_as_xyz
  1  'x, y, z'
loop_
 _atom_site_type_symbol
 _atom_site_label
 _atom_site_symmetry_multiplicity
 _atom_site_fract_x
 _atom_site_fract_y
 _atom_site_fract_z
 _atom_site_occupancy
  Th  Th0  1  0.006871  0.396595  0.000000  1
  Th  Th1  1  0.610277  0.603405  0.000000  1
  Th  Th2  1  0.383461  0.000000  0.000000  1
  Zn  Zn3  1  0.733765  0.000000  0.500000  1
  Pd  Pd4  1  0.973826  0.000000  0.000000  1
  Pd  Pd5  1  0.672078  0.318111  0.500000  1
  Pd  Pd6  1  0.353966  0.681889  0.500000  1
  Au  Au7  1  0.996792  0.727829  0.500000  1
  Au  Au8  1  0.268963  0.272171  0.500000  1
