# generated using pymatgen
data_TbCoP3Rh4
_symmetry_space_group_name_H-M   'P 1'
_cell_length_a   3.86264900
_cell_length_b   10.77285700
_cell_length_c   12.41964800
_cell_angle_alpha   90.00000000
_cell_angle_beta   90.00000000
_cell_angle_gamma   90.00000000
_symmetry_Int_Tables_number   1
_chemical_formula_structural   TbCoP3Rh4
_chemical_formula_sum   'Tb4 Co4 P12 Rh16'
_cell_volume   516.80347791
_cell_formula_units_Z   4
loop_
 _symmetry_equiv_pos_site_id
 _symmetry_equiv_pos_as_xyz
  1  'x, y, z'
loop_
 _atom_site_type_symbol
 _atom_site_label
 _atom_site_symmetry_multiplicity
 _atom_site_fract_x
 _atom_site_fract_y
 _atom_site_fract_z
 _atom_site_occupancy
  Tb  Tb0  1  0.250000  0.585151  0.707735  1
  Tb  Tb1  1  0.250000  0.914849  0.207735  1
  Tb  Tb2  1  0.750000  0.414849  0.292265  1
  Tb  Tb3  1  0.750000  0.085151  0.792265  1
  Co  Co4  1  0.250000  0.464023  0.934012  1
  Co  Co5  1  0.250000  0.035977  0.434012  1
  Co  Co6  1  0.750000  0.535977  0.065988  1
  Co  Co7  1  0.750000  0.964023  0.565988  1
  P  P8  1  0.250000  0.424013  0.105824  1
  P  P9  1  0.250000  0.075987  0.605824  1
  P  P10  1  0.750000  0.575987  0.894176  1
  P  P11  1  0.750000  0.924013  0.394176  1
  P  P12  1  0.250000  0.272486  0.872768  1
  P  P13  1  0.250000  0.227514  0.372768  1
  P  P14  1  0.750000  0.727514  0.127232  1
  P  P15  1  0.750000  0.772486  0.627232  1
  P  P16  1  0.250000  0.599865  0.388254  1
  P  P17  1  0.250000  0.900135  0.888254  1
  P  P18  1  0.750000  0.400135  0.611746  1
  P  P19  1  0.750000  0.099865  0.111746  1
  Rh  Rh20  1  0.250000  0.715845  0.987289  1
  Rh  Rh21  1  0.250000  0.784155  0.487289  1
  Rh  Rh22  1  0.750000  0.284155  0.012711  1
  Rh  Rh23  1  0.750000  0.215845  0.512711  1
  Rh  Rh24  1  0.250000  0.408181  0.480469  1
  Rh  Rh25  1  0.250000  0.091819  0.980469  1
  Rh  Rh26  1  0.750000  0.591819  0.519531  1
  Rh  Rh27  1  0.750000  0.908181  0.019531  1
  Rh  Rh28  1  0.250000  0.226915  0.178122  1
  Rh  Rh29  1  0.250000  0.273085  0.678122  1
  Rh  Rh30  1  0.750000  0.773085  0.821878  1
  Rh  Rh31  1  0.750000  0.726915  0.321878  1
  Rh  Rh32  1  0.250000  0.886229  0.698371  1
  Rh  Rh33  1  0.250000  0.613771  0.198371  1
  Rh  Rh34  1  0.750000  0.113771  0.301629  1
  Rh  Rh35  1  0.750000  0.386229  0.801629  1
