# generated using pymatgen
data_DyThTcC2
_symmetry_space_group_name_H-M   'P 1'
_cell_length_a   5.23772400
_cell_length_b   6.64229400
_cell_length_c   9.86171300
_cell_angle_alpha   90.00000000
_cell_angle_beta   90.00000000
_cell_angle_gamma   90.00000000
_symmetry_Int_Tables_number   1
_chemical_formula_structural   DyThTcC2
_chemical_formula_sum   'Dy4 Th4 Tc4 C8'
_cell_volume   343.09395274
_cell_formula_units_Z   4
loop_
 _symmetry_equiv_pos_site_id
 _symmetry_equiv_pos_as_xyz
  1  'x, y, z'
loop_
 _atom_site_type_symbol
 _atom_site_label
 _atom_site_symmetry_multiplicity
 _atom_site_fract_x
 _atom_site_fract_y
 _atom_site_fract_z
 _atom_site_occupancy
  Dy  Dy0  1  0.250000  0.825323  0.052653  1
  Dy  Dy1  1  0.750000  0.674677  0.552653  1
  Dy  Dy2  1  0.250000  0.325323  0.447347  1
  Dy  Dy3  1  0.750000  0.174677  0.947347  1
  Th  Th4  1  0.250000  0.471389  0.786486  1
  Th  Th5  1  0.750000  0.028611  0.286486  1
  Th  Th6  1  0.250000  0.971389  0.713514  1
  Th  Th7  1  0.750000  0.528611  0.213514  1
  Tc  Tc8  1  0.250000  0.273911  0.135579  1
  Tc  Tc9  1  0.750000  0.226089  0.635579  1
  Tc  Tc10  1  0.250000  0.773911  0.364421  1
  Tc  Tc11  1  0.750000  0.726089  0.864421  1
  C  C12  1  0.250000  0.170323  0.946836  1
  C  C13  1  0.750000  0.829677  0.053164  1
  C  C14  1  0.250000  0.670323  0.553164  1
  C  C15  1  0.750000  0.329677  0.446836  1
  C  C16  1  0.250000  0.042336  0.260531  1
  C  C17  1  0.750000  0.457664  0.760531  1
  C  C18  1  0.250000  0.542336  0.239469  1
  C  C19  1  0.750000  0.957664  0.739469  1
