# generated using pymatgen
data_NaSmCuPt3
_symmetry_space_group_name_H-M   'P 1'
_cell_length_a   5.46519095
_cell_length_b   5.46519111
_cell_length_c   5.25220678
_cell_angle_alpha   58.64924137
_cell_angle_beta   58.64925399
_cell_angle_gamma   60.00000434
_symmetry_Int_Tables_number   1
_chemical_formula_structural   NaSmCuPt3
_chemical_formula_sum   'Na1 Sm1 Cu1 Pt3'
_cell_volume   108.60809023
_cell_formula_units_Z   1
loop_
 _symmetry_equiv_pos_site_id
 _symmetry_equiv_pos_as_xyz
  1  'x, y, z'
loop_
 _atom_site_type_symbol
 _atom_site_label
 _atom_site_symmetry_multiplicity
 _atom_site_fract_x
 _atom_site_fract_y
 _atom_site_fract_z
 _atom_site_occupancy
  Na  Na0  1  0.748928  0.748928  0.753217  1
  Sm  Sm1  1  0.998360  0.998360  0.004920  1
  Cu  Cu2  1  0.375943  0.375943  0.872171  1
  Pt  Pt3  1  0.376301  0.376301  0.373231  1
  Pt  Pt4  1  0.874168  0.376301  0.373231  1
  Pt  Pt5  1  0.376301  0.874168  0.373231  1
