# generated using pymatgen
data_Cs4Cd4Si4BiAs7
_symmetry_space_group_name_H-M   'P 1'
_cell_length_a   8.89992029
_cell_length_b   8.76514331
_cell_length_c   8.86354097
_cell_angle_alpha   71.29734439
_cell_angle_beta   75.87116803
_cell_angle_gamma   73.14810176
_symmetry_Int_Tables_number   1
_chemical_formula_structural   Cs4Cd4Si4BiAs7
_chemical_formula_sum   'Cs4 Cd4 Si4 Bi1 As7'
_cell_volume   618.02765427
_cell_formula_units_Z   1
loop_
 _symmetry_equiv_pos_site_id
 _symmetry_equiv_pos_as_xyz
  1  'x, y, z'
loop_
 _atom_site_type_symbol
 _atom_site_label
 _atom_site_symmetry_multiplicity
 _atom_site_fract_x
 _atom_site_fract_y
 _atom_site_fract_z
 _atom_site_occupancy
  Cs  Cs0  1  0.437663  0.766312  0.317698  1
  Cs  Cs1  1  0.556344  0.239332  0.680250  1
  Cs  Cs2  1  0.425976  0.798370  0.824603  1
  Cs  Cs3  1  0.564725  0.209164  0.172878  1
  Cd  Cd4  1  0.003525  0.896519  0.689951  1
  Cd  Cd5  1  0.005095  0.111305  0.305514  1
  Cd  Cd6  1  0.967111  0.813147  0.162072  1
  Cd  Cd7  1  0.039573  0.182879  0.827826  1
  Si  Si8  1  0.969983  0.569578  0.604969  1
  Si  Si9  1  0.037576  0.412828  0.405783  1
  Si  Si10  1  0.140049  0.448420  0.980329  1
  Si  Si11  1  0.863852  0.550266  0.021938  1
  Bi  Bi12  1  0.794565  0.871149  0.470476  1
  As  As13  1  0.183756  0.136637  0.531855  1
  As  As14  1  0.799506  0.418062  0.308819  1
  As  As15  1  0.203205  0.584959  0.694443  1
  As  As16  1  0.779409  0.848416  0.956195  1
  As  As17  1  0.225069  0.151443  0.036142  1
  As  As18  1  0.788009  0.448198  0.831340  1
  As  As19  1  0.215013  0.543017  0.176922  1
