# generated using pymatgen
data_Dy5LuSi24Os5Ru3
_symmetry_space_group_name_H-M   'P 1'
_cell_length_a   10.11409116
_cell_length_b   10.11408991
_cell_length_c   8.14807002
_cell_angle_alpha   90.01147282
_cell_angle_beta   90.01146347
_cell_angle_gamma   132.49079770
_symmetry_Int_Tables_number   1
_chemical_formula_structural   Dy5LuSi24Os5Ru3
_chemical_formula_sum   'Dy5 Lu1 Si24 Os5 Ru3'
_cell_volume   614.61501017
_cell_formula_units_Z   1
loop_
 _symmetry_equiv_pos_site_id
 _symmetry_equiv_pos_as_xyz
  1  'x, y, z'
loop_
 _atom_site_type_symbol
 _atom_site_label
 _atom_site_symmetry_multiplicity
 _atom_site_fract_x
 _atom_site_fract_y
 _atom_site_fract_z
 _atom_site_occupancy
  Dy  Dy0  1  0.999968  0.999968  0.999401  1
  Dy  Dy1  1  0.501554  0.001514  0.749388  1
  Dy  Dy2  1  0.998336  0.498609  0.250617  1
  Dy  Dy3  1  0.498609  0.998336  0.250617  1
  Dy  Dy4  1  0.001514  0.501554  0.749388  1
  Lu  Lu5  1  0.499265  0.499265  0.500149  1
  Si  Si6  1  0.795475  0.204740  0.500162  1
  Si  Si7  1  0.296141  0.703861  0.000178  1
  Si  Si8  1  0.204740  0.795475  0.500162  1
  Si  Si9  1  0.703861  0.296141  0.000178  1
  Si  Si10  1  0.332885  0.332885  0.833203  1
  Si  Si11  1  0.667630  0.667630  0.167250  1
  Si  Si12  1  0.166440  0.166440  0.331121  1
  Si  Si13  1  0.831030  0.831030  0.666106  1
  Si  Si14  1  0.120178  0.885803  0.727866  1
  Si  Si15  1  0.114582  0.880854  0.272229  1
  Si  Si16  1  0.610862  0.378277  0.228682  1
  Si  Si17  1  0.622414  0.389278  0.771566  1
  Si  Si18  1  0.880854  0.114582  0.272229  1
  Si  Si19  1  0.885803  0.120178  0.727866  1
  Si  Si20  1  0.389278  0.622414  0.771566  1
  Si  Si21  1  0.378277  0.610862  0.228682  1
  Si  Si22  1  0.345145  0.111696  0.503733  1
  Si  Si23  1  0.888096  0.655363  0.496796  1
  Si  Si24  1  0.387992  0.154874  0.005645  1
  Si  Si25  1  0.845051  0.612518  0.994872  1
  Si  Si26  1  0.655363  0.888096  0.496796  1
  Si  Si27  1  0.111696  0.345145  0.503733  1
  Si  Si28  1  0.612518  0.845051  0.994872  1
  Si  Si29  1  0.154874  0.387992  0.005645  1
  Os  Os30  1  0.668921  0.331146  0.499944  1
  Os  Os31  1  0.170100  0.829742  0.999975  1
  Os  Os32  1  0.331146  0.668921  0.499944  1
  Os  Os33  1  0.829742  0.170100  0.999975  1
  Os  Os34  1  0.127357  0.127357  0.626033  1
  Ru  Ru35  1  0.872498  0.872498  0.373780  1
  Ru  Ru36  1  0.373506  0.373506  0.128997  1
  Ru  Ru37  1  0.626295  0.626295  0.870653  1
