# generated using pymatgen
data_Y2HoCo(P3Ir4)2
_symmetry_space_group_name_H-M   'P 1'
_cell_length_a   3.92958500
_cell_length_b   11.09651900
_cell_length_c   12.78027400
_cell_angle_alpha   90.00000000
_cell_angle_beta   90.00000000
_cell_angle_gamma   90.00000000
_symmetry_Int_Tables_number   1
_chemical_formula_structural   Y2HoCo(P3Ir4)2
_chemical_formula_sum   'Y4 Ho2 Co2 P12 Ir16'
_cell_volume   557.28020047
_cell_formula_units_Z   2
loop_
 _symmetry_equiv_pos_site_id
 _symmetry_equiv_pos_as_xyz
  1  'x, y, z'
loop_
 _atom_site_type_symbol
 _atom_site_label
 _atom_site_symmetry_multiplicity
 _atom_site_fract_x
 _atom_site_fract_y
 _atom_site_fract_z
 _atom_site_occupancy
  Y  Y0  1  0.000000  0.500000  0.522419  1
  Y  Y1  1  0.500000  0.000000  0.477580  1
  Y  Y2  1  0.000000  0.683997  0.799571  1
  Y  Y3  1  0.000000  0.316003  0.799571  1
  Ho  Ho4  1  0.500000  0.815848  0.200478  1
  Ho  Ho5  1  0.500000  0.184152  0.200478  1
  Co  Co6  1  0.000000  0.500000  0.977400  1
  Co  Co7  1  0.500000  0.000000  0.022949  1
  P  P8  1  0.500000  0.500000  0.880395  1
  P  P9  1  0.000000  0.000000  0.119758  1
  P  P10  1  0.500000  0.500000  0.357946  1
  P  P11  1  0.000000  0.000000  0.642115  1
  P  P12  1  0.500000  0.315598  0.619270  1
  P  P13  1  0.500000  0.684402  0.619270  1
  P  P14  1  0.000000  0.184457  0.380511  1
  P  P15  1  0.000000  0.815543  0.380511  1
  P  P16  1  0.500000  0.852138  0.896576  1
  P  P17  1  0.500000  0.147862  0.896576  1
  P  P18  1  0.000000  0.648154  0.103540  1
  P  P19  1  0.000000  0.351846  0.103540  1
  Ir  Ir20  1  0.500000  0.500000  0.177840  1
  Ir  Ir21  1  0.000000  0.000000  0.822239  1
  Ir  Ir22  1  0.500000  0.500000  0.702541  1
  Ir  Ir23  1  0.000000  0.000000  0.296989  1
  Ir  Ir24  1  0.500000  0.338986  0.998125  1
  Ir  Ir25  1  0.500000  0.661014  0.998125  1
  Ir  Ir26  1  0.000000  0.160862  0.002327  1
  Ir  Ir27  1  0.000000  0.839138  0.002327  1
  Ir  Ir28  1  0.500000  0.292792  0.429153  1
  Ir  Ir29  1  0.500000  0.707208  0.429153  1
  Ir  Ir30  1  0.000000  0.207070  0.570641  1
  Ir  Ir31  1  0.000000  0.792930  0.570641  1
  Ir  Ir32  1  0.500000  0.870490  0.714653  1
  Ir  Ir33  1  0.500000  0.129510  0.714653  1
  Ir  Ir34  1  0.000000  0.630021  0.285071  1
  Ir  Ir35  1  0.000000  0.369979  0.285071  1
