# generated using pymatgen
data_Ce8Ho11ScGe16
_symmetry_space_group_name_H-M   'P 1'
_cell_length_a   7.57060300
_cell_length_b   7.91599602
_cell_length_c   15.02463700
_cell_angle_alpha   90.00000000
_cell_angle_beta   90.00000000
_cell_angle_gamma   90.00379270
_symmetry_Int_Tables_number   1
_chemical_formula_structural   Ce8Ho11ScGe16
_chemical_formula_sum   'Ce8 Ho11 Sc1 Ge16'
_cell_volume   900.40941338
_cell_formula_units_Z   1
loop_
 _symmetry_equiv_pos_site_id
 _symmetry_equiv_pos_as_xyz
  1  'x, y, z'
loop_
 _atom_site_type_symbol
 _atom_site_label
 _atom_site_symmetry_multiplicity
 _atom_site_fract_x
 _atom_site_fract_y
 _atom_site_fract_z
 _atom_site_occupancy
  Ce  Ce0  1  0.984735  0.178191  0.097543  1
  Ce  Ce1  1  0.485028  0.322838  0.402961  1
  Ce  Ce2  1  0.513209  0.677886  0.901465  1
  Ce  Ce3  1  0.015070  0.823885  0.599040  1
  Ce  Ce4  1  0.015070  0.823885  0.900960  1
  Ce  Ce5  1  0.513209  0.677886  0.598535  1
  Ce  Ce6  1  0.485028  0.322838  0.097039  1
  Ce  Ce7  1  0.984735  0.178191  0.402457  1
  Ho  Ho8  1  0.661217  0.010199  0.250000  1
  Ho  Ho9  1  0.161284  0.489705  0.250000  1
  Ho  Ho10  1  0.839084  0.510434  0.750000  1
  Ho  Ho11  1  0.823548  0.671933  0.122077  1
  Ho  Ho12  1  0.323738  0.827917  0.378254  1
  Ho  Ho13  1  0.675457  0.170249  0.875959  1
  Ho  Ho14  1  0.178328  0.327481  0.623710  1
  Ho  Ho15  1  0.178328  0.327481  0.876290  1
  Ho  Ho16  1  0.675457  0.170249  0.624041  1
  Ho  Ho17  1  0.323738  0.827917  0.121746  1
  Ho  Ho18  1  0.823548  0.671933  0.377923  1
  Sc  Sc19  1  0.339511  0.989274  0.750000  1
  Ge  Ge20  1  0.789936  0.365013  0.250000  1
  Ge  Ge21  1  0.289990  0.134707  0.250000  1
  Ge  Ge22  1  0.701345  0.863911  0.750000  1
  Ge  Ge23  1  0.210053  0.643093  0.750000  1
  Ge  Ge24  1  0.025406  0.877571  0.250000  1
  Ge  Ge25  1  0.525097  0.622446  0.250000  1
  Ge  Ge26  1  0.476169  0.377366  0.750000  1
  Ge  Ge27  1  0.981983  0.118465  0.750000  1
  Ge  Ge28  1  0.837784  0.466071  0.958159  1
  Ge  Ge29  1  0.338403  0.032801  0.543306  1
  Ge  Ge30  1  0.662294  0.966537  0.040358  1
  Ge  Ge31  1  0.161872  0.533120  0.459678  1
  Ge  Ge32  1  0.161872  0.533120  0.040322  1
  Ge  Ge33  1  0.662294  0.966537  0.459642  1
  Ge  Ge34  1  0.338403  0.032801  0.956694  1
  Ge  Ge35  1  0.837784  0.466071  0.541841  1
