# generated using pymatgen
data_Nd5In4PtRh
_symmetry_space_group_name_H-M   'P 1'
_cell_length_a   3.79513300
_cell_length_b   8.27453012
_cell_length_c   18.69778025
_cell_angle_alpha   90.01917746
_cell_angle_beta   90.00000000
_cell_angle_gamma   90.00000000
_symmetry_Int_Tables_number   1
_chemical_formula_structural   Nd5In4PtRh
_chemical_formula_sum   'Nd10 In8 Pt2 Rh2'
_cell_volume   587.16528186
_cell_formula_units_Z   2
loop_
 _symmetry_equiv_pos_site_id
 _symmetry_equiv_pos_as_xyz
  1  'x, y, z'
loop_
 _atom_site_type_symbol
 _atom_site_label
 _atom_site_symmetry_multiplicity
 _atom_site_fract_x
 _atom_site_fract_y
 _atom_site_fract_z
 _atom_site_occupancy
  Nd  Nd0  1  0.000000  0.115844  0.412450  1
  Nd  Nd1  1  0.000000  0.884156  0.587550  1
  Nd  Nd2  1  0.000000  0.381912  0.914286  1
  Nd  Nd3  1  0.000000  0.618088  0.085714  1
  Nd  Nd4  1  0.000000  0.239447  0.220202  1
  Nd  Nd5  1  0.000000  0.760553  0.779798  1
  Nd  Nd6  1  0.000000  0.250304  0.719789  1
  Nd  Nd7  1  0.000000  0.749696  0.280211  1
  Nd  Nd8  1  0.000000  0.000000  0.000000  1
  Nd  Nd9  1  0.000000  0.500000  0.500000  1
  In  In10  1  0.500000  0.426061  0.349975  1
  In  In11  1  0.500000  0.573939  0.650025  1
  In  In12  1  0.500000  0.071045  0.848706  1
  In  In13  1  0.500000  0.928955  0.151294  1
  In  In14  1  0.500000  0.291677  0.068211  1
  In  In15  1  0.500000  0.708323  0.931789  1
  In  In16  1  0.500000  0.207238  0.569336  1
  In  In17  1  0.500000  0.792762  0.430664  1
  Pt  Pt18  1  0.500000  0.479327  0.802731  1
  Pt  Pt19  1  0.500000  0.520673  0.197269  1
  Rh  Rh20  1  0.500000  0.019367  0.304655  1
  Rh  Rh21  1  0.500000  0.980633  0.695345  1
