# generated using pymatgen
data_Ho3Er2(GeB4)2
_symmetry_space_group_name_H-M   'P 1'
_cell_length_a   7.21743700
_cell_length_b   7.21743700
_cell_length_c   8.08088400
_cell_angle_alpha   90.00000000
_cell_angle_beta   90.00000000
_cell_angle_gamma   90.00384224
_symmetry_Int_Tables_number   1
_chemical_formula_structural   Ho3Er2(GeB4)2
_chemical_formula_sum   'Ho6 Er4 Ge4 B16'
_cell_volume   420.94453486
_cell_formula_units_Z   2
loop_
 _symmetry_equiv_pos_site_id
 _symmetry_equiv_pos_as_xyz
  1  'x, y, z'
loop_
 _atom_site_type_symbol
 _atom_site_label
 _atom_site_symmetry_multiplicity
 _atom_site_fract_x
 _atom_site_fract_y
 _atom_site_fract_z
 _atom_site_occupancy
  Ho  Ho0  1  0.680237  0.180258  0.221026  1
  Ho  Ho1  1  0.319742  0.819763  0.778974  1
  Ho  Ho2  1  0.319742  0.819763  0.221026  1
  Ho  Ho3  1  0.819819  0.680181  0.220902  1
  Ho  Ho4  1  0.819819  0.680181  0.779098  1
  Ho  Ho5  1  0.680237  0.180258  0.778974  1
  Er  Er6  1  0.180222  0.319778  0.779970  1
  Er  Er7  1  0.180222  0.319778  0.220030  1
  Er  Er8  1  0.000205  0.000350  0.500000  1
  Er  Er9  1  0.499650  0.499795  0.500000  1
  Ge  Ge10  1  0.120928  0.620586  0.500000  1
  Ge  Ge11  1  0.879414  0.379072  0.500000  1
  Ge  Ge12  1  0.378961  0.121039  0.500000  1
  Ge  Ge13  1  0.620688  0.879312  0.500000  1
  B  B14  1  0.172374  0.039725  0.000000  1
  B  B15  1  0.827822  0.960615  0.000000  1
  B  B16  1  0.960867  0.172462  0.000000  1
  B  B17  1  0.327538  0.539133  0.000000  1
  B  B18  1  0.039454  0.827732  0.000000  1
  B  B19  1  0.672268  0.460546  0.000000  1
  B  B20  1  0.539385  0.672178  0.000000  1
  B  B21  1  0.460275  0.327626  0.000000  1
  B  B22  1  0.090122  0.589815  0.000000  1
  B  B23  1  0.910185  0.409878  0.000000  1
  B  B24  1  0.409814  0.090186  0.000000  1
  B  B25  1  0.590135  0.909865  0.000000  1
  B  B26  1  0.000180  0.000242  0.163531  1
  B  B27  1  0.000180  0.000242  0.836469  1
  B  B28  1  0.499758  0.499820  0.836469  1
  B  B29  1  0.499758  0.499820  0.163531  1
