# generated using pymatgen
data_Ho3ErMn4F28
_symmetry_space_group_name_H-M   'P 1'
_cell_length_a   5.42767212
_cell_length_b   8.69091666
_cell_length_c   11.67970500
_cell_angle_alpha   62.42359618
_cell_angle_beta   89.98772310
_cell_angle_gamma   89.99846998
_symmetry_Int_Tables_number   1
_chemical_formula_structural   Ho3ErMn4F28
_chemical_formula_sum   'Ho3 Er1 Mn4 F28'
_cell_volume   488.35766576
_cell_formula_units_Z   1
loop_
 _symmetry_equiv_pos_site_id
 _symmetry_equiv_pos_as_xyz
  1  'x, y, z'
loop_
 _atom_site_type_symbol
 _atom_site_label
 _atom_site_symmetry_multiplicity
 _atom_site_fract_x
 _atom_site_fract_y
 _atom_site_fract_z
 _atom_site_occupancy
  Ho  Ho0  1  0.262336  0.188865  0.735772  1
  Ho  Ho1  1  0.237929  0.188977  0.235740  1
  Ho  Ho2  1  0.737981  0.811118  0.264299  1
  Er  Er3  1  0.762204  0.811669  0.764084  1
  Mn  Mn4  1  0.759080  0.274281  0.956707  1
  Mn  Mn5  1  0.258492  0.725684  0.543310  1
  Mn  Mn6  1  0.241074  0.725613  0.043481  1
  Mn  Mn7  1  0.740878  0.274517  0.456500  1
  F  F8  1  0.434961  0.705252  0.922419  1
  F  F9  1  0.934605  0.295380  0.577211  1
  F  F10  1  0.565715  0.294815  0.077604  1
  F  F11  1  0.065971  0.704731  0.422054  1
  F  F12  1  0.456119  0.282591  0.541070  1
  F  F13  1  0.955623  0.718063  0.958755  1
  F  F14  1  0.543697  0.717646  0.458867  1
  F  F15  1  0.043939  0.281620  0.041268  1
  F  F16  1  0.772548  0.513385  0.861228  1
  F  F17  1  0.271591  0.486890  0.638369  1
  F  F18  1  0.228398  0.486991  0.138861  1
  F  F19  1  0.727826  0.513195  0.361129  1
  F  F20  1  0.758757  0.036612  0.047280  1
  F  F21  1  0.258663  0.962880  0.452578  1
  F  F22  1  0.241131  0.963001  0.953053  1
  F  F23  1  0.740702  0.036917  0.547555  1
  F  F24  1  0.980215  0.728008  0.633438  1
  F  F25  1  0.481792  0.272121  0.866238  1
  F  F26  1  0.017638  0.272384  0.365844  1
  F  F27  1  0.518248  0.727766  0.134107  1
  F  F28  1  0.050180  0.742109  0.169534  1
  F  F29  1  0.549255  0.257920  0.330888  1
  F  F30  1  0.950489  0.257178  0.831076  1
  F  F31  1  0.450234  0.742328  0.669372  1
  F  F32  1  0.407606  0.969687  0.228338  1
  F  F33  1  0.907499  0.030380  0.271723  1
  F  F34  1  0.594223  0.030317  0.771975  1
  F  F35  1  0.092402  0.969111  0.728274  1
