# generated using pymatgen
data_MgB4Ir3Pd3Pt
_symmetry_space_group_name_H-M   'P 1'
_cell_length_a   6.95777100
_cell_length_b   6.20073159
_cell_length_c   5.58051542
_cell_angle_alpha   69.68569553
_cell_angle_beta   57.29647336
_cell_angle_gamma   50.02401382
_symmetry_Int_Tables_number   1
_chemical_formula_structural   MgB4Ir3Pd3Pt
_chemical_formula_sum   'Mg1 B4 Ir3 Pd3 Pt1'
_cell_volume   155.25176018
_cell_formula_units_Z   1
loop_
 _symmetry_equiv_pos_site_id
 _symmetry_equiv_pos_as_xyz
  1  'x, y, z'
loop_
 _atom_site_type_symbol
 _atom_site_label
 _atom_site_symmetry_multiplicity
 _atom_site_fract_x
 _atom_site_fract_y
 _atom_site_fract_z
 _atom_site_occupancy
  Mg  Mg0  1  0.938807  0.775842  0.401983  1
  B  B1  1  0.048596  0.006185  0.573969  1
  B  B2  1  0.664543  0.841263  0.184808  1
  B  B3  1  0.437357  0.556882  0.953937  1
  B  B4  1  0.278228  0.189123  0.843990  1
  Ir  Ir5  1  0.368722  0.855439  0.146082  1
  Ir  Ir6  1  0.611885  0.151566  0.853207  1
  Ir  Ir7  1  0.392600  0.872800  0.625719  1
  Pd  Pd8  1  0.468126  0.302164  0.368429  1
  Pd  Pd9  1  0.861295  0.373976  0.319204  1
  Pd  Pd10  1  0.885435  0.383337  0.800980  1
  Pt  Pt11  1  0.099608  0.636225  0.872489  1
