# generated using pymatgen
data_La8YTmIr4
_symmetry_space_group_name_H-M   'P 1'
_cell_length_a   6.72963228
_cell_length_b   7.34438098
_cell_length_c   9.13859100
_cell_angle_alpha   95.81796547
_cell_angle_beta   111.60455227
_cell_angle_gamma   89.99999506
_symmetry_Int_Tables_number   1
_chemical_formula_structural   La8YTmIr4
_chemical_formula_sum   'La8 Y1 Tm1 Ir4'
_cell_volume   417.43990674
_cell_formula_units_Z   1
loop_
 _symmetry_equiv_pos_site_id
 _symmetry_equiv_pos_as_xyz
  1  'x, y, z'
loop_
 _atom_site_type_symbol
 _atom_site_label
 _atom_site_symmetry_multiplicity
 _atom_site_fract_x
 _atom_site_fract_y
 _atom_site_fract_z
 _atom_site_occupancy
  La  La0  1  0.983296  0.913653  0.182199  1
  La  La1  1  0.801096  0.586347  0.817801  1
  La  La2  1  0.017312  0.085856  0.817898  1
  La  La3  1  0.199414  0.414144  0.182102  1
  La  La4  1  0.640262  0.816577  0.424385  1
  La  La5  1  0.215877  0.683423  0.575615  1
  La  La6  1  0.358542  0.183101  0.575091  1
  La  La7  1  0.783452  0.316899  0.424909  1
  Y  Y8  1  0.433597  0.750000  0.000000  1
  Tm  Tm9  1  0.565375  0.250000  0.000000  1
  Ir  Ir10  1  0.809826  0.573383  0.212527  1
  Ir  Ir11  1  0.597298  0.926617  0.787473  1
  Ir  Ir12  1  0.191208  0.423419  0.787759  1
  Ir  Ir13  1  0.403448  0.076581  0.212241  1
