# generated using pymatgen
data_NdLu2CuRh8
_symmetry_space_group_name_H-M   'P 1'
_cell_length_a   5.28298400
_cell_length_b   5.28313313
_cell_length_c   17.20848400
_cell_angle_alpha   90.00000000
_cell_angle_beta   90.00000000
_cell_angle_gamma   120.00200638
_symmetry_Int_Tables_number   1
_chemical_formula_structural   NdLu2CuRh8
_chemical_formula_sum   'Nd2 Lu4 Cu2 Rh16'
_cell_volume   415.94443037
_cell_formula_units_Z   2
loop_
 _symmetry_equiv_pos_site_id
 _symmetry_equiv_pos_as_xyz
  1  'x, y, z'
loop_
 _atom_site_type_symbol
 _atom_site_label
 _atom_site_symmetry_multiplicity
 _atom_site_fract_x
 _atom_site_fract_y
 _atom_site_fract_z
 _atom_site_occupancy
  Nd  Nd0  1  0.333337  0.666667  0.750000  1
  Nd  Nd1  1  0.666663  0.333333  0.250000  1
  Lu  Lu2  1  0.333330  0.666667  0.538877  1
  Lu  Lu3  1  0.666670  0.333333  0.038877  1
  Lu  Lu4  1  0.666670  0.333333  0.461123  1
  Lu  Lu5  1  0.333330  0.666667  0.961123  1
  Cu  Cu6  1  0.999902  0.999991  0.250000  1
  Cu  Cu7  1  0.000098  0.000009  0.750000  1
  Rh  Rh8  1  0.167851  0.335695  0.124106  1
  Rh  Rh9  1  0.832149  0.664305  0.624106  1
  Rh  Rh10  1  0.664284  0.832141  0.124108  1
  Rh  Rh11  1  0.167848  0.832155  0.124109  1
  Rh  Rh12  1  0.832152  0.167845  0.624109  1
  Rh  Rh13  1  0.335716  0.167859  0.624108  1
  Rh  Rh14  1  0.832149  0.664305  0.875894  1
  Rh  Rh15  1  0.832152  0.167845  0.875891  1
  Rh  Rh16  1  0.335716  0.167859  0.875892  1
  Rh  Rh17  1  0.664284  0.832141  0.375892  1
  Rh  Rh18  1  0.167848  0.832155  0.375891  1
  Rh  Rh19  1  0.167851  0.335695  0.375894  1
  Rh  Rh20  1  0.333393  0.666662  0.250000  1
  Rh  Rh21  1  0.666607  0.333338  0.750000  1
  Rh  Rh22  1  0.000000  0.000000  0.000000  1
  Rh  Rh23  1  0.000000  0.000000  0.500000  1
