# generated using pymatgen
data_Ce2ThU(Al3Ir)6
_symmetry_space_group_name_H-M   'P 1'
_cell_length_a   7.63620710
_cell_length_b   7.64408298
_cell_length_c   9.46446600
_cell_angle_alpha   90.00000000
_cell_angle_beta   90.00000000
_cell_angle_gamma   119.57399260
_symmetry_Int_Tables_number   1
_chemical_formula_structural   Ce2ThU(Al3Ir)6
_chemical_formula_sum   'Ce2 Th1 U1 Al18 Ir6'
_cell_volume   480.48317902
_cell_formula_units_Z   1
loop_
 _symmetry_equiv_pos_site_id
 _symmetry_equiv_pos_as_xyz
  1  'x, y, z'
loop_
 _atom_site_type_symbol
 _atom_site_label
 _atom_site_symmetry_multiplicity
 _atom_site_fract_x
 _atom_site_fract_y
 _atom_site_fract_z
 _atom_site_occupancy
  Ce  Ce0  1  0.002589  0.328391  0.750000  1
  Ce  Ce1  1  0.671017  0.995504  0.250000  1
  Th  Th2  1  0.995779  0.671703  0.250000  1
  U  U3  1  0.329577  0.005234  0.750000  1
  Al  Al4  1  0.132661  0.132892  0.250000  1
  Al  Al5  1  0.870977  0.870706  0.750000  1
  Al  Al6  1  0.003266  0.333275  0.073200  1
  Al  Al7  1  0.998016  0.664522  0.920296  1
  Al  Al8  1  0.998016  0.664522  0.579704  1
  Al  Al9  1  0.338048  0.005034  0.428939  1
  Al  Al10  1  0.003266  0.333275  0.426800  1
  Al  Al11  1  0.664280  0.997858  0.576325  1
  Al  Al12  1  0.664280  0.997858  0.923675  1
  Al  Al13  1  0.338048  0.005034  0.071061  1
  Al  Al14  1  0.333560  0.333703  0.554069  1
  Al  Al15  1  0.663202  0.664914  0.452907  1
  Al  Al16  1  0.663202  0.664914  0.047093  1
  Al  Al17  1  0.333560  0.333703  0.945931  1
  Al  Al18  1  0.344488  0.548246  0.250000  1
  Al  Al19  1  0.655461  0.449706  0.750000  1
  Al  Al20  1  0.545786  0.339081  0.250000  1
  Al  Al21  1  0.450252  0.660136  0.750000  1
  Ir  Ir22  1  0.673378  0.328815  0.999478  1
  Ir  Ir23  1  0.326929  0.672112  0.999483  1
  Ir  Ir24  1  0.326929  0.672112  0.500517  1
  Ir  Ir25  1  0.673378  0.328815  0.500522  1
  Ir  Ir26  1  0.000027  0.998967  0.999882  1
  Ir  Ir27  1  0.000027  0.998967  0.500118  1
