# generated using pymatgen
data_Dy9Mg(Pb3C)2
_symmetry_space_group_name_H-M   'P 1'
_cell_length_a   9.10359800
_cell_length_b   9.10359875
_cell_length_c   6.44950600
_cell_angle_alpha   90.00000000
_cell_angle_beta   90.00000000
_cell_angle_gamma   119.99999727
_symmetry_Int_Tables_number   1
_chemical_formula_structural   Dy9Mg(Pb3C)2
_chemical_formula_sum   'Dy9 Mg1 Pb6 C2'
_cell_volume   462.89583592
_cell_formula_units_Z   1
loop_
 _symmetry_equiv_pos_site_id
 _symmetry_equiv_pos_as_xyz
  1  'x, y, z'
loop_
 _atom_site_type_symbol
 _atom_site_label
 _atom_site_symmetry_multiplicity
 _atom_site_fract_x
 _atom_site_fract_y
 _atom_site_fract_z
 _atom_site_occupancy
  Dy  Dy0  1  0.209894  0.999620  0.250884  1
  Dy  Dy1  1  0.789727  0.999620  0.749116  1
  Dy  Dy2  1  0.000380  0.210273  0.250884  1
  Dy  Dy3  1  0.000380  0.790106  0.749116  1
  Dy  Dy4  1  0.789727  0.790106  0.250884  1
  Dy  Dy5  1  0.209894  0.210273  0.749116  1
  Dy  Dy6  1  0.666667  0.333333  0.000000  1
  Dy  Dy7  1  0.666667  0.333333  0.500000  1
  Dy  Dy8  1  0.333333  0.666667  0.500000  1
  Mg  Mg9  1  0.333333  0.666667  0.000000  1
  Pb  Pb10  1  0.591144  0.997789  0.249470  1
  Pb  Pb11  1  0.406645  0.997789  0.750530  1
  Pb  Pb12  1  0.002211  0.593355  0.249470  1
  Pb  Pb13  1  0.002211  0.408856  0.750530  1
  Pb  Pb14  1  0.406645  0.408856  0.249470  1
  Pb  Pb15  1  0.591144  0.593355  0.750530  1
  C  C16  1  0.000000  0.000000  0.000000  1
  C  C17  1  0.000000  0.000000  0.500000  1
