# generated using pymatgen
data_LiY4Co11(Ni2P3)4
_symmetry_space_group_name_H-M   'P 1'
_cell_length_a   3.68834000
_cell_length_b   10.29938325
_cell_length_c   11.87039535
_cell_angle_alpha   89.89884944
_cell_angle_beta   90.00000000
_cell_angle_gamma   90.00000000
_symmetry_Int_Tables_number   1
_chemical_formula_structural   LiY4Co11(Ni2P3)4
_chemical_formula_sum   'Li1 Y4 Co11 Ni8 P12'
_cell_volume   450.92745075
_cell_formula_units_Z   1
loop_
 _symmetry_equiv_pos_site_id
 _symmetry_equiv_pos_as_xyz
  1  'x, y, z'
loop_
 _atom_site_type_symbol
 _atom_site_label
 _atom_site_symmetry_multiplicity
 _atom_site_fract_x
 _atom_site_fract_y
 _atom_site_fract_z
 _atom_site_occupancy
  Li  Li0  1  0.250000  0.796962  0.491469  1
  Y  Y1  1  0.250000  0.917980  0.203698  1
  Y  Y2  1  0.750000  0.081306  0.796230  1
  Y  Y3  1  0.750000  0.417623  0.295159  1
  Y  Y4  1  0.250000  0.581361  0.702952  1
  Co  Co5  1  0.250000  0.277326  0.675684  1
  Co  Co6  1  0.750000  0.778326  0.827806  1
  Co  Co7  1  0.250000  0.222543  0.175600  1
  Co  Co8  1  0.250000  0.618076  0.196055  1
  Co  Co9  1  0.750000  0.381141  0.801619  1
  Co  Co10  1  0.750000  0.120896  0.302166  1
  Co  Co11  1  0.250000  0.880112  0.700395  1
  Co  Co12  1  0.250000  0.034130  0.432477  1
  Co  Co13  1  0.750000  0.967149  0.566757  1
  Co  Co14  1  0.750000  0.531169  0.065940  1
  Co  Co15  1  0.250000  0.467115  0.931712  1
  Ni  Ni16  1  0.750000  0.209981  0.511747  1
  Ni  Ni17  1  0.750000  0.286394  0.008631  1
  Ni  Ni18  1  0.250000  0.713107  0.990434  1
  Ni  Ni19  1  0.250000  0.092638  0.986607  1
  Ni  Ni20  1  0.750000  0.908938  0.015536  1
  Ni  Ni21  1  0.750000  0.591966  0.511683  1
  Ni  Ni22  1  0.250000  0.405889  0.485699  1
  Ni  Ni23  1  0.750000  0.720304  0.323302  1
  P  P24  1  0.250000  0.077886  0.613712  1
  P  P25  1  0.750000  0.925028  0.385435  1
  P  P26  1  0.750000  0.579069  0.886872  1
  P  P27  1  0.250000  0.419882  0.111550  1
  P  P28  1  0.250000  0.228726  0.364574  1
  P  P29  1  0.750000  0.773908  0.640408  1
  P  P30  1  0.750000  0.726067  0.131797  1
  P  P31  1  0.250000  0.272328  0.864926  1
  P  P32  1  0.250000  0.895824  0.889972  1
  P  P33  1  0.750000  0.106562  0.112250  1
  P  P34  1  0.750000  0.392900  0.611629  1
  P  P35  1  0.250000  0.599384  0.387515  1
