# generated using pymatgen
data_Ca20Si11As
_symmetry_space_group_name_H-M   'P 1'
_cell_length_a   7.65392400
_cell_length_b   7.65392400
_cell_length_c   14.69498300
_cell_angle_alpha   90.00000000
_cell_angle_beta   90.00000000
_cell_angle_gamma   90.00000000
_symmetry_Int_Tables_number   1
_chemical_formula_structural   Ca20Si11As
_chemical_formula_sum   'Ca20 Si11 As1'
_cell_volume   860.86961452
_cell_formula_units_Z   1
loop_
 _symmetry_equiv_pos_site_id
 _symmetry_equiv_pos_as_xyz
  1  'x, y, z'
loop_
 _atom_site_type_symbol
 _atom_site_label
 _atom_site_symmetry_multiplicity
 _atom_site_fract_x
 _atom_site_fract_y
 _atom_site_fract_z
 _atom_site_occupancy
  Ca  Ca0  1  0.317877  0.675523  0.109324  1
  Ca  Ca1  1  0.175523  0.182123  0.109324  1
  Ca  Ca2  1  0.500000  0.000000  0.741264  1
  Ca  Ca3  1  0.326075  0.683857  0.390641  1
  Ca  Ca4  1  0.673333  0.684134  0.890573  1
  Ca  Ca5  1  0.183857  0.173925  0.390641  1
  Ca  Ca6  1  0.673925  0.316143  0.390641  1
  Ca  Ca7  1  0.175028  0.816509  0.609364  1
  Ca  Ca8  1  0.326667  0.315866  0.890573  1
  Ca  Ca9  1  0.184134  0.826667  0.890573  1
  Ca  Ca10  1  0.500000  0.000000  0.242205  1
  Ca  Ca11  1  0.824972  0.183491  0.609364  1
  Ca  Ca12  1  0.316509  0.324972  0.609364  1
  Ca  Ca13  1  0.816143  0.826075  0.390641  1
  Ca  Ca14  1  0.815866  0.173333  0.890573  1
  Ca  Ca15  1  0.824477  0.817877  0.109324  1
  Ca  Ca16  1  0.000000  0.500000  0.262508  1
  Ca  Ca17  1  0.000000  0.500000  0.755770  1
  Ca  Ca18  1  0.682123  0.324477  0.109324  1
  Ca  Ca19  1  0.683491  0.675028  0.609364  1
  Si  Si20  1  0.112181  0.113585  0.751258  1
  Si  Si21  1  0.386415  0.612181  0.751258  1
  Si  Si22  1  0.613743  0.612060  0.248649  1
  Si  Si23  1  0.500000  0.000000  0.003806  1
  Si  Si24  1  0.112060  0.886257  0.248649  1
  Si  Si25  1  0.613585  0.387819  0.751258  1
  Si  Si26  1  0.887819  0.886415  0.751258  1
  Si  Si27  1  0.386257  0.387940  0.248649  1
  Si  Si28  1  0.887940  0.113743  0.248649  1
  Si  Si29  1  0.500000  0.000000  0.503634  1
  Si  Si30  1  0.000000  0.500000  0.496285  1
  As  As31  1  0.000000  0.500000  0.995296  1
