# generated using pymatgen
data_NaPrSm5PtBr12
_symmetry_space_group_name_H-M   'P 1'
_cell_length_a   9.51505579
_cell_length_b   9.46745255
_cell_length_c   9.55070847
_cell_angle_alpha   107.27982225
_cell_angle_beta   107.14217523
_cell_angle_gamma   107.54218879
_symmetry_Int_Tables_number   1
_chemical_formula_structural   NaPrSm5PtBr12
_chemical_formula_sum   'Na1 Pr1 Sm5 Pt1 Br12'
_cell_volume   710.13335566
_cell_formula_units_Z   1
loop_
 _symmetry_equiv_pos_site_id
 _symmetry_equiv_pos_as_xyz
  1  'x, y, z'
loop_
 _atom_site_type_symbol
 _atom_site_label
 _atom_site_symmetry_multiplicity
 _atom_site_fract_x
 _atom_site_fract_y
 _atom_site_fract_z
 _atom_site_occupancy
  Na  Na0  1  0.499965  0.500139  0.499792  1
  Pr  Pr1  1  0.887022  0.681185  0.969955  1
  Sm  Sm2  1  0.111789  0.314610  0.030212  1
  Sm  Sm3  1  0.326194  0.031679  0.116338  1
  Sm  Sm4  1  0.031886  0.116751  0.325489  1
  Sm  Sm5  1  0.968746  0.885498  0.675646  1
  Sm  Sm6  1  0.673763  0.967911  0.883536  1
  Pt  Pt7  1  0.000456  0.000806  0.000737  1
  Br  Br8  1  0.220093  0.683984  0.074513  1
  Br  Br9  1  0.453637  0.371275  0.154718  1
  Br  Br10  1  0.684004  0.072386  0.213620  1
  Br  Br11  1  0.927698  0.787513  0.320555  1
  Br  Br12  1  0.155379  0.454874  0.369647  1
  Br  Br13  1  0.370078  0.154825  0.453203  1
  Br  Br14  1  0.629980  0.845628  0.546930  1
  Br  Br15  1  0.844236  0.544883  0.624181  1
  Br  Br16  1  0.073597  0.216372  0.685299  1
  Br  Br17  1  0.316060  0.928020  0.786635  1
  Br  Br18  1  0.539898  0.628767  0.841809  1
  Br  Br19  1  0.785522  0.312896  0.927188  1
