# generated using pymatgen
data_Dy3Hg(Ir2O7)2
_symmetry_space_group_name_H-M   'P 1'
_cell_length_a   7.20344817
_cell_length_b   7.34432640
_cell_length_c   7.34432600
_cell_angle_alpha   59.99999279
_cell_angle_beta   59.35091392
_cell_angle_gamma   59.35091923
_symmetry_Int_Tables_number   1
_chemical_formula_structural   Dy3Hg(Ir2O7)2
_chemical_formula_sum   'Dy3 Hg1 Ir4 O14'
_cell_volume   272.01828725
_cell_formula_units_Z   1
loop_
 _symmetry_equiv_pos_site_id
 _symmetry_equiv_pos_as_xyz
  1  'x, y, z'
loop_
 _atom_site_type_symbol
 _atom_site_label
 _atom_site_symmetry_multiplicity
 _atom_site_fract_x
 _atom_site_fract_y
 _atom_site_fract_z
 _atom_site_occupancy
  Dy  Dy0  1  0.125000  0.125000  0.625000  1
  Dy  Dy1  1  0.125000  0.125000  0.125000  1
  Dy  Dy2  1  0.125000  0.625000  0.125000  1
  Hg  Hg3  1  0.625000  0.125000  0.125000  1
  Ir  Ir4  1  0.625000  0.625000  0.625000  1
  Ir  Ir5  1  0.125000  0.625000  0.625000  1
  Ir  Ir6  1  0.625000  0.125000  0.625000  1
  Ir  Ir7  1  0.625000  0.625000  0.125000  1
  O  O8  1  0.964428  0.538291  0.538291  1
  O  O9  1  0.285572  0.291011  0.711709  1
  O  O10  1  0.964428  0.538291  0.958989  1
  O  O11  1  0.713947  0.297311  0.297311  1
  O  O12  1  0.536053  0.558567  0.952689  1
  O  O13  1  0.536053  0.952689  0.558567  1
  O  O14  1  0.536053  0.952689  0.952689  1
  O  O15  1  0.243487  0.252171  0.252171  1
  O  O16  1  0.285572  0.711709  0.711709  1
  O  O17  1  0.713947  0.297311  0.691433  1
  O  O18  1  0.006513  0.997829  0.997829  1
  O  O19  1  0.964428  0.958989  0.538291  1
  O  O20  1  0.285572  0.711709  0.291011  1
  O  O21  1  0.713947  0.691433  0.297311  1
