# generated using pymatgen
data_Pr4As3Br
_symmetry_space_group_name_H-M   'P 1'
_cell_length_a   8.69803600
_cell_length_b   4.30657200
_cell_length_c   6.07752701
_cell_angle_alpha   90.00000000
_cell_angle_beta   90.00269257
_cell_angle_gamma   90.00000000
_symmetry_Int_Tables_number   1
_chemical_formula_structural   Pr4As3Br
_chemical_formula_sum   'Pr4 As3 Br1'
_cell_volume   227.65637193
_cell_formula_units_Z   1
loop_
 _symmetry_equiv_pos_site_id
 _symmetry_equiv_pos_as_xyz
  1  'x, y, z'
loop_
 _atom_site_type_symbol
 _atom_site_label
 _atom_site_symmetry_multiplicity
 _atom_site_fract_x
 _atom_site_fract_y
 _atom_site_fract_z
 _atom_site_occupancy
  Pr  Pr0  1  0.398326  0.249999  0.249967  1
  Pr  Pr1  1  0.851577  0.249999  0.250052  1
  Pr  Pr2  1  0.125087  0.750001  0.749869  1
  Pr  Pr3  1  0.625044  0.750001  0.750092  1
  As  As4  1  0.624940  0.750001  0.250090  1
  As  As5  1  0.370381  0.249999  0.749975  1
  As  As6  1  0.879717  0.249999  0.750059  1
  Br  Br7  1  0.124934  0.750001  0.249899  1
