# generated using pymatgen
data_La5Pr3Cd2TcPd
_symmetry_space_group_name_H-M   'P 1'
_cell_length_a   10.12768405
_cell_length_b   10.12768446
_cell_length_c   10.23788600
_cell_angle_alpha   59.63938813
_cell_angle_beta   59.63938674
_cell_angle_gamma   59.39246359
_symmetry_Int_Tables_number   1
_chemical_formula_structural   La5Pr3Cd2TcPd
_chemical_formula_sum   'La10 Pr6 Cd4 Tc2 Pd2'
_cell_volume   735.04642836
_cell_formula_units_Z   2
loop_
 _symmetry_equiv_pos_site_id
 _symmetry_equiv_pos_as_xyz
  1  'x, y, z'
loop_
 _atom_site_type_symbol
 _atom_site_label
 _atom_site_symmetry_multiplicity
 _atom_site_fract_x
 _atom_site_fract_y
 _atom_site_fract_z
 _atom_site_occupancy
  La  La0  1  0.346460  0.346460  0.357327  1
  La  La1  1  0.346460  0.346460  0.949755  1
  La  La2  1  0.341600  0.960104  0.349149  1
  La  La3  1  0.960104  0.341600  0.349149  1
  La  La4  1  0.818450  0.190436  0.190573  1
  La  La5  1  0.190436  0.818450  0.800541  1
  La  La6  1  0.190436  0.818450  0.190573  1
  La  La7  1  0.818450  0.190436  0.800541  1
  La  La8  1  0.189411  0.189411  0.810589  1
  La  La9  1  0.803688  0.803688  0.196312  1
  Pr  Pr10  1  0.935765  0.559407  0.567154  1
  Pr  Pr11  1  0.559407  0.935765  0.937673  1
  Pr  Pr12  1  0.559407  0.935765  0.567154  1
  Pr  Pr13  1  0.935765  0.559407  0.937673  1
  Pr  Pr14  1  0.564629  0.564629  0.935371  1
  Pr  Pr15  1  0.937417  0.937417  0.562583  1
  Cd  Cd16  1  0.580014  0.580014  0.579759  1
  Cd  Cd17  1  0.580014  0.580014  0.260214  1
  Cd  Cd18  1  0.580527  0.258508  0.580482  1
  Cd  Cd19  1  0.258508  0.580527  0.580482  1
  Tc  Tc20  1  0.139553  0.139553  0.132078  1
  Tc  Tc21  1  0.139553  0.139553  0.588815  1
  Pd  Pd22  1  0.146799  0.577147  0.138027  1
  Pd  Pd23  1  0.577147  0.146799  0.138027  1
