# generated using pymatgen
data_Dy6Al24Ir3Ru3Rh2
_symmetry_space_group_name_H-M   'P 1'
_cell_length_a   8.82361496
_cell_length_b   8.77725274
_cell_length_c   9.56764839
_cell_angle_alpha   90.00000033
_cell_angle_beta   90.13068676
_cell_angle_gamma   119.82633362
_symmetry_Int_Tables_number   1
_chemical_formula_structural   Dy6Al24Ir3Ru3Rh2
_chemical_formula_sum   'Dy6 Al24 Ir3 Ru3 Rh2'
_cell_volume   642.83103865
_cell_formula_units_Z   1
loop_
 _symmetry_equiv_pos_site_id
 _symmetry_equiv_pos_as_xyz
  1  'x, y, z'
loop_
 _atom_site_type_symbol
 _atom_site_label
 _atom_site_symmetry_multiplicity
 _atom_site_fract_x
 _atom_site_fract_y
 _atom_site_fract_z
 _atom_site_occupancy
  Dy  Dy0  1  0.190331  0.804956  0.250399  1
  Dy  Dy1  1  0.190331  0.385375  0.250399  1
  Dy  Dy2  1  0.615549  0.807775  0.250537  1
  Dy  Dy3  1  0.809669  0.195044  0.749601  1
  Dy  Dy4  1  0.809669  0.614625  0.749601  1
  Dy  Dy5  1  0.384451  0.192225  0.749463  1
  Al  Al6  1  0.561202  0.437215  0.249660  1
  Al  Al7  1  0.561202  0.123988  0.249660  1
  Al  Al8  1  0.874710  0.437355  0.248738  1
  Al  Al9  1  0.438798  0.562785  0.750340  1
  Al  Al10  1  0.438798  0.876012  0.750340  1
  Al  Al11  1  0.125290  0.562645  0.751262  1
  Al  Al12  1  0.325732  0.162865  0.423349  1
  Al  Al13  1  0.835511  0.162521  0.423268  1
  Al  Al14  1  0.835511  0.672990  0.423268  1
  Al  Al15  1  0.674268  0.837135  0.576651  1
  Al  Al16  1  0.164489  0.837479  0.576732  1
  Al  Al17  1  0.164489  0.327010  0.576732  1
  Al  Al18  1  0.674258  0.837129  0.922919  1
  Al  Al19  1  0.162423  0.835291  0.923106  1
  Al  Al20  1  0.162423  0.327133  0.923106  1
  Al  Al21  1  0.325742  0.162871  0.077081  1
  Al  Al22  1  0.837577  0.164709  0.076894  1
  Al  Al23  1  0.837577  0.672867  0.076894  1
  Al  Al24  1  0.666975  0.333488  0.528146  1
  Al  Al25  1  0.333025  0.666512  0.471854  1
  Al  Al26  1  0.331040  0.665520  0.027733  1
  Al  Al27  1  0.668960  0.334480  0.972267  1
  Al  Al28  1  0.998460  0.999230  0.249922  1
  Al  Al29  1  0.001540  0.000770  0.750078  1
  Ir  Ir30  1  0.500000  0.500000  0.500000  1
  Ir  Ir31  1  0.500000  0.000000  0.500000  1
  Ir  Ir32  1  0.000000  0.500000  0.500000  1
  Ru  Ru33  1  0.000000  0.000000  0.500000  1
  Ru  Ru34  1  0.000000  0.000000  0.000000  1
  Ru  Ru35  1  0.000000  0.500000  0.000000  1
  Rh  Rh36  1  0.500000  0.500000  0.000000  1
  Rh  Rh37  1  0.500000  0.000000  0.000000  1
