# generated using pymatgen
data_DyYErB7W
_symmetry_space_group_name_H-M   'P 1'
_cell_length_a   8.13648381
_cell_length_b   8.13648287
_cell_length_c   9.48472410
_cell_angle_alpha   89.86308820
_cell_angle_beta   90.13691158
_cell_angle_gamma   155.52733518
_symmetry_Int_Tables_number   1
_chemical_formula_structural   DyYErB7W
_chemical_formula_sum   'Dy2 Y2 Er2 B14 W2'
_cell_volume   260.11709901
_cell_formula_units_Z   2
loop_
 _symmetry_equiv_pos_site_id
 _symmetry_equiv_pos_as_xyz
  1  'x, y, z'
loop_
 _atom_site_type_symbol
 _atom_site_label
 _atom_site_symmetry_multiplicity
 _atom_site_fract_x
 _atom_site_fract_y
 _atom_site_fract_z
 _atom_site_occupancy
  Dy  Dy0  1  0.892739  0.107261  0.939901  1
  Dy  Dy1  1  0.107261  0.892739  0.060099  1
  Y  Y2  1  0.754115  0.245885  0.250177  1
  Y  Y3  1  0.245885  0.754115  0.749823  1
  Er  Er4  1  0.893098  0.106902  0.559298  1
  Er  Er5  1  0.106902  0.893098  0.440702  1
  B  B6  1  0.545581  0.454419  0.250766  1
  B  B7  1  0.454419  0.545581  0.749234  1
  B  B8  1  0.519453  0.480547  0.907930  1
  B  B9  1  0.480547  0.519453  0.092070  1
  B  B10  1  0.480604  0.519396  0.408749  1
  B  B11  1  0.519396  0.480604  0.591251  1
  B  B12  1  0.635021  0.364979  0.852853  1
  B  B13  1  0.364979  0.635021  0.147147  1
  B  B14  1  0.727545  0.272455  0.967197  1
  B  B15  1  0.272455  0.727545  0.032803  1
  B  B16  1  0.272428  0.727572  0.467378  1
  B  B17  1  0.727572  0.272428  0.532622  1
  B  B18  1  0.634939  0.365061  0.646482  1
  B  B19  1  0.365061  0.634939  0.353518  1
  W  W20  1  0.053023  0.946977  0.749520  1
  W  W21  1  0.946977  0.053023  0.250480  1
