# generated using pymatgen
data_TbFeAs3Rh4
_symmetry_space_group_name_H-M   'P 1'
_cell_length_a   3.93462700
_cell_length_b   11.22492100
_cell_length_c   12.85581600
_cell_angle_alpha   90.00000000
_cell_angle_beta   90.00000000
_cell_angle_gamma   90.00000000
_symmetry_Int_Tables_number   1
_chemical_formula_structural   TbFeAs3Rh4
_chemical_formula_sum   'Tb4 Fe4 As12 Rh16'
_cell_volume   567.78839127
_cell_formula_units_Z   4
loop_
 _symmetry_equiv_pos_site_id
 _symmetry_equiv_pos_as_xyz
  1  'x, y, z'
loop_
 _atom_site_type_symbol
 _atom_site_label
 _atom_site_symmetry_multiplicity
 _atom_site_fract_x
 _atom_site_fract_y
 _atom_site_fract_z
 _atom_site_occupancy
  Tb  Tb0  1  0.250000  0.582059  0.707250  1
  Tb  Tb1  1  0.250000  0.917941  0.207250  1
  Tb  Tb2  1  0.750000  0.417941  0.292750  1
  Tb  Tb3  1  0.750000  0.082059  0.792750  1
  Fe  Fe4  1  0.250000  0.464729  0.935884  1
  Fe  Fe5  1  0.250000  0.035271  0.435884  1
  Fe  Fe6  1  0.750000  0.535271  0.064116  1
  Fe  Fe7  1  0.750000  0.964729  0.564116  1
  As  As8  1  0.250000  0.420867  0.110160  1
  As  As9  1  0.250000  0.079133  0.610160  1
  As  As10  1  0.750000  0.579133  0.889840  1
  As  As11  1  0.750000  0.920867  0.389840  1
  As  As12  1  0.250000  0.270054  0.870944  1
  As  As13  1  0.250000  0.229946  0.370944  1
  As  As14  1  0.750000  0.729946  0.129056  1
  As  As15  1  0.750000  0.770054  0.629056  1
  As  As16  1  0.250000  0.600808  0.389379  1
  As  As17  1  0.250000  0.899192  0.889379  1
  As  As18  1  0.750000  0.399192  0.610621  1
  As  As19  1  0.750000  0.100808  0.110621  1
  Rh  Rh20  1  0.250000  0.707715  0.987789  1
  Rh  Rh21  1  0.250000  0.792285  0.487789  1
  Rh  Rh22  1  0.750000  0.292285  0.012211  1
  Rh  Rh23  1  0.750000  0.207715  0.512211  1
  Rh  Rh24  1  0.250000  0.407872  0.479924  1
  Rh  Rh25  1  0.250000  0.092128  0.979924  1
  Rh  Rh26  1  0.750000  0.592128  0.520076  1
  Rh  Rh27  1  0.750000  0.907872  0.020076  1
  Rh  Rh28  1  0.250000  0.222320  0.177125  1
  Rh  Rh29  1  0.250000  0.277680  0.677125  1
  Rh  Rh30  1  0.750000  0.777680  0.822875  1
  Rh  Rh31  1  0.750000  0.722320  0.322875  1
  Rh  Rh32  1  0.250000  0.886962  0.698302  1
  Rh  Rh33  1  0.250000  0.613038  0.198302  1
  Rh  Rh34  1  0.750000  0.113038  0.301698  1
  Rh  Rh35  1  0.750000  0.386962  0.801698  1
