# generated using pymatgen
data_Dy2Er6Re3B24Ir
_symmetry_space_group_name_H-M   'P 1'
_cell_length_a   3.65730800
_cell_length_b   9.13597521
_cell_length_c   11.51678500
_cell_angle_alpha   90.13150080
_cell_angle_beta   90.00000000
_cell_angle_gamma   90.00000000
_symmetry_Int_Tables_number   1
_chemical_formula_structural   Dy2Er6Re3B24Ir
_chemical_formula_sum   'Dy2 Er6 Re3 B24 Ir1'
_cell_volume   384.81019019
_cell_formula_units_Z   1
loop_
 _symmetry_equiv_pos_site_id
 _symmetry_equiv_pos_as_xyz
  1  'x, y, z'
loop_
 _atom_site_type_symbol
 _atom_site_label
 _atom_site_symmetry_multiplicity
 _atom_site_fract_x
 _atom_site_fract_y
 _atom_site_fract_z
 _atom_site_occupancy
  Dy  Dy0  1  0.000000  0.318105  0.415492  1
  Dy  Dy1  1  0.000000  0.678680  0.591341  1
  Er  Er2  1  0.000000  0.827313  0.081035  1
  Er  Er3  1  0.000000  0.177559  0.912657  1
  Er  Er4  1  0.000000  0.944067  0.370334  1
  Er  Er5  1  0.000000  0.055930  0.629112  1
  Er  Er6  1  0.000000  0.440920  0.127919  1
  Er  Er7  1  0.000000  0.556792  0.871985  1
  Re  Re8  1  0.000000  0.362347  0.678136  1
  Re  Re9  1  0.000000  0.138020  0.179664  1
  Re  Re10  1  0.000000  0.862004  0.821238  1
  B  B11  1  0.500000  0.553799  0.433534  1
  B  B12  1  0.500000  0.446630  0.566927  1
  B  B13  1  0.500000  0.053149  0.066338  1
  B  B14  1  0.500000  0.947359  0.932982  1
  B  B15  1  0.500000  0.749461  0.419804  1
  B  B16  1  0.500000  0.250065  0.581237  1
  B  B17  1  0.500000  0.249105  0.080774  1
  B  B18  1  0.500000  0.751601  0.919396  1
  B  B19  1  0.500000  0.791516  0.264784  1
  B  B20  1  0.500000  0.208105  0.734522  1
  B  B21  1  0.500000  0.291656  0.234664  1
  B  B22  1  0.500000  0.708137  0.766320  1
  B  B23  1  0.500000  0.631706  0.183841  1
  B  B24  1  0.500000  0.369328  0.814715  1
  B  B25  1  0.500000  0.130376  0.314762  1
  B  B26  1  0.500000  0.868866  0.685532  1
  B  B27  1  0.500000  0.982273  0.211864  1
  B  B28  1  0.500000  0.017966  0.787193  1
  B  B29  1  0.500000  0.482729  0.287406  1
  B  B30  1  0.500000  0.518270  0.712962  1
  B  B31  1  0.500000  0.603851  0.029410  1
  B  B32  1  0.500000  0.397195  0.971872  1
  B  B33  1  0.500000  0.100937  0.471365  1
  B  B34  1  0.500000  0.896071  0.528054  1
  Ir  Ir35  1  0.000000  0.638115  0.320824  1
