# generated using pymatgen
data_Tb3DyGa18(NiIr2)2
_symmetry_space_group_name_H-M   'P 1'
_cell_length_a   7.55830224
_cell_length_b   7.55821066
_cell_length_c   9.44576900
_cell_angle_alpha   90.00000000
_cell_angle_beta   90.00000000
_cell_angle_gamma   120.04929986
_symmetry_Int_Tables_number   1
_chemical_formula_structural   Tb3DyGa18(NiIr2)2
_chemical_formula_sum   'Tb3 Dy1 Ga18 Ni2 Ir4'
_cell_volume   467.08426401
_cell_formula_units_Z   1
loop_
 _symmetry_equiv_pos_site_id
 _symmetry_equiv_pos_as_xyz
  1  'x, y, z'
loop_
 _atom_site_type_symbol
 _atom_site_label
 _atom_site_symmetry_multiplicity
 _atom_site_fract_x
 _atom_site_fract_y
 _atom_site_fract_z
 _atom_site_occupancy
  Tb  Tb0  1  0.996774  0.660979  0.250000  1
  Tb  Tb1  1  0.003238  0.339045  0.750000  1
  Tb  Tb2  1  0.660967  0.996776  0.250000  1
  Dy  Dy3  1  0.339077  0.003219  0.750000  1
  Ga  Ga4  1  0.110416  0.110406  0.250000  1
  Ga  Ga5  1  0.889732  0.889649  0.750000  1
  Ga  Ga6  1  0.999411  0.327639  0.078452  1
  Ga  Ga7  1  0.000712  0.672483  0.921473  1
  Ga  Ga8  1  0.000712  0.672483  0.578527  1
  Ga  Ga9  1  0.327639  0.999406  0.421625  1
  Ga  Ga10  1  0.999411  0.327639  0.421548  1
  Ga  Ga11  1  0.672249  0.000591  0.578530  1
  Ga  Ga12  1  0.672249  0.000591  0.921470  1
  Ga  Ga13  1  0.327639  0.999406  0.078375  1
  Ga  Ga14  1  0.326907  0.326804  0.564929  1
  Ga  Ga15  1  0.673091  0.673092  0.435157  1
  Ga  Ga16  1  0.673091  0.673092  0.064843  1
  Ga  Ga17  1  0.326907  0.326804  0.935071  1
  Ga  Ga18  1  0.338197  0.540822  0.250000  1
  Ga  Ga19  1  0.661708  0.459045  0.750000  1
  Ga  Ga20  1  0.540823  0.338201  0.250000  1
  Ga  Ga21  1  0.459136  0.661847  0.750000  1
  Ni  Ni22  1  0.000010  0.000000  0.999983  1
  Ni  Ni23  1  0.000010  0.000000  0.500017  1
  Ir  Ir24  1  0.671510  0.328390  0.999946  1
  Ir  Ir25  1  0.328438  0.671601  0.999949  1
  Ir  Ir26  1  0.328438  0.671601  0.500051  1
  Ir  Ir27  1  0.671510  0.328390  0.500054  1
