# generated using pymatgen
data_Y5Er11MgHg3Rh4
_symmetry_space_group_name_H-M   'P 1'
_cell_length_a   9.61025652
_cell_length_b   9.56134894
_cell_length_c   9.56134874
_cell_angle_alpha   59.70545542
_cell_angle_beta   59.77765351
_cell_angle_gamma   59.77764769
_symmetry_Int_Tables_number   1
_chemical_formula_structural   Y5Er11MgHg3Rh4
_chemical_formula_sum   'Y5 Er11 Mg1 Hg3 Rh4'
_cell_volume   617.76167033
_cell_formula_units_Z   1
loop_
 _symmetry_equiv_pos_site_id
 _symmetry_equiv_pos_as_xyz
  1  'x, y, z'
loop_
 _atom_site_type_symbol
 _atom_site_label
 _atom_site_symmetry_multiplicity
 _atom_site_fract_x
 _atom_site_fract_y
 _atom_site_fract_z
 _atom_site_occupancy
  Y  Y0  1  0.809275  0.188344  0.188344  1
  Y  Y1  1  0.813936  0.187550  0.813671  1
  Y  Y2  1  0.187379  0.812096  0.186276  1
  Y  Y3  1  0.813936  0.813671  0.187550  1
  Y  Y4  1  0.187379  0.186276  0.812096  1
  Er  Er5  1  0.599698  0.597514  0.597514  1
  Er  Er6  1  0.600860  0.600205  0.205031  1
  Er  Er7  1  0.600860  0.205031  0.600205  1
  Er  Er8  1  0.190135  0.603219  0.603219  1
  Er  Er9  1  0.060185  0.439228  0.439228  1
  Er  Er10  1  0.434490  0.063594  0.063594  1
  Er  Er11  1  0.435753  0.061757  0.437951  1
  Er  Er12  1  0.058472  0.439143  0.060205  1
  Er  Er13  1  0.435753  0.437951  0.061757  1
  Er  Er14  1  0.058472  0.060205  0.439143  1
  Er  Er15  1  0.188738  0.809852  0.809852  1
  Mg  Mg16  1  0.536602  0.820245  0.820245  1
  Hg  Hg17  1  0.831791  0.836088  0.836088  1
  Hg  Hg18  1  0.833087  0.835568  0.494283  1
  Hg  Hg19  1  0.833087  0.494283  0.835568  1
  Rh  Rh20  1  0.391137  0.393937  0.393937  1
  Rh  Rh21  1  0.387743  0.398245  0.822905  1
  Rh  Rh22  1  0.387743  0.822905  0.398245  1
  Rh  Rh23  1  0.823491  0.393093  0.393093  1
