# generated using pymatgen
data_Tb6Ho10Cd4Os3Pd
_symmetry_space_group_name_H-M   'P 1'
_cell_length_a   9.55233159
_cell_length_b   9.74533416
_cell_length_c   9.74533400
_cell_angle_alpha   60.00000055
_cell_angle_beta   59.32935109
_cell_angle_gamma   59.32935125
_symmetry_Int_Tables_number   1
_chemical_formula_structural   Tb6Ho10Cd4Os3Pd
_chemical_formula_sum   'Tb6 Ho10 Cd4 Os3 Pd1'
_cell_volume   634.90724421
_cell_formula_units_Z   1
loop_
 _symmetry_equiv_pos_site_id
 _symmetry_equiv_pos_as_xyz
  1  'x, y, z'
loop_
 _atom_site_type_symbol
 _atom_site_label
 _atom_site_symmetry_multiplicity
 _atom_site_fract_x
 _atom_site_fract_y
 _atom_site_fract_z
 _atom_site_occupancy
  Tb  Tb0  1  0.933388  0.563400  0.563400  1
  Tb  Tb1  1  0.552941  0.940431  0.940431  1
  Tb  Tb2  1  0.552941  0.940431  0.566196  1
  Tb  Tb3  1  0.933388  0.563400  0.939813  1
  Tb  Tb4  1  0.552941  0.566196  0.940431  1
  Tb  Tb5  1  0.933388  0.939813  0.563400  1
  Ho  Ho6  1  0.345458  0.351790  0.351790  1
  Ho  Ho7  1  0.345458  0.351790  0.950964  1
  Ho  Ho8  1  0.345458  0.950964  0.351790  1
  Ho  Ho9  1  0.971493  0.342836  0.342836  1
  Ho  Ho10  1  0.816483  0.189465  0.189465  1
  Ho  Ho11  1  0.185302  0.810926  0.810926  1
  Ho  Ho12  1  0.185302  0.810926  0.192848  1
  Ho  Ho13  1  0.816483  0.189465  0.804586  1
  Ho  Ho14  1  0.185302  0.192848  0.810926  1
  Ho  Ho15  1  0.816483  0.804586  0.189465  1
  Cd  Cd16  1  0.580822  0.578738  0.578738  1
  Cd  Cd17  1  0.580822  0.578738  0.261703  1
  Cd  Cd18  1  0.580822  0.261703  0.578738  1
  Cd  Cd19  1  0.256250  0.581250  0.581250  1
  Os  Os20  1  0.151420  0.135634  0.135634  1
  Os  Os21  1  0.151420  0.135634  0.577313  1
  Os  Os22  1  0.151420  0.577313  0.135634  1
  Pd  Pd23  1  0.574814  0.141729  0.141729  1
