# generated using pymatgen
data_Tb5SmMn2(Co4P3)4
_symmetry_space_group_name_H-M   'P 1'
_cell_length_a   3.69718700
_cell_length_b   10.54973900
_cell_length_c   12.20991900
_cell_angle_alpha   90.00000000
_cell_angle_beta   90.00000000
_cell_angle_gamma   90.00000000
_symmetry_Int_Tables_number   1
_chemical_formula_structural   Tb5SmMn2(Co4P3)4
_chemical_formula_sum   'Tb5 Sm1 Mn2 Co16 P12'
_cell_volume   476.24005041
_cell_formula_units_Z   1
loop_
 _symmetry_equiv_pos_site_id
 _symmetry_equiv_pos_as_xyz
  1  'x, y, z'
loop_
 _atom_site_type_symbol
 _atom_site_label
 _atom_site_symmetry_multiplicity
 _atom_site_fract_x
 _atom_site_fract_y
 _atom_site_fract_z
 _atom_site_occupancy
  Tb  Tb0  1  0.000000  0.500000  0.522251  1
  Tb  Tb1  1  0.500000  0.818026  0.204755  1
  Tb  Tb2  1  0.500000  0.181974  0.204755  1
  Tb  Tb3  1  0.000000  0.681779  0.794824  1
  Tb  Tb4  1  0.000000  0.318221  0.794824  1
  Sm  Sm5  1  0.500000  0.000000  0.477546  1
  Mn  Mn6  1  0.500000  0.500000  0.158682  1
  Mn  Mn7  1  0.000000  0.000000  0.842688  1
  Co  Co8  1  0.500000  0.500000  0.703131  1
  Co  Co9  1  0.000000  0.000000  0.295792  1
  Co  Co10  1  0.000000  0.500000  0.986440  1
  Co  Co11  1  0.500000  0.000000  0.013278  1
  Co  Co12  1  0.500000  0.333354  0.994289  1
  Co  Co13  1  0.500000  0.666646  0.994289  1
  Co  Co14  1  0.000000  0.167035  0.005752  1
  Co  Co15  1  0.000000  0.832965  0.005752  1
  Co  Co16  1  0.500000  0.297681  0.429979  1
  Co  Co17  1  0.500000  0.702319  0.429979  1
  Co  Co18  1  0.000000  0.204814  0.569951  1
  Co  Co19  1  0.000000  0.795186  0.569951  1
  Co  Co20  1  0.500000  0.879605  0.710302  1
  Co  Co21  1  0.500000  0.120395  0.710302  1
  Co  Co22  1  0.000000  0.619799  0.289984  1
  Co  Co23  1  0.000000  0.380201  0.289984  1
  P  P24  1  0.500000  0.500000  0.883288  1
  P  P25  1  0.000000  0.000000  0.116224  1
  P  P26  1  0.500000  0.500000  0.344325  1
  P  P27  1  0.000000  0.000000  0.657710  1
  P  P28  1  0.500000  0.310862  0.615829  1
  P  P29  1  0.500000  0.689138  0.615829  1
  P  P30  1  0.000000  0.190989  0.383474  1
  P  P31  1  0.000000  0.809011  0.383474  1
  P  P32  1  0.500000  0.847144  0.893475  1
  P  P33  1  0.500000  0.152856  0.893475  1
  P  P34  1  0.000000  0.652381  0.106709  1
  P  P35  1  0.000000  0.347619  0.106709  1
