# generated using pymatgen
data_Nd4Zn4Ir3Pt
_symmetry_space_group_name_H-M   'P 1'
_cell_length_a   4.19518200
_cell_length_b   7.15311645
_cell_length_c   8.30292848
_cell_angle_alpha   90.12744093
_cell_angle_beta   90.00000000
_cell_angle_gamma   90.00000000
_symmetry_Int_Tables_number   1
_chemical_formula_structural   Nd4Zn4Ir3Pt
_chemical_formula_sum   'Nd4 Zn4 Ir3 Pt1'
_cell_volume   249.15885367
_cell_formula_units_Z   1
loop_
 _symmetry_equiv_pos_site_id
 _symmetry_equiv_pos_as_xyz
  1  'x, y, z'
loop_
 _atom_site_type_symbol
 _atom_site_label
 _atom_site_symmetry_multiplicity
 _atom_site_fract_x
 _atom_site_fract_y
 _atom_site_fract_z
 _atom_site_occupancy
  Nd  Nd0  1  0.250000  0.033492  0.319443  1
  Nd  Nd1  1  0.250000  0.541431  0.186005  1
  Nd  Nd2  1  0.750000  0.963649  0.685214  1
  Nd  Nd3  1  0.750000  0.468660  0.810367  1
  Zn  Zn4  1  0.250000  0.638952  0.564471  1
  Zn  Zn5  1  0.250000  0.136354  0.932061  1
  Zn  Zn6  1  0.750000  0.362514  0.438258  1
  Zn  Zn7  1  0.750000  0.857580  0.065760  1
  Ir  Ir8  1  0.250000  0.260280  0.618781  1
  Ir  Ir9  1  0.250000  0.761062  0.882625  1
  Ir  Ir10  1  0.750000  0.738567  0.381007  1
  Pt  Pt11  1  0.750000  0.237460  0.116008  1
