# generated using pymatgen
data_RbVOF4
_symmetry_space_group_name_H-M   'P 1'
_cell_length_a   14.40669300
_cell_length_b   5.77356269
_cell_length_c   5.85879199
_cell_angle_alpha   84.60278069
_cell_angle_beta   90.00000000
_cell_angle_gamma   90.00000000
_symmetry_Int_Tables_number   1
_chemical_formula_structural   RbVOF4
_chemical_formula_sum   'Rb4 V4 O4 F16'
_cell_volume   485.16175084
_cell_formula_units_Z   4
loop_
 _symmetry_equiv_pos_site_id
 _symmetry_equiv_pos_as_xyz
  1  'x, y, z'
loop_
 _atom_site_type_symbol
 _atom_site_label
 _atom_site_symmetry_multiplicity
 _atom_site_fract_x
 _atom_site_fract_y
 _atom_site_fract_z
 _atom_site_occupancy
  Rb  Rb0  1  0.878131  0.451922  0.735138  1
  Rb  Rb1  1  0.621869  0.951922  0.735138  1
  Rb  Rb2  1  0.121869  0.548078  0.264862  1
  Rb  Rb3  1  0.378131  0.048078  0.264862  1
  V  V4  1  0.646661  0.446760  0.215860  1
  V  V5  1  0.853339  0.946760  0.215860  1
  V  V6  1  0.353339  0.553240  0.784140  1
  V  V7  1  0.146661  0.053240  0.784140  1
  O  O8  1  0.587521  0.661732  0.295121  1
  O  O9  1  0.412479  0.338268  0.704879  1
  O  O10  1  0.912479  0.161732  0.295121  1
  O  O11  1  0.087521  0.838268  0.704879  1
  F  F12  1  0.389494  0.565995  0.082933  1
  F  F13  1  0.069000  0.303231  0.709695  1
  F  F14  1  0.248065  0.398782  0.908595  1
  F  F15  1  0.785194  0.851713  0.472180  1
  F  F16  1  0.285194  0.648287  0.527820  1
  F  F17  1  0.110506  0.065995  0.082933  1
  F  F18  1  0.251935  0.898782  0.908595  1
  F  F19  1  0.714806  0.351713  0.472180  1
  F  F20  1  0.889494  0.934005  0.917066  1
  F  F21  1  0.431000  0.803231  0.709695  1
  F  F22  1  0.748065  0.101218  0.091405  1
  F  F23  1  0.931000  0.696769  0.290305  1
  F  F24  1  0.569000  0.196769  0.290305  1
  F  F25  1  0.751935  0.601218  0.091405  1
  F  F26  1  0.214806  0.148287  0.527820  1
  F  F27  1  0.610506  0.434005  0.917066  1
