# generated using pymatgen
data_Y20In3Hg3Ru2
_symmetry_space_group_name_H-M   'P 1'
_cell_length_a   9.76088700
_cell_length_b   9.76088579
_cell_length_c   9.73306900
_cell_angle_alpha   90.00000000
_cell_angle_beta   90.00000000
_cell_angle_gamma   120.00000070
_symmetry_Int_Tables_number   1
_chemical_formula_structural   Y20In3Hg3Ru2
_chemical_formula_sum   'Y20 In3 Hg3 Ru2'
_cell_volume   803.08025313
_cell_formula_units_Z   1
loop_
 _symmetry_equiv_pos_site_id
 _symmetry_equiv_pos_as_xyz
  1  'x, y, z'
loop_
 _atom_site_type_symbol
 _atom_site_label
 _atom_site_symmetry_multiplicity
 _atom_site_fract_x
 _atom_site_fract_y
 _atom_site_fract_z
 _atom_site_occupancy
  Y  Y0  1  0.000000  0.000000  0.480707  1
  Y  Y1  1  0.000000  0.000000  0.019293  1
  Y  Y2  1  0.209528  0.790472  0.438238  1
  Y  Y3  1  0.209528  0.419057  0.438238  1
  Y  Y4  1  0.580943  0.790472  0.438238  1
  Y  Y5  1  0.790598  0.209402  0.561451  1
  Y  Y6  1  0.790598  0.581196  0.561451  1
  Y  Y7  1  0.418804  0.209402  0.561451  1
  Y  Y8  1  0.790598  0.209402  0.938549  1
  Y  Y9  1  0.790598  0.581196  0.938549  1
  Y  Y10  1  0.418804  0.209402  0.938549  1
  Y  Y11  1  0.209528  0.790472  0.061762  1
  Y  Y12  1  0.209528  0.419057  0.061762  1
  Y  Y13  1  0.580943  0.790472  0.061762  1
  Y  Y14  1  0.541204  0.458796  0.250000  1
  Y  Y15  1  0.541204  0.082409  0.250000  1
  Y  Y16  1  0.917591  0.458796  0.250000  1
  Y  Y17  1  0.460737  0.539263  0.750000  1
  Y  Y18  1  0.460737  0.921475  0.750000  1
  Y  Y19  1  0.078525  0.539263  0.750000  1
  In  In20  1  0.112753  0.887247  0.750000  1
  In  In21  1  0.112753  0.225506  0.750000  1
  In  In22  1  0.774494  0.887247  0.750000  1
  Hg  Hg23  1  0.875958  0.124042  0.250000  1
  Hg  Hg24  1  0.875958  0.751917  0.250000  1
  Hg  Hg25  1  0.248083  0.124042  0.250000  1
  Ru  Ru26  1  0.333333  0.666667  0.250000  1
  Ru  Ru27  1  0.666667  0.333333  0.750000  1
