# generated using pymatgen
data_TbY3(Ho3Ru2)2
_symmetry_space_group_name_H-M   'P 1'
_cell_length_a   6.34785197
_cell_length_b   7.27734263
_cell_length_c   8.46918974
_cell_angle_alpha   96.86734488
_cell_angle_beta   112.03408504
_cell_angle_gamma   89.75459553
_symmetry_Int_Tables_number   1
_chemical_formula_structural   TbY3(Ho3Ru2)2
_chemical_formula_sum   'Tb1 Y3 Ho6 Ru4'
_cell_volume   359.71069912
_cell_formula_units_Z   1
loop_
 _symmetry_equiv_pos_site_id
 _symmetry_equiv_pos_as_xyz
  1  'x, y, z'
loop_
 _atom_site_type_symbol
 _atom_site_label
 _atom_site_symmetry_multiplicity
 _atom_site_fract_x
 _atom_site_fract_y
 _atom_site_fract_z
 _atom_site_occupancy
  Tb  Tb0  1  0.208427  0.415891  0.188072  1
  Y  Y1  1  0.977481  0.916784  0.187545  1
  Y  Y2  1  0.791242  0.583162  0.812014  1
  Y  Y3  1  0.021855  0.083524  0.812416  1
  Ho  Ho4  1  0.639593  0.814584  0.434375  1
  Ho  Ho5  1  0.205445  0.685424  0.566181  1
  Ho  Ho6  1  0.360294  0.185162  0.565485  1
  Ho  Ho7  1  0.795094  0.314700  0.434145  1
  Ho  Ho8  1  0.421483  0.749604  0.999937  1
  Ho  Ho9  1  0.578591  0.250380  0.000185  1
  Ru  Ru10  1  0.822228  0.574586  0.221613  1
  Ru  Ru11  1  0.598483  0.926056  0.777936  1
  Ru  Ru12  1  0.179410  0.424573  0.778150  1
  Ru  Ru13  1  0.400374  0.075569  0.221946  1
