# generated using pymatgen
data_CeHo(SnRh)2
_symmetry_space_group_name_H-M   'P 1'
_cell_length_a   7.57174600
_cell_length_b   7.57174616
_cell_length_c   7.84580500
_cell_angle_alpha   90.00000000
_cell_angle_beta   90.00000000
_cell_angle_gamma   120.00000802
_symmetry_Int_Tables_number   1
_chemical_formula_structural   CeHo(SnRh)2
_chemical_formula_sum   'Ce3 Ho3 Sn6 Rh6'
_cell_volume   389.54729198
_cell_formula_units_Z   3
loop_
 _symmetry_equiv_pos_site_id
 _symmetry_equiv_pos_as_xyz
  1  'x, y, z'
loop_
 _atom_site_type_symbol
 _atom_site_label
 _atom_site_symmetry_multiplicity
 _atom_site_fract_x
 _atom_site_fract_y
 _atom_site_fract_z
 _atom_site_occupancy
  Ce  Ce0  1  0.999477  0.409744  0.250000  1
  Ce  Ce1  1  0.590256  0.589733  0.250000  1
  Ce  Ce2  1  0.410267  0.000523  0.250000  1
  Ho  Ho3  1  0.999922  0.407697  0.750000  1
  Ho  Ho4  1  0.592303  0.592224  0.750000  1
  Ho  Ho5  1  0.407776  0.000078  0.750000  1
  Sn  Sn6  1  0.258433  0.258743  0.504600  1
  Sn  Sn7  1  0.000310  0.741567  0.504600  1
  Sn  Sn8  1  0.000310  0.741567  0.995400  1
  Sn  Sn9  1  0.741257  0.999690  0.504600  1
  Sn  Sn10  1  0.741257  0.999690  0.995400  1
  Sn  Sn11  1  0.258433  0.258743  0.995400  1
  Rh  Rh12  1  0.333333  0.666667  0.493431  1
  Rh  Rh13  1  0.666667  0.333333  0.494974  1
  Rh  Rh14  1  0.333333  0.666667  0.006569  1
  Rh  Rh15  1  0.000000  0.000000  0.750000  1
  Rh  Rh16  1  0.000000  0.000000  0.250000  1
  Rh  Rh17  1  0.666667  0.333333  0.005026  1
