# generated using pymatgen
data_PrNdZn2(SiRh3)2
_symmetry_space_group_name_H-M   'P 1'
_cell_length_a   6.76660828
_cell_length_b   6.78435152
_cell_length_c   6.76660849
_cell_angle_alpha   130.76719459
_cell_angle_beta   112.93473807
_cell_angle_gamma   87.46293809
_symmetry_Int_Tables_number   1
_chemical_formula_structural   PrNdZn2(SiRh3)2
_chemical_formula_sum   'Pr1 Nd1 Zn2 Si2 Rh6'
_cell_volume   206.59530292
_cell_formula_units_Z   1
loop_
 _symmetry_equiv_pos_site_id
 _symmetry_equiv_pos_as_xyz
  1  'x, y, z'
loop_
 _atom_site_type_symbol
 _atom_site_label
 _atom_site_symmetry_multiplicity
 _atom_site_fract_x
 _atom_site_fract_y
 _atom_site_fract_z
 _atom_site_occupancy
  Pr  Pr0  1  0.746610  0.014084  0.267474  1
  Nd  Nd1  1  0.252441  0.983592  0.731151  1
  Zn  Zn2  1  0.570754  0.342365  0.771611  1
  Zn  Zn3  1  0.427759  0.655728  0.227969  1
  Si  Si4  1  0.096463  0.330527  0.234063  1
  Si  Si5  1  0.904572  0.670225  0.765653  1
  Rh  Rh6  1  0.212862  0.500977  0.712763  1
  Rh  Rh7  1  0.769495  0.000364  0.769738  1
  Rh  Rh8  1  0.788216  0.500977  0.288115  1
  Rh  Rh9  1  0.230625  0.000364  0.230868  1
  Rh  Rh10  1  0.500418  0.500398  0.500613  1
  Rh  Rh11  1  0.999785  0.500398  0.999980  1
