# generated using pymatgen
data_Nd6Pa2NiPd24
_symmetry_space_group_name_H-M   'P 1'
_cell_length_a   8.48628505
_cell_length_b   8.48628507
_cell_length_c   8.48628500
_cell_angle_alpha   89.45989311
_cell_angle_beta   89.45989311
_cell_angle_gamma   89.45989607
_symmetry_Int_Tables_number   1
_chemical_formula_structural   Nd6Pa2NiPd24
_chemical_formula_sum   'Nd6 Pa2 Ni1 Pd24'
_cell_volume   611.07612300
_cell_formula_units_Z   1
loop_
 _symmetry_equiv_pos_site_id
 _symmetry_equiv_pos_as_xyz
  1  'x, y, z'
loop_
 _atom_site_type_symbol
 _atom_site_label
 _atom_site_symmetry_multiplicity
 _atom_site_fract_x
 _atom_site_fract_y
 _atom_site_fract_z
 _atom_site_occupancy
  Nd  Nd0  1  0.750748  0.750748  0.244653  1
  Nd  Nd1  1  0.750748  0.244653  0.750748  1
  Nd  Nd2  1  0.249252  0.249252  0.755347  1
  Nd  Nd3  1  0.249252  0.755347  0.249252  1
  Nd  Nd4  1  0.244653  0.750748  0.750748  1
  Nd  Nd5  1  0.755347  0.249252  0.249252  1
  Pa  Pa6  1  0.251650  0.251650  0.251650  1
  Pa  Pa7  1  0.748350  0.748350  0.748350  1
  Ni  Ni8  1  0.000000  0.000000  0.000000  1
  Pd  Pd9  1  0.260922  0.497904  0.009471  1
  Pd  Pd10  1  0.739078  0.502096  0.990529  1
  Pd  Pd11  1  0.009471  0.260922  0.497904  1
  Pd  Pd12  1  0.497904  0.260922  0.009471  1
  Pd  Pd13  1  0.990529  0.739078  0.502096  1
  Pd  Pd14  1  0.502096  0.739078  0.990529  1
  Pd  Pd15  1  0.497904  0.009471  0.260922  1
  Pd  Pd16  1  0.260922  0.009471  0.497904  1
  Pd  Pd17  1  0.502096  0.990529  0.739078  1
  Pd  Pd18  1  0.739078  0.990529  0.502096  1
  Pd  Pd19  1  0.009471  0.497904  0.260922  1
  Pd  Pd20  1  0.990529  0.502096  0.739078  1
  Pd  Pd21  1  0.253838  0.495868  0.495868  1
  Pd  Pd22  1  0.746162  0.504132  0.504132  1
  Pd  Pd23  1  0.495868  0.253838  0.495868  1
  Pd  Pd24  1  0.504132  0.746162  0.504132  1
  Pd  Pd25  1  0.495868  0.495868  0.253838  1
  Pd  Pd26  1  0.504132  0.504132  0.746162  1
  Pd  Pd27  1  0.292649  0.007140  0.007140  1
  Pd  Pd28  1  0.707351  0.992860  0.992860  1
  Pd  Pd29  1  0.007140  0.292649  0.007140  1
  Pd  Pd30  1  0.992860  0.707351  0.992860  1
  Pd  Pd31  1  0.007140  0.007140  0.292649  1
  Pd  Pd32  1  0.992860  0.992860  0.707351  1
