# generated using pymatgen
data_SbIrS4
_symmetry_space_group_name_H-M   'P 1'
_cell_length_a   6.97172145
_cell_length_b   6.97172115
_cell_length_c   6.25143918
_cell_angle_alpha   63.61431515
_cell_angle_beta   63.61431730
_cell_angle_gamma   30.32524803
_symmetry_Int_Tables_number   1
_chemical_formula_structural   SbIrS4
_chemical_formula_sum   'Sb1 Ir1 S4'
_cell_volume   136.18645990
_cell_formula_units_Z   1
loop_
 _symmetry_equiv_pos_site_id
 _symmetry_equiv_pos_as_xyz
  1  'x, y, z'
loop_
 _atom_site_type_symbol
 _atom_site_label
 _atom_site_symmetry_multiplicity
 _atom_site_fract_x
 _atom_site_fract_y
 _atom_site_fract_z
 _atom_site_occupancy
  Sb  Sb0  1  0.000000  0.000000  0.000000  1
  Ir  Ir1  1  0.500000  0.500000  0.500000  1
  S  S2  1  0.894962  0.894962  0.455759  1
  S  S3  1  0.616778  0.616778  0.076130  1
  S  S4  1  0.105038  0.105038  0.544241  1
  S  S5  1  0.383222  0.383222  0.923870  1
