# generated using pymatgen
data_ErZr(B4Ir3)2
_symmetry_space_group_name_H-M   'P 1'
_cell_length_a   7.66664300
_cell_length_b   7.66664186
_cell_length_c   3.54175100
_cell_angle_alpha   90.00000000
_cell_angle_beta   90.00000000
_cell_angle_gamma   120.00000921
_symmetry_Int_Tables_number   1
_chemical_formula_structural   ErZr(B4Ir3)2
_chemical_formula_sum   'Er1 Zr1 B8 Ir6'
_cell_volume   180.28476725
_cell_formula_units_Z   1
loop_
 _symmetry_equiv_pos_site_id
 _symmetry_equiv_pos_as_xyz
  1  'x, y, z'
loop_
 _atom_site_type_symbol
 _atom_site_label
 _atom_site_symmetry_multiplicity
 _atom_site_fract_x
 _atom_site_fract_y
 _atom_site_fract_z
 _atom_site_occupancy
  Er  Er0  1  0.333333  0.666667  0.250000  1
  Zr  Zr1  1  0.666667  0.333333  0.750000  1
  B  B2  1  0.396651  0.949818  0.750000  1
  B  B3  1  0.050182  0.446833  0.750000  1
  B  B4  1  0.553167  0.603349  0.750000  1
  B  B5  1  0.603414  0.052608  0.250000  1
  B  B6  1  0.947392  0.550806  0.250000  1
  B  B7  1  0.449194  0.396586  0.250000  1
  B  B8  1  0.000000  0.000000  0.500712  1
  B  B9  1  0.000000  0.000000  0.999288  1
  Ir  Ir10  1  0.070163  0.743973  0.750000  1
  Ir  Ir11  1  0.256027  0.326191  0.750000  1
  Ir  Ir12  1  0.673809  0.929837  0.750000  1
  Ir  Ir13  1  0.925931  0.255353  0.250000  1
  Ir  Ir14  1  0.744647  0.670578  0.250000  1
  Ir  Ir15  1  0.329422  0.074069  0.250000  1
