# generated using pymatgen
data_Er17Tm3(Ag3Ru)2
_symmetry_space_group_name_H-M   'P 1'
_cell_length_a   9.44032100
_cell_length_b   9.44032092
_cell_length_c   9.58526800
_cell_angle_alpha   90.00000000
_cell_angle_beta   90.00000000
_cell_angle_gamma   119.99999678
_symmetry_Int_Tables_number   1
_chemical_formula_structural   Er17Tm3(Ag3Ru)2
_chemical_formula_sum   'Er17 Tm3 Ag6 Ru2'
_cell_volume   739.78994782
_cell_formula_units_Z   1
loop_
 _symmetry_equiv_pos_site_id
 _symmetry_equiv_pos_as_xyz
  1  'x, y, z'
loop_
 _atom_site_type_symbol
 _atom_site_label
 _atom_site_symmetry_multiplicity
 _atom_site_fract_x
 _atom_site_fract_y
 _atom_site_fract_z
 _atom_site_occupancy
  Er  Er0  1  0.000000  0.000000  0.500028  1
  Er  Er1  1  0.000000  0.000000  0.999972  1
  Er  Er2  1  0.209027  0.790973  0.441171  1
  Er  Er3  1  0.209027  0.418053  0.441171  1
  Er  Er4  1  0.581947  0.790973  0.441171  1
  Er  Er5  1  0.791057  0.208943  0.557985  1
  Er  Er6  1  0.791057  0.582114  0.557985  1
  Er  Er7  1  0.417886  0.208943  0.557985  1
  Er  Er8  1  0.791057  0.208943  0.942015  1
  Er  Er9  1  0.791057  0.582114  0.942015  1
  Er  Er10  1  0.417886  0.208943  0.942015  1
  Er  Er11  1  0.209027  0.790973  0.058829  1
  Er  Er12  1  0.209027  0.418053  0.058829  1
  Er  Er13  1  0.581947  0.790973  0.058829  1
  Er  Er14  1  0.541075  0.458925  0.250000  1
  Er  Er15  1  0.541075  0.082149  0.250000  1
  Er  Er16  1  0.917851  0.458925  0.250000  1
  Tm  Tm17  1  0.458913  0.541087  0.750000  1
  Tm  Tm18  1  0.458913  0.917827  0.750000  1
  Tm  Tm19  1  0.082173  0.541087  0.750000  1
  Ag  Ag20  1  0.882625  0.117375  0.250000  1
  Ag  Ag21  1  0.882625  0.765252  0.250000  1
  Ag  Ag22  1  0.234748  0.117375  0.250000  1
  Ag  Ag23  1  0.116754  0.883246  0.750000  1
  Ag  Ag24  1  0.116754  0.233506  0.750000  1
  Ag  Ag25  1  0.766494  0.883246  0.750000  1
  Ru  Ru26  1  0.333333  0.666667  0.250000  1
  Ru  Ru27  1  0.666667  0.333333  0.750000  1
