# generated using pymatgen
data_Sc3GaSi2Ag3
_symmetry_space_group_name_H-M   'P 1'
_cell_length_a   6.85540100
_cell_length_b   6.85540175
_cell_length_c   4.03022900
_cell_angle_alpha   90.00000000
_cell_angle_beta   90.00000000
_cell_angle_gamma   120.00000119
_symmetry_Int_Tables_number   1
_chemical_formula_structural   Sc3GaSi2Ag3
_chemical_formula_sum   'Sc3 Ga1 Si2 Ag3'
_cell_volume   164.03107265
_cell_formula_units_Z   1
loop_
 _symmetry_equiv_pos_site_id
 _symmetry_equiv_pos_as_xyz
  1  'x, y, z'
loop_
 _atom_site_type_symbol
 _atom_site_label
 _atom_site_symmetry_multiplicity
 _atom_site_fract_x
 _atom_site_fract_y
 _atom_site_fract_z
 _atom_site_occupancy
  Sc  Sc0  1  0.424284  0.424284  0.500000  1
  Sc  Sc1  1  0.575716  0.000000  0.500000  1
  Sc  Sc2  1  0.000000  0.575716  0.500000  1
  Ga  Ga3  1  0.000000  0.000000  0.500000  1
  Si  Si4  1  0.666667  0.333333  0.000000  1
  Si  Si5  1  0.333333  0.666667  0.000000  1
  Ag  Ag6  1  0.744270  0.744270  0.000000  1
  Ag  Ag7  1  0.255730  0.000000  0.000000  1
  Ag  Ag8  1  0.000000  0.255730  0.000000  1
