# generated using pymatgen
data_Yb7Y(Ge4Mo3)4
_symmetry_space_group_name_H-M   'P 1'
_cell_length_a   6.83786032
_cell_length_b   7.02061707
_cell_length_c   13.22428488
_cell_angle_alpha   90.05267991
_cell_angle_beta   90.04010639
_cell_angle_gamma   90.05513260
_symmetry_Int_Tables_number   1
_chemical_formula_structural   Yb7Y(Ge4Mo3)4
_chemical_formula_sum   'Yb7 Y1 Ge16 Mo12'
_cell_volume   634.84428707
_cell_formula_units_Z   1
loop_
 _symmetry_equiv_pos_site_id
 _symmetry_equiv_pos_as_xyz
  1  'x, y, z'
loop_
 _atom_site_type_symbol
 _atom_site_label
 _atom_site_symmetry_multiplicity
 _atom_site_fract_x
 _atom_site_fract_y
 _atom_site_fract_z
 _atom_site_occupancy
  Yb  Yb0  1  0.492648  0.670993  0.589461  1
  Yb  Yb1  1  0.992303  0.828883  0.910402  1
  Yb  Yb2  1  0.507423  0.328888  0.090031  1
  Yb  Yb3  1  0.007334  0.172876  0.408612  1
  Yb  Yb4  1  0.507080  0.328342  0.409501  1
  Yb  Yb5  1  0.007141  0.171981  0.089924  1
  Yb  Yb6  1  0.492636  0.670722  0.911032  1
  Y  Y7  1  0.992918  0.826392  0.591412  1
  Ge  Ge8  1  0.670507  0.956554  0.453702  1
  Ge  Ge9  1  0.170406  0.544758  0.045681  1
  Ge  Ge10  1  0.329801  0.044905  0.954649  1
  Ge  Ge11  1  0.828210  0.452178  0.544505  1
  Ge  Ge12  1  0.330400  0.046013  0.544814  1
  Ge  Ge13  1  0.829680  0.455218  0.954453  1
  Ge  Ge14  1  0.670159  0.955325  0.045716  1
  Ge  Ge15  1  0.171760  0.543070  0.453985  1
  Ge  Ge16  1  0.467105  0.378318  0.749063  1
  Ge  Ge17  1  0.965725  0.122649  0.750890  1
  Ge  Ge18  1  0.533796  0.620328  0.250246  1
  Ge  Ge19  1  0.033558  0.881035  0.249644  1
  Ge  Ge20  1  0.687506  0.852498  0.751609  1
  Ge  Ge21  1  0.193461  0.644982  0.752354  1
  Ge  Ge22  1  0.309148  0.147156  0.249813  1
  Ge  Ge23  1  0.808553  0.354068  0.249849  1
  Mo  Mo24  1  0.663582  0.160572  0.628398  1
  Mo  Mo25  1  0.162509  0.336973  0.870714  1
  Mo  Mo26  1  0.338274  0.837117  0.129245  1
  Mo  Mo27  1  0.839478  0.664143  0.371759  1
  Mo  Mo28  1  0.337420  0.836938  0.370985  1
  Mo  Mo29  1  0.838587  0.663442  0.129341  1
  Mo  Mo30  1  0.661666  0.163333  0.870953  1
  Mo  Mo31  1  0.161644  0.337409  0.628259  1
  Mo  Mo32  1  0.837868  0.486824  0.748999  1
  Mo  Mo33  1  0.336675  0.014150  0.749525  1
  Mo  Mo34  1  0.161616  0.515652  0.250252  1
  Mo  Mo35  1  0.661420  0.985316  0.250221  1
