# generated using pymatgen
data_Zr6Fe5Co18
_symmetry_space_group_name_H-M   'P 1'
_cell_length_a   8.18288932
_cell_length_b   8.16380946
_cell_length_c   8.19157200
_cell_angle_alpha   59.88744235
_cell_angle_beta   59.96489363
_cell_angle_gamma   60.22661477
_symmetry_Int_Tables_number   1
_chemical_formula_structural   Zr6Fe5Co18
_chemical_formula_sum   'Zr6 Fe5 Co18'
_cell_volume   387.17065831
_cell_formula_units_Z   1
loop_
 _symmetry_equiv_pos_site_id
 _symmetry_equiv_pos_as_xyz
  1  'x, y, z'
loop_
 _atom_site_type_symbol
 _atom_site_label
 _atom_site_symmetry_multiplicity
 _atom_site_fract_x
 _atom_site_fract_y
 _atom_site_fract_z
 _atom_site_occupancy
  Zr  Zr0  1  0.710184  0.716712  0.286552  1
  Zr  Zr1  1  0.290351  0.713845  0.286349  1
  Zr  Zr2  1  0.709649  0.286155  0.290545  1
  Zr  Zr3  1  0.289816  0.283288  0.713448  1
  Zr  Zr4  1  0.709649  0.286155  0.713651  1
  Zr  Zr5  1  0.290351  0.713845  0.709455  1
  Fe  Fe6  1  0.000000  0.000000  0.000000  1
  Fe  Fe7  1  0.000000  0.000000  0.500000  1
  Fe  Fe8  1  0.000000  0.500000  0.500000  1
  Fe  Fe9  1  0.500000  0.500000  0.000000  1
  Fe  Fe10  1  0.000000  0.500000  0.000000  1
  Co  Co11  1  0.500000  0.000000  0.500000  1
  Co  Co12  1  0.500000  0.000000  0.000000  1
  Co  Co13  1  0.879492  0.877893  0.365300  1
  Co  Co14  1  0.878586  0.363668  0.878873  1
  Co  Co15  1  0.366763  0.876014  0.878611  1
  Co  Co16  1  0.879492  0.877893  0.877315  1
  Co  Co17  1  0.120508  0.122107  0.634700  1
  Co  Co18  1  0.121414  0.636332  0.121127  1
  Co  Co19  1  0.633237  0.123986  0.121389  1
  Co  Co20  1  0.120508  0.122107  0.122685  1
  Co  Co21  1  0.675041  0.675058  0.975819  1
  Co  Co22  1  0.674465  0.975509  0.675013  1
  Co  Co23  1  0.976199  0.674179  0.674811  1
  Co  Co24  1  0.675041  0.675058  0.674082  1
  Co  Co25  1  0.324959  0.324942  0.024181  1
  Co  Co26  1  0.325535  0.024491  0.324987  1
  Co  Co27  1  0.023801  0.325821  0.325189  1
  Co  Co28  1  0.324959  0.324942  0.325918  1
