# generated using pymatgen
data_SrS4(BrO8)2
_symmetry_space_group_name_H-M   'P 1'
_cell_length_a   6.65603950
_cell_length_b   6.65603918
_cell_length_c   9.17368902
_cell_angle_alpha   73.93651990
_cell_angle_beta   73.93652021
_cell_angle_gamma   87.60220597
_symmetry_Int_Tables_number   1
_chemical_formula_structural   SrS4(BrO8)2
_chemical_formula_sum   'Sr1 S4 Br2 O16'
_cell_volume   375.03794663
_cell_formula_units_Z   1
loop_
 _symmetry_equiv_pos_site_id
 _symmetry_equiv_pos_as_xyz
  1  'x, y, z'
loop_
 _atom_site_type_symbol
 _atom_site_label
 _atom_site_symmetry_multiplicity
 _atom_site_fract_x
 _atom_site_fract_y
 _atom_site_fract_z
 _atom_site_occupancy
  Sr  Sr0  1  0.000000  0.000000  0.000000  1
  S  S1  1  0.087141  0.590667  0.740476  1
  S  S2  1  0.590667  0.087141  0.740476  1
  S  S3  1  0.912859  0.409333  0.259524  1
  S  S4  1  0.409333  0.912859  0.259524  1
  Br  Br5  1  0.000000  0.000000  0.500000  1
  Br  Br6  1  0.500000  0.500000  0.500000  1
  O  O7  1  0.327111  0.634164  0.671444  1
  O  O8  1  0.634164  0.327111  0.671444  1
  O  O9  1  0.672889  0.365836  0.328556  1
  O  O10  1  0.365836  0.672889  0.328556  1
  O  O11  1  0.024215  0.705267  0.857840  1
  O  O12  1  0.705267  0.024215  0.857840  1
  O  O13  1  0.975785  0.294733  0.142160  1
  O  O14  1  0.294733  0.975785  0.142160  1
  O  O15  1  0.989179  0.680381  0.601192  1
  O  O16  1  0.680381  0.989179  0.601192  1
  O  O17  1  0.010821  0.319619  0.398808  1
  O  O18  1  0.319619  0.010821  0.398808  1
  O  O19  1  0.034542  0.368682  0.791416  1
  O  O20  1  0.368682  0.034542  0.791416  1
  O  O21  1  0.965458  0.631318  0.208584  1
  O  O22  1  0.631318  0.965458  0.208584  1
