# generated using pymatgen
data_Cs16CrSn3Se16
_symmetry_space_group_name_H-M   'P 1'
_cell_length_a   9.20913862
_cell_length_b   10.98529800
_cell_length_c   16.12564402
_cell_angle_alpha   90.00000000
_cell_angle_beta   90.04147533
_cell_angle_gamma   90.00000000
_symmetry_Int_Tables_number   1
_chemical_formula_structural   Cs16CrSn3Se16
_chemical_formula_sum   'Cs16 Cr1 Sn3 Se16'
_cell_volume   1631.35248023
_cell_formula_units_Z   1
loop_
 _symmetry_equiv_pos_site_id
 _symmetry_equiv_pos_as_xyz
  1  'x, y, z'
loop_
 _atom_site_type_symbol
 _atom_site_label
 _atom_site_symmetry_multiplicity
 _atom_site_fract_x
 _atom_site_fract_y
 _atom_site_fract_z
 _atom_site_occupancy
  Cs  Cs0  1  0.999926  0.999988  0.999831  1
  Cs  Cs1  1  0.502641  0.998102  0.501140  1
  Cs  Cs2  1  0.999926  0.500012  0.999831  1
  Cs  Cs3  1  0.502641  0.501898  0.501140  1
  Cs  Cs4  1  0.987788  0.750000  0.424799  1
  Cs  Cs5  1  0.489737  0.250000  0.077184  1
  Cs  Cs6  1  0.007687  0.250000  0.577476  1
  Cs  Cs7  1  0.512681  0.750000  0.920740  1
  Cs  Cs8  1  0.838192  0.051794  0.275218  1
  Cs  Cs9  1  0.338194  0.947880  0.224762  1
  Cs  Cs10  1  0.161171  0.554289  0.723541  1
  Cs  Cs11  1  0.661973  0.449243  0.775060  1
  Cs  Cs12  1  0.161171  0.945711  0.723541  1
  Cs  Cs13  1  0.661973  0.050757  0.775060  1
  Cs  Cs14  1  0.838192  0.448206  0.275218  1
  Cs  Cs15  1  0.338194  0.552120  0.224762  1
  Cr  Cr16  1  0.761935  0.750000  0.664474  1
  Sn  Sn17  1  0.236809  0.250000  0.336536  1
  Sn  Sn18  1  0.736919  0.750000  0.163961  1
  Sn  Sn19  1  0.263112  0.250000  0.835704  1
  Se  Se20  1  0.982494  0.250000  0.826519  1
  Se  Se21  1  0.517452  0.250000  0.327038  1
  Se  Se22  1  0.506021  0.750000  0.672820  1
  Se  Se23  1  0.017546  0.750000  0.173129  1
  Se  Se24  1  0.649050  0.559453  0.087723  1
  Se  Se25  1  0.149238  0.441018  0.412559  1
  Se  Se26  1  0.350272  0.059004  0.911924  1
  Se  Se27  1  0.843687  0.924018  0.594854  1
  Se  Se28  1  0.350272  0.440996  0.911924  1
  Se  Se29  1  0.843687  0.575982  0.594854  1
  Se  Se30  1  0.649050  0.940547  0.087723  1
  Se  Se31  1  0.149238  0.058982  0.412559  1
  Se  Se32  1  0.633425  0.750000  0.314052  1
  Se  Se33  1  0.133234  0.250000  0.186341  1
  Se  Se34  1  0.365742  0.250000  0.685423  1
  Se  Se35  1  0.858729  0.750000  0.800573  1
