# generated using pymatgen
data_SrAgSb12Os2Ru
_symmetry_space_group_name_H-M   'P 1'
_cell_length_a   8.25518487
_cell_length_b   8.25152277
_cell_length_c   8.25455065
_cell_angle_alpha   109.48714554
_cell_angle_beta   109.55863979
_cell_angle_gamma   109.57308621
_symmetry_Int_Tables_number   1
_chemical_formula_structural   SrAgSb12Os2Ru
_chemical_formula_sum   'Sr1 Ag1 Sb12 Os2 Ru1'
_cell_volume   431.74515217
_cell_formula_units_Z   1
loop_
 _symmetry_equiv_pos_site_id
 _symmetry_equiv_pos_as_xyz
  1  'x, y, z'
loop_
 _atom_site_type_symbol
 _atom_site_label
 _atom_site_symmetry_multiplicity
 _atom_site_fract_x
 _atom_site_fract_y
 _atom_site_fract_z
 _atom_site_occupancy
  Sr  Sr0  1  0.000000  0.000000  0.000000  1
  Ag  Ag1  1  0.500000  0.500000  0.500000  1
  Sb  Sb2  1  0.142272  0.499959  0.337667  1
  Sb  Sb3  1  0.500380  0.662555  0.857936  1
  Sb  Sb4  1  0.338158  0.841752  0.180661  1
  Sb  Sb5  1  0.820795  0.662771  0.159603  1
  Sb  Sb6  1  0.663539  0.858254  0.499935  1
  Sb  Sb7  1  0.179205  0.337229  0.840397  1
  Sb  Sb8  1  0.661842  0.158248  0.819339  1
  Sb  Sb9  1  0.336461  0.141746  0.500065  1
  Sb  Sb10  1  0.499620  0.337445  0.142064  1
  Sb  Sb11  1  0.857728  0.500041  0.662333  1
  Sb  Sb12  1  0.841249  0.179166  0.338304  1
  Sb  Sb13  1  0.158751  0.820834  0.661696  1
  Os  Os14  1  0.500000  0.000000  0.000000  1
  Os  Os15  1  0.000000  0.500000  0.000000  1
  Ru  Ru16  1  0.000000  0.000000  0.500000  1
