# generated using pymatgen
data_Sc12Si12Os3Pt
_symmetry_space_group_name_H-M   'P 1'
_cell_length_a   4.04005400
_cell_length_b   10.28435220
_cell_length_c   11.67514247
_cell_angle_alpha   90.14529582
_cell_angle_beta   90.00000000
_cell_angle_gamma   90.00000000
_symmetry_Int_Tables_number   1
_chemical_formula_structural   Sc12Si12Os3Pt
_chemical_formula_sum   'Sc12 Si12 Os3 Pt1'
_cell_volume   485.09288341
_cell_formula_units_Z   1
loop_
 _symmetry_equiv_pos_site_id
 _symmetry_equiv_pos_as_xyz
  1  'x, y, z'
loop_
 _atom_site_type_symbol
 _atom_site_label
 _atom_site_symmetry_multiplicity
 _atom_site_fract_x
 _atom_site_fract_y
 _atom_site_fract_z
 _atom_site_occupancy
  Sc  Sc0  1  0.250000  0.878516  0.022235  1
  Sc  Sc1  1  0.250000  0.623235  0.519315  1
  Sc  Sc2  1  0.750000  0.125154  0.983238  1
  Sc  Sc3  1  0.750000  0.378393  0.480282  1
  Sc  Sc4  1  0.250000  0.920527  0.602400  1
  Sc  Sc5  1  0.250000  0.580640  0.103921  1
  Sc  Sc6  1  0.750000  0.079470  0.396271  1
  Sc  Sc7  1  0.750000  0.420017  0.895492  1
  Sc  Sc8  1  0.250000  0.657110  0.798513  1
  Sc  Sc9  1  0.250000  0.840262  0.298018  1
  Sc  Sc10  1  0.750000  0.341323  0.202043  1
  Sc  Sc11  1  0.750000  0.159283  0.699409  1
  Si  Si12  1  0.250000  0.018011  0.823974  1
  Si  Si13  1  0.250000  0.486243  0.321946  1
  Si  Si14  1  0.750000  0.986134  0.178550  1
  Si  Si15  1  0.750000  0.512671  0.678468  1
  Si  Si16  1  0.250000  0.251060  0.841042  1
  Si  Si17  1  0.250000  0.248711  0.341477  1
  Si  Si18  1  0.750000  0.749372  0.158266  1
  Si  Si19  1  0.750000  0.748761  0.655060  1
  Si  Si20  1  0.250000  0.195759  0.544904  1
  Si  Si21  1  0.250000  0.306450  0.045990  1
  Si  Si22  1  0.750000  0.807061  0.453390  1
  Si  Si23  1  0.750000  0.688993  0.956346  1
  Os  Os24  1  0.250000  0.390211  0.676200  1
  Os  Os25  1  0.250000  0.109190  0.175461  1
  Os  Os26  1  0.750000  0.610055  0.323585  1
  Pt  Pt27  1  0.750000  0.887387  0.824205  1
