# generated using pymatgen
data_Sc6CoNi(BIr2)4
_symmetry_space_group_name_H-M   'P 1'
_cell_length_a   3.08786200
_cell_length_b   9.43098576
_cell_length_c   9.43098576
_cell_angle_alpha   89.62034357
_cell_angle_beta   90.00000000
_cell_angle_gamma   90.00000000
_symmetry_Int_Tables_number   1
_chemical_formula_structural   Sc6CoNi(BIr2)4
_chemical_formula_sum   'Sc6 Co1 Ni1 B4 Ir8'
_cell_volume   274.63920097
_cell_formula_units_Z   1
loop_
 _symmetry_equiv_pos_site_id
 _symmetry_equiv_pos_as_xyz
  1  'x, y, z'
loop_
 _atom_site_type_symbol
 _atom_site_label
 _atom_site_symmetry_multiplicity
 _atom_site_fract_x
 _atom_site_fract_y
 _atom_site_fract_z
 _atom_site_occupancy
  Sc  Sc0  1  0.000000  0.178768  0.678768  1
  Sc  Sc1  1  0.000000  0.821232  0.321232  1
  Sc  Sc2  1  0.000000  0.324236  0.175764  1
  Sc  Sc3  1  0.000000  0.675764  0.824236  1
  Sc  Sc4  1  0.000000  0.000000  0.000000  1
  Sc  Sc5  1  0.000000  0.500000  0.500000  1
  Co  Co6  1  0.500000  0.500000  0.000000  1
  Ni  Ni7  1  0.500000  0.000000  0.500000  1
  B  B8  1  0.000000  0.609859  0.109859  1
  B  B9  1  0.000000  0.390141  0.890141  1
  B  B10  1  0.000000  0.888544  0.611456  1
  B  B11  1  0.000000  0.111456  0.388544  1
  Ir  Ir12  1  0.500000  0.063584  0.229451  1
  Ir  Ir13  1  0.500000  0.936416  0.770549  1
  Ir  Ir14  1  0.500000  0.771069  0.063682  1
  Ir  Ir15  1  0.500000  0.436318  0.728931  1
  Ir  Ir16  1  0.500000  0.228931  0.936318  1
  Ir  Ir17  1  0.500000  0.563682  0.271069  1
  Ir  Ir18  1  0.500000  0.729451  0.563584  1
  Ir  Ir19  1  0.500000  0.270549  0.436416  1
