# generated using pymatgen
data_Dy2Y6Ti3Si16Mo9
_symmetry_space_group_name_H-M   'P 1'
_cell_length_a   6.92583906
_cell_length_b   6.92582631
_cell_length_c   12.83474112
_cell_angle_alpha   89.99560519
_cell_angle_beta   90.00025569
_cell_angle_gamma   89.85160388
_symmetry_Int_Tables_number   1
_chemical_formula_structural   Dy2Y6Ti3Si16Mo9
_chemical_formula_sum   'Dy2 Y6 Ti3 Si16 Mo9'
_cell_volume   615.64399316
_cell_formula_units_Z   1
loop_
 _symmetry_equiv_pos_site_id
 _symmetry_equiv_pos_as_xyz
  1  'x, y, z'
loop_
 _atom_site_type_symbol
 _atom_site_label
 _atom_site_symmetry_multiplicity
 _atom_site_fract_x
 _atom_site_fract_y
 _atom_site_fract_z
 _atom_site_occupancy
  Dy  Dy0  1  0.500404  0.838532  0.717317  1
  Dy  Dy1  1  0.340636  0.000450  0.468773  1
  Y  Y2  1  0.997969  0.660316  0.031572  1
  Y  Y3  1  0.000641  0.340442  0.531383  1
  Y  Y4  1  0.660294  0.997940  0.968345  1
  Y  Y5  1  0.161055  0.503253  0.780859  1
  Y  Y6  1  0.838426  0.500237  0.282712  1
  Y  Y7  1  0.503174  0.160948  0.219105  1
  Ti  Ti8  1  0.829251  0.168700  0.748442  1
  Ti  Ti9  1  0.168945  0.829378  0.251568  1
  Ti  Ti10  1  0.330673  0.330709  0.999969  1
  Si  Si11  1  0.036793  0.713123  0.438606  1
  Si  Si12  1  0.958476  0.289196  0.936251  1
  Si  Si13  1  0.712717  0.036338  0.561578  1
  Si  Si14  1  0.209693  0.460011  0.186579  1
  Si  Si15  1  0.788214  0.542428  0.685118  1
  Si  Si16  1  0.460100  0.209536  0.813400  1
  Si  Si17  1  0.542015  0.788676  0.314989  1
  Si  Si18  1  0.289218  0.958482  0.063695  1
  Si  Si19  1  0.799871  0.871395  0.184250  1
  Si  Si20  1  0.303610  0.625977  0.565334  1
  Si  Si21  1  0.700306  0.371624  0.065782  1
  Si  Si22  1  0.625389  0.303170  0.434754  1
  Si  Si23  1  0.371703  0.700443  0.934098  1
  Si  Si24  1  0.127936  0.202378  0.315492  1
  Si  Si25  1  0.202824  0.127429  0.684595  1
  Si  Si26  1  0.871277  0.800013  0.815685  1
  Mo  Mo27  1  0.333269  0.504713  0.374987  1
  Mo  Mo28  1  0.843915  0.997907  0.373119  1
  Mo  Mo29  1  0.007025  0.159797  0.125530  1
  Mo  Mo30  1  0.998150  0.843932  0.626828  1
  Mo  Mo31  1  0.504791  0.333182  0.624968  1
  Mo  Mo32  1  0.159841  0.006938  0.874417  1
  Mo  Mo33  1  0.668276  0.669083  0.500036  1
  Mo  Mo34  1  0.493599  0.659627  0.124804  1
  Mo  Mo35  1  0.659524  0.493694  0.875058  1
