# generated using pymatgen
data_PrPu2(SnPd)3
_symmetry_space_group_name_H-M   'P 1'
_cell_length_a   7.53758600
_cell_length_b   7.57604667
_cell_length_c   4.15203300
_cell_angle_alpha   90.00000000
_cell_angle_beta   90.00000000
_cell_angle_gamma   119.83220856
_symmetry_Int_Tables_number   1
_chemical_formula_structural   PrPu2(SnPd)3
_chemical_formula_sum   'Pr1 Pu2 Sn3 Pd3'
_cell_volume   205.68288958
_cell_formula_units_Z   1
loop_
 _symmetry_equiv_pos_site_id
 _symmetry_equiv_pos_as_xyz
  1  'x, y, z'
loop_
 _atom_site_type_symbol
 _atom_site_label
 _atom_site_symmetry_multiplicity
 _atom_site_fract_x
 _atom_site_fract_y
 _atom_site_fract_z
 _atom_site_occupancy
  Pr  Pr0  1  0.586200  0.000000  0.000000  1
  Pu  Pu1  1  0.998426  0.583292  0.000000  1
  Pu  Pu2  1  0.415134  0.416708  0.000000  1
  Sn  Sn3  1  0.749015  0.746259  0.500000  1
  Sn  Sn4  1  0.002756  0.253741  0.500000  1
  Sn  Sn5  1  0.250354  0.000000  0.500000  1
  Pd  Pd6  1  0.666737  0.337253  0.500000  1
  Pd  Pd7  1  0.001895  0.000000  0.000000  1
  Pd  Pd8  1  0.329483  0.662747  0.500000  1
