# generated using pymatgen
data_Sm2Re3Tc14C3
_symmetry_space_group_name_H-M   'P 1'
_cell_length_a   7.01151315
_cell_length_b   7.01151485
_cell_length_c   7.01151389
_cell_angle_alpha   82.78292706
_cell_angle_beta   82.78291998
_cell_angle_gamma   82.78292556
_symmetry_Int_Tables_number   1
_chemical_formula_structural   Sm2Re3Tc14C3
_chemical_formula_sum   'Sm2 Re3 Tc14 C3'
_cell_volume   337.13559049
_cell_formula_units_Z   1
loop_
 _symmetry_equiv_pos_site_id
 _symmetry_equiv_pos_as_xyz
  1  'x, y, z'
loop_
 _atom_site_type_symbol
 _atom_site_label
 _atom_site_symmetry_multiplicity
 _atom_site_fract_x
 _atom_site_fract_y
 _atom_site_fract_z
 _atom_site_occupancy
  Sm  Sm0  1  0.651165  0.651165  0.651165  1
  Sm  Sm1  1  0.348835  0.348835  0.348835  1
  Re  Re2  1  0.000000  0.000000  0.500000  1
  Re  Re3  1  0.500000  0.000000  0.000000  1
  Re  Re4  1  0.000000  0.500000  0.000000  1
  Tc  Tc5  1  0.722013  0.277987  0.000000  1
  Tc  Tc6  1  0.000000  0.722013  0.277987  1
  Tc  Tc7  1  0.277987  0.000000  0.722013  1
  Tc  Tc8  1  0.000000  0.277987  0.722013  1
  Tc  Tc9  1  0.722013  0.000000  0.277987  1
  Tc  Tc10  1  0.277987  0.722013  0.000000  1
  Tc  Tc11  1  0.348990  0.348990  0.864454  1
  Tc  Tc12  1  0.864454  0.348990  0.348990  1
  Tc  Tc13  1  0.348990  0.864454  0.348990  1
  Tc  Tc14  1  0.651010  0.651010  0.135546  1
  Tc  Tc15  1  0.135546  0.651010  0.651010  1
  Tc  Tc16  1  0.651010  0.135546  0.651010  1
  Tc  Tc17  1  0.901939  0.901939  0.901939  1
  Tc  Tc18  1  0.098061  0.098061  0.098061  1
  C  C19  1  0.500000  0.500000  0.000000  1
  C  C20  1  0.000000  0.500000  0.500000  1
  C  C21  1  0.500000  0.000000  0.500000  1
