# generated using pymatgen
data_Y4GaSi7Tc6
_symmetry_space_group_name_H-M   'P 1'
_cell_length_a   6.82837469
_cell_length_b   6.77184734
_cell_length_c   6.83857800
_cell_angle_alpha   70.10737221
_cell_angle_beta   89.59596148
_cell_angle_gamma   89.94347401
_symmetry_Int_Tables_number   1
_chemical_formula_structural   Y4GaSi7Tc6
_chemical_formula_sum   'Y4 Ga1 Si7 Tc6'
_cell_volume   297.34469597
_cell_formula_units_Z   1
loop_
 _symmetry_equiv_pos_site_id
 _symmetry_equiv_pos_as_xyz
  1  'x, y, z'
loop_
 _atom_site_type_symbol
 _atom_site_label
 _atom_site_symmetry_multiplicity
 _atom_site_fract_x
 _atom_site_fract_y
 _atom_site_fract_z
 _atom_site_occupancy
  Y  Y0  1  0.168592  0.942686  0.190030  1
  Y  Y1  1  0.330269  0.444204  0.194094  1
  Y  Y2  1  0.833315  0.057333  0.805222  1
  Y  Y3  1  0.668419  0.560156  0.805921  1
  Ga  Ga4  1  0.553753  0.127083  0.101844  1
  Si  Si5  1  0.357962  0.632494  0.512825  1
  Si  Si6  1  0.855385  0.868623  0.481566  1
  Si  Si7  1  0.050560  0.379112  0.897411  1
  Si  Si8  1  0.141584  0.128422  0.510589  1
  Si  Si9  1  0.639335  0.365842  0.489481  1
  Si  Si10  1  0.950249  0.622602  0.102365  1
  Si  Si11  1  0.449054  0.879060  0.896832  1
  Tc  Tc12  1  0.857145  0.247437  0.248949  1
  Tc  Tc13  1  0.339852  0.257870  0.748664  1
  Tc  Tc14  1  0.153275  0.756923  0.763665  1
  Tc  Tc15  1  0.651710  0.731819  0.241281  1
  Tc  Tc16  1  0.502283  0.990959  0.508332  1
  Tc  Tc17  1  0.997257  0.507375  0.500927  1
