# generated using pymatgen
data_Lu2Ta3Ge4
_symmetry_space_group_name_H-M   'P 1'
_cell_length_a   6.93798500
_cell_length_b   7.10380500
_cell_length_c   13.44767300
_cell_angle_alpha   90.00000000
_cell_angle_beta   90.00000000
_cell_angle_gamma   90.00000000
_symmetry_Int_Tables_number   1
_chemical_formula_structural   Lu2Ta3Ge4
_chemical_formula_sum   'Lu8 Ta12 Ge16'
_cell_volume   662.78325583
_cell_formula_units_Z   4
loop_
 _symmetry_equiv_pos_site_id
 _symmetry_equiv_pos_as_xyz
  1  'x, y, z'
loop_
 _atom_site_type_symbol
 _atom_site_label
 _atom_site_symmetry_multiplicity
 _atom_site_fract_x
 _atom_site_fract_y
 _atom_site_fract_z
 _atom_site_occupancy
  Lu  Lu0  1  0.493697  0.675849  0.593630  1
  Lu  Lu1  1  0.993697  0.824151  0.906370  1
  Lu  Lu2  1  0.506303  0.324151  0.093630  1
  Lu  Lu3  1  0.006303  0.175849  0.406370  1
  Lu  Lu4  1  0.506303  0.324151  0.406370  1
  Lu  Lu5  1  0.006303  0.175849  0.093630  1
  Lu  Lu6  1  0.493697  0.675849  0.906370  1
  Lu  Lu7  1  0.993697  0.824151  0.593630  1
  Ta  Ta8  1  0.658973  0.169734  0.626047  1
  Ta  Ta9  1  0.158973  0.330266  0.873953  1
  Ta  Ta10  1  0.341027  0.830266  0.126047  1
  Ta  Ta11  1  0.841027  0.669734  0.373953  1
  Ta  Ta12  1  0.341027  0.830266  0.373953  1
  Ta  Ta13  1  0.841027  0.669734  0.126047  1
  Ta  Ta14  1  0.658973  0.169734  0.873953  1
  Ta  Ta15  1  0.158973  0.330266  0.626047  1
  Ta  Ta16  1  0.836196  0.486389  0.750000  1
  Ta  Ta17  1  0.336196  0.013611  0.750000  1
  Ta  Ta18  1  0.163804  0.513611  0.250000  1
  Ta  Ta19  1  0.663804  0.986389  0.250000  1
  Ge  Ge20  1  0.679952  0.963418  0.458787  1
  Ge  Ge21  1  0.179952  0.536582  0.041213  1
  Ge  Ge22  1  0.320048  0.036582  0.958787  1
  Ge  Ge23  1  0.820048  0.463418  0.541213  1
  Ge  Ge24  1  0.320048  0.036582  0.541213  1
  Ge  Ge25  1  0.820048  0.463418  0.958787  1
  Ge  Ge26  1  0.679952  0.963418  0.041213  1
  Ge  Ge27  1  0.179952  0.536582  0.458787  1
  Ge  Ge28  1  0.459664  0.382393  0.750000  1
  Ge  Ge29  1  0.959664  0.117607  0.750000  1
  Ge  Ge30  1  0.540336  0.617607  0.250000  1
  Ge  Ge31  1  0.040336  0.882393  0.250000  1
  Ge  Ge32  1  0.694869  0.854787  0.750000  1
  Ge  Ge33  1  0.194869  0.645213  0.750000  1
  Ge  Ge34  1  0.305131  0.145213  0.250000  1
  Ge  Ge35  1  0.805131  0.354787  0.250000  1
