# generated using pymatgen
data_YHo3(Sc3Sn4)2
_symmetry_space_group_name_H-M   'P 1'
_cell_length_a   7.75290800
_cell_length_b   7.92278814
_cell_length_c   14.91375700
_cell_angle_alpha   90.01087658
_cell_angle_beta   90.00000000
_cell_angle_gamma   90.00000000
_symmetry_Int_Tables_number   1
_chemical_formula_structural   YHo3(Sc3Sn4)2
_chemical_formula_sum   'Y2 Ho6 Sc12 Sn16'
_cell_volume   916.07225123
_cell_formula_units_Z   2
loop_
 _symmetry_equiv_pos_site_id
 _symmetry_equiv_pos_as_xyz
  1  'x, y, z'
loop_
 _atom_site_type_symbol
 _atom_site_label
 _atom_site_symmetry_multiplicity
 _atom_site_fract_x
 _atom_site_fract_y
 _atom_site_fract_z
 _atom_site_occupancy
  Y  Y0  1  0.517122  0.323095  0.595089  1
  Y  Y1  1  0.017122  0.176905  0.904911  1
  Ho  Ho2  1  0.516279  0.323067  0.905119  1
  Ho  Ho3  1  0.016279  0.176933  0.594881  1
  Ho  Ho4  1  0.483444  0.676912  0.405074  1
  Ho  Ho5  1  0.983444  0.823088  0.094926  1
  Ho  Ho6  1  0.483606  0.676960  0.094892  1
  Ho  Ho7  1  0.983606  0.823040  0.405108  1
  Sc  Sc8  1  0.356956  0.837962  0.874048  1
  Sc  Sc9  1  0.856956  0.662038  0.625952  1
  Sc  Sc10  1  0.643125  0.162182  0.374174  1
  Sc  Sc11  1  0.143125  0.337818  0.125826  1
  Sc  Sc12  1  0.643068  0.162216  0.125669  1
  Sc  Sc13  1  0.143068  0.337784  0.374331  1
  Sc  Sc14  1  0.356883  0.837753  0.625921  1
  Sc  Sc15  1  0.856883  0.662247  0.874079  1
  Sc  Sc16  1  0.188153  0.505629  0.749934  1
  Sc  Sc17  1  0.688153  0.994371  0.750066  1
  Sc  Sc18  1  0.811593  0.494488  0.249958  1
  Sc  Sc19  1  0.311593  0.005512  0.250042  1
  Sn  Sn20  1  0.307987  0.043095  0.042284  1
  Sn  Sn21  1  0.807987  0.456905  0.457716  1
  Sn  Sn22  1  0.692126  0.956414  0.542261  1
  Sn  Sn23  1  0.192126  0.543586  0.957739  1
  Sn  Sn24  1  0.691804  0.956695  0.957731  1
  Sn  Sn25  1  0.191804  0.543305  0.542269  1
  Sn  Sn26  1  0.307847  0.042925  0.457645  1
  Sn  Sn27  1  0.807847  0.457075  0.042355  1
  Sn  Sn28  1  0.551781  0.626569  0.750191  1
  Sn  Sn29  1  0.051781  0.873431  0.749809  1
  Sn  Sn30  1  0.448167  0.373669  0.249970  1
  Sn  Sn31  1  0.948167  0.126331  0.250030  1
  Sn  Sn32  1  0.325305  0.147418  0.750055  1
  Sn  Sn33  1  0.825305  0.352582  0.749945  1
  Sn  Sn34  1  0.674752  0.852499  0.249955  1
  Sn  Sn35  1  0.174752  0.647501  0.250045  1
