# generated using pymatgen
data_YEr2Hf(Al3Ir)6
_symmetry_space_group_name_H-M   'P 1'
_cell_length_a   7.53910200
_cell_length_b   7.52941448
_cell_length_c   9.40307900
_cell_angle_alpha   90.00000000
_cell_angle_beta   90.00000000
_cell_angle_gamma   119.60330314
_symmetry_Int_Tables_number   1
_chemical_formula_structural   YEr2Hf(Al3Ir)6
_chemical_formula_sum   'Y1 Er2 Hf1 Al18 Ir6'
_cell_volume   464.09163270
_cell_formula_units_Z   1
loop_
 _symmetry_equiv_pos_site_id
 _symmetry_equiv_pos_as_xyz
  1  'x, y, z'
loop_
 _atom_site_type_symbol
 _atom_site_label
 _atom_site_symmetry_multiplicity
 _atom_site_fract_x
 _atom_site_fract_y
 _atom_site_fract_z
 _atom_site_occupancy
  Y  Y0  1  0.329063  0.006339  0.750000  1
  Er  Er1  1  0.005677  0.327542  0.750000  1
  Er  Er2  1  0.671323  0.995736  0.250000  1
  Hf  Hf3  1  0.997320  0.673179  0.250000  1
  Al  Al4  1  0.126228  0.123618  0.250000  1
  Al  Al5  1  0.870745  0.869783  0.750000  1
  Al  Al6  1  0.999967  0.337797  0.079144  1
  Al  Al7  1  0.999131  0.664625  0.929320  1
  Al  Al8  1  0.999131  0.664625  0.570680  1
  Al  Al9  1  0.332686  0.998052  0.420462  1
  Al  Al10  1  0.999967  0.337797  0.420856  1
  Al  Al11  1  0.664978  0.998546  0.574290  1
  Al  Al12  1  0.664978  0.998546  0.925710  1
  Al  Al13  1  0.332686  0.998052  0.079538  1
  Al  Al14  1  0.333413  0.333806  0.550416  1
  Al  Al15  1  0.668849  0.666885  0.443256  1
  Al  Al16  1  0.668849  0.666885  0.056744  1
  Al  Al17  1  0.333413  0.333806  0.949584  1
  Al  Al18  1  0.335910  0.549268  0.250000  1
  Al  Al19  1  0.661068  0.452517  0.750000  1
  Al  Al20  1  0.555092  0.344708  0.250000  1
  Al  Al21  1  0.450806  0.659195  0.750000  1
  Ir  Ir22  1  0.672855  0.328450  0.001215  1
  Ir  Ir23  1  0.327478  0.672126  0.001917  1
  Ir  Ir24  1  0.327478  0.672126  0.498083  1
  Ir  Ir25  1  0.672855  0.328450  0.498785  1
  Ir  Ir26  1  0.999027  0.998771  0.001507  1
  Ir  Ir27  1  0.999027  0.998771  0.498493  1
