# generated using pymatgen
data_Tb2Al2PdRu
_symmetry_space_group_name_H-M   'P 1'
_cell_length_a   4.21228500
_cell_length_b   6.99916277
_cell_length_c   8.04171733
_cell_angle_alpha   89.73187249
_cell_angle_beta   90.00000000
_cell_angle_gamma   90.00000000
_symmetry_Int_Tables_number   1
_chemical_formula_structural   Tb2Al2PdRu
_chemical_formula_sum   'Tb4 Al4 Pd2 Ru2'
_cell_volume   237.08708038
_cell_formula_units_Z   2
loop_
 _symmetry_equiv_pos_site_id
 _symmetry_equiv_pos_as_xyz
  1  'x, y, z'
loop_
 _atom_site_type_symbol
 _atom_site_label
 _atom_site_symmetry_multiplicity
 _atom_site_fract_x
 _atom_site_fract_y
 _atom_site_fract_z
 _atom_site_occupancy
  Tb  Tb0  1  0.250000  0.536309  0.811120  1
  Tb  Tb1  1  0.750000  0.463691  0.188880  1
  Tb  Tb2  1  0.250000  0.028320  0.675867  1
  Tb  Tb3  1  0.750000  0.971680  0.324133  1
  Al  Al4  1  0.250000  0.637646  0.441356  1
  Al  Al5  1  0.750000  0.362354  0.558644  1
  Al  Al6  1  0.250000  0.142622  0.065316  1
  Al  Al7  1  0.750000  0.857378  0.934684  1
  Pd  Pd8  1  0.750000  0.226902  0.883295  1
  Pd  Pd9  1  0.250000  0.773098  0.116705  1
  Ru  Ru10  1  0.750000  0.733271  0.621014  1
  Ru  Ru11  1  0.250000  0.266729  0.378986  1
