# generated using pymatgen
data_TbHo3(Tm3Sn4)2
_symmetry_space_group_name_H-M   'P 1'
_cell_length_a   7.96840400
_cell_length_b   8.10412404
_cell_length_c   15.30984308
_cell_angle_alpha   90.01153240
_cell_angle_beta   90.00000000
_cell_angle_gamma   90.00000000
_symmetry_Int_Tables_number   1
_chemical_formula_structural   TbHo3(Tm3Sn4)2
_chemical_formula_sum   'Tb2 Ho6 Tm12 Sn16'
_cell_volume   988.66271245
_cell_formula_units_Z   2
loop_
 _symmetry_equiv_pos_site_id
 _symmetry_equiv_pos_as_xyz
  1  'x, y, z'
loop_
 _atom_site_type_symbol
 _atom_site_label
 _atom_site_symmetry_multiplicity
 _atom_site_fract_x
 _atom_site_fract_y
 _atom_site_fract_z
 _atom_site_occupancy
  Tb  Tb0  1  0.520815  0.320522  0.597127  1
  Tb  Tb1  1  0.020815  0.179478  0.902873  1
  Ho  Ho2  1  0.520890  0.320533  0.902728  1
  Ho  Ho3  1  0.020890  0.179467  0.597272  1
  Ho  Ho4  1  0.479162  0.679510  0.402729  1
  Ho  Ho5  1  0.979162  0.820490  0.097271  1
  Ho  Ho6  1  0.479145  0.679507  0.097241  1
  Ho  Ho7  1  0.979145  0.820493  0.402759  1
  Tm  Tm8  1  0.367091  0.836434  0.877431  1
  Tm  Tm9  1  0.867091  0.663566  0.622569  1
  Tm  Tm10  1  0.632976  0.163412  0.377329  1
  Tm  Tm11  1  0.132976  0.336588  0.122671  1
  Tm  Tm12  1  0.632959  0.163444  0.122626  1
  Tm  Tm13  1  0.132959  0.336556  0.377374  1
  Tm  Tm14  1  0.367068  0.836470  0.622587  1
  Tm  Tm15  1  0.867068  0.663530  0.877413  1
  Tm  Tm16  1  0.198028  0.503934  0.750016  1
  Tm  Tm17  1  0.698028  0.996066  0.749984  1
  Tm  Tm18  1  0.801968  0.496215  0.250021  1
  Tm  Tm19  1  0.301968  0.003785  0.249979  1
  Sn  Sn20  1  0.294524  0.036983  0.041816  1
  Sn  Sn21  1  0.794524  0.463017  0.458184  1
  Sn  Sn22  1  0.706021  0.962589  0.541567  1
  Sn  Sn23  1  0.206021  0.537411  0.958433  1
  Sn  Sn24  1  0.705327  0.962487  0.958481  1
  Sn  Sn25  1  0.205327  0.537513  0.541519  1
  Sn  Sn26  1  0.294142  0.037123  0.458360  1
  Sn  Sn27  1  0.794142  0.462877  0.041640  1
  Sn  Sn28  1  0.564211  0.620947  0.750027  1
  Sn  Sn29  1  0.064211  0.879053  0.749973  1
  Sn  Sn30  1  0.435860  0.379173  0.249976  1
  Sn  Sn31  1  0.935860  0.120827  0.250024  1
  Sn  Sn32  1  0.329800  0.147215  0.750149  1
  Sn  Sn33  1  0.829800  0.352785  0.749851  1
  Sn  Sn34  1  0.670012  0.852417  0.249990  1
  Sn  Sn35  1  0.170012  0.647583  0.250010  1
