# generated using pymatgen
data_La4GeAsPd28
_symmetry_space_group_name_H-M   'P 1'
_cell_length_a   9.03935200
_cell_length_b   9.03935200
_cell_length_c   7.22309700
_cell_angle_alpha   90.00000000
_cell_angle_beta   90.00000000
_cell_angle_gamma   90.00000000
_symmetry_Int_Tables_number   1
_chemical_formula_structural   La4GeAsPd28
_chemical_formula_sum   'La4 Ge1 As1 Pd28'
_cell_volume   590.19842218
_cell_formula_units_Z   1
loop_
 _symmetry_equiv_pos_site_id
 _symmetry_equiv_pos_as_xyz
  1  'x, y, z'
loop_
 _atom_site_type_symbol
 _atom_site_label
 _atom_site_symmetry_multiplicity
 _atom_site_fract_x
 _atom_site_fract_y
 _atom_site_fract_z
 _atom_site_occupancy
  La  La0  1  0.500000  0.000000  0.937612  1
  La  La1  1  0.000000  0.500000  0.062958  1
  La  La2  1  0.000000  0.000000  0.499924  1
  La  La3  1  0.500000  0.500000  0.499924  1
  Ge  Ge4  1  0.000000  0.500000  0.550228  1
  As  As5  1  0.500000  0.000000  0.449430  1
  Pd  Pd6  1  0.331174  0.831174  0.620700  1
  Pd  Pd7  1  0.331174  0.168826  0.620700  1
  Pd  Pd8  1  0.668826  0.831174  0.620700  1
  Pd  Pd9  1  0.668826  0.168826  0.620700  1
  Pd  Pd10  1  0.169015  0.669015  0.379334  1
  Pd  Pd11  1  0.169015  0.330985  0.379334  1
  Pd  Pd12  1  0.830985  0.669015  0.379334  1
  Pd  Pd13  1  0.830985  0.330985  0.379334  1
  Pd  Pd14  1  0.500000  0.766550  0.253520  1
  Pd  Pd15  1  0.500000  0.233450  0.253520  1
  Pd  Pd16  1  0.266550  0.000000  0.253520  1
  Pd  Pd17  1  0.733450  0.000000  0.253520  1
  Pd  Pd18  1  0.000000  0.733535  0.746309  1
  Pd  Pd19  1  0.000000  0.266465  0.746309  1
  Pd  Pd20  1  0.233535  0.500000  0.746309  1
  Pd  Pd21  1  0.766465  0.500000  0.746309  1
  Pd  Pd22  1  0.500000  0.348890  0.856548  1
  Pd  Pd23  1  0.500000  0.651110  0.856548  1
  Pd  Pd24  1  0.848890  0.000000  0.856548  1
  Pd  Pd25  1  0.151110  0.000000  0.856548  1
  Pd  Pd26  1  0.000000  0.150589  0.143648  1
  Pd  Pd27  1  0.000000  0.849411  0.143648  1
  Pd  Pd28  1  0.650589  0.500000  0.143648  1
  Pd  Pd29  1  0.349411  0.500000  0.143648  1
  Pd  Pd30  1  0.249738  0.749738  0.999923  1
  Pd  Pd31  1  0.249738  0.250262  0.999923  1
  Pd  Pd32  1  0.750262  0.749738  0.999923  1
  Pd  Pd33  1  0.750262  0.250262  0.999923  1
