# generated using pymatgen
data_HfSc3(Al8Pt3)3
_symmetry_space_group_name_H-M   'P 1'
_cell_length_a   7.47210616
_cell_length_b   7.47690868
_cell_length_c   13.00160455
_cell_angle_alpha   84.58560872
_cell_angle_beta   79.05243297
_cell_angle_gamma   59.89743983
_symmetry_Int_Tables_number   1
_chemical_formula_structural   HfSc3(Al8Pt3)3
_chemical_formula_sum   'Hf1 Sc3 Al24 Pt9'
_cell_volume   616.97325819
_cell_formula_units_Z   1
loop_
 _symmetry_equiv_pos_site_id
 _symmetry_equiv_pos_as_xyz
  1  'x, y, z'
loop_
 _atom_site_type_symbol
 _atom_site_label
 _atom_site_symmetry_multiplicity
 _atom_site_fract_x
 _atom_site_fract_y
 _atom_site_fract_z
 _atom_site_occupancy
  Hf  Hf0  1  0.393357  0.168243  0.809054  1
  Sc  Sc1  1  0.606474  0.831516  0.192117  1
  Sc  Sc2  1  0.733507  0.499286  0.807732  1
  Sc  Sc3  1  0.266843  0.500769  0.192400  1
  Al  Al4  1  0.681952  0.833968  0.940791  1
  Al  Al5  1  0.318502  0.166367  0.058209  1
  Al  Al6  1  0.146158  0.832800  0.563185  1
  Al  Al7  1  0.853514  0.167024  0.437012  1
  Al  Al8  1  0.479943  0.166692  0.560333  1
  Al  Al9  1  0.519876  0.833438  0.440052  1
  Al  Al10  1  0.221497  0.165368  0.324151  1
  Al  Al11  1  0.778367  0.834352  0.677280  1
  Al  Al12  1  0.437044  0.504474  0.677874  1
  Al  Al13  1  0.562090  0.496151  0.322952  1
  Al  Al14  1  0.106996  0.162323  0.676772  1
  Al  Al15  1  0.892299  0.837108  0.323966  1
  Al  Al16  1  0.357320  0.496151  0.940736  1
  Al  Al17  1  0.643457  0.503786  0.058146  1
  Al  Al18  1  0.017488  0.170902  0.947512  1
  Al  Al19  1  0.983275  0.829555  0.050991  1
  Al  Al20  1  0.186907  0.499608  0.440118  1
  Al  Al21  1  0.813271  0.500284  0.559963  1
  Al  Al22  1  0.730285  0.163858  0.182852  1
  Al  Al23  1  0.269181  0.838652  0.816909  1
  Al  Al24  1  0.063542  0.625542  0.815746  1
  Al  Al25  1  0.939301  0.372369  0.183867  1
  Al  Al26  1  0.848730  0.045478  0.816204  1
  Al  Al27  1  0.149029  0.954121  0.183476  1
  Pt  Pt28  1  0.120515  0.489596  0.640054  1
  Pt  Pt29  1  0.879340  0.508963  0.360724  1
  Pt  Pt30  1  0.657451  0.171811  0.998850  1
  Pt  Pt31  1  0.343275  0.828817  0.999327  1
  Pt  Pt32  1  0.537352  0.166688  0.360877  1
  Pt  Pt33  1  0.463285  0.833507  0.639936  1
  Pt  Pt34  1  0.776981  0.176529  0.638285  1
  Pt  Pt35  1  0.221039  0.824328  0.362637  1
  Pt  Pt36  1  0.000558  0.499573  0.998908  1
