# generated using pymatgen
data_Tb5Y2Co4Tc2Sn23
_symmetry_space_group_name_H-M   'P 1'
_cell_length_a   9.78431263
_cell_length_b   9.78431162
_cell_length_c   10.04072007
_cell_angle_alpha   89.92256357
_cell_angle_beta   90.07743628
_cell_angle_gamma   119.52426780
_symmetry_Int_Tables_number   1
_chemical_formula_structural   Tb5Y2Co4Tc2Sn23
_chemical_formula_sum   'Tb5 Y2 Co4 Tc2 Sn23'
_cell_volume   836.40684263
_cell_formula_units_Z   1
loop_
 _symmetry_equiv_pos_site_id
 _symmetry_equiv_pos_as_xyz
  1  'x, y, z'
loop_
 _atom_site_type_symbol
 _atom_site_label
 _atom_site_symmetry_multiplicity
 _atom_site_fract_x
 _atom_site_fract_y
 _atom_site_fract_z
 _atom_site_occupancy
  Tb  Tb0  1  0.000000  0.000000  0.000000  1
  Tb  Tb1  1  0.482461  0.960081  0.305364  1
  Tb  Tb2  1  0.517539  0.039919  0.694636  1
  Tb  Tb3  1  0.039919  0.517539  0.305364  1
  Tb  Tb4  1  0.960081  0.482461  0.694636  1
  Y  Y5  1  0.480525  0.519475  0.307060  1
  Y  Y6  1  0.519475  0.480525  0.692940  1
  Co  Co7  1  0.829872  0.660041  0.198009  1
  Co  Co8  1  0.170128  0.339959  0.801991  1
  Co  Co9  1  0.339959  0.170128  0.198009  1
  Co  Co10  1  0.660041  0.829872  0.801991  1
  Tc  Tc11  1  0.835010  0.164990  0.202670  1
  Tc  Tc12  1  0.164990  0.835010  0.797330  1
  Sn  Sn13  1  0.347475  0.001104  0.004159  1
  Sn  Sn14  1  0.652525  0.998896  0.995841  1
  Sn  Sn15  1  0.001104  0.347475  0.995841  1
  Sn  Sn16  1  0.998896  0.652525  0.004159  1
  Sn  Sn17  1  0.651765  0.651765  0.000000  1
  Sn  Sn18  1  0.348235  0.348235  0.000000  1
  Sn  Sn19  1  0.333522  0.666478  0.816601  1
  Sn  Sn20  1  0.666478  0.333522  0.183399  1
  Sn  Sn21  1  0.000000  0.000000  0.500000  1
  Sn  Sn22  1  0.780238  0.219762  0.460070  1
  Sn  Sn23  1  0.219762  0.780238  0.539930  1
  Sn  Sn24  1  0.782408  0.565143  0.452551  1
  Sn  Sn25  1  0.217592  0.434857  0.547449  1
  Sn  Sn26  1  0.434857  0.217592  0.452551  1
  Sn  Sn27  1  0.565143  0.782408  0.547449  1
  Sn  Sn28  1  0.333336  0.666664  0.118857  1
  Sn  Sn29  1  0.666664  0.333336  0.881143  1
  Sn  Sn30  1  0.116898  0.883102  0.272885  1
  Sn  Sn31  1  0.883102  0.116898  0.727115  1
  Sn  Sn32  1  0.127993  0.238422  0.270251  1
  Sn  Sn33  1  0.872007  0.761578  0.729749  1
  Sn  Sn34  1  0.761578  0.872007  0.270251  1
  Sn  Sn35  1  0.238422  0.127993  0.729749  1
