# generated using pymatgen
data_Pr2Nd2Al18PtRh5
_symmetry_space_group_name_H-M   'P 1'
_cell_length_a   7.64920580
_cell_length_b   7.64755466
_cell_length_c   9.62162800
_cell_angle_alpha   89.98933251
_cell_angle_beta   89.98720320
_cell_angle_gamma   119.39685587
_symmetry_Int_Tables_number   1
_chemical_formula_structural   Pr2Nd2Al18PtRh5
_chemical_formula_sum   'Pr2 Nd2 Al18 Pt1 Rh5'
_cell_volume   490.37197357
_cell_formula_units_Z   1
loop_
 _symmetry_equiv_pos_site_id
 _symmetry_equiv_pos_as_xyz
  1  'x, y, z'
loop_
 _atom_site_type_symbol
 _atom_site_label
 _atom_site_symmetry_multiplicity
 _atom_site_fract_x
 _atom_site_fract_y
 _atom_site_fract_z
 _atom_site_occupancy
  Pr  Pr0  1  0.671370  0.995030  0.749713  1
  Pr  Pr1  1  0.328630  0.004970  0.250287  1
  Nd  Nd2  1  0.995185  0.671384  0.749722  1
  Nd  Nd3  1  0.004815  0.328616  0.250278  1
  Al  Al4  1  0.133221  0.132932  0.752770  1
  Al  Al5  1  0.866779  0.867068  0.247230  1
  Al  Al6  1  0.003150  0.339258  0.574803  1
  Al  Al7  1  0.996850  0.660742  0.425197  1
  Al  Al8  1  0.997371  0.663856  0.072917  1
  Al  Al9  1  0.334926  0.002111  0.926623  1
  Al  Al10  1  0.002629  0.336144  0.927083  1
  Al  Al11  1  0.665074  0.997889  0.073377  1
  Al  Al12  1  0.661875  0.997320  0.424779  1
  Al  Al13  1  0.338125  0.002680  0.575221  1
  Al  Al14  1  0.333805  0.334238  0.045745  1
  Al  Al15  1  0.666195  0.665762  0.954255  1
  Al  Al16  1  0.662841  0.662392  0.547555  1
  Al  Al17  1  0.337159  0.337608  0.452445  1
  Al  Al18  1  0.339361  0.547710  0.750257  1
  Al  Al19  1  0.660639  0.452290  0.249743  1
  Al  Al20  1  0.548562  0.341049  0.750274  1
  Al  Al21  1  0.451438  0.658951  0.249726  1
  Pt  Pt22  1  0.000000  0.000000  0.500000  1
  Rh  Rh23  1  0.671224  0.329284  0.500028  1
  Rh  Rh24  1  0.328776  0.670716  0.499972  1
  Rh  Rh25  1  0.328633  0.670842  0.000036  1
  Rh  Rh26  1  0.671367  0.329158  0.999964  1
  Rh  Rh27  1  0.000000  0.000000  0.000000  1
