# generated using pymatgen
data_AcTh2(ZnPd)4
_symmetry_space_group_name_H-M   'P 1'
_cell_length_a   8.40655801
_cell_length_b   8.40655973
_cell_length_c   8.40655900
_cell_angle_alpha   151.96921385
_cell_angle_beta   125.18314753
_cell_angle_gamma   62.68467854
_symmetry_Int_Tables_number   1
_chemical_formula_structural   AcTh2(ZnPd)4
_chemical_formula_sum   'Ac1 Th2 Zn4 Pd4'
_cell_volume   226.26798591
_cell_formula_units_Z   1
loop_
 _symmetry_equiv_pos_site_id
 _symmetry_equiv_pos_as_xyz
  1  'x, y, z'
loop_
 _atom_site_type_symbol
 _atom_site_label
 _atom_site_symmetry_multiplicity
 _atom_site_fract_x
 _atom_site_fract_y
 _atom_site_fract_z
 _atom_site_occupancy
  Ac  Ac0  1  0.500000  0.000000  0.500000  1
  Th  Th1  1  0.871795  0.871795  0.000000  1
  Th  Th2  1  0.128205  0.128205  0.000000  1
  Zn  Zn3  1  0.477227  0.675402  0.801825  1
  Zn  Zn4  1  0.873577  0.675402  0.198175  1
  Zn  Zn5  1  0.126423  0.324598  0.801825  1
  Zn  Zn6  1  0.522773  0.324598  0.198175  1
  Pd  Pd7  1  0.279048  0.779048  0.500000  1
  Pd  Pd8  1  0.720952  0.220952  0.500000  1
  Pd  Pd9  1  0.814252  0.500000  0.314252  1
  Pd  Pd10  1  0.185748  0.500000  0.685748  1
