# generated using pymatgen
data_Pr4Ge3O11F2
_symmetry_space_group_name_H-M   'P 1'
_cell_length_a   6.89082878
_cell_length_b   7.02079738
_cell_length_c   14.09987300
_cell_angle_alpha   87.58115198
_cell_angle_beta   85.78704289
_cell_angle_gamma   60.84962887
_symmetry_Int_Tables_number   1
_chemical_formula_structural   Pr4Ge3O11F2
_chemical_formula_sum   'Pr8 Ge6 O22 F4'
_cell_volume   594.11662488
_cell_formula_units_Z   2
loop_
 _symmetry_equiv_pos_site_id
 _symmetry_equiv_pos_as_xyz
  1  'x, y, z'
loop_
 _atom_site_type_symbol
 _atom_site_label
 _atom_site_symmetry_multiplicity
 _atom_site_fract_x
 _atom_site_fract_y
 _atom_site_fract_z
 _atom_site_occupancy
  Pr  Pr0  1  0.671004  0.633628  0.798711  1
  Pr  Pr1  1  0.328996  0.366372  0.201289  1
  Pr  Pr2  1  0.067412  0.720942  0.970095  1
  Pr  Pr3  1  0.932588  0.279058  0.029905  1
  Pr  Pr4  1  0.782012  0.787987  0.471394  1
  Pr  Pr5  1  0.217988  0.212013  0.528606  1
  Pr  Pr6  1  0.177232  0.693559  0.670077  1
  Pr  Pr7  1  0.822768  0.306441  0.329923  1
  Ge  Ge8  1  0.503609  0.757144  0.065574  1
  Ge  Ge9  1  0.496391  0.242856  0.934426  1
  Ge  Ge10  1  0.774734  0.842374  0.215405  1
  Ge  Ge11  1  0.225266  0.157626  0.784595  1
  Ge  Ge12  1  0.728802  0.274005  0.581228  1
  Ge  Ge13  1  0.271198  0.725995  0.418772  1
  O  O14  1  0.734860  0.664753  0.978280  1
  O  O15  1  0.265140  0.335247  0.021720  1
  O  O16  1  0.755965  0.087942  0.983471  1
  O  O17  1  0.244035  0.912058  0.016529  1
  O  O18  1  0.443333  0.499523  0.885627  1
  O  O19  1  0.556667  0.500477  0.114373  1
  O  O20  1  0.521571  0.923444  0.153855  1
  O  O21  1  0.478429  0.076556  0.846145  1
  O  O22  1  0.800639  0.670370  0.313736  1
  O  O23  1  0.199361  0.329630  0.686264  1
  O  O24  1  0.302634  0.887243  0.756395  1
  O  O25  1  0.697366  0.112757  0.243605  1
  O  O26  1  0.984160  0.298483  0.859261  1
  O  O27  1  0.015840  0.701517  0.140739  1
  O  O28  1  0.591318  0.161093  0.519892  1
  O  O29  1  0.408682  0.838907  0.480108  1
  O  O30  1  0.574190  0.462849  0.671343  1
  O  O31  1  0.425810  0.537151  0.328657  1
  O  O32  1  0.172707  0.589470  0.508089  1
  O  O33  1  0.827293  0.410530  0.491911  1
  O  O34  1  0.990902  0.061513  0.612323  1
  O  O35  1  0.009098  0.938487  0.387677  1
  F  F36  1  0.960702  0.733725  0.813326  1
  F  F37  1  0.039298  0.266275  0.186674  1
  F  F38  1  0.795798  0.743167  0.645525  1
  F  F39  1  0.204202  0.256833  0.354475  1
