# generated using pymatgen
data_Lu9Sc(Ga2Sb)2
_symmetry_space_group_name_H-M   'P 1'
_cell_length_a   8.47898703
_cell_length_b   8.48651532
_cell_length_c   6.32117570
_cell_angle_alpha   89.94585086
_cell_angle_beta   90.02710035
_cell_angle_gamma   120.02936997
_symmetry_Int_Tables_number   1
_chemical_formula_structural   Lu9Sc(Ga2Sb)2
_chemical_formula_sum   'Lu9 Sc1 Ga4 Sb2'
_cell_volume   393.79759865
_cell_formula_units_Z   1
loop_
 _symmetry_equiv_pos_site_id
 _symmetry_equiv_pos_as_xyz
  1  'x, y, z'
loop_
 _atom_site_type_symbol
 _atom_site_label
 _atom_site_symmetry_multiplicity
 _atom_site_fract_x
 _atom_site_fract_y
 _atom_site_fract_z
 _atom_site_occupancy
  Lu  Lu0  1  0.314807  0.657403  0.000000  1
  Lu  Lu1  1  0.669957  0.334978  0.500000  1
  Lu  Lu2  1  0.669665  0.334832  0.000000  1
  Lu  Lu3  1  0.232756  0.999542  0.250954  1
  Lu  Lu4  1  0.232756  0.233215  0.749046  1
  Lu  Lu5  1  0.013718  0.764639  0.748469  1
  Lu  Lu6  1  0.013718  0.249078  0.251531  1
  Lu  Lu7  1  0.764656  0.751254  0.250211  1
  Lu  Lu8  1  0.764656  0.013403  0.749789  1
  Sc  Sc9  1  0.315102  0.657551  0.500000  1
  Ga  Ga10  1  0.000470  0.400669  0.746198  1
  Ga  Ga11  1  0.000470  0.599800  0.253802  1
  Ga  Ga12  1  0.401300  0.399634  0.251894  1
  Ga  Ga13  1  0.401300  0.001665  0.748106  1
  Sb  Sb14  1  0.602334  0.992309  0.253660  1
  Sb  Sb15  1  0.602334  0.610025  0.746340  1
