# generated using pymatgen
data_Sr4DySc7Se16
_symmetry_space_group_name_H-M   'P 1'
_cell_length_a   4.00384400
_cell_length_b   12.34352495
_cell_length_c   14.46556904
_cell_angle_alpha   90.18508408
_cell_angle_beta   90.00000000
_cell_angle_gamma   90.00000000
_symmetry_Int_Tables_number   1
_chemical_formula_structural   Sr4DySc7Se16
_chemical_formula_sum   'Sr4 Dy1 Sc7 Se16'
_cell_volume   714.90708938
_cell_formula_units_Z   1
loop_
 _symmetry_equiv_pos_site_id
 _symmetry_equiv_pos_as_xyz
  1  'x, y, z'
loop_
 _atom_site_type_symbol
 _atom_site_label
 _atom_site_symmetry_multiplicity
 _atom_site_fract_x
 _atom_site_fract_y
 _atom_site_fract_z
 _atom_site_occupancy
  Sr  Sr0  1  0.250000  0.759641  0.664128  1
  Sr  Sr1  1  0.750000  0.744158  0.172328  1
  Sr  Sr2  1  0.250000  0.260219  0.831079  1
  Sr  Sr3  1  0.750000  0.239558  0.332993  1
  Dy  Dy4  1  0.750000  0.581702  0.903782  1
  Sc  Sc5  1  0.250000  0.436838  0.606112  1
  Sc  Sc6  1  0.750000  0.060911  0.110170  1
  Sc  Sc7  1  0.250000  0.942539  0.888915  1
  Sc  Sc8  1  0.750000  0.559921  0.389185  1
  Sc  Sc9  1  0.250000  0.417508  0.100690  1
  Sc  Sc10  1  0.750000  0.079842  0.596998  1
  Sc  Sc11  1  0.250000  0.921698  0.402581  1
  Se  Se12  1  0.250000  0.412941  0.422463  1
  Se  Se13  1  0.750000  0.087571  0.924982  1
  Se  Se14  1  0.250000  0.914625  0.074287  1
  Se  Se15  1  0.750000  0.585062  0.573221  1
  Se  Se16  1  0.250000  0.028786  0.714422  1
  Se  Se17  1  0.750000  0.470947  0.216844  1
  Se  Se18  1  0.250000  0.521785  0.778394  1
  Se  Se19  1  0.750000  0.973916  0.285041  1
  Se  Se20  1  0.250000  0.124806  0.472557  1
  Se  Se21  1  0.750000  0.368740  0.977126  1
  Se  Se22  1  0.250000  0.625789  0.038063  1
  Se  Se23  1  0.750000  0.875760  0.526525  1
  Se  Se24  1  0.250000  0.203849  0.163342  1
  Se  Se25  1  0.750000  0.293734  0.658693  1
  Se  Se26  1  0.250000  0.705682  0.341072  1
  Se  Se27  1  0.750000  0.801472  0.834008  1
