# generated using pymatgen
data_TbHo5(ScAu5)2
_symmetry_space_group_name_H-M   'P 1'
_cell_length_a   7.90385609
_cell_length_b   7.90528826
_cell_length_c   7.90171419
_cell_angle_alpha   66.26045744
_cell_angle_beta   66.28100558
_cell_angle_gamma   66.24552811
_symmetry_Int_Tables_number   1
_chemical_formula_structural   TbHo5(ScAu5)2
_chemical_formula_sum   'Tb1 Ho5 Sc2 Au10'
_cell_volume   396.30570665
_cell_formula_units_Z   1
loop_
 _symmetry_equiv_pos_site_id
 _symmetry_equiv_pos_as_xyz
  1  'x, y, z'
loop_
 _atom_site_type_symbol
 _atom_site_label
 _atom_site_symmetry_multiplicity
 _atom_site_fract_x
 _atom_site_fract_y
 _atom_site_fract_z
 _atom_site_occupancy
  Tb  Tb0  1  0.891501  0.189074  0.618504  1
  Ho  Ho1  1  0.618519  0.891535  0.189085  1
  Ho  Ho2  1  0.189099  0.618519  0.891597  1
  Ho  Ho3  1  0.108467  0.810847  0.381382  1
  Ho  Ho4  1  0.381228  0.108460  0.810929  1
  Ho  Ho5  1  0.810947  0.381403  0.108466  1
  Sc  Sc6  1  0.658518  0.658746  0.658616  1
  Sc  Sc7  1  0.341653  0.341319  0.341338  1
  Au  Au8  1  0.000102  0.999712  0.000536  1
  Au  Au9  1  0.499849  0.500213  0.499873  1
  Au  Au10  1  0.806758  0.806307  0.807190  1
  Au  Au11  1  0.193340  0.193059  0.192878  1
  Au  Au12  1  0.937216  0.551728  0.317225  1
  Au  Au13  1  0.318256  0.936905  0.550978  1
  Au  Au14  1  0.550586  0.318006  0.937497  1
  Au  Au15  1  0.063063  0.449179  0.682204  1
  Au  Au16  1  0.682012  0.062762  0.448771  1
  Au  Au17  1  0.448886  0.682225  0.062930  1
