# generated using pymatgen
data_Li3Sm3(PtO6)2
_symmetry_space_group_name_H-M   'P 1'
_cell_length_a   10.82509996
_cell_length_b   10.82509963
_cell_length_c   10.82510000
_cell_angle_alpha   109.47121759
_cell_angle_beta   109.47122257
_cell_angle_gamma   109.47122120
_symmetry_Int_Tables_number   1
_chemical_formula_structural   Li3Sm3(PtO6)2
_chemical_formula_sum   'Li12 Sm12 Pt8 O48'
_cell_volume   976.50359552
_cell_formula_units_Z   4
loop_
 _symmetry_equiv_pos_site_id
 _symmetry_equiv_pos_as_xyz
  1  'x, y, z'
loop_
 _atom_site_type_symbol
 _atom_site_label
 _atom_site_symmetry_multiplicity
 _atom_site_fract_x
 _atom_site_fract_y
 _atom_site_fract_z
 _atom_site_occupancy
  Li  Li0  1  0.874999  0.750000  0.124999  1
  Li  Li1  1  0.750000  0.375001  0.125001  1
  Li  Li2  1  0.124999  0.374999  0.250000  1
  Li  Li3  1  0.624999  0.874999  0.250000  1
  Li  Li4  1  0.250000  0.124999  0.374999  1
  Li  Li5  1  0.625000  0.250001  0.375001  1
  Li  Li6  1  0.375000  0.750000  0.624999  1
  Li  Li7  1  0.750000  0.875001  0.625001  1
  Li  Li8  1  0.375000  0.125000  0.750000  1
  Li  Li9  1  0.875000  0.625000  0.750000  1
  Li  Li10  1  0.250000  0.625000  0.874999  1
  Li  Li11  1  0.125000  0.249999  0.875001  1
  Sm  Sm12  1  0.375000  0.250001  0.124999  1
  Sm  Sm13  1  0.250000  0.875000  0.125001  1
  Sm  Sm14  1  0.374999  0.624999  0.250000  1
  Sm  Sm15  1  0.875000  0.125001  0.250000  1
  Sm  Sm16  1  0.750000  0.625000  0.375001  1
  Sm  Sm17  1  0.124999  0.750000  0.375001  1
  Sm  Sm18  1  0.875000  0.250000  0.624999  1
  Sm  Sm19  1  0.250000  0.375000  0.624999  1
  Sm  Sm20  1  0.125000  0.874999  0.750000  1
  Sm  Sm21  1  0.625001  0.375001  0.750000  1
  Sm  Sm22  1  0.749999  0.124999  0.874999  1
  Sm  Sm23  1  0.625000  0.750000  0.875001  1
  Pt  Pt24  1  0.000000  0.000000  0.000000  1
  Pt  Pt25  1  0.500000  0.000000  0.000000  1
  Pt  Pt26  1  0.000000  0.500000  0.000000  1
  Pt  Pt27  1  0.500000  0.500000  0.000000  1
  Pt  Pt28  1  0.000000  0.000000  0.500000  1
  Pt  Pt29  1  0.500000  0.000000  0.500000  1
  Pt  Pt30  1  0.000000  0.500000  0.500000  1
  Pt  Pt31  1  0.500000  0.500000  0.500000  1
  O  O32  1  0.325985  0.410180  0.028612  1
  O  O33  1  0.202628  0.618433  0.028613  1
  O  O34  1  0.702627  0.174014  0.084194  1
  O  O35  1  0.881568  0.910180  0.084195  1
  O  O36  1  0.618432  0.915805  0.089820  1
  O  O37  1  0.971388  0.174016  0.089821  1
  O  O38  1  0.589819  0.415805  0.118432  1
  O  O39  1  0.028612  0.702627  0.118433  1
  O  O40  1  0.471388  0.089821  0.174016  1
  O  O41  1  0.202627  0.084195  0.174016  1
  O  O42  1  0.584193  0.674015  0.202627  1
  O  O43  1  0.118432  0.528613  0.202627  1
  O  O44  1  0.325985  0.415806  0.297373  1
  O  O45  1  0.471387  0.881568  0.297373  1
  O  O46  1  0.915805  0.797372  0.325985  1
  O  O47  1  0.910179  0.528612  0.325985  1
  O  O48  1  0.584195  0.410180  0.381567  1
  O  O49  1  0.297373  0.971388  0.381568  1
  O  O50  1  0.825985  0.028613  0.410180  1
  O  O51  1  0.084194  0.381568  0.410180  1
  O  O52  1  0.825985  0.297373  0.415805  1
  O  O53  1  0.089820  0.118433  0.415806  1
  O  O54  1  0.589820  0.674014  0.471388  1
  O  O55  1  0.381567  0.797373  0.471388  1
  O  O56  1  0.618432  0.202627  0.528612  1
  O  O57  1  0.410179  0.325985  0.528612  1
  O  O58  1  0.910180  0.881567  0.584194  1
  O  O59  1  0.174014  0.702627  0.584195  1
  O  O60  1  0.915805  0.618432  0.589820  1
  O  O61  1  0.174014  0.971386  0.589820  1
  O  O62  1  0.702626  0.028612  0.618432  1
  O  O63  1  0.415804  0.589819  0.618433  1
  O  O64  1  0.089820  0.471387  0.674015  1
  O  O65  1  0.084194  0.202627  0.674015  1
  O  O66  1  0.528612  0.118432  0.702627  1
  O  O67  1  0.674014  0.584194  0.702627  1
  O  O68  1  0.881567  0.471387  0.797373  1
  O  O69  1  0.415806  0.325985  0.797373  1
  O  O70  1  0.797373  0.915805  0.825984  1
  O  O71  1  0.528612  0.910179  0.825984  1
  O  O72  1  0.971387  0.297372  0.881567  1
  O  O73  1  0.410180  0.584195  0.881568  1
  O  O74  1  0.028611  0.825984  0.910179  1
  O  O75  1  0.381567  0.084195  0.910180  1
  O  O76  1  0.118432  0.089820  0.915805  1
  O  O77  1  0.297373  0.825986  0.915806  1
  O  O78  1  0.797372  0.381567  0.971387  1
  O  O79  1  0.674014  0.589819  0.971388  1
