# generated using pymatgen
data_Sm3Er(B4Ru)4
_symmetry_space_group_name_H-M   'P 1'
_cell_length_a   3.59206200
_cell_length_b   6.00719726
_cell_length_c   11.61165143
_cell_angle_alpha   89.92584449
_cell_angle_beta   90.00000000
_cell_angle_gamma   90.00000000
_symmetry_Int_Tables_number   1
_chemical_formula_structural   Sm3Er(B4Ru)4
_chemical_formula_sum   'Sm3 Er1 B16 Ru4'
_cell_volume   250.55861731
_cell_formula_units_Z   1
loop_
 _symmetry_equiv_pos_site_id
 _symmetry_equiv_pos_as_xyz
  1  'x, y, z'
loop_
 _atom_site_type_symbol
 _atom_site_label
 _atom_site_symmetry_multiplicity
 _atom_site_fract_x
 _atom_site_fract_y
 _atom_site_fract_z
 _atom_site_occupancy
  Sm  Sm0  1  0.000000  0.628196  0.349665  1
  Sm  Sm1  1  0.000000  0.371843  0.650931  1
  Sm  Sm2  1  0.000000  0.128176  0.149782  1
  Er  Er3  1  0.000000  0.871776  0.849906  1
  B  B4  1  0.500000  0.786244  0.183856  1
  B  B5  1  0.500000  0.209950  0.815645  1
  B  B6  1  0.500000  0.286363  0.315406  1
  B  B7  1  0.500000  0.713788  0.686466  1
  B  B8  1  0.500000  0.863283  0.028727  1
  B  B9  1  0.500000  0.136579  0.968100  1
  B  B10  1  0.500000  0.361963  0.469846  1
  B  B11  1  0.500000  0.638101  0.531599  1
  B  B12  1  0.500000  0.888883  0.454656  1
  B  B13  1  0.500000  0.110408  0.547066  1
  B  B14  1  0.500000  0.389674  0.044739  1
  B  B15  1  0.500000  0.613647  0.952364  1
  B  B16  1  0.500000  0.976063  0.309623  1
  B  B17  1  0.500000  0.022525  0.692702  1
  B  B18  1  0.500000  0.476293  0.189647  1
  B  B19  1  0.500000  0.526076  0.809336  1
  Ru  Ru20  1  0.000000  0.639958  0.090026  1
  Ru  Ru21  1  0.000000  0.360417  0.907597  1
  Ru  Ru22  1  0.000000  0.138280  0.408823  1
  Ru  Ru23  1  0.000000  0.861514  0.593493  1
