# generated using pymatgen
data_Lu4ReOs6W
_symmetry_space_group_name_H-M   'P 1'
_cell_length_a   5.36438008
_cell_length_b   5.32334853
_cell_length_c   8.84822300
_cell_angle_alpha   90.00000000
_cell_angle_beta   90.00000000
_cell_angle_gamma   121.62047153
_symmetry_Int_Tables_number   1
_chemical_formula_structural   Lu4ReOs6W
_chemical_formula_sum   'Lu4 Re1 Os6 W1'
_cell_volume   215.16190594
_cell_formula_units_Z   1
loop_
 _symmetry_equiv_pos_site_id
 _symmetry_equiv_pos_as_xyz
  1  'x, y, z'
loop_
 _atom_site_type_symbol
 _atom_site_label
 _atom_site_symmetry_multiplicity
 _atom_site_fract_x
 _atom_site_fract_y
 _atom_site_fract_z
 _atom_site_occupancy
  Lu  Lu0  1  0.337680  0.668189  0.434022  1
  Lu  Lu1  1  0.669843  0.341307  0.563787  1
  Lu  Lu2  1  0.669843  0.341307  0.936213  1
  Lu  Lu3  1  0.337680  0.668189  0.065978  1
  Re  Re4  1  0.336313  0.165250  0.250000  1
  Os  Os5  1  0.172286  0.823320  0.750000  1
  Os  Os6  1  0.818802  0.646154  0.250000  1
  Os  Os7  1  0.647345  0.822060  0.750000  1
  Os  Os8  1  0.013777  0.012606  0.001777  1
  Os  Os9  1  0.819680  0.168465  0.250000  1
  Os  Os10  1  0.013777  0.012606  0.498223  1
  W  W11  1  0.162973  0.330552  0.750000  1
