# generated using pymatgen
data_Tb2YLu(Mo2O7)2
_symmetry_space_group_name_H-M   'P 1'
_cell_length_a   7.33252973
_cell_length_b   7.33253084
_cell_length_c   7.27770452
_cell_angle_alpha   60.53889905
_cell_angle_beta   60.53889675
_cell_angle_gamma   60.91131116
_symmetry_Int_Tables_number   1
_chemical_formula_structural   Tb2YLu(Mo2O7)2
_chemical_formula_sum   'Tb2 Y1 Lu1 Mo4 O14'
_cell_volume   280.81977807
_cell_formula_units_Z   1
loop_
 _symmetry_equiv_pos_site_id
 _symmetry_equiv_pos_as_xyz
  1  'x, y, z'
loop_
 _atom_site_type_symbol
 _atom_site_label
 _atom_site_symmetry_multiplicity
 _atom_site_fract_x
 _atom_site_fract_y
 _atom_site_fract_z
 _atom_site_occupancy
  Tb  Tb0  1  0.625000  0.125000  0.125000  1
  Tb  Tb1  1  0.125000  0.625000  0.125000  1
  Y  Y2  1  0.125000  0.125000  0.625000  1
  Lu  Lu3  1  0.125000  0.125000  0.125000  1
  Mo  Mo4  1  0.625000  0.625000  0.625000  1
  Mo  Mo5  1  0.125000  0.625000  0.625000  1
  Mo  Mo6  1  0.625000  0.625000  0.125000  1
  Mo  Mo7  1  0.625000  0.125000  0.625000  1
  O  O8  1  0.000501  0.000501  0.002122  1
  O  O9  1  0.249499  0.249499  0.247878  1
  O  O10  1  0.283801  0.283801  0.726232  1
  O  O11  1  0.536486  0.536486  0.962190  1
  O  O12  1  0.717543  0.285115  0.711739  1
  O  O13  1  0.722238  0.285589  0.283046  1
  O  O14  1  0.285115  0.717543  0.711739  1
  O  O15  1  0.285589  0.722238  0.283046  1
  O  O16  1  0.713514  0.713514  0.287810  1
  O  O17  1  0.964885  0.532457  0.538261  1
  O  O18  1  0.527762  0.964411  0.966954  1
  O  O19  1  0.966199  0.966199  0.523768  1
  O  O20  1  0.964411  0.527762  0.966954  1
  O  O21  1  0.532457  0.964885  0.538261  1
