# generated using pymatgen
data_Sc8TaNb11Si15As
_symmetry_space_group_name_H-M   'P 1'
_cell_length_a   6.72234729
_cell_length_b   6.90543404
_cell_length_c   13.16668139
_cell_angle_alpha   89.94689718
_cell_angle_beta   90.21428614
_cell_angle_gamma   90.05483487
_symmetry_Int_Tables_number   1
_chemical_formula_structural   Sc8TaNb11Si15As
_chemical_formula_sum   'Sc8 Ta1 Nb11 Si15 As1'
_cell_volume   611.20209147
_cell_formula_units_Z   1
loop_
 _symmetry_equiv_pos_site_id
 _symmetry_equiv_pos_as_xyz
  1  'x, y, z'
loop_
 _atom_site_type_symbol
 _atom_site_label
 _atom_site_symmetry_multiplicity
 _atom_site_fract_x
 _atom_site_fract_y
 _atom_site_fract_z
 _atom_site_occupancy
  Sc  Sc0  1  0.498870  0.675613  0.595466  1
  Sc  Sc1  1  0.001186  0.825987  0.904008  1
  Sc  Sc2  1  0.499076  0.325461  0.094985  1
  Sc  Sc3  1  0.003864  0.176947  0.403423  1
  Sc  Sc4  1  0.498914  0.325237  0.404576  1
  Sc  Sc5  1  0.999429  0.174382  0.095127  1
  Sc  Sc6  1  0.500873  0.675031  0.904838  1
  Sc  Sc7  1  0.000858  0.823929  0.597285  1
  Ta  Ta8  1  0.836948  0.493731  0.749724  1
  Nb  Nb9  1  0.660275  0.175111  0.625779  1
  Nb  Nb10  1  0.161864  0.325682  0.874931  1
  Nb  Nb11  1  0.338053  0.825713  0.125012  1
  Nb  Nb12  1  0.839449  0.670153  0.374410  1
  Nb  Nb13  1  0.338680  0.826377  0.375980  1
  Nb  Nb14  1  0.836978  0.674129  0.124709  1
  Nb  Nb15  1  0.662327  0.174835  0.874762  1
  Nb  Nb16  1  0.160574  0.326708  0.625355  1
  Nb  Nb17  1  0.336684  0.004073  0.749690  1
  Nb  Nb18  1  0.162976  0.505020  0.250257  1
  Nb  Nb19  1  0.664236  0.994563  0.249017  1
  Si  Si20  1  0.168550  0.533137  0.039273  1
  Si  Si21  1  0.331668  0.032667  0.960175  1
  Si  Si22  1  0.830122  0.467662  0.540164  1
  Si  Si23  1  0.319558  0.034914  0.540869  1
  Si  Si24  1  0.831442  0.468208  0.959862  1
  Si  Si25  1  0.668245  0.967868  0.039544  1
  Si  Si26  1  0.170040  0.533606  0.460965  1
  Si  Si27  1  0.457712  0.385883  0.750482  1
  Si  Si28  1  0.958770  0.113143  0.750174  1
  Si  Si29  1  0.540450  0.613831  0.249903  1
  Si  Si30  1  0.042042  0.885183  0.249814  1
  Si  Si31  1  0.704572  0.860770  0.750547  1
  Si  Si32  1  0.204155  0.637115  0.750778  1
  Si  Si33  1  0.296105  0.137900  0.249432  1
  Si  Si34  1  0.796069  0.361927  0.248954  1
  As  As35  1  0.678386  0.967498  0.459731  1
