# generated using pymatgen
data_Hf6AlCo(Si2Ni5)3
_symmetry_space_group_name_H-M   'P 1'
_cell_length_a   8.08041066
_cell_length_b   8.08041119
_cell_length_c   8.08041102
_cell_angle_alpha   59.93387764
_cell_angle_beta   59.93387859
_cell_angle_gamma   59.93387837
_symmetry_Int_Tables_number   1
_chemical_formula_structural   Hf6AlCo(Si2Ni5)3
_chemical_formula_sum   'Hf6 Al1 Co1 Si6 Ni15'
_cell_volume   372.50621081
_cell_formula_units_Z   1
loop_
 _symmetry_equiv_pos_site_id
 _symmetry_equiv_pos_as_xyz
  1  'x, y, z'
loop_
 _atom_site_type_symbol
 _atom_site_label
 _atom_site_symmetry_multiplicity
 _atom_site_fract_x
 _atom_site_fract_y
 _atom_site_fract_z
 _atom_site_occupancy
  Hf  Hf0  1  0.793419  0.206489  0.793419  1
  Hf  Hf1  1  0.793419  0.793419  0.206489  1
  Hf  Hf2  1  0.206489  0.793419  0.793419  1
  Hf  Hf3  1  0.205938  0.205938  0.797495  1
  Hf  Hf4  1  0.797495  0.205938  0.205938  1
  Hf  Hf5  1  0.205938  0.797495  0.205938  1
  Al  Al6  1  0.499846  0.499846  0.499846  1
  Co  Co7  1  0.165577  0.165577  0.165577  1
  Si  Si8  1  0.000353  0.498750  0.000353  1
  Si  Si9  1  0.499878  0.499878  0.000674  1
  Si  Si10  1  0.499878  0.000674  0.499878  1
  Si  Si11  1  0.000674  0.499878  0.499878  1
  Si  Si12  1  0.000353  0.000353  0.498750  1
  Si  Si13  1  0.498750  0.000353  0.000353  1
  Ni  Ni14  1  0.620883  0.620883  0.137945  1
  Ni  Ni15  1  0.379448  0.379448  0.379448  1
  Ni  Ni16  1  0.167469  0.497473  0.167469  1
  Ni  Ni17  1  0.167469  0.167469  0.497473  1
  Ni  Ni18  1  0.137945  0.620883  0.620883  1
  Ni  Ni19  1  0.620883  0.137945  0.620883  1
  Ni  Ni20  1  0.832443  0.832443  0.832443  1
  Ni  Ni21  1  0.862491  0.379560  0.379560  1
  Ni  Ni22  1  0.379560  0.379560  0.862491  1
  Ni  Ni23  1  0.379560  0.862491  0.379560  1
  Ni  Ni24  1  0.503180  0.831652  0.831652  1
  Ni  Ni25  1  0.619884  0.619884  0.619884  1
  Ni  Ni26  1  0.831652  0.831652  0.503180  1
  Ni  Ni27  1  0.497473  0.167469  0.167469  1
  Ni  Ni28  1  0.831652  0.503180  0.831652  1
