# generated using pymatgen
data_Ca3DyLu4(B6Ru)4
_symmetry_space_group_name_H-M   'P 1'
_cell_length_a   3.61729000
_cell_length_b   9.09628509
_cell_length_c   11.49403537
_cell_angle_alpha   89.94399335
_cell_angle_beta   90.00000000
_cell_angle_gamma   90.00000000
_symmetry_Int_Tables_number   1
_chemical_formula_structural   Ca3DyLu4(B6Ru)4
_chemical_formula_sum   'Ca3 Dy1 Lu4 B24 Ru4'
_cell_volume   378.19842224
_cell_formula_units_Z   1
loop_
 _symmetry_equiv_pos_site_id
 _symmetry_equiv_pos_as_xyz
  1  'x, y, z'
loop_
 _atom_site_type_symbol
 _atom_site_label
 _atom_site_symmetry_multiplicity
 _atom_site_fract_x
 _atom_site_fract_y
 _atom_site_fract_z
 _atom_site_occupancy
  Ca  Ca0  1  0.000000  0.323863  0.414905  1
  Ca  Ca1  1  0.000000  0.676064  0.584546  1
  Ca  Ca2  1  0.000000  0.822404  0.085597  1
  Dy  Dy3  1  0.000000  0.176138  0.915183  1
  Lu  Lu4  1  0.000000  0.941436  0.366891  1
  Lu  Lu5  1  0.000000  0.057793  0.631388  1
  Lu  Lu6  1  0.000000  0.443346  0.132643  1
  Lu  Lu7  1  0.000000  0.558168  0.868164  1
  B  B8  1  0.500000  0.553888  0.432456  1
  B  B9  1  0.500000  0.445334  0.568389  1
  B  B10  1  0.500000  0.054907  0.067124  1
  B  B11  1  0.500000  0.945800  0.932548  1
  B  B12  1  0.500000  0.750092  0.416915  1
  B  B13  1  0.500000  0.249795  0.583364  1
  B  B14  1  0.500000  0.250496  0.082389  1
  B  B15  1  0.500000  0.750274  0.917109  1
  B  B16  1  0.500000  0.791717  0.264096  1
  B  B17  1  0.500000  0.207863  0.736368  1
  B  B18  1  0.500000  0.291830  0.234986  1
  B  B19  1  0.500000  0.709137  0.764821  1
  B  B20  1  0.500000  0.630049  0.185252  1
  B  B21  1  0.500000  0.369448  0.815975  1
  B  B22  1  0.500000  0.130272  0.314182  1
  B  B23  1  0.500000  0.870202  0.684714  1
  B  B24  1  0.500000  0.983004  0.211297  1
  B  B25  1  0.500000  0.017260  0.788090  1
  B  B26  1  0.500000  0.483472  0.288303  1
  B  B27  1  0.500000  0.516210  0.712517  1
  B  B28  1  0.500000  0.597217  0.026647  1
  B  B29  1  0.500000  0.401964  0.973405  1
  B  B30  1  0.500000  0.095519  0.473430  1
  B  B31  1  0.500000  0.904267  0.525751  1
  Ru  Ru32  1  0.000000  0.640147  0.319142  1
  Ru  Ru33  1  0.000000  0.358593  0.682583  1
  Ru  Ru34  1  0.000000  0.139703  0.179932  1
  Ru  Ru35  1  0.000000  0.862328  0.818897  1
