# generated using pymatgen
data_Li4Sn4Pd3Rh5
_symmetry_space_group_name_H-M   'P 1'
_cell_length_a   4.38739801
_cell_length_b   6.37593301
_cell_length_c   8.78480701
_cell_angle_alpha   90.00018845
_cell_angle_beta   89.99413310
_cell_angle_gamma   89.99413894
_symmetry_Int_Tables_number   1
_chemical_formula_structural   Li4Sn4Pd3Rh5
_chemical_formula_sum   'Li4 Sn4 Pd3 Rh5'
_cell_volume   245.74404359
_cell_formula_units_Z   1
loop_
 _symmetry_equiv_pos_site_id
 _symmetry_equiv_pos_as_xyz
  1  'x, y, z'
loop_
 _atom_site_type_symbol
 _atom_site_label
 _atom_site_symmetry_multiplicity
 _atom_site_fract_x
 _atom_site_fract_y
 _atom_site_fract_z
 _atom_site_occupancy
  Li  Li0  1  0.250492  0.750026  0.124696  1
  Li  Li1  1  0.750752  0.250788  0.375411  1
  Li  Li2  1  0.249278  0.749034  0.625143  1
  Li  Li3  1  0.749102  0.249942  0.874569  1
  Sn  Sn4  1  0.251000  0.248506  0.131733  1
  Sn  Sn5  1  0.751405  0.747205  0.371824  1
  Sn  Sn6  1  0.248918  0.258010  0.617981  1
  Sn  Sn7  1  0.748737  0.746732  0.878449  1
  Pd  Pd8  1  0.749151  0.000342  0.626176  1
  Pd  Pd9  1  0.248888  0.003709  0.873325  1
  Pd  Pd10  1  0.249167  0.495381  0.875447  1
  Rh  Rh11  1  0.750941  0.495797  0.123629  1
  Rh  Rh12  1  0.750841  0.000226  0.123279  1
  Rh  Rh13  1  0.251178  0.996313  0.376866  1
  Rh  Rh14  1  0.251151  0.504694  0.374214  1
  Rh  Rh15  1  0.748997  0.503287  0.627256  1
