# generated using pymatgen
data_Zr4ScHgBi3
_symmetry_space_group_name_H-M   'P 1'
_cell_length_a   8.96724307
_cell_length_b   8.96724274
_cell_length_c   6.04385300
_cell_angle_alpha   90.00000000
_cell_angle_beta   90.00000000
_cell_angle_gamma   119.94411262
_symmetry_Int_Tables_number   1
_chemical_formula_structural   Zr4ScHgBi3
_chemical_formula_sum   'Zr8 Sc2 Hg2 Bi6'
_cell_volume   421.12080106
_cell_formula_units_Z   2
loop_
 _symmetry_equiv_pos_site_id
 _symmetry_equiv_pos_as_xyz
  1  'x, y, z'
loop_
 _atom_site_type_symbol
 _atom_site_label
 _atom_site_symmetry_multiplicity
 _atom_site_fract_x
 _atom_site_fract_y
 _atom_site_fract_z
 _atom_site_occupancy
  Zr  Zr0  1  0.279112  0.279112  0.250000  1
  Zr  Zr1  1  0.279500  0.999903  0.750000  1
  Zr  Zr2  1  0.999903  0.279500  0.750000  1
  Zr  Zr3  1  0.721148  0.721148  0.750000  1
  Zr  Zr4  1  0.333348  0.665788  0.499933  1
  Zr  Zr5  1  0.665788  0.333348  0.499933  1
  Zr  Zr6  1  0.665788  0.333348  0.000067  1
  Zr  Zr7  1  0.333348  0.665788  0.000067  1
  Sc  Sc8  1  0.722015  0.999823  0.250000  1
  Sc  Sc9  1  0.999823  0.722015  0.250000  1
  Hg  Hg10  1  0.999179  0.999179  0.497403  1
  Hg  Hg11  1  0.999179  0.999179  0.002597  1
  Bi  Bi12  1  0.382064  0.999401  0.250000  1
  Bi  Bi13  1  0.999401  0.382064  0.250000  1
  Bi  Bi14  1  0.619513  0.619513  0.250000  1
  Bi  Bi15  1  0.618713  0.000014  0.750000  1
  Bi  Bi16  1  0.000014  0.618713  0.750000  1
  Bi  Bi17  1  0.382164  0.382164  0.750000  1
