# generated using pymatgen
data_MnNb2F12
_symmetry_space_group_name_H-M   'P 1'
_cell_length_a   5.37996309
_cell_length_b   5.68109699
_cell_length_c   9.41432251
_cell_angle_alpha   73.97777331
_cell_angle_beta   88.83462854
_cell_angle_gamma   62.40441176
_symmetry_Int_Tables_number   1
_chemical_formula_structural   MnNb2F12
_chemical_formula_sum   'Mn1 Nb2 F12'
_cell_volume   243.14055673
_cell_formula_units_Z   1
loop_
 _symmetry_equiv_pos_site_id
 _symmetry_equiv_pos_as_xyz
  1  'x, y, z'
loop_
 _atom_site_type_symbol
 _atom_site_label
 _atom_site_symmetry_multiplicity
 _atom_site_fract_x
 _atom_site_fract_y
 _atom_site_fract_z
 _atom_site_occupancy
  Mn  Mn0  1  0.500000  0.500000  0.500000  1
  Nb  Nb1  1  0.772388  0.005719  0.238811  1
  Nb  Nb2  1  0.227612  0.994281  0.761189  1
  F  F3  1  0.946484  0.234016  0.205797  1
  F  F4  1  0.053516  0.765984  0.794203  1
  F  F5  1  0.019751  0.762233  0.138229  1
  F  F6  1  0.459925  0.772946  0.628319  1
  F  F7  1  0.540075  0.227054  0.371681  1
  F  F8  1  0.941346  0.242735  0.577054  1
  F  F9  1  0.058654  0.757265  0.422946  1
  F  F10  1  0.404766  0.238320  0.681249  1
  F  F11  1  0.595234  0.761680  0.318751  1
  F  F12  1  0.513246  0.778259  0.923752  1
  F  F13  1  0.486754  0.221741  0.076248  1
  F  F14  1  0.980249  0.237767  0.861771  1
