# generated using pymatgen
data_LaSi2TcNi
_symmetry_space_group_name_H-M   'P 1'
_cell_length_a   5.88130498
_cell_length_b   5.88130550
_cell_length_c   5.88130469
_cell_angle_alpha   138.74540163
_cell_angle_beta   138.74540546
_cell_angle_gamma   59.76327760
_symmetry_Int_Tables_number   1
_chemical_formula_structural   LaSi2TcNi
_chemical_formula_sum   'La1 Si2 Tc1 Ni1'
_cell_volume   87.56351149
_cell_formula_units_Z   1
loop_
 _symmetry_equiv_pos_site_id
 _symmetry_equiv_pos_as_xyz
  1  'x, y, z'
loop_
 _atom_site_type_symbol
 _atom_site_label
 _atom_site_symmetry_multiplicity
 _atom_site_fract_x
 _atom_site_fract_y
 _atom_site_fract_z
 _atom_site_occupancy
  La  La0  1  0.000000  0.000000  0.000000  1
  Si  Si1  1  0.632477  0.632477  0.000000  1
  Si  Si2  1  0.367523  0.367523  0.000000  1
  Tc  Tc3  1  0.250000  0.750000  0.500000  1
  Ni  Ni4  1  0.750000  0.250000  0.500000  1
