# generated using pymatgen
data_Y10Cd2FeHg
_symmetry_space_group_name_H-M   'P 1'
_cell_length_a   9.60423705
_cell_length_b   9.60922368
_cell_length_c   9.79167100
_cell_angle_alpha   90.00000000
_cell_angle_beta   90.00000000
_cell_angle_gamma   120.01716846
_symmetry_Int_Tables_number   1
_chemical_formula_structural   Y10Cd2FeHg
_chemical_formula_sum   'Y20 Cd4 Fe2 Hg2'
_cell_volume   782.46236619
_cell_formula_units_Z   2
loop_
 _symmetry_equiv_pos_site_id
 _symmetry_equiv_pos_as_xyz
  1  'x, y, z'
loop_
 _atom_site_type_symbol
 _atom_site_label
 _atom_site_symmetry_multiplicity
 _atom_site_fract_x
 _atom_site_fract_y
 _atom_site_fract_z
 _atom_site_occupancy
  Y  Y0  1  0.995702  0.997851  0.493435  1
  Y  Y1  1  0.995702  0.997851  0.006565  1
  Y  Y2  1  0.544633  0.461185  0.250000  1
  Y  Y3  1  0.544633  0.083449  0.250000  1
  Y  Y4  1  0.917624  0.458812  0.250000  1
  Y  Y5  1  0.458919  0.541586  0.750000  1
  Y  Y6  1  0.458919  0.917333  0.750000  1
  Y  Y7  1  0.084766  0.542383  0.750000  1
  Y  Y8  1  0.212332  0.789030  0.435303  1
  Y  Y9  1  0.212332  0.423304  0.435303  1
  Y  Y10  1  0.576472  0.788237  0.435660  1
  Y  Y11  1  0.788522  0.211887  0.563939  1
  Y  Y12  1  0.788522  0.576635  0.563939  1
  Y  Y13  1  0.422749  0.211375  0.562794  1
  Y  Y14  1  0.788522  0.211887  0.936061  1
  Y  Y15  1  0.788522  0.576635  0.936061  1
  Y  Y16  1  0.422749  0.211375  0.937206  1
  Y  Y17  1  0.212332  0.789030  0.064697  1
  Y  Y18  1  0.212332  0.423304  0.064697  1
  Y  Y19  1  0.576472  0.788237  0.064340  1
  Cd  Cd20  1  0.233548  0.116774  0.250000  1
  Cd  Cd21  1  0.112064  0.887295  0.750000  1
  Cd  Cd22  1  0.112064  0.224769  0.750000  1
  Cd  Cd23  1  0.772872  0.886436  0.750000  1
  Fe  Fe24  1  0.332926  0.666464  0.250000  1
  Fe  Fe25  1  0.666573  0.333286  0.750000  1
  Hg  Hg26  1  0.883597  0.120113  0.250000  1
  Hg  Hg27  1  0.883597  0.763483  0.250000  1
