# generated using pymatgen
data_Li4HfTeBr12
_symmetry_space_group_name_H-M   'P 1'
_cell_length_a   6.78826700
_cell_length_b   6.78826654
_cell_length_c   13.52386800
_cell_angle_alpha   90.00000000
_cell_angle_beta   90.00000000
_cell_angle_gamma   119.99998764
_symmetry_Int_Tables_number   1
_chemical_formula_structural   Li4HfTeBr12
_chemical_formula_sum   'Li4 Hf1 Te1 Br12'
_cell_volume   539.69626321
_cell_formula_units_Z   1
loop_
 _symmetry_equiv_pos_site_id
 _symmetry_equiv_pos_as_xyz
  1  'x, y, z'
loop_
 _atom_site_type_symbol
 _atom_site_label
 _atom_site_symmetry_multiplicity
 _atom_site_fract_x
 _atom_site_fract_y
 _atom_site_fract_z
 _atom_site_occupancy
  Li  Li0  1  0.000000  0.000000  0.750000  1
  Li  Li1  1  0.666667  0.333333  0.750000  1
  Li  Li2  1  0.333333  0.666667  0.250000  1
  Li  Li3  1  0.000000  0.000000  0.250000  1
  Hf  Hf4  1  0.333333  0.666667  0.750000  1
  Te  Te5  1  0.666667  0.333333  0.250000  1
  Br  Br6  1  0.015983  0.349147  0.638602  1
  Br  Br7  1  0.333165  0.984017  0.638602  1
  Br  Br8  1  0.650853  0.666835  0.638602  1
  Br  Br9  1  0.650853  0.984017  0.861398  1
  Br  Br10  1  0.333165  0.349147  0.861398  1
  Br  Br11  1  0.015983  0.666835  0.861398  1
  Br  Br12  1  0.998552  0.332983  0.134722  1
  Br  Br13  1  0.334430  0.001448  0.134722  1
  Br  Br14  1  0.667017  0.665570  0.134722  1
  Br  Br15  1  0.667017  0.001448  0.365278  1
  Br  Br16  1  0.334430  0.332983  0.365278  1
  Br  Br17  1  0.998552  0.665570  0.365278  1
