# generated using pymatgen
data_Ho12GaSi4Pb
_symmetry_space_group_name_H-M   'P 1'
_cell_length_a   8.44917241
_cell_length_b   8.44917202
_cell_length_c   8.44917231
_cell_angle_alpha   112.04513362
_cell_angle_beta   111.48829862
_cell_angle_gamma   104.97229494
_symmetry_Int_Tables_number   1
_chemical_formula_structural   Ho12GaSi4Pb
_chemical_formula_sum   'Ho12 Ga1 Si4 Pb1'
_cell_volume   462.18663095
_cell_formula_units_Z   1
loop_
 _symmetry_equiv_pos_site_id
 _symmetry_equiv_pos_as_xyz
  1  'x, y, z'
loop_
 _atom_site_type_symbol
 _atom_site_label
 _atom_site_symmetry_multiplicity
 _atom_site_fract_x
 _atom_site_fract_y
 _atom_site_fract_z
 _atom_site_occupancy
  Ho  Ho0  1  0.432356  0.233371  0.198985  1
  Ho  Ho1  1  0.567644  0.766629  0.801015  1
  Ho  Ho2  1  0.034386  0.233371  0.801015  1
  Ho  Ho3  1  0.965614  0.766629  0.198985  1
  Ho  Ho4  1  0.180745  0.272940  0.453684  1
  Ho  Ho5  1  0.819255  0.727060  0.546316  1
  Ho  Ho6  1  0.180745  0.727060  0.907805  1
  Ho  Ho7  1  0.819255  0.272940  0.092195  1
  Ho  Ho8  1  0.319859  0.619373  0.299515  1
  Ho  Ho9  1  0.680141  0.380627  0.700485  1
  Ho  Ho10  1  0.319859  0.020344  0.700485  1
  Ho  Ho11  1  0.680141  0.979656  0.299515  1
  Ga  Ga12  1  0.000000  0.000000  0.000000  1
  Si  Si13  1  0.368044  0.000000  0.368044  1
  Si  Si14  1  0.631956  0.000000  0.631956  1
  Si  Si15  1  0.115748  0.615748  0.500000  1
  Si  Si16  1  0.884252  0.384252  0.500000  1
  Pb  Pb17  1  0.500000  0.500000  0.000000  1
