# generated using pymatgen
data_TiIr(SeF6)4
_symmetry_space_group_name_H-M   'P 1'
_cell_length_a   6.14964100
_cell_length_b   7.84891461
_cell_length_c   9.92324700
_cell_angle_alpha   89.20129191
_cell_angle_beta   90.00000000
_cell_angle_gamma   90.00000000
_symmetry_Int_Tables_number   1
_chemical_formula_structural   TiIr(SeF6)4
_chemical_formula_sum   'Ti1 Ir1 Se4 F24'
_cell_volume   478.92881874
_cell_formula_units_Z   1
loop_
 _symmetry_equiv_pos_site_id
 _symmetry_equiv_pos_as_xyz
  1  'x, y, z'
loop_
 _atom_site_type_symbol
 _atom_site_label
 _atom_site_symmetry_multiplicity
 _atom_site_fract_x
 _atom_site_fract_y
 _atom_site_fract_z
 _atom_site_occupancy
  Ti  Ti0  1  0.500000  0.000000  0.500000  1
  Ir  Ir1  1  0.000000  0.500000  0.000000  1
  Se  Se2  1  0.500000  0.588768  0.245937  1
  Se  Se3  1  0.500000  0.411232  0.754063  1
  Se  Se4  1  0.000000  0.089604  0.256712  1
  Se  Se5  1  0.000000  0.910396  0.743288  1
  F  F6  1  0.223197  0.360340  0.916245  1
  F  F7  1  0.223197  0.639660  0.083755  1
  F  F8  1  0.282599  0.870785  0.589447  1
  F  F9  1  0.282599  0.129215  0.410553  1
  F  F10  1  0.776803  0.639660  0.083755  1
  F  F11  1  0.776803  0.360340  0.916245  1
  F  F12  1  0.794722  0.959031  0.857378  1
  F  F13  1  0.794722  0.040969  0.142622  1
  F  F14  1  0.705349  0.462788  0.640697  1
  F  F15  1  0.705349  0.537212  0.359303  1
  F  F16  1  0.205278  0.040969  0.142622  1
  F  F17  1  0.205278  0.959031  0.857378  1
  F  F18  1  0.294651  0.537212  0.359303  1
  F  F19  1  0.294651  0.462788  0.640697  1
  F  F20  1  0.000000  0.648615  0.834103  1
  F  F21  1  0.000000  0.351385  0.165897  1
  F  F22  1  0.500000  0.156404  0.644463  1
  F  F23  1  0.500000  0.843596  0.355537  1
  F  F24  1  0.500000  0.615972  0.819936  1
  F  F25  1  0.500000  0.384028  0.180064  1
  F  F26  1  0.000000  0.119944  0.679160  1
  F  F27  1  0.000000  0.880056  0.320840  1
  F  F28  1  0.717401  0.870785  0.589447  1
  F  F29  1  0.717401  0.129215  0.410553  1
