# generated using pymatgen
data_HoTmCr(Fe3P2)3
_symmetry_space_group_name_H-M   'P 1'
_cell_length_a   3.65120700
_cell_length_b   10.28951300
_cell_length_c   11.83369400
_cell_angle_alpha   90.00000000
_cell_angle_beta   90.00000000
_cell_angle_gamma   90.00000000
_symmetry_Int_Tables_number   1
_chemical_formula_structural   HoTmCr(Fe3P2)3
_chemical_formula_sum   'Ho2 Tm2 Cr2 Fe18 P12'
_cell_volume   444.58172899
_cell_formula_units_Z   2
loop_
 _symmetry_equiv_pos_site_id
 _symmetry_equiv_pos_as_xyz
  1  'x, y, z'
loop_
 _atom_site_type_symbol
 _atom_site_label
 _atom_site_symmetry_multiplicity
 _atom_site_fract_x
 _atom_site_fract_y
 _atom_site_fract_z
 _atom_site_occupancy
  Ho  Ho0  1  0.250000  0.580822  0.704380  1
  Ho  Ho1  1  0.250000  0.919178  0.204380  1
  Tm  Tm2  1  0.750000  0.419212  0.295482  1
  Tm  Tm3  1  0.750000  0.080788  0.795482  1
  Cr  Cr4  1  0.250000  0.703170  0.989438  1
  Cr  Cr5  1  0.250000  0.796830  0.489438  1
  Fe  Fe6  1  0.750000  0.292901  0.011676  1
  Fe  Fe7  1  0.750000  0.207099  0.511676  1
  Fe  Fe8  1  0.250000  0.404158  0.489650  1
  Fe  Fe9  1  0.250000  0.095842  0.989650  1
  Fe  Fe10  1  0.750000  0.594282  0.509565  1
  Fe  Fe11  1  0.750000  0.905718  0.009565  1
  Fe  Fe12  1  0.250000  0.219953  0.176316  1
  Fe  Fe13  1  0.250000  0.280047  0.676316  1
  Fe  Fe14  1  0.750000  0.782154  0.824225  1
  Fe  Fe15  1  0.750000  0.717846  0.324225  1
  Fe  Fe16  1  0.250000  0.875927  0.701685  1
  Fe  Fe17  1  0.250000  0.624073  0.201685  1
  Fe  Fe18  1  0.750000  0.124866  0.299389  1
  Fe  Fe19  1  0.750000  0.375134  0.799389  1
  Fe  Fe20  1  0.250000  0.461745  0.932626  1
  Fe  Fe21  1  0.250000  0.038255  0.432626  1
  Fe  Fe22  1  0.750000  0.534026  0.066645  1
  Fe  Fe23  1  0.750000  0.965974  0.566645  1
  P  P24  1  0.250000  0.422597  0.113883  1
  P  P25  1  0.250000  0.077403  0.613883  1
  P  P26  1  0.750000  0.577734  0.886340  1
  P  P27  1  0.750000  0.922266  0.386340  1
  P  P28  1  0.250000  0.264319  0.870717  1
  P  P29  1  0.250000  0.235681  0.370717  1
  P  P30  1  0.750000  0.733297  0.130522  1
  P  P31  1  0.750000  0.766703  0.630522  1
  P  P32  1  0.250000  0.596469  0.393537  1
  P  P33  1  0.250000  0.903531  0.893537  1
  P  P34  1  0.750000  0.398366  0.603926  1
  P  P35  1  0.750000  0.101634  0.103926  1
