# generated using pymatgen
data_Tb3PaGa12Os
_symmetry_space_group_name_H-M   'P 1'
_cell_length_a   7.41351198
_cell_length_b   7.50216446
_cell_length_c   7.50216538
_cell_angle_alpha   109.70936399
_cell_angle_beta   109.23202462
_cell_angle_gamma   109.23200706
_symmetry_Int_Tables_number   1
_chemical_formula_structural   Tb3PaGa12Os
_chemical_formula_sum   'Tb3 Pa1 Ga12 Os1'
_cell_volume   322.14313866
_cell_formula_units_Z   1
loop_
 _symmetry_equiv_pos_site_id
 _symmetry_equiv_pos_as_xyz
  1  'x, y, z'
loop_
 _atom_site_type_symbol
 _atom_site_label
 _atom_site_symmetry_multiplicity
 _atom_site_fract_x
 _atom_site_fract_y
 _atom_site_fract_z
 _atom_site_occupancy
  Tb  Tb0  1  0.000000  0.000000  0.500000  1
  Tb  Tb1  1  0.000000  0.500000  0.000000  1
  Tb  Tb2  1  0.500000  0.500000  0.500000  1
  Pa  Pa3  1  0.500000  0.000000  0.000000  1
  Ga  Ga4  1  0.749415  0.249415  0.498831  1
  Ga  Ga5  1  0.749415  0.498831  0.249415  1
  Ga  Ga6  1  0.500000  0.249415  0.750585  1
  Ga  Ga7  1  0.250585  0.501169  0.750585  1
  Ga  Ga8  1  0.250585  0.750585  0.501169  1
  Ga  Ga9  1  0.500000  0.750585  0.249415  1
  Ga  Ga10  1  0.707214  0.708587  0.000000  1
  Ga  Ga11  1  0.292786  0.000000  0.291413  1
  Ga  Ga12  1  0.998627  0.291413  0.291413  1
  Ga  Ga13  1  0.292786  0.291413  0.000000  1
  Ga  Ga14  1  0.707214  0.000000  0.708587  1
  Ga  Ga15  1  0.001373  0.708587  0.708587  1
  Os  Os16  1  0.000000  0.000000  0.000000  1
