# generated using pymatgen
data_Sm3ErFe4(WO6)4
_symmetry_space_group_name_H-M   'P 1'
_cell_length_a   5.29555810
_cell_length_b   7.48942755
_cell_length_c   11.11534438
_cell_angle_alpha   90.11803820
_cell_angle_beta   89.90851207
_cell_angle_gamma   89.95574547
_symmetry_Int_Tables_number   1
_chemical_formula_structural   Sm3ErFe4(WO6)4
_chemical_formula_sum   'Sm3 Er1 Fe4 W4 O24'
_cell_volume   440.84069484
_cell_formula_units_Z   1
loop_
 _symmetry_equiv_pos_site_id
 _symmetry_equiv_pos_as_xyz
  1  'x, y, z'
loop_
 _atom_site_type_symbol
 _atom_site_label
 _atom_site_symmetry_multiplicity
 _atom_site_fract_x
 _atom_site_fract_y
 _atom_site_fract_z
 _atom_site_occupancy
  Sm  Sm0  1  0.044755  0.751249  0.454461  1
  Sm  Sm1  1  0.955585  0.251378  0.544806  1
  Sm  Sm2  1  0.457472  0.751252  0.955826  1
  Er  Er3  1  0.549147  0.251209  0.045388  1
  Fe  Fe4  1  0.044565  0.998726  0.139015  1
  Fe  Fe5  1  0.543878  0.495831  0.359320  1
  Fe  Fe6  1  0.457456  0.996754  0.639792  1
  Fe  Fe7  1  0.956717  0.494412  0.861851  1
  W  W8  1  0.052572  0.503975  0.141930  1
  W  W9  1  0.551495  0.007165  0.355719  1
  W  W10  1  0.448787  0.507489  0.642895  1
  W  W11  1  0.948893  0.008378  0.858928  1
  O  O12  1  0.758261  0.967187  0.021320  1
  O  O13  1  0.764933  0.539612  0.029118  1
  O  O14  1  0.165560  0.747137  0.118551  1
  O  O15  1  0.931251  0.258187  0.143969  1
  O  O16  1  0.373280  0.432417  0.205710  1
  O  O17  1  0.390721  0.066683  0.210461  1
  O  O18  1  0.889171  0.562910  0.286806  1
  O  O19  1  0.873131  0.937911  0.291394  1
  O  O20  1  0.443730  0.758440  0.353809  1
  O  O21  1  0.668576  0.248491  0.380318  1
  O  O22  1  0.266280  0.043317  0.469596  1
  O  O23  1  0.262127  0.463323  0.479513  1
  O  O24  1  0.737961  0.963189  0.519518  1
  O  O25  1  0.733637  0.543674  0.529173  1
  O  O26  1  0.330497  0.749273  0.619939  1
  O  O27  1  0.556214  0.258949  0.644035  1
  O  O28  1  0.127942  0.438518  0.708830  1
  O  O29  1  0.113150  0.065950  0.714731  1
  O  O30  1  0.614563  0.565331  0.786600  1
  O  O31  1  0.630560  0.937648  0.791730  1
  O  O32  1  0.056125  0.759687  0.859510  1
  O  O33  1  0.821706  0.248830  0.883496  1
  O  O34  1  0.236445  0.049215  0.971682  1
  O  O35  1  0.242854  0.456702  0.980260  1
