# generated using pymatgen
data_K2TmTa5O15
_symmetry_space_group_name_H-M   'P 1'
_cell_length_a   9.27620700
_cell_length_b   9.27620733
_cell_length_c   3.94930200
_cell_angle_alpha   90.00000000
_cell_angle_beta   90.00000000
_cell_angle_gamma   111.83440331
_symmetry_Int_Tables_number   1
_chemical_formula_structural   K2TmTa5O15
_chemical_formula_sum   'K2 Tm1 Ta5 O15'
_cell_volume   315.45114635
_cell_formula_units_Z   1
loop_
 _symmetry_equiv_pos_site_id
 _symmetry_equiv_pos_as_xyz
  1  'x, y, z'
loop_
 _atom_site_type_symbol
 _atom_site_label
 _atom_site_symmetry_multiplicity
 _atom_site_fract_x
 _atom_site_fract_y
 _atom_site_fract_z
 _atom_site_occupancy
  K  K0  1  0.299801  0.700199  0.000000  1
  K  K1  1  0.700199  0.299801  0.000000  1
  Tm  Tm2  1  0.000000  0.000000  0.000000  1
  Ta  Ta3  1  0.317194  0.058644  0.500000  1
  Ta  Ta4  1  0.058644  0.317194  0.500000  1
  Ta  Ta5  1  0.682806  0.941356  0.500000  1
  Ta  Ta6  1  0.941356  0.682806  0.500000  1
  Ta  Ta7  1  0.500000  0.500000  0.500000  1
  O  O8  1  0.125496  0.125496  0.500000  1
  O  O9  1  0.162741  0.837259  0.500000  1
  O  O10  1  0.272358  0.457169  0.500000  1
  O  O11  1  0.837259  0.162741  0.500000  1
  O  O12  1  0.874504  0.874504  0.500000  1
  O  O13  1  0.276954  0.047377  0.000000  1
  O  O14  1  0.723046  0.952623  0.000000  1
  O  O15  1  0.542831  0.727642  0.500000  1
  O  O16  1  0.047377  0.276954  0.000000  1
  O  O17  1  0.500000  0.000000  0.500000  1
  O  O18  1  0.457169  0.272358  0.500000  1
  O  O19  1  0.952623  0.723046  0.000000  1
  O  O20  1  0.500000  0.500000  0.000000  1
  O  O21  1  0.727642  0.542831  0.500000  1
  O  O22  1  0.000000  0.500000  0.500000  1
