# generated using pymatgen
data_Tb3U(TcB6)2
_symmetry_space_group_name_H-M   'P 1'
_cell_length_a   3.70140800
_cell_length_b   9.21415255
_cell_length_c   11.47391347
_cell_angle_alpha   89.41301855
_cell_angle_beta   90.00000000
_cell_angle_gamma   90.00000000
_symmetry_Int_Tables_number   1
_chemical_formula_structural   Tb3U(TcB6)2
_chemical_formula_sum   'Tb6 U2 Tc4 B24'
_cell_volume   391.30116121
_cell_formula_units_Z   2
loop_
 _symmetry_equiv_pos_site_id
 _symmetry_equiv_pos_as_xyz
  1  'x, y, z'
loop_
 _atom_site_type_symbol
 _atom_site_label
 _atom_site_symmetry_multiplicity
 _atom_site_fract_x
 _atom_site_fract_y
 _atom_site_fract_z
 _atom_site_occupancy
  Tb  Tb0  1  0.000000  0.326081  0.411864  1
  Tb  Tb1  1  0.000000  0.673919  0.588136  1
  Tb  Tb2  1  0.000000  0.834871  0.089114  1
  Tb  Tb3  1  0.000000  0.165129  0.910886  1
  Tb  Tb4  1  0.000000  0.944923  0.370900  1
  Tb  Tb5  1  0.000000  0.055077  0.629100  1
  U  U6  1  0.000000  0.454164  0.105801  1
  U  U7  1  0.000000  0.545836  0.894199  1
  Tc  Tc8  1  0.000000  0.636172  0.313540  1
  Tc  Tc9  1  0.000000  0.363828  0.686460  1
  Tc  Tc10  1  0.000000  0.149461  0.176369  1
  Tc  Tc11  1  0.000000  0.850539  0.823631  1
  B  B12  1  0.500000  0.553806  0.431490  1
  B  B13  1  0.500000  0.446194  0.568510  1
  B  B14  1  0.500000  0.053155  0.067457  1
  B  B15  1  0.500000  0.946845  0.932543  1
  B  B16  1  0.500000  0.747441  0.418453  1
  B  B17  1  0.500000  0.252559  0.581547  1
  B  B18  1  0.500000  0.246124  0.079433  1
  B  B19  1  0.500000  0.753876  0.920567  1
  B  B20  1  0.500000  0.795458  0.267582  1
  B  B21  1  0.500000  0.204542  0.732418  1
  B  B22  1  0.500000  0.297991  0.229420  1
  B  B23  1  0.500000  0.702009  0.770580  1
  B  B24  1  0.500000  0.636839  0.186358  1
  B  B25  1  0.500000  0.363161  0.813642  1
  B  B26  1  0.500000  0.136540  0.313098  1
  B  B27  1  0.500000  0.863460  0.686902  1
  B  B28  1  0.500000  0.988539  0.213070  1
  B  B29  1  0.500000  0.011461  0.786930  1
  B  B30  1  0.500000  0.484391  0.281946  1
  B  B31  1  0.500000  0.515609  0.718054  1
  B  B32  1  0.500000  0.631338  0.035728  1
  B  B33  1  0.500000  0.368662  0.964272  1
  B  B34  1  0.500000  0.109537  0.470042  1
  B  B35  1  0.500000  0.890463  0.529958  1
