# generated using pymatgen
data_Ca4Y3Ho(BO4)4
_symmetry_space_group_name_H-M   'P 1'
_cell_length_a   10.51713265
_cell_length_b   9.70938359
_cell_length_c   3.61592300
_cell_angle_alpha   89.99967628
_cell_angle_beta   90.00021993
_cell_angle_gamma   90.04009405
_symmetry_Int_Tables_number   1
_chemical_formula_structural   Ca4Y3Ho(BO4)4
_chemical_formula_sum   'Ca4 Y3 Ho1 B4 O16'
_cell_volume   369.23943529
_cell_formula_units_Z   1
loop_
 _symmetry_equiv_pos_site_id
 _symmetry_equiv_pos_as_xyz
  1  'x, y, z'
loop_
 _atom_site_type_symbol
 _atom_site_label
 _atom_site_symmetry_multiplicity
 _atom_site_fract_x
 _atom_site_fract_y
 _atom_site_fract_z
 _atom_site_occupancy
  Ca  Ca0  1  0.083780  0.672820  0.250000  1
  Ca  Ca1  1  0.583260  0.828444  0.250002  1
  Ca  Ca2  1  0.416177  0.171258  0.750011  1
  Ca  Ca3  1  0.916686  0.327434  0.749994  1
  Y  Y4  1  0.612790  0.412961  0.250003  1
  Y  Y5  1  0.386909  0.586719  0.749993  1
  Y  Y6  1  0.887887  0.913269  0.749996  1
  Ho  Ho7  1  0.112444  0.087562  0.249995  1
  B  B8  1  0.698662  0.131708  0.249996  1
  B  B9  1  0.198372  0.367011  0.250008  1
  B  B10  1  0.801449  0.632363  0.749995  1
  B  B11  1  0.300891  0.868643  0.750000  1
  O  O12  1  0.566629  0.150160  0.250013  1
  O  O13  1  0.275215  0.249525  0.250011  1
  O  O14  1  0.775542  0.249436  0.249984  1
  O  O15  1  0.066443  0.347548  0.249998  1
  O  O16  1  0.248616  0.499402  0.250011  1
  O  O17  1  0.505343  0.613758  0.249995  1
  O  O18  1  0.006833  0.887785  0.249998  1
  O  O19  1  0.749660  0.999833  0.249993  1
  O  O20  1  0.249521  0.000279  0.750007  1
  O  O21  1  0.995998  0.113735  0.749996  1
  O  O22  1  0.494283  0.386067  0.750004  1
  O  O23  1  0.751102  0.500007  0.749995  1
  O  O24  1  0.933523  0.651607  0.749997  1
  O  O25  1  0.224494  0.750471  0.750006  1
  O  O26  1  0.724454  0.749747  0.749994  1
  O  O27  1  0.433034  0.850448  0.749988  1
