# generated using pymatgen
data_Er7TmSe12
_symmetry_space_group_name_H-M   'P 1'
_cell_length_a   7.03463242
_cell_length_b   7.03397803
_cell_length_c   12.84299441
_cell_angle_alpha   100.63793306
_cell_angle_beta   100.64319026
_cell_angle_gamma   109.00130848
_symmetry_Int_Tables_number   1
_chemical_formula_structural   Er7TmSe12
_chemical_formula_sum   'Er7 Tm1 Se12'
_cell_volume   569.67715552
_cell_formula_units_Z   1
loop_
 _symmetry_equiv_pos_site_id
 _symmetry_equiv_pos_as_xyz
  1  'x, y, z'
loop_
 _atom_site_type_symbol
 _atom_site_label
 _atom_site_symmetry_multiplicity
 _atom_site_fract_x
 _atom_site_fract_y
 _atom_site_fract_z
 _atom_site_occupancy
  Er  Er0  1  0.622488  0.872444  0.244896  1
  Er  Er1  1  0.127394  0.377424  0.254870  1
  Er  Er2  1  0.208682  0.958673  0.417328  1
  Er  Er3  1  0.791315  0.041326  0.582659  1
  Er  Er4  1  0.872606  0.622603  0.745201  1
  Er  Er5  1  0.377560  0.127546  0.755101  1
  Er  Er6  1  0.958721  0.208764  0.917483  1
  Tm  Tm7  1  0.041388  0.791383  0.082750  1
  Se  Se8  1  0.804366  0.048028  0.087547  1
  Se  Se9  1  0.283291  0.539491  0.087590  1
  Se  Se10  1  0.367455  0.117499  0.249637  1
  Se  Se11  1  0.882096  0.632171  0.249579  1
  Se  Se12  1  0.951249  0.196188  0.412421  1
  Se  Se13  1  0.461132  0.716113  0.412372  1
  Se  Se14  1  0.538849  0.283851  0.587624  1
  Se  Se15  1  0.048776  0.803840  0.587578  1
  Se  Se16  1  0.118207  0.368072  0.750026  1
  Se  Se17  1  0.631857  0.881880  0.749969  1
  Se  Se18  1  0.716625  0.461707  0.912677  1
  Se  Se19  1  0.195941  0.950995  0.912692  1
