# generated using pymatgen
data_LiY4Co19P12
_symmetry_space_group_name_H-M   'P 1'
_cell_length_a   3.65722800
_cell_length_b   10.25462226
_cell_length_c   11.76965917
_cell_angle_alpha   90.12654781
_cell_angle_beta   90.00000000
_cell_angle_gamma   90.00000000
_symmetry_Int_Tables_number   1
_chemical_formula_structural   LiY4Co19P12
_chemical_formula_sum   'Li1 Y4 Co19 P12'
_cell_volume   441.40223783
_cell_formula_units_Z   1
loop_
 _symmetry_equiv_pos_site_id
 _symmetry_equiv_pos_as_xyz
  1  'x, y, z'
loop_
 _atom_site_type_symbol
 _atom_site_label
 _atom_site_symmetry_multiplicity
 _atom_site_fract_x
 _atom_site_fract_y
 _atom_site_fract_z
 _atom_site_occupancy
  Li  Li0  1  0.250000  0.796022  0.490530  1
  Y  Y1  1  0.250000  0.917990  0.201629  1
  Y  Y2  1  0.750000  0.082692  0.797880  1
  Y  Y3  1  0.750000  0.418279  0.296912  1
  Y  Y4  1  0.250000  0.581292  0.703180  1
  Co  Co5  1  0.750000  0.211268  0.510215  1
  Co  Co6  1  0.750000  0.284254  0.007944  1
  Co  Co7  1  0.250000  0.715440  0.991737  1
  Co  Co8  1  0.250000  0.093969  0.988306  1
  Co  Co9  1  0.750000  0.906860  0.013010  1
  Co  Co10  1  0.750000  0.591274  0.512453  1
  Co  Co11  1  0.250000  0.403844  0.487662  1
  Co  Co12  1  0.250000  0.277311  0.675916  1
  Co  Co13  1  0.750000  0.719940  0.321448  1
  Co  Co14  1  0.750000  0.779665  0.827507  1
  Co  Co15  1  0.250000  0.221500  0.175678  1
  Co  Co16  1  0.250000  0.616230  0.197017  1
  Co  Co17  1  0.750000  0.381972  0.800744  1
  Co  Co18  1  0.750000  0.119431  0.301156  1
  Co  Co19  1  0.250000  0.881134  0.699999  1
  Co  Co20  1  0.250000  0.034770  0.432166  1
  Co  Co21  1  0.750000  0.966855  0.567121  1
  Co  Co22  1  0.750000  0.531613  0.066867  1
  Co  Co23  1  0.250000  0.467151  0.931527  1
  P  P24  1  0.250000  0.079040  0.612601  1
  P  P25  1  0.750000  0.921133  0.384465  1
  P  P26  1  0.750000  0.581001  0.887912  1
  P  P27  1  0.250000  0.418715  0.111397  1
  P  P28  1  0.250000  0.230299  0.368291  1
  P  P29  1  0.750000  0.770586  0.637092  1
  P  P30  1  0.750000  0.728356  0.130365  1
  P  P31  1  0.250000  0.270483  0.869356  1
  P  P32  1  0.250000  0.898612  0.893249  1
  P  P33  1  0.750000  0.102667  0.108281  1
  P  P34  1  0.750000  0.396836  0.607461  1
  P  P35  1  0.250000  0.601513  0.390926  1
