# generated using pymatgen
data_Tb16MgIn3TcPd3
_symmetry_space_group_name_H-M   'P 1'
_cell_length_a   9.71421083
_cell_length_b   9.78652897
_cell_length_c   9.71421019
_cell_angle_alpha   60.38767689
_cell_angle_beta   60.05134022
_cell_angle_gamma   60.38767344
_symmetry_Int_Tables_number   1
_chemical_formula_structural   Tb16MgIn3TcPd3
_chemical_formula_sum   'Tb16 Mg1 In3 Tc1 Pd3'
_cell_volume   657.08116655
_cell_formula_units_Z   1
loop_
 _symmetry_equiv_pos_site_id
 _symmetry_equiv_pos_as_xyz
  1  'x, y, z'
loop_
 _atom_site_type_symbol
 _atom_site_label
 _atom_site_symmetry_multiplicity
 _atom_site_fract_x
 _atom_site_fract_y
 _atom_site_fract_z
 _atom_site_occupancy
  Tb  Tb0  1  0.809708  0.808317  0.190488  1
  Tb  Tb1  1  0.810634  0.194775  0.810634  1
  Tb  Tb2  1  0.180514  0.192884  0.812846  1
  Tb  Tb3  1  0.647564  0.058653  0.647564  1
  Tb  Tb4  1  0.066173  0.065027  0.434760  1
  Tb  Tb5  1  0.443600  0.430608  0.064068  1
  Tb  Tb6  1  0.649286  0.644445  0.649286  1
  Tb  Tb7  1  0.812846  0.192884  0.180514  1
  Tb  Tb8  1  0.190488  0.808317  0.809708  1
  Tb  Tb9  1  0.051250  0.646504  0.651674  1
  Tb  Tb10  1  0.434760  0.065027  0.066173  1
  Tb  Tb11  1  0.433835  0.065412  0.433835  1
  Tb  Tb12  1  0.063832  0.432662  0.063832  1
  Tb  Tb13  1  0.651674  0.646504  0.051250  1
  Tb  Tb14  1  0.188621  0.810161  0.188621  1
  Tb  Tb15  1  0.064068  0.430608  0.443600  1
  Mg  Mg16  1  0.423022  0.422085  0.423022  1
  In  In17  1  0.416716  0.414638  0.749671  1
  In  In18  1  0.415882  0.750482  0.415882  1
  In  In19  1  0.749671  0.414638  0.416716  1
  Tc  Tc20  1  0.854885  0.429937  0.854885  1
  Pd  Pd21  1  0.855642  0.857766  0.855642  1
  Pd  Pd22  1  0.855003  0.858833  0.430327  1
  Pd  Pd23  1  0.430327  0.858833  0.855003  1
