# generated using pymatgen
data_KAs(PSe3)2
_symmetry_space_group_name_H-M   'P 1'
_cell_length_a   8.28372200
_cell_length_b   7.00154201
_cell_length_c   10.33244233
_cell_angle_alpha   87.47875841
_cell_angle_beta   90.00000000
_cell_angle_gamma   90.00000000
_symmetry_Int_Tables_number   1
_chemical_formula_structural   KAs(PSe3)2
_chemical_formula_sum   'K2 As2 P4 Se12'
_cell_volume   598.68943678
_cell_formula_units_Z   2
loop_
 _symmetry_equiv_pos_site_id
 _symmetry_equiv_pos_as_xyz
  1  'x, y, z'
loop_
 _atom_site_type_symbol
 _atom_site_label
 _atom_site_symmetry_multiplicity
 _atom_site_fract_x
 _atom_site_fract_y
 _atom_site_fract_z
 _atom_site_occupancy
  K  K0  1  0.662242  0.188685  0.990634  1
  K  K1  1  0.162242  0.811315  0.009366  1
  As  As2  1  0.974949  0.334771  0.516652  1
  As  As3  1  0.474949  0.665229  0.483348  1
  P  P4  1  0.148350  0.287151  0.798073  1
  P  P5  1  0.648350  0.712849  0.201927  1
  P  P6  1  0.855522  0.805205  0.331113  1
  P  P7  1  0.355522  0.194795  0.668887  1
  Se  Se8  1  0.052337  0.582388  0.336964  1
  Se  Se9  1  0.958721  0.077544  0.767619  1
  Se  Se10  1  0.552337  0.417612  0.663036  1
  Se  Se11  1  0.236611  0.326136  0.990389  1
  Se  Se12  1  0.578970  0.446460  0.319550  1
  Se  Se13  1  0.078970  0.553540  0.680450  1
  Se  Se14  1  0.729073  0.839725  0.525911  1
  Se  Se15  1  0.229073  0.160275  0.474089  1
  Se  Se16  1  0.455026  0.928721  0.749620  1
  Se  Se17  1  0.955026  0.071279  0.250380  1
  Se  Se18  1  0.736611  0.673864  0.009611  1
  Se  Se19  1  0.458721  0.922456  0.232381  1
