# generated using pymatgen
data_Eu2(SeO4)3
_symmetry_space_group_name_H-M   'P 1'
_cell_length_a   7.34476911
_cell_length_b   7.34476870
_cell_length_c   12.14082100
_cell_angle_alpha   80.63340905
_cell_angle_beta   80.63340958
_cell_angle_gamma   117.18409766
_symmetry_Int_Tables_number   1
_chemical_formula_structural   Eu2(SeO4)3
_chemical_formula_sum   'Eu4 Se6 O24'
_cell_volume   553.46067707
_cell_formula_units_Z   2
loop_
 _symmetry_equiv_pos_site_id
 _symmetry_equiv_pos_as_xyz
  1  'x, y, z'
loop_
 _atom_site_type_symbol
 _atom_site_label
 _atom_site_symmetry_multiplicity
 _atom_site_fract_x
 _atom_site_fract_y
 _atom_site_fract_z
 _atom_site_occupancy
  Eu  Eu0  1  0.703880  0.966024  0.599181  1
  Eu  Eu1  1  0.966024  0.703880  0.099181  1
  Eu  Eu2  1  0.033976  0.296120  0.900819  1
  Eu  Eu3  1  0.296120  0.033976  0.400819  1
  Se  Se4  1  0.509191  0.786686  0.919043  1
  Se  Se5  1  0.786686  0.509191  0.419043  1
  Se  Se6  1  0.105979  0.894021  0.750000  1
  Se  Se7  1  0.894021  0.105979  0.250000  1
  Se  Se8  1  0.213314  0.490809  0.580957  1
  Se  Se9  1  0.490809  0.213314  0.080957  1
  O  O10  1  0.167416  0.107363  0.801879  1
  O  O11  1  0.571783  0.962149  0.791336  1
  O  O12  1  0.054527  0.695323  0.864110  1
  O  O13  1  0.739104  0.865164  0.955548  1
  O  O14  1  0.107363  0.167416  0.301879  1
  O  O15  1  0.455677  0.603021  0.604006  1
  O  O16  1  0.782115  0.325366  0.522984  1
  O  O17  1  0.674634  0.217885  0.977016  1
  O  O18  1  0.396979  0.544323  0.895994  1
  O  O19  1  0.962149  0.571783  0.291336  1
  O  O20  1  0.134836  0.260896  0.544452  1
  O  O21  1  0.304677  0.945473  0.635890  1
  O  O22  1  0.695323  0.054527  0.364110  1
  O  O23  1  0.865164  0.739104  0.455548  1
  O  O24  1  0.037851  0.428217  0.708664  1
  O  O25  1  0.603021  0.455677  0.104006  1
  O  O26  1  0.325366  0.782115  0.022984  1
  O  O27  1  0.217885  0.674634  0.477016  1
  O  O28  1  0.544323  0.396979  0.395994  1
  O  O29  1  0.892637  0.832584  0.698121  1
  O  O30  1  0.260896  0.134836  0.044452  1
  O  O31  1  0.945473  0.304677  0.135890  1
  O  O32  1  0.428217  0.037851  0.208664  1
  O  O33  1  0.832584  0.892637  0.198121  1
