# generated using pymatgen
data_AcZnCuP2
_symmetry_space_group_name_H-M   'P 1'
_cell_length_a   4.15174700
_cell_length_b   4.15174729
_cell_length_c   6.96534800
_cell_angle_alpha   90.00000000
_cell_angle_beta   90.00000000
_cell_angle_gamma   119.99998969
_symmetry_Int_Tables_number   1
_chemical_formula_structural   AcZnCuP2
_chemical_formula_sum   'Ac1 Zn1 Cu1 P2'
_cell_volume   103.97652240
_cell_formula_units_Z   1
loop_
 _symmetry_equiv_pos_site_id
 _symmetry_equiv_pos_as_xyz
  1  'x, y, z'
loop_
 _atom_site_type_symbol
 _atom_site_label
 _atom_site_symmetry_multiplicity
 _atom_site_fract_x
 _atom_site_fract_y
 _atom_site_fract_z
 _atom_site_occupancy
  Ac  Ac0  1  0.333333  0.666667  0.985523  1
  Zn  Zn1  1  0.000000  0.000000  0.378099  1
  Cu  Cu2  1  0.666667  0.333333  0.637798  1
  P  P3  1  0.666667  0.333333  0.274548  1
  P  P4  1  0.000000  0.000000  0.724032  1
