# generated using pymatgen
data_Pd6PbO8
_symmetry_space_group_name_H-M   'P 1'
_cell_length_a   6.88234113
_cell_length_b   6.88234113
_cell_length_c   6.88234100
_cell_angle_alpha   59.99999581
_cell_angle_beta   59.99999580
_cell_angle_gamma   60.00000277
_symmetry_Int_Tables_number   1
_chemical_formula_structural   Pd6PbO8
_chemical_formula_sum   'Pd6 Pb1 O8'
_cell_volume   230.51201142
_cell_formula_units_Z   1
loop_
 _symmetry_equiv_pos_site_id
 _symmetry_equiv_pos_as_xyz
  1  'x, y, z'
loop_
 _atom_site_type_symbol
 _atom_site_label
 _atom_site_symmetry_multiplicity
 _atom_site_fract_x
 _atom_site_fract_y
 _atom_site_fract_z
 _atom_site_occupancy
  Pd  Pd0  1  0.500000  0.000000  0.500000  1
  Pd  Pd1  1  0.500000  0.000000  0.000000  1
  Pd  Pd2  1  0.000000  0.000000  0.500000  1
  Pd  Pd3  1  0.000000  0.500000  0.000000  1
  Pd  Pd4  1  0.000000  0.500000  0.500000  1
  Pd  Pd5  1  0.500000  0.500000  0.000000  1
  Pb  Pb6  1  0.000000  0.000000  0.000000  1
  O  O7  1  0.858211  0.425367  0.858211  1
  O  O8  1  0.141789  0.141789  0.141789  1
  O  O9  1  0.858211  0.858211  0.858211  1
  O  O10  1  0.574633  0.141789  0.141789  1
  O  O11  1  0.858211  0.858211  0.425367  1
  O  O12  1  0.425367  0.858211  0.858211  1
  O  O13  1  0.141789  0.141789  0.574633  1
  O  O14  1  0.141789  0.574633  0.141789  1
