# generated using pymatgen
data_Ta9Si2TcB4
_symmetry_space_group_name_H-M   'P 1'
_cell_length_a   6.19109293
_cell_length_b   6.19109362
_cell_length_c   7.27002266
_cell_angle_alpha   115.20106266
_cell_angle_beta   115.20106111
_cell_angle_gamma   89.99999933
_symmetry_Int_Tables_number   1
_chemical_formula_structural   Ta9Si2TcB4
_chemical_formula_sum   'Ta9 Si2 Tc1 B4'
_cell_volume   222.47178169
_cell_formula_units_Z   1
loop_
 _symmetry_equiv_pos_site_id
 _symmetry_equiv_pos_as_xyz
  1  'x, y, z'
loop_
 _atom_site_type_symbol
 _atom_site_label
 _atom_site_symmetry_multiplicity
 _atom_site_fract_x
 _atom_site_fract_y
 _atom_site_fract_z
 _atom_site_occupancy
  Ta  Ta0  1  0.000000  0.000000  0.000000  1
  Ta  Ta1  1  0.030082  0.524219  0.720867  1
  Ta  Ta2  1  0.690786  0.196649  0.720867  1
  Ta  Ta3  1  0.196649  0.030082  0.720867  1
  Ta  Ta4  1  0.524219  0.690786  0.720867  1
  Ta  Ta5  1  0.969918  0.475781  0.279133  1
  Ta  Ta6  1  0.309214  0.803351  0.279133  1
  Ta  Ta7  1  0.803351  0.969918  0.279133  1
  Ta  Ta8  1  0.475781  0.309214  0.279133  1
  Si  Si9  1  0.244899  0.244899  0.489797  1
  Si  Si10  1  0.755101  0.755101  0.510203  1
  Tc  Tc11  1  0.500000  0.500000  0.000000  1
  B  B12  1  0.380563  0.880453  0.000000  1
  B  B13  1  0.619437  0.119547  0.000000  1
  B  B14  1  0.119547  0.380563  0.000000  1
  B  B15  1  0.880453  0.619437  0.000000  1
