# generated using pymatgen
data_Dy2Co6SiGeB2
_symmetry_space_group_name_H-M   'P 1'
_cell_length_a   5.15341306
_cell_length_b   5.15256821
_cell_length_c   6.52835400
_cell_angle_alpha   90.00000000
_cell_angle_beta   90.00000000
_cell_angle_gamma   119.98842465
_symmetry_Int_Tables_number   1
_chemical_formula_structural   Dy2Co6SiGeB2
_chemical_formula_sum   'Dy2 Co6 Si1 Ge1 B2'
_cell_volume   150.14251119
_cell_formula_units_Z   1
loop_
 _symmetry_equiv_pos_site_id
 _symmetry_equiv_pos_as_xyz
  1  'x, y, z'
loop_
 _atom_site_type_symbol
 _atom_site_label
 _atom_site_symmetry_multiplicity
 _atom_site_fract_x
 _atom_site_fract_y
 _atom_site_fract_z
 _atom_site_occupancy
  Dy  Dy0  1  0.999920  0.999985  0.000000  1
  Dy  Dy1  1  0.000016  0.000029  0.500000  1
  Co  Co2  1  0.501223  0.002458  0.286908  1
  Co  Co3  1  0.501226  0.498772  0.286931  1
  Co  Co4  1  0.997522  0.498767  0.286898  1
  Co  Co5  1  0.501223  0.002458  0.713092  1
  Co  Co6  1  0.501226  0.498772  0.713069  1
  Co  Co7  1  0.997522  0.498767  0.713102  1
  Si  Si8  1  0.666521  0.333278  0.000000  1
  Ge  Ge9  1  0.333385  0.666703  0.000000  1
  B  B10  1  0.333336  0.666689  0.500000  1
  B  B11  1  0.666679  0.333322  0.500000  1
