# generated using pymatgen
data_Tb12Y4Cd3InPd4
_symmetry_space_group_name_H-M   'P 1'
_cell_length_a   9.73240858
_cell_length_b   9.74004528
_cell_length_c   9.74004449
_cell_angle_alpha   60.09906953
_cell_angle_beta   60.13098820
_cell_angle_gamma   60.13099374
_symmetry_Int_Tables_number   1
_chemical_formula_structural   Tb12Y4Cd3InPd4
_chemical_formula_sum   'Tb12 Y4 Cd3 In1 Pd4'
_cell_volume   654.65077273
_cell_formula_units_Z   1
loop_
 _symmetry_equiv_pos_site_id
 _symmetry_equiv_pos_as_xyz
  1  'x, y, z'
loop_
 _atom_site_type_symbol
 _atom_site_label
 _atom_site_symmetry_multiplicity
 _atom_site_fract_x
 _atom_site_fract_y
 _atom_site_fract_z
 _atom_site_occupancy
  Tb  Tb0  1  0.351290  0.351432  0.351432  1
  Tb  Tb1  1  0.355440  0.355371  0.937452  1
  Tb  Tb2  1  0.355440  0.937452  0.355371  1
  Tb  Tb3  1  0.937410  0.355535  0.355535  1
  Tb  Tb4  1  0.811180  0.189684  0.189684  1
  Tb  Tb5  1  0.190532  0.809404  0.809404  1
  Tb  Tb6  1  0.189758  0.811157  0.189657  1
  Tb  Tb7  1  0.809444  0.190408  0.809444  1
  Tb  Tb8  1  0.189758  0.189657  0.811157  1
  Tb  Tb9  1  0.809444  0.809444  0.190408  1
  Tb  Tb10  1  0.936387  0.566602  0.566602  1
  Tb  Tb11  1  0.564264  0.935766  0.935766  1
  Y  Y12  1  0.566502  0.936266  0.566454  1
  Y  Y13  1  0.935597  0.564486  0.935825  1
  Y  Y14  1  0.566502  0.566454  0.936266  1
  Y  Y15  1  0.935597  0.935825  0.564486  1
  Cd  Cd16  1  0.580937  0.580772  0.252349  1
  Cd  Cd17  1  0.580937  0.252349  0.580772  1
  Cd  Cd18  1  0.252728  0.580820  0.580820  1
  In  In19  1  0.582125  0.582275  0.582275  1
  Pd  Pd20  1  0.145419  0.145737  0.145737  1
  Pd  Pd21  1  0.142878  0.142570  0.567637  1
  Pd  Pd22  1  0.142878  0.567637  0.142570  1
  Pd  Pd23  1  0.567551  0.142894  0.142894  1
