# generated using pymatgen
data_HfTaBe9W
_symmetry_space_group_name_H-M   'P 1'
_cell_length_a   7.54596980
_cell_length_b   7.54597044
_cell_length_c   7.54597016
_cell_angle_alpha   35.05354745
_cell_angle_beta   35.05354011
_cell_angle_gamma   35.05353501
_symmetry_Int_Tables_number   1
_chemical_formula_structural   HfTaBe9W
_chemical_formula_sum   'Hf1 Ta1 Be9 W1'
_cell_volume   126.56658371
_cell_formula_units_Z   1
loop_
 _symmetry_equiv_pos_site_id
 _symmetry_equiv_pos_as_xyz
  1  'x, y, z'
loop_
 _atom_site_type_symbol
 _atom_site_label
 _atom_site_symmetry_multiplicity
 _atom_site_fract_x
 _atom_site_fract_y
 _atom_site_fract_z
 _atom_site_occupancy
  Hf  Hf0  1  0.998468  0.998468  0.998468  1
  Ta  Ta1  1  0.143429  0.143429  0.143429  1
  Be  Be2  1  0.414321  0.921945  0.414321  1
  Be  Be3  1  0.414321  0.414321  0.921945  1
  Be  Be4  1  0.921945  0.414321  0.414321  1
  Be  Be5  1  0.587042  0.075231  0.587042  1
  Be  Be6  1  0.587042  0.587042  0.075231  1
  Be  Be7  1  0.075231  0.587042  0.587042  1
  Be  Be8  1  0.665528  0.665528  0.665528  1
  Be  Be9  1  0.335569  0.335569  0.335569  1
  Be  Be10  1  0.500336  0.500336  0.500336  1
  W  W11  1  0.856769  0.856769  0.856769  1
