# generated using pymatgen
data_Ti17V(Si8W)2
_symmetry_space_group_name_H-M   'P 1'
_cell_length_a   6.65237940
_cell_length_b   6.65260464
_cell_length_c   12.17402439
_cell_angle_alpha   90.13493574
_cell_angle_beta   90.13097206
_cell_angle_gamma   89.99041503
_symmetry_Int_Tables_number   1
_chemical_formula_structural   Ti17V(Si8W)2
_chemical_formula_sum   'Ti17 V1 Si16 W2'
_cell_volume   538.76645389
_cell_formula_units_Z   1
loop_
 _symmetry_equiv_pos_site_id
 _symmetry_equiv_pos_as_xyz
  1  'x, y, z'
loop_
 _atom_site_type_symbol
 _atom_site_label
 _atom_site_symmetry_multiplicity
 _atom_site_fract_x
 _atom_site_fract_y
 _atom_site_fract_z
 _atom_site_occupancy
  Ti  Ti0  1  0.349343  0.494589  0.870680  1
  Ti  Ti1  1  0.650772  0.504503  0.371794  1
  Ti  Ti2  1  0.494752  0.350121  0.129134  1
  Ti  Ti3  1  0.502921  0.648899  0.628023  1
  Ti  Ti4  1  0.005072  0.850254  0.121318  1
  Ti  Ti5  1  0.150417  0.995934  0.377538  1
  Ti  Ti6  1  0.850859  0.004510  0.879237  1
  Ti  Ti7  1  0.003358  0.343351  0.220825  1
  Ti  Ti8  1  0.155045  0.503495  0.470499  1
  Ti  Ti9  1  0.842042  0.496619  0.969888  1
  Ti  Ti10  1  0.502153  0.157362  0.529719  1
  Ti  Ti11  1  0.497388  0.843322  0.029410  1
  Ti  Ti12  1  0.997975  0.656963  0.720261  1
  Ti  Ti13  1  0.345146  0.003106  0.779044  1
  Ti  Ti14  1  0.658992  0.997909  0.280149  1
  Ti  Ti15  1  0.670038  0.327718  0.749691  1
  Ti  Ti16  1  0.831540  0.830308  0.500456  1
  V  V17  1  0.992710  0.149565  0.622563  1
  Si  Si18  1  0.043420  0.299660  0.811278  1
  Si  Si19  1  0.198118  0.543341  0.062843  1
  Si  Si20  1  0.802637  0.452989  0.564691  1
  Si  Si21  1  0.544073  0.198957  0.935653  1
  Si  Si22  1  0.455832  0.802076  0.437471  1
  Si  Si23  1  0.956153  0.698937  0.314405  1
  Si  Si24  1  0.302180  0.043834  0.186641  1
  Si  Si25  1  0.701490  0.956403  0.685709  1
  Si  Si26  1  0.289937  0.356121  0.671275  1
  Si  Si27  1  0.142298  0.794248  0.921839  1
  Si  Si28  1  0.859585  0.205169  0.425699  1
  Si  Si29  1  0.794104  0.141879  0.077734  1
  Si  Si30  1  0.203684  0.864252  0.578080  1
  Si  Si31  1  0.705966  0.641738  0.172552  1
  Si  Si32  1  0.358646  0.295083  0.328310  1
  Si  Si33  1  0.641809  0.705617  0.825971  1
  W  W34  1  0.170985  0.170169  0.000034  1
  W  W35  1  0.328556  0.670999  0.249586  1
