# generated using pymatgen
data_Zr3TaSn2(B2Ru5)2
_symmetry_space_group_name_H-M   'P 1'
_cell_length_a   9.51621522
_cell_length_b   9.51621620
_cell_length_c   3.11946200
_cell_angle_alpha   90.00000000
_cell_angle_beta   90.00000000
_cell_angle_gamma   90.37721355
_symmetry_Int_Tables_number   1
_chemical_formula_structural   Zr3TaSn2(B2Ru5)2
_chemical_formula_sum   'Zr3 Ta1 Sn2 B4 Ru10'
_cell_volume   282.48724512
_cell_formula_units_Z   1
loop_
 _symmetry_equiv_pos_site_id
 _symmetry_equiv_pos_as_xyz
  1  'x, y, z'
loop_
 _atom_site_type_symbol
 _atom_site_label
 _atom_site_symmetry_multiplicity
 _atom_site_fract_x
 _atom_site_fract_y
 _atom_site_fract_z
 _atom_site_occupancy
  Zr  Zr0  1  0.824191  0.676085  0.000000  1
  Zr  Zr1  1  0.176085  0.324191  0.000000  1
  Zr  Zr2  1  0.324892  0.824892  0.000000  1
  Ta  Ta3  1  0.675338  0.175338  0.000000  1
  Sn  Sn4  1  0.498993  0.503128  0.000000  1
  Sn  Sn5  1  0.003128  0.998993  0.000000  1
  B  B6  1  0.623281  0.880418  0.000000  1
  B  B7  1  0.380418  0.123281  0.000000  1
  B  B8  1  0.120465  0.620465  0.000000  1
  B  B9  1  0.876404  0.376404  0.000000  1
  Ru  Ru10  1  0.571403  0.724365  0.500000  1
  Ru  Ru11  1  0.438844  0.277519  0.500000  1
  Ru  Ru12  1  0.069749  0.776308  0.500000  1
  Ru  Ru13  1  0.919345  0.217413  0.500000  1
  Ru  Ru14  1  0.276308  0.569749  0.500000  1
  Ru  Ru15  1  0.717413  0.419345  0.500000  1
  Ru  Ru16  1  0.224365  0.071403  0.500000  1
  Ru  Ru17  1  0.777519  0.938844  0.500000  1
  Ru  Ru18  1  0.504547  0.004547  0.500000  1
  Ru  Ru19  1  0.997315  0.497315  0.500000  1
