# generated using pymatgen
data_Ba14Na15N6
_symmetry_space_group_name_H-M   'P 1'
_cell_length_a   12.63932652
_cell_length_b   12.63932722
_cell_length_c   12.63932700
_cell_angle_alpha   60.00000318
_cell_angle_beta   60.00000135
_cell_angle_gamma   60.00000424
_symmetry_Int_Tables_number   1
_chemical_formula_structural   Ba14Na15N6
_chemical_formula_sum   'Ba14 Na15 N6'
_cell_volume   1427.76546006
_cell_formula_units_Z   1
loop_
 _symmetry_equiv_pos_site_id
 _symmetry_equiv_pos_as_xyz
  1  'x, y, z'
loop_
 _atom_site_type_symbol
 _atom_site_label
 _atom_site_symmetry_multiplicity
 _atom_site_fract_x
 _atom_site_fract_y
 _atom_site_fract_z
 _atom_site_occupancy
  Ba  Ba0  1  0.895605  0.313184  0.895605  1
  Ba  Ba1  1  0.895605  0.895605  0.895605  1
  Ba  Ba2  1  0.710644  0.289356  0.710644  1
  Ba  Ba3  1  0.289356  0.289356  0.710644  1
  Ba  Ba4  1  0.710644  0.289356  0.289356  1
  Ba  Ba5  1  0.895605  0.895605  0.313184  1
  Ba  Ba6  1  0.289356  0.710644  0.710644  1
  Ba  Ba7  1  0.313184  0.895605  0.895605  1
  Ba  Ba8  1  0.289356  0.710644  0.289356  1
  Ba  Ba9  1  0.104395  0.104395  0.104395  1
  Ba  Ba10  1  0.710644  0.710644  0.289356  1
  Ba  Ba11  1  0.104395  0.686816  0.104395  1
  Ba  Ba12  1  0.686816  0.104395  0.104395  1
  Ba  Ba13  1  0.104395  0.104395  0.686816  1
  Na  Na14  1  0.671188  0.671188  0.986436  1
  Na  Na15  1  0.013564  0.328812  0.328812  1
  Na  Na16  1  0.500000  0.500000  0.000000  1
  Na  Na17  1  0.328812  0.328812  0.013564  1
  Na  Na18  1  0.671188  0.671188  0.671188  1
  Na  Na19  1  0.671188  0.986436  0.671188  1
  Na  Na20  1  0.986436  0.671188  0.671188  1
  Na  Na21  1  0.328812  0.013564  0.328812  1
  Na  Na22  1  0.500000  0.000000  0.500000  1
  Na  Na23  1  0.328812  0.328812  0.328812  1
  Na  Na24  1  0.000000  0.500000  0.500000  1
  Na  Na25  1  0.000000  0.000000  0.500000  1
  Na  Na26  1  0.000000  0.500000  0.000000  1
  Na  Na27  1  0.500000  0.000000  0.000000  1
  Na  Na28  1  0.000000  0.000000  0.000000  1
  N  N29  1  0.150321  0.849679  0.150321  1
  N  N30  1  0.150321  0.849679  0.849679  1
  N  N31  1  0.849679  0.849679  0.150321  1
  N  N32  1  0.849679  0.150321  0.849679  1
  N  N33  1  0.849679  0.150321  0.150321  1
  N  N34  1  0.150321  0.150321  0.849679  1
