# generated using pymatgen
data_Nd5Dy(BiO7)2
_symmetry_space_group_name_H-M   'P 1'
_cell_length_a   6.72273763
_cell_length_b   6.73780402
_cell_length_c   7.92054366
_cell_angle_alpha   106.89807798
_cell_angle_beta   89.83698352
_cell_angle_gamma   98.60398637
_symmetry_Int_Tables_number   1
_chemical_formula_structural   Nd5Dy(BiO7)2
_chemical_formula_sum   'Nd5 Dy1 Bi2 O14'
_cell_volume   339.10557662
_cell_formula_units_Z   1
loop_
 _symmetry_equiv_pos_site_id
 _symmetry_equiv_pos_as_xyz
  1  'x, y, z'
loop_
 _atom_site_type_symbol
 _atom_site_label
 _atom_site_symmetry_multiplicity
 _atom_site_fract_x
 _atom_site_fract_y
 _atom_site_fract_z
 _atom_site_occupancy
  Nd  Nd0  1  0.539181  0.995546  0.747161  1
  Nd  Nd1  1  0.268259  0.539229  0.884127  1
  Nd  Nd2  1  0.730232  0.463344  0.118511  1
  Nd  Nd3  1  0.737323  0.477005  0.612811  1
  Nd  Nd4  1  0.260955  0.520119  0.382253  1
  Dy  Dy5  1  0.461725  0.005144  0.252941  1
  Bi  Bi6  1  0.000410  0.000313  0.498203  1
  Bi  Bi7  1  0.999997  0.000074  0.002395  1
  O  O8  1  0.444956  0.655260  0.170264  1
  O  O9  1  0.557292  0.356351  0.834207  1
  O  O10  1  0.300093  0.930109  0.960081  1
  O  O11  1  0.701157  0.069166  0.052243  1
  O  O12  1  0.296331  0.929370  0.506529  1
  O  O13  1  0.704540  0.069495  0.480354  1
  O  O14  1  0.542909  0.353767  0.342032  1
  O  O15  1  0.450017  0.635787  0.652953  1
  O  O16  1  0.926485  0.672386  0.955586  1
  O  O17  1  0.073303  0.327992  0.044957  1
  O  O18  1  0.068796  0.338468  0.616558  1
  O  O19  1  0.926988  0.660087  0.385506  1
  O  O20  1  0.887248  0.913477  0.727773  1
  O  O21  1  0.121802  0.087512  0.272557  1
