# generated using pymatgen
data_Nd4Mn3CoF28
_symmetry_space_group_name_H-M   'P 1'
_cell_length_a   5.55522206
_cell_length_b   9.03338916
_cell_length_c   12.05549300
_cell_angle_alpha   61.84948862
_cell_angle_beta   89.99135699
_cell_angle_gamma   90.00586128
_symmetry_Int_Tables_number   1
_chemical_formula_structural   Nd4Mn3CoF28
_chemical_formula_sum   'Nd4 Mn3 Co1 F28'
_cell_volume   533.41288820
_cell_formula_units_Z   1
loop_
 _symmetry_equiv_pos_site_id
 _symmetry_equiv_pos_as_xyz
  1  'x, y, z'
loop_
 _atom_site_type_symbol
 _atom_site_label
 _atom_site_symmetry_multiplicity
 _atom_site_fract_x
 _atom_site_fract_y
 _atom_site_fract_z
 _atom_site_occupancy
  Nd  Nd0  1  0.761310  0.807881  0.764432  1
  Nd  Nd1  1  0.260897  0.191905  0.738149  1
  Nd  Nd2  1  0.237861  0.191907  0.234361  1
  Nd  Nd3  1  0.738984  0.808340  0.264157  1
  Mn  Mn4  1  0.257402  0.725595  0.542419  1
  Mn  Mn5  1  0.243003  0.725831  0.042243  1
  Mn  Mn6  1  0.742100  0.273997  0.457876  1
  Co  Co7  1  0.758080  0.274601  0.957350  1
  F  F8  1  0.429023  0.709142  0.922547  1
  F  F9  1  0.929733  0.290662  0.577196  1
  F  F10  1  0.578194  0.291046  0.076179  1
  F  F11  1  0.071308  0.708662  0.422773  1
  F  F12  1  0.464222  0.282311  0.539725  1
  F  F13  1  0.964352  0.716707  0.961628  1
  F  F14  1  0.536254  0.716951  0.461407  1
  F  F15  1  0.032063  0.283443  0.037386  1
  F  F16  1  0.768744  0.501205  0.866177  1
  F  F17  1  0.266446  0.494210  0.635326  1
  F  F18  1  0.235434  0.494583  0.134614  1
  F  F19  1  0.732971  0.505663  0.365148  1
  F  F20  1  0.758815  0.048969  0.043712  1
  F  F21  1  0.260534  0.955702  0.452602  1
  F  F22  1  0.238912  0.956135  0.953776  1
  F  F23  1  0.739806  0.043664  0.547074  1
  F  F24  1  0.984129  0.729412  0.628021  1
  F  F25  1  0.488178  0.270670  0.873800  1
  F  F26  1  0.014673  0.270317  0.371478  1
  F  F27  1  0.516639  0.730622  0.127203  1
  F  F28  1  0.057970  0.739857  0.165061  1
  F  F29  1  0.555975  0.260027  0.335127  1
  F  F30  1  0.936530  0.261630  0.835054  1
  F  F31  1  0.441972  0.739468  0.665421  1
  F  F32  1  0.399246  0.967188  0.225819  1
  F  F33  1  0.899207  0.032135  0.273539  1
  F  F34  1  0.599126  0.031800  0.773348  1
  F  F35  1  0.099903  0.967763  0.727871  1
