# generated using pymatgen
data_Tb3Nd17Pb16
_symmetry_space_group_name_H-M   'P 1'
_cell_length_a   8.40022400
_cell_length_b   8.48862168
_cell_length_c   16.15042400
_cell_angle_alpha   90.00000000
_cell_angle_beta   90.00000000
_cell_angle_gamma   90.02299628
_symmetry_Int_Tables_number   1
_chemical_formula_structural   Tb3Nd17Pb16
_chemical_formula_sum   'Tb3 Nd17 Pb16'
_cell_volume   1151.62726717
_cell_formula_units_Z   1
loop_
 _symmetry_equiv_pos_site_id
 _symmetry_equiv_pos_as_xyz
  1  'x, y, z'
loop_
 _atom_site_type_symbol
 _atom_site_label
 _atom_site_symmetry_multiplicity
 _atom_site_fract_x
 _atom_site_fract_y
 _atom_site_fract_z
 _atom_site_occupancy
  Tb  Tb0  1  0.709047  0.995720  0.750000  1
  Tb  Tb1  1  0.790776  0.496356  0.250000  1
  Tb  Tb2  1  0.290977  0.003679  0.250000  1
  Nd  Nd3  1  0.378698  0.841490  0.881011  1
  Nd  Nd4  1  0.877443  0.659217  0.619059  1
  Nd  Nd5  1  0.622127  0.158318  0.380421  1
  Nd  Nd6  1  0.122172  0.341582  0.120137  1
  Nd  Nd7  1  0.622127  0.158318  0.119579  1
  Nd  Nd8  1  0.122172  0.341582  0.379863  1
  Nd  Nd9  1  0.378698  0.841490  0.618989  1
  Nd  Nd10  1  0.877443  0.659217  0.880941  1
  Nd  Nd11  1  0.534375  0.321733  0.899956  1
  Nd  Nd12  1  0.033755  0.176632  0.600117  1
  Nd  Nd13  1  0.465672  0.677466  0.399070  1
  Nd  Nd14  1  0.965678  0.822484  0.100310  1
  Nd  Nd15  1  0.465672  0.677466  0.100930  1
  Nd  Nd16  1  0.965678  0.822484  0.399690  1
  Nd  Nd17  1  0.534375  0.321733  0.600044  1
  Nd  Nd18  1  0.033755  0.176632  0.899883  1
  Nd  Nd19  1  0.208283  0.503044  0.750000  1
  Pb  Pb20  1  0.280911  0.031371  0.045498  1
  Pb  Pb21  1  0.781147  0.469073  0.454532  1
  Pb  Pb22  1  0.719091  0.969377  0.544946  1
  Pb  Pb23  1  0.218674  0.532081  0.956605  1
  Pb  Pb24  1  0.719091  0.969377  0.955054  1
  Pb  Pb25  1  0.218674  0.532081  0.543395  1
  Pb  Pb26  1  0.280911  0.031371  0.454502  1
  Pb  Pb27  1  0.781147  0.469073  0.045468  1
  Pb  Pb28  1  0.575820  0.625531  0.750000  1
  Pb  Pb29  1  0.072331  0.878546  0.750000  1
  Pb  Pb30  1  0.427697  0.375696  0.250000  1
  Pb  Pb31  1  0.927320  0.123805  0.250000  1
  Pb  Pb32  1  0.345436  0.149012  0.750000  1
  Pb  Pb33  1  0.841816  0.346161  0.750000  1
  Pb  Pb34  1  0.655598  0.847330  0.250000  1
  Pb  Pb35  1  0.155414  0.653470  0.250000  1
