# generated using pymatgen
data_TaTiV3Os
_symmetry_space_group_name_H-M   'P 1'
_cell_length_a   5.03650158
_cell_length_b   5.03650183
_cell_length_c   5.06856804
_cell_angle_alpha   60.20906605
_cell_angle_beta   60.20904596
_cell_angle_gamma   60.00000450
_symmetry_Int_Tables_number   1
_chemical_formula_structural   TaTiV3Os
_chemical_formula_sum   'Ta1 Ti1 V3 Os1'
_cell_volume   91.19969463
_cell_formula_units_Z   1
loop_
 _symmetry_equiv_pos_site_id
 _symmetry_equiv_pos_as_xyz
  1  'x, y, z'
loop_
 _atom_site_type_symbol
 _atom_site_label
 _atom_site_symmetry_multiplicity
 _atom_site_fract_x
 _atom_site_fract_y
 _atom_site_fract_z
 _atom_site_occupancy
  Ta  Ta0  1  0.998918  0.998918  0.003246  1
  Ti  Ti1  1  0.250776  0.250776  0.247672  1
  V  V2  1  0.625091  0.125135  0.624682  1
  V  V3  1  0.125135  0.625091  0.624682  1
  V  V4  1  0.625091  0.625091  0.624682  1
  Os  Os5  1  0.624987  0.624987  0.125039  1
