# generated using pymatgen
data_Tm6Sc4Si5Sb
_symmetry_space_group_name_H-M   'P 1'
_cell_length_a   8.28305691
_cell_length_b   8.28305579
_cell_length_c   5.98895500
_cell_angle_alpha   90.00000000
_cell_angle_beta   90.00000000
_cell_angle_gamma   120.12098037
_symmetry_Int_Tables_number   1
_chemical_formula_structural   Tm6Sc4Si5Sb
_chemical_formula_sum   'Tm6 Sc4 Si5 Sb1'
_cell_volume   355.41207806
_cell_formula_units_Z   1
loop_
 _symmetry_equiv_pos_site_id
 _symmetry_equiv_pos_as_xyz
  1  'x, y, z'
loop_
 _atom_site_type_symbol
 _atom_site_label
 _atom_site_symmetry_multiplicity
 _atom_site_fract_x
 _atom_site_fract_y
 _atom_site_fract_z
 _atom_site_occupancy
  Tm  Tm0  1  0.764381  0.764381  0.250000  1
  Tm  Tm1  1  0.242126  0.987623  0.250000  1
  Tm  Tm2  1  0.987623  0.242126  0.250000  1
  Tm  Tm3  1  0.242366  0.242366  0.750000  1
  Tm  Tm4  1  0.753437  0.999045  0.750000  1
  Tm  Tm5  1  0.999045  0.753437  0.750000  1
  Sc  Sc6  1  0.674524  0.331205  0.503959  1
  Sc  Sc7  1  0.331205  0.674524  0.503959  1
  Sc  Sc8  1  0.331205  0.674524  0.996041  1
  Sc  Sc9  1  0.674524  0.331205  0.996041  1
  Si  Si10  1  0.600952  0.998411  0.250000  1
  Si  Si11  1  0.998411  0.600952  0.250000  1
  Si  Si12  1  0.604353  0.604353  0.750000  1
  Si  Si13  1  0.396721  0.002103  0.750000  1
  Si  Si14  1  0.002103  0.396721  0.750000  1
  Sb  Sb15  1  0.397022  0.397022  0.250000  1
