# generated using pymatgen
data_TiBe4Re
_symmetry_space_group_name_H-M   'P 1'
_cell_length_a   4.44745300
_cell_length_b   4.44745301
_cell_length_c   7.20993900
_cell_angle_alpha   90.00000000
_cell_angle_beta   90.00000000
_cell_angle_gamma   120.00000738
_symmetry_Int_Tables_number   1
_chemical_formula_structural   TiBe4Re
_chemical_formula_sum   'Ti2 Be8 Re2'
_cell_volume   123.50510946
_cell_formula_units_Z   2
loop_
 _symmetry_equiv_pos_site_id
 _symmetry_equiv_pos_as_xyz
  1  'x, y, z'
loop_
 _atom_site_type_symbol
 _atom_site_label
 _atom_site_symmetry_multiplicity
 _atom_site_fract_x
 _atom_site_fract_y
 _atom_site_fract_z
 _atom_site_occupancy
  Ti  Ti0  1  0.333333  0.666667  0.064782  1
  Ti  Ti1  1  0.666667  0.333333  0.564782  1
  Be  Be2  1  0.000000  0.000000  0.997013  1
  Be  Be3  1  0.000000  0.000000  0.497013  1
  Be  Be4  1  0.829046  0.658092  0.250290  1
  Be  Be5  1  0.170954  0.829046  0.750290  1
  Be  Be6  1  0.658092  0.829046  0.750290  1
  Be  Be7  1  0.341908  0.170954  0.250290  1
  Be  Be8  1  0.829046  0.170954  0.250290  1
  Be  Be9  1  0.170954  0.341908  0.750290  1
  Re  Re10  1  0.666667  0.333333  0.937334  1
  Re  Re11  1  0.333333  0.666667  0.437334  1
