# generated using pymatgen
data_Y2Al8SiRh3
_symmetry_space_group_name_H-M   'P 1'
_cell_length_a   7.54087024
_cell_length_b   7.51127554
_cell_length_c   9.43913481
_cell_angle_alpha   89.98965983
_cell_angle_beta   89.83521585
_cell_angle_gamma   119.68541472
_symmetry_Int_Tables_number   1
_chemical_formula_structural   Y2Al8SiRh3
_chemical_formula_sum   'Y4 Al16 Si2 Rh6'
_cell_volume   464.47616765
_cell_formula_units_Z   2
loop_
 _symmetry_equiv_pos_site_id
 _symmetry_equiv_pos_as_xyz
  1  'x, y, z'
loop_
 _atom_site_type_symbol
 _atom_site_label
 _atom_site_symmetry_multiplicity
 _atom_site_fract_x
 _atom_site_fract_y
 _atom_site_fract_z
 _atom_site_occupancy
  Y  Y0  1  0.994719  0.664938  0.243509  1
  Y  Y1  1  0.005281  0.335062  0.756491  1
  Y  Y2  1  0.675270  0.000743  0.247196  1
  Y  Y3  1  0.324730  0.999257  0.752804  1
  Al  Al4  1  0.128716  0.127367  0.250484  1
  Al  Al5  1  0.871284  0.872633  0.749516  1
  Al  Al6  1  0.998812  0.665641  0.569241  1
  Al  Al7  1  0.334911  0.999402  0.425527  1
  Al  Al8  1  0.001188  0.334359  0.430759  1
  Al  Al9  1  0.665089  0.000598  0.574473  1
  Al  Al10  1  0.661484  0.996490  0.922722  1
  Al  Al11  1  0.338516  0.003510  0.077278  1
  Al  Al12  1  0.333112  0.332047  0.553215  1
  Al  Al13  1  0.666888  0.667953  0.446785  1
  Al  Al14  1  0.663985  0.666796  0.053747  1
  Al  Al15  1  0.336015  0.333204  0.946253  1
  Al  Al16  1  0.339699  0.549931  0.249792  1
  Al  Al17  1  0.660301  0.450069  0.750208  1
  Al  Al18  1  0.548058  0.341386  0.250206  1
  Al  Al19  1  0.451942  0.658614  0.749794  1
  Si  Si20  1  0.002908  0.328735  0.076718  1
  Si  Si21  1  0.997092  0.671265  0.923282  1
  Rh  Rh22  1  0.689384  0.337244  0.001493  1
  Rh  Rh23  1  0.310616  0.662756  0.998507  1
  Rh  Rh24  1  0.327500  0.671038  0.500433  1
  Rh  Rh25  1  0.672500  0.328962  0.499567  1
  Rh  Rh26  1  0.000000  0.000000  0.000000  1
  Rh  Rh27  1  0.000000  0.000000  0.500000  1
