# generated using pymatgen
data_Dy4GePS2
_symmetry_space_group_name_H-M   'P 1'
_cell_length_a   6.94252032
_cell_length_b   6.94252081
_cell_length_c   6.94252056
_cell_angle_alpha   132.05335950
_cell_angle_beta   132.05335626
_cell_angle_gamma   70.14476937
_symmetry_Int_Tables_number   1
_chemical_formula_structural   Dy4GePS2
_chemical_formula_sum   'Dy4 Ge1 P1 S2'
_cell_volume   180.84602552
_cell_formula_units_Z   1
loop_
 _symmetry_equiv_pos_site_id
 _symmetry_equiv_pos_as_xyz
  1  'x, y, z'
loop_
 _atom_site_type_symbol
 _atom_site_label
 _atom_site_symmetry_multiplicity
 _atom_site_fract_x
 _atom_site_fract_y
 _atom_site_fract_z
 _atom_site_occupancy
  Dy  Dy0  1  0.250340  0.250340  0.000000  1
  Dy  Dy1  1  0.749660  0.749660  0.000000  1
  Dy  Dy2  1  0.502838  0.002837  0.500001  1
  Dy  Dy3  1  0.997163  0.497164  0.500001  1
  Ge  Ge4  1  0.000000  0.000000  0.000000  1
  P  P5  1  0.750001  0.250000  0.500001  1
  S  S6  1  0.500000  0.500000  0.000000  1
  S  S7  1  0.250000  0.750001  0.500001  1
