# generated using pymatgen
data_DyTm2Th3Si4
_symmetry_space_group_name_H-M   'P 1'
_cell_length_a   7.56250969
_cell_length_b   7.56251028
_cell_length_c   4.25829700
_cell_angle_alpha   90.00000000
_cell_angle_beta   90.00000000
_cell_angle_gamma   90.45116884
_symmetry_Int_Tables_number   1
_chemical_formula_structural   DyTm2Th3Si4
_chemical_formula_sum   'Dy1 Tm2 Th3 Si4'
_cell_volume   243.53108637
_cell_formula_units_Z   1
loop_
 _symmetry_equiv_pos_site_id
 _symmetry_equiv_pos_as_xyz
  1  'x, y, z'
loop_
 _atom_site_type_symbol
 _atom_site_label
 _atom_site_symmetry_multiplicity
 _atom_site_fract_x
 _atom_site_fract_y
 _atom_site_fract_z
 _atom_site_occupancy
  Dy  Dy0  1  0.676244  0.176244  0.500000  1
  Tm  Tm1  1  0.500726  0.501182  0.000000  1
  Tm  Tm2  1  0.001182  0.000726  0.000000  1
  Th  Th3  1  0.323171  0.823171  0.500000  1
  Th  Th4  1  0.178071  0.320123  0.500000  1
  Th  Th5  1  0.820123  0.678071  0.500000  1
  Si  Si6  1  0.117208  0.617208  0.000000  1
  Si  Si7  1  0.878826  0.378826  0.000000  1
  Si  Si8  1  0.619100  0.885347  0.000000  1
  Si  Si9  1  0.385347  0.119100  0.000000  1
