# generated using pymatgen
data_Sr8Cd3Si12Ge
_symmetry_space_group_name_H-M   'P 1'
_cell_length_a   11.96452908
_cell_length_b   10.32250715
_cell_length_c   8.49405880
_cell_angle_alpha   78.29247509
_cell_angle_beta   57.70900177
_cell_angle_gamma   44.59212263
_symmetry_Int_Tables_number   1
_chemical_formula_structural   Sr8Cd3Si12Ge
_chemical_formula_sum   'Sr8 Cd3 Si12 Ge1'
_cell_volume   594.08691738
_cell_formula_units_Z   1
loop_
 _symmetry_equiv_pos_site_id
 _symmetry_equiv_pos_as_xyz
  1  'x, y, z'
loop_
 _atom_site_type_symbol
 _atom_site_label
 _atom_site_symmetry_multiplicity
 _atom_site_fract_x
 _atom_site_fract_y
 _atom_site_fract_z
 _atom_site_occupancy
  Sr  Sr0  1  0.134849  0.119844  0.861357  1
  Sr  Sr1  1  0.861541  0.882616  0.134535  1
  Sr  Sr2  1  0.134945  0.124109  0.375501  1
  Sr  Sr3  1  0.375065  0.367669  0.135429  1
  Sr  Sr4  1  0.617252  0.633737  0.380109  1
  Sr  Sr5  1  0.379188  0.369820  0.617498  1
  Sr  Sr6  1  0.628069  0.628480  0.870144  1
  Sr  Sr7  1  0.870919  0.871900  0.627614  1
  Cd  Cd8  1  0.083730  0.417307  0.081315  1
  Cd  Cd9  1  0.833844  0.167533  0.831361  1
  Cd  Cd10  1  0.165020  0.833298  0.167995  1
  Si  Si11  1  0.913966  0.596687  0.428462  1
  Si  Si12  1  0.070586  0.419664  0.591977  1
  Si  Si13  1  0.428836  0.064911  0.912092  1
  Si  Si14  1  0.592665  0.914895  0.071120  1
  Si  Si15  1  0.334538  0.652149  0.824851  1
  Si  Si16  1  0.655555  0.337266  0.185578  1
  Si  Si17  1  0.824457  0.184740  0.335370  1
  Si  Si18  1  0.184172  0.823049  0.656517  1
  Si  Si19  1  0.908558  0.591616  0.907964  1
  Si  Si20  1  0.586612  0.910168  0.586746  1
  Si  Si21  1  0.342324  0.659257  0.338600  1
  Si  Si22  1  0.659165  0.342185  0.659186  1
  Ge  Ge23  1  0.414148  0.087102  0.418673  1
