# generated using pymatgen
data_Lu3Sc(Al3Ir)6
_symmetry_space_group_name_H-M   'P 1'
_cell_length_a   7.51725421
_cell_length_b   7.51142682
_cell_length_c   9.38959000
_cell_angle_alpha   90.00000000
_cell_angle_beta   90.00000000
_cell_angle_gamma   119.60726594
_symmetry_Int_Tables_number   1
_chemical_formula_structural   Lu3Sc(Al3Ir)6
_chemical_formula_sum   'Lu3 Sc1 Al18 Ir6'
_cell_volume   460.96087876
_cell_formula_units_Z   1
loop_
 _symmetry_equiv_pos_site_id
 _symmetry_equiv_pos_as_xyz
  1  'x, y, z'
loop_
 _atom_site_type_symbol
 _atom_site_label
 _atom_site_symmetry_multiplicity
 _atom_site_fract_x
 _atom_site_fract_y
 _atom_site_fract_z
 _atom_site_occupancy
  Lu  Lu0  1  0.005617  0.328998  0.750000  1
  Lu  Lu1  1  0.671305  0.995031  0.250000  1
  Lu  Lu2  1  0.328572  0.005221  0.750000  1
  Sc  Sc3  1  0.995182  0.671453  0.250000  1
  Al  Al4  1  0.126656  0.125365  0.250000  1
  Al  Al5  1  0.871479  0.870571  0.750000  1
  Al  Al6  1  0.000071  0.337534  0.077328  1
  Al  Al7  1  0.999660  0.665185  0.928399  1
  Al  Al8  1  0.999660  0.665185  0.571601  1
  Al  Al9  1  0.332390  0.997663  0.422658  1
  Al  Al10  1  0.000071  0.337534  0.422672  1
  Al  Al11  1  0.664921  0.999293  0.574855  1
  Al  Al12  1  0.664921  0.999293  0.925145  1
  Al  Al13  1  0.332390  0.997663  0.077342  1
  Al  Al14  1  0.333057  0.333029  0.552917  1
  Al  Al15  1  0.669242  0.667320  0.443489  1
  Al  Al16  1  0.669242  0.667320  0.056511  1
  Al  Al17  1  0.333057  0.333029  0.947083  1
  Al  Al18  1  0.338005  0.549896  0.250000  1
  Al  Al19  1  0.661014  0.451673  0.750000  1
  Al  Al20  1  0.552782  0.341783  0.250000  1
  Al  Al21  1  0.451302  0.660181  0.750000  1
  Ir  Ir22  1  0.671914  0.326849  0.000067  1
  Ir  Ir23  1  0.328007  0.672512  0.000133  1
  Ir  Ir24  1  0.328007  0.672512  0.499867  1
  Ir  Ir25  1  0.671914  0.326849  0.499933  1
  Ir  Ir26  1  0.999780  0.000528  0.000045  1
  Ir  Ir27  1  0.999780  0.000528  0.499955  1
