# generated using pymatgen
data_Y3ErLu2Bi2Os
_symmetry_space_group_name_H-M   'P 1'
_cell_length_a   8.22697400
_cell_length_b   8.25530967
_cell_length_c   4.25476400
_cell_angle_alpha   90.00000000
_cell_angle_beta   90.00000000
_cell_angle_gamma   119.88652134
_symmetry_Int_Tables_number   1
_chemical_formula_structural   Y3ErLu2Bi2Os
_chemical_formula_sum   'Y3 Er1 Lu2 Bi2 Os1'
_cell_volume   250.53884818
_cell_formula_units_Z   1
loop_
 _symmetry_equiv_pos_site_id
 _symmetry_equiv_pos_as_xyz
  1  'x, y, z'
loop_
 _atom_site_type_symbol
 _atom_site_label
 _atom_site_symmetry_multiplicity
 _atom_site_fract_x
 _atom_site_fract_y
 _atom_site_fract_z
 _atom_site_occupancy
  Y  Y0  1  0.613816  0.000000  0.000000  1
  Y  Y1  1  0.999559  0.612147  0.000000  1
  Y  Y2  1  0.387412  0.387853  0.000000  1
  Er  Er3  1  0.230311  0.000000  0.500000  1
  Lu  Lu4  1  0.000119  0.230044  0.500000  1
  Lu  Lu5  1  0.770075  0.769956  0.500000  1
  Bi  Bi6  1  0.333146  0.664907  0.500000  1
  Bi  Bi7  1  0.668239  0.335093  0.500000  1
  Os  Os8  1  0.997323  0.000000  0.000000  1
