# generated using pymatgen
data_Th3Zn3Pd2Ru
_symmetry_space_group_name_H-M   'P 1'
_cell_length_a   7.53033000
_cell_length_b   7.53032820
_cell_length_c   3.86437200
_cell_angle_alpha   90.00000000
_cell_angle_beta   90.00000000
_cell_angle_gamma   120.00000791
_symmetry_Int_Tables_number   1
_chemical_formula_structural   Th3Zn3Pd2Ru
_chemical_formula_sum   'Th3 Zn3 Pd2 Ru1'
_cell_volume   189.77431704
_cell_formula_units_Z   1
loop_
 _symmetry_equiv_pos_site_id
 _symmetry_equiv_pos_as_xyz
  1  'x, y, z'
loop_
 _atom_site_type_symbol
 _atom_site_label
 _atom_site_symmetry_multiplicity
 _atom_site_fract_x
 _atom_site_fract_y
 _atom_site_fract_z
 _atom_site_occupancy
  Th  Th0  1  0.583127  0.987875  0.000000  1
  Th  Th1  1  0.012125  0.595252  0.000000  1
  Th  Th2  1  0.404748  0.416873  0.000000  1
  Zn  Zn3  1  0.250191  0.001725  0.500000  1
  Zn  Zn4  1  0.998275  0.248466  0.500000  1
  Zn  Zn5  1  0.751534  0.749809  0.500000  1
  Pd  Pd6  1  0.000000  0.000000  0.000000  1
  Pd  Pd7  1  0.666667  0.333333  0.500000  1
  Ru  Ru8  1  0.333333  0.666667  0.500000  1
