# generated using pymatgen
data_NdDy3Fe4(P3Rh4)4
_symmetry_space_group_name_H-M   'P 1'
_cell_length_a   3.86271700
_cell_length_b   10.77561517
_cell_length_c   12.44146431
_cell_angle_alpha   90.05304687
_cell_angle_beta   90.00000000
_cell_angle_gamma   90.00000000
_symmetry_Int_Tables_number   1
_chemical_formula_structural   NdDy3Fe4(P3Rh4)4
_chemical_formula_sum   'Nd1 Dy3 Fe4 P12 Rh16'
_cell_volume   517.85273714
_cell_formula_units_Z   1
loop_
 _symmetry_equiv_pos_site_id
 _symmetry_equiv_pos_as_xyz
  1  'x, y, z'
loop_
 _atom_site_type_symbol
 _atom_site_label
 _atom_site_symmetry_multiplicity
 _atom_site_fract_x
 _atom_site_fract_y
 _atom_site_fract_z
 _atom_site_occupancy
  Nd  Nd0  1  0.250000  0.582799  0.709069  1
  Dy  Dy1  1  0.250000  0.917352  0.209354  1
  Dy  Dy2  1  0.750000  0.417097  0.290823  1
  Dy  Dy3  1  0.750000  0.082535  0.790500  1
  Fe  Fe4  1  0.250000  0.460934  0.935243  1
  Fe  Fe5  1  0.250000  0.038249  0.432651  1
  Fe  Fe6  1  0.750000  0.537498  0.068818  1
  Fe  Fe7  1  0.750000  0.963882  0.566335  1
  P  P8  1  0.250000  0.430262  0.107357  1
  P  P9  1  0.250000  0.070526  0.605248  1
  P  P10  1  0.750000  0.569318  0.896780  1
  P  P11  1  0.750000  0.930813  0.394126  1
  P  P12  1  0.250000  0.270597  0.870345  1
  P  P13  1  0.250000  0.228756  0.369161  1
  P  P14  1  0.750000  0.729245  0.130151  1
  P  P15  1  0.750000  0.773669  0.627713  1
  P  P16  1  0.250000  0.600713  0.389276  1
  P  P17  1  0.250000  0.898636  0.888710  1
  P  P18  1  0.750000  0.396424  0.609994  1
  P  P19  1  0.750000  0.100693  0.111055  1
  Rh  Rh20  1  0.250000  0.717094  0.991897  1
  Rh  Rh21  1  0.250000  0.783301  0.490464  1
  Rh  Rh22  1  0.750000  0.282671  0.010003  1
  Rh  Rh23  1  0.750000  0.216280  0.507761  1
  Rh  Rh24  1  0.250000  0.407401  0.478553  1
  Rh  Rh25  1  0.250000  0.090995  0.978951  1
  Rh  Rh26  1  0.750000  0.590754  0.516207  1
  Rh  Rh27  1  0.750000  0.908742  0.021321  1
  Rh  Rh28  1  0.250000  0.230360  0.175214  1
  Rh  Rh29  1  0.250000  0.269043  0.675155  1
  Rh  Rh30  1  0.750000  0.772224  0.826103  1
  Rh  Rh31  1  0.750000  0.732617  0.323778  1
  Rh  Rh32  1  0.250000  0.883397  0.700373  1
  Rh  Rh33  1  0.250000  0.618034  0.201773  1
  Rh  Rh34  1  0.750000  0.117808  0.298710  1
  Rh  Rh35  1  0.750000  0.379278  0.801028  1
