# generated using pymatgen
data_ErTh2AlGa2Ni3
_symmetry_space_group_name_H-M   'P 1'
_cell_length_a   7.04537019
_cell_length_b   7.04537107
_cell_length_c   3.97734500
_cell_angle_alpha   90.00000000
_cell_angle_beta   90.00000000
_cell_angle_gamma   120.94051980
_symmetry_Int_Tables_number   1
_chemical_formula_structural   ErTh2AlGa2Ni3
_chemical_formula_sum   'Er1 Th2 Al1 Ga2 Ni3'
_cell_volume   169.33125578
_cell_formula_units_Z   1
loop_
 _symmetry_equiv_pos_site_id
 _symmetry_equiv_pos_as_xyz
  1  'x, y, z'
loop_
 _atom_site_type_symbol
 _atom_site_label
 _atom_site_symmetry_multiplicity
 _atom_site_fract_x
 _atom_site_fract_y
 _atom_site_fract_z
 _atom_site_occupancy
  Er  Er0  1  0.587199  0.587199  0.500000  1
  Th  Th1  1  0.421382  0.000528  0.500000  1
  Th  Th2  1  0.000528  0.421382  0.500000  1
  Al  Al3  1  0.237633  0.237633  0.000000  1
  Ga  Ga4  1  0.763865  0.992336  0.000000  1
  Ga  Ga5  1  0.992336  0.763865  0.000000  1
  Ni  Ni6  1  0.328660  0.662097  0.000000  1
  Ni  Ni7  1  0.662097  0.328660  0.000000  1
  Ni  Ni8  1  0.006299  0.006299  0.500000  1
