# generated using pymatgen
data_LiTm3Si2Ag2Sn
_symmetry_space_group_name_H-M   'P 1'
_cell_length_a   7.09562891
_cell_length_b   7.09562993
_cell_length_c   4.26771600
_cell_angle_alpha   90.00000000
_cell_angle_beta   90.00000000
_cell_angle_gamma   120.49390780
_symmetry_Int_Tables_number   1
_chemical_formula_structural   LiTm3Si2Ag2Sn
_chemical_formula_sum   'Li1 Tm3 Si2 Ag2 Sn1'
_cell_volume   185.15052530
_cell_formula_units_Z   1
loop_
 _symmetry_equiv_pos_site_id
 _symmetry_equiv_pos_as_xyz
  1  'x, y, z'
loop_
 _atom_site_type_symbol
 _atom_site_label
 _atom_site_symmetry_multiplicity
 _atom_site_fract_x
 _atom_site_fract_y
 _atom_site_fract_z
 _atom_site_occupancy
  Li  Li0  1  0.247817  0.247817  0.500000  1
  Tm  Tm1  1  0.999143  0.437764  0.000000  1
  Tm  Tm2  1  0.564134  0.564134  0.000000  1
  Tm  Tm3  1  0.437764  0.999143  0.000000  1
  Si  Si4  1  0.334607  0.662706  0.500000  1
  Si  Si5  1  0.662706  0.334607  0.500000  1
  Ag  Ag6  1  0.740726  0.002005  0.500000  1
  Ag  Ag7  1  0.002005  0.740726  0.500000  1
  Sn  Sn8  1  0.011097  0.011097  0.000000  1
