# generated using pymatgen
data_HoSc11Tc4
_symmetry_space_group_name_H-M   'P 1'
_cell_length_a   5.80890544
_cell_length_b   7.10738674
_cell_length_c   8.51562600
_cell_angle_alpha   90.00000000
_cell_angle_beta   90.00000000
_cell_angle_gamma   91.40782769
_symmetry_Int_Tables_number   1
_chemical_formula_structural   HoSc11Tc4
_chemical_formula_sum   'Ho1 Sc11 Tc4'
_cell_volume   351.47117956
_cell_formula_units_Z   1
loop_
 _symmetry_equiv_pos_site_id
 _symmetry_equiv_pos_as_xyz
  1  'x, y, z'
loop_
 _atom_site_type_symbol
 _atom_site_label
 _atom_site_symmetry_multiplicity
 _atom_site_fract_x
 _atom_site_fract_y
 _atom_site_fract_z
 _atom_site_occupancy
  Ho  Ho0  1  0.379364  0.969910  0.750000  1
  Sc  Sc1  1  0.347357  0.666554  0.062828  1
  Sc  Sc2  1  0.139143  0.188038  0.435585  1
  Sc  Sc3  1  0.656888  0.331016  0.559310  1
  Sc  Sc4  1  0.860463  0.813937  0.940256  1
  Sc  Sc5  1  0.656888  0.331016  0.940690  1
  Sc  Sc6  1  0.860463  0.813937  0.559744  1
  Sc  Sc7  1  0.347357  0.666554  0.437172  1
  Sc  Sc8  1  0.139143  0.188038  0.064415  1
  Sc  Sc9  1  0.879953  0.546935  0.250000  1
  Sc  Sc10  1  0.622613  0.035278  0.250000  1
  Sc  Sc11  1  0.118311  0.455375  0.750000  1
  Tc  Tc12  1  0.059031  0.890312  0.250000  1
  Tc  Tc13  1  0.461045  0.377512  0.250000  1
  Tc  Tc14  1  0.926216  0.111744  0.750000  1
  Tc  Tc15  1  0.545767  0.613842  0.750000  1
