# generated using pymatgen
data_Sc8Ta4Ti5Si16W3
_symmetry_space_group_name_H-M   'P 1'
_cell_length_a   6.64894267
_cell_length_b   6.81645777
_cell_length_c   12.98596481
_cell_angle_alpha   89.98029624
_cell_angle_beta   89.96476984
_cell_angle_gamma   90.04075049
_symmetry_Int_Tables_number   1
_chemical_formula_structural   Sc8Ta4Ti5Si16W3
_chemical_formula_sum   'Sc8 Ta4 Ti5 Si16 W3'
_cell_volume   588.55267805
_cell_formula_units_Z   1
loop_
 _symmetry_equiv_pos_site_id
 _symmetry_equiv_pos_as_xyz
  1  'x, y, z'
loop_
 _atom_site_type_symbol
 _atom_site_label
 _atom_site_symmetry_multiplicity
 _atom_site_fract_x
 _atom_site_fract_y
 _atom_site_fract_z
 _atom_site_occupancy
  Sc  Sc0  1  0.501800  0.673991  0.594950  1
  Sc  Sc1  1  0.002017  0.826807  0.905180  1
  Sc  Sc2  1  0.498276  0.326565  0.096038  1
  Sc  Sc3  1  0.999256  0.173057  0.404511  1
  Sc  Sc4  1  0.498841  0.326121  0.404335  1
  Sc  Sc5  1  0.001421  0.172569  0.095522  1
  Sc  Sc6  1  0.499492  0.672998  0.905674  1
  Sc  Sc7  1  0.000641  0.828101  0.595261  1
  Ta  Ta8  1  0.664957  0.172666  0.625374  1
  Ta  Ta9  1  0.164431  0.326135  0.874422  1
  Ta  Ta10  1  0.334997  0.827804  0.126686  1
  Ta  Ta11  1  0.838455  0.492077  0.749876  1
  Ti  Ti12  1  0.835365  0.671957  0.372769  1
  Ti  Ti13  1  0.332713  0.828318  0.373827  1
  Ti  Ti14  1  0.833989  0.674361  0.126724  1
  Ti  Ti15  1  0.665724  0.173552  0.874620  1
  Ti  Ti16  1  0.166937  0.326045  0.624681  1
  Si  Si17  1  0.666129  0.962649  0.457095  1
  Si  Si18  1  0.165563  0.533468  0.042051  1
  Si  Si19  1  0.334765  0.033793  0.959040  1
  Si  Si20  1  0.835173  0.468232  0.538515  1
  Si  Si21  1  0.331209  0.033686  0.539438  1
  Si  Si22  1  0.830532  0.467055  0.961694  1
  Si  Si23  1  0.669612  0.967276  0.040617  1
  Si  Si24  1  0.166845  0.534300  0.458079  1
  Si  Si25  1  0.461019  0.385760  0.750147  1
  Si  Si26  1  0.964241  0.112429  0.749529  1
  Si  Si27  1  0.537345  0.613372  0.251670  1
  Si  Si28  1  0.034904  0.884691  0.251401  1
  Si  Si29  1  0.702455  0.862991  0.751255  1
  Si  Si30  1  0.206551  0.640737  0.748823  1
  Si  Si31  1  0.295942  0.139257  0.250926  1
  Si  Si32  1  0.796763  0.361106  0.249885  1
  W  W33  1  0.339362  0.007728  0.749454  1
  W  W34  1  0.161141  0.507207  0.250202  1
  W  W35  1  0.661132  0.991141  0.249728  1
