# generated using pymatgen
data_TbNiP3Rh4
_symmetry_space_group_name_H-M   'P 1'
_cell_length_a   3.87393800
_cell_length_b   10.73397600
_cell_length_c   12.43809200
_cell_angle_alpha   90.00000000
_cell_angle_beta   90.00000000
_cell_angle_gamma   90.00000000
_symmetry_Int_Tables_number   1
_chemical_formula_structural   TbNiP3Rh4
_chemical_formula_sum   'Tb4 Ni4 P12 Rh16'
_cell_volume   517.21016362
_cell_formula_units_Z   4
loop_
 _symmetry_equiv_pos_site_id
 _symmetry_equiv_pos_as_xyz
  1  'x, y, z'
loop_
 _atom_site_type_symbol
 _atom_site_label
 _atom_site_symmetry_multiplicity
 _atom_site_fract_x
 _atom_site_fract_y
 _atom_site_fract_z
 _atom_site_occupancy
  Tb  Tb0  1  0.250000  0.586007  0.706906  1
  Tb  Tb1  1  0.250000  0.913993  0.206906  1
  Tb  Tb2  1  0.750000  0.413993  0.293094  1
  Tb  Tb3  1  0.750000  0.086007  0.793094  1
  Ni  Ni4  1  0.250000  0.463108  0.935291  1
  Ni  Ni5  1  0.250000  0.036892  0.435291  1
  Ni  Ni6  1  0.750000  0.536892  0.064709  1
  Ni  Ni7  1  0.750000  0.963108  0.564709  1
  P  P8  1  0.250000  0.419309  0.108511  1
  P  P9  1  0.250000  0.080691  0.608511  1
  P  P10  1  0.750000  0.580691  0.891489  1
  P  P11  1  0.750000  0.919309  0.391489  1
  P  P12  1  0.250000  0.271026  0.871616  1
  P  P13  1  0.250000  0.228974  0.371616  1
  P  P14  1  0.750000  0.728974  0.128384  1
  P  P15  1  0.750000  0.771026  0.628384  1
  P  P16  1  0.250000  0.598110  0.386980  1
  P  P17  1  0.250000  0.901890  0.886980  1
  P  P18  1  0.750000  0.401890  0.613020  1
  P  P19  1  0.750000  0.098110  0.113020  1
  Rh  Rh20  1  0.250000  0.711458  0.978611  1
  Rh  Rh21  1  0.250000  0.788542  0.478611  1
  Rh  Rh22  1  0.750000  0.288542  0.021389  1
  Rh  Rh23  1  0.750000  0.211458  0.521389  1
  Rh  Rh24  1  0.250000  0.407046  0.480532  1
  Rh  Rh25  1  0.250000  0.092954  0.980532  1
  Rh  Rh26  1  0.750000  0.592954  0.519468  1
  Rh  Rh27  1  0.750000  0.907046  0.019468  1
  Rh  Rh28  1  0.250000  0.224582  0.179875  1
  Rh  Rh29  1  0.250000  0.275418  0.679875  1
  Rh  Rh30  1  0.750000  0.775418  0.820125  1
  Rh  Rh31  1  0.750000  0.724582  0.320125  1
  Rh  Rh32  1  0.250000  0.887067  0.696341  1
  Rh  Rh33  1  0.250000  0.612933  0.196341  1
  Rh  Rh34  1  0.750000  0.112933  0.303659  1
  Rh  Rh35  1  0.750000  0.387067  0.803659  1
