# generated using pymatgen
data_HoNb(SnRu2)2
_symmetry_space_group_name_H-M   'P 1'
_cell_length_a   4.59754100
_cell_length_b   6.50732300
_cell_length_c   13.78486901
_cell_angle_alpha   90.00000000
_cell_angle_beta   90.00009839
_cell_angle_gamma   90.00000000
_symmetry_Int_Tables_number   1
_chemical_formula_structural   HoNb(SnRu2)2
_chemical_formula_sum   'Ho3 Nb3 Sn6 Ru12'
_cell_volume   412.41135947
_cell_formula_units_Z   3
loop_
 _symmetry_equiv_pos_site_id
 _symmetry_equiv_pos_as_xyz
  1  'x, y, z'
loop_
 _atom_site_type_symbol
 _atom_site_label
 _atom_site_symmetry_multiplicity
 _atom_site_fract_x
 _atom_site_fract_y
 _atom_site_fract_z
 _atom_site_occupancy
  Ho  Ho0  1  0.999992  0.000000  0.998039  1
  Ho  Ho1  1  0.499956  0.500001  0.166668  1
  Ho  Ho2  1  0.999966  0.000000  0.335290  1
  Nb  Nb3  1  0.500001  0.500001  0.499437  1
  Nb  Nb4  1  0.000035  0.000000  0.666656  1
  Nb  Nb5  1  0.500033  0.500001  0.833903  1
  Sn  Sn6  1  0.999999  0.500001  0.999868  1
  Sn  Sn7  1  0.499944  0.000000  0.166666  1
  Sn  Sn8  1  0.999978  0.500001  0.333469  1
  Sn  Sn9  1  0.499995  0.000000  0.502649  1
  Sn  Sn10  1  0.000033  0.500001  0.666661  1
  Sn  Sn11  1  0.500021  0.000000  0.830676  1
  Ru  Ru12  1  0.499991  0.259526  0.988686  1
  Ru  Ru13  1  0.499991  0.740475  0.988686  1
  Ru  Ru14  1  0.999972  0.248035  0.166671  1
  Ru  Ru15  1  0.999972  0.751965  0.166671  1
  Ru  Ru16  1  0.499962  0.259536  0.344660  1
  Ru  Ru17  1  0.499962  0.740463  0.344660  1
  Ru  Ru18  1  0.000003  0.256755  0.508869  1
  Ru  Ru19  1  0.000003  0.743245  0.508869  1
  Ru  Ru20  1  0.500051  0.247950  0.666666  1
  Ru  Ru21  1  0.500051  0.752049  0.666666  1
  Ru  Ru22  1  0.000045  0.256772  0.824457  1
  Ru  Ru23  1  0.000045  0.743228  0.824457  1
