# generated using pymatgen
data_Cs(AcB8)3
_symmetry_space_group_name_H-M   'P 1'
_cell_length_a   7.32405902
_cell_length_b   7.32405827
_cell_length_c   6.00937500
_cell_angle_alpha   90.00000000
_cell_angle_beta   90.00000000
_cell_angle_gamma   109.29023634
_symmetry_Int_Tables_number   1
_chemical_formula_structural   Cs(AcB8)3
_chemical_formula_sum   'Cs1 Ac3 B24'
_cell_volume   304.25607112
_cell_formula_units_Z   1
loop_
 _symmetry_equiv_pos_site_id
 _symmetry_equiv_pos_as_xyz
  1  'x, y, z'
loop_
 _atom_site_type_symbol
 _atom_site_label
 _atom_site_symmetry_multiplicity
 _atom_site_fract_x
 _atom_site_fract_y
 _atom_site_fract_z
 _atom_site_occupancy
  Cs  Cs0  1  0.000000  0.000000  0.000000  1
  Ac  Ac1  1  0.752340  0.247660  0.500000  1
  Ac  Ac2  1  0.500000  0.500000  0.000000  1
  Ac  Ac3  1  0.247660  0.752340  0.500000  1
  B  B4  1  0.177473  0.326169  0.648708  1
  B  B5  1  0.924574  0.573884  0.147859  1
  B  B6  1  0.673831  0.822527  0.648708  1
  B  B7  1  0.426116  0.075426  0.147859  1
  B  B8  1  0.177473  0.326169  0.351292  1
  B  B9  1  0.924574  0.573884  0.852141  1
  B  B10  1  0.673831  0.822527  0.351292  1
  B  B11  1  0.426116  0.075426  0.852141  1
  B  B12  1  0.399951  0.399951  0.500000  1
  B  B13  1  0.148117  0.649239  0.000000  1
  B  B14  1  0.897173  0.897173  0.500000  1
  B  B15  1  0.649239  0.148117  0.000000  1
  B  B16  1  0.326169  0.177473  0.648708  1
  B  B17  1  0.075426  0.426116  0.147859  1
  B  B18  1  0.822527  0.673831  0.648708  1
  B  B19  1  0.573884  0.924574  0.147859  1
  B  B20  1  0.102827  0.102827  0.500000  1
  B  B21  1  0.851883  0.350761  0.000000  1
  B  B22  1  0.600049  0.600049  0.500000  1
  B  B23  1  0.350761  0.851883  0.000000  1
  B  B24  1  0.326169  0.177473  0.351292  1
  B  B25  1  0.075426  0.426116  0.852141  1
  B  B26  1  0.822527  0.673831  0.351292  1
  B  B27  1  0.573884  0.924574  0.852141  1
