# generated using pymatgen
data_Y6Er4TlPb5
_symmetry_space_group_name_H-M   'P 1'
_cell_length_a   9.04248200
_cell_length_b   9.04248182
_cell_length_c   6.64775800
_cell_angle_alpha   90.00000000
_cell_angle_beta   90.00000000
_cell_angle_gamma   120.03785624
_symmetry_Int_Tables_number   1
_chemical_formula_structural   Y6Er4TlPb5
_chemical_formula_sum   'Y6 Er4 Tl1 Pb5'
_cell_volume   470.56035590
_cell_formula_units_Z   1
loop_
 _symmetry_equiv_pos_site_id
 _symmetry_equiv_pos_as_xyz
  1  'x, y, z'
loop_
 _atom_site_type_symbol
 _atom_site_label
 _atom_site_symmetry_multiplicity
 _atom_site_fract_x
 _atom_site_fract_y
 _atom_site_fract_z
 _atom_site_occupancy
  Y  Y0  1  0.760456  0.760456  0.750000  1
  Y  Y1  1  0.239233  0.004580  0.750000  1
  Y  Y2  1  0.004580  0.239233  0.750000  1
  Y  Y3  1  0.238064  0.238064  0.250000  1
  Y  Y4  1  0.762213  0.999711  0.250000  1
  Y  Y5  1  0.999711  0.762213  0.250000  1
  Er  Er6  1  0.663773  0.333727  0.998189  1
  Er  Er7  1  0.333727  0.663773  0.998189  1
  Er  Er8  1  0.333727  0.663773  0.501811  1
  Er  Er9  1  0.663773  0.333727  0.501811  1
  Tl  Tl10  1  0.396927  0.396927  0.750000  1
  Pb  Pb11  1  0.605479  0.000758  0.750000  1
  Pb  Pb12  1  0.000758  0.605479  0.750000  1
  Pb  Pb13  1  0.604197  0.604197  0.250000  1
  Pb  Pb14  1  0.395335  0.998045  0.250000  1
  Pb  Pb15  1  0.998045  0.395335  0.250000  1
