# generated using pymatgen
data_Rb6As(IrBr6)3
_symmetry_space_group_name_H-M   'P 1'
_cell_length_a   7.53596000
_cell_length_b   7.53595931
_cell_length_c   19.57915300
_cell_angle_alpha   90.00000000
_cell_angle_beta   90.00000000
_cell_angle_gamma   120.00000305
_symmetry_Int_Tables_number   1
_chemical_formula_structural   Rb6As(IrBr6)3
_chemical_formula_sum   'Rb6 As1 Ir3 Br18'
_cell_volume   962.94536637
_cell_formula_units_Z   1
loop_
 _symmetry_equiv_pos_site_id
 _symmetry_equiv_pos_as_xyz
  1  'x, y, z'
loop_
 _atom_site_type_symbol
 _atom_site_label
 _atom_site_symmetry_multiplicity
 _atom_site_fract_x
 _atom_site_fract_y
 _atom_site_fract_z
 _atom_site_occupancy
  Rb  Rb0  1  0.333333  0.666667  0.066364  1
  Rb  Rb1  1  0.666667  0.333333  0.941759  1
  Rb  Rb2  1  0.666667  0.333333  0.566589  1
  Rb  Rb3  1  0.333333  0.666667  0.443810  1
  Rb  Rb4  1  0.000000  0.000000  0.253946  1
  Rb  Rb5  1  0.000000  0.000000  0.736004  1
  As  As6  1  0.333333  0.666667  0.842579  1
  Ir  Ir7  1  0.333333  0.666667  0.665105  1
  Ir  Ir8  1  0.666667  0.333333  0.334421  1
  Ir  Ir9  1  0.666667  0.333333  0.165164  1
  Br  Br10  1  0.176380  0.352760  0.591950  1
  Br  Br11  1  0.823441  0.646881  0.406538  1
  Br  Br12  1  0.647240  0.823620  0.591950  1
  Br  Br13  1  0.823941  0.647882  0.092875  1
  Br  Br14  1  0.353119  0.176559  0.406538  1
  Br  Br15  1  0.169721  0.339443  0.912257  1
  Br  Br16  1  0.176380  0.823620  0.591950  1
  Br  Br17  1  0.352118  0.176059  0.092875  1
  Br  Br18  1  0.823441  0.176559  0.406538  1
  Br  Br19  1  0.660557  0.830279  0.912257  1
  Br  Br20  1  0.823941  0.176059  0.092875  1
  Br  Br21  1  0.169721  0.830279  0.912257  1
  Br  Br22  1  0.517572  0.035146  0.249502  1
  Br  Br23  1  0.490909  0.981819  0.741630  1
  Br  Br24  1  0.964854  0.482428  0.249502  1
  Br  Br25  1  0.018181  0.509091  0.741630  1
  Br  Br26  1  0.517572  0.482428  0.249502  1
  Br  Br27  1  0.490909  0.509091  0.741630  1
