# generated using pymatgen
data_BeTc2P
_symmetry_space_group_name_H-M   'P 1'
_cell_length_a   4.43554415
_cell_length_b   3.85148100
_cell_length_c   5.97493130
_cell_angle_alpha   90.00000000
_cell_angle_beta   109.04016596
_cell_angle_gamma   90.00000000
_symmetry_Int_Tables_number   1
_chemical_formula_structural   BeTc2P
_chemical_formula_sum   'Be2 Tc4 P2'
_cell_volume   96.48786490
_cell_formula_units_Z   2
loop_
 _symmetry_equiv_pos_site_id
 _symmetry_equiv_pos_as_xyz
  1  'x, y, z'
loop_
 _atom_site_type_symbol
 _atom_site_label
 _atom_site_symmetry_multiplicity
 _atom_site_fract_x
 _atom_site_fract_y
 _atom_site_fract_z
 _atom_site_occupancy
  Be  Be0  1  0.175841  0.750000  0.295925  1
  Be  Be1  1  0.824159  0.250001  0.704073  1
  Tc  Tc2  1  0.278995  0.250001  0.061901  1
  Tc  Tc3  1  0.726167  0.750000  0.424247  1
  Tc  Tc4  1  0.273834  0.250001  0.575753  1
  Tc  Tc5  1  0.721004  0.750000  0.938098  1
  P  P6  1  0.842973  0.250001  0.216221  1
  P  P7  1  0.157026  0.750000  0.783779  1
