# generated using pymatgen
data_TbY3Al18(PtRh)3
_symmetry_space_group_name_H-M   'P 1'
_cell_length_a   7.60310162
_cell_length_b   7.60378208
_cell_length_c   9.44761300
_cell_angle_alpha   90.00001651
_cell_angle_beta   89.99819305
_cell_angle_gamma   119.58108316
_symmetry_Int_Tables_number   1
_chemical_formula_structural   TbY3Al18(PtRh)3
_chemical_formula_sum   'Tb1 Y3 Al18 Pt3 Rh3'
_cell_volume   474.99717807
_cell_formula_units_Z   1
loop_
 _symmetry_equiv_pos_site_id
 _symmetry_equiv_pos_as_xyz
  1  'x, y, z'
loop_
 _atom_site_type_symbol
 _atom_site_label
 _atom_site_symmetry_multiplicity
 _atom_site_fract_x
 _atom_site_fract_y
 _atom_site_fract_z
 _atom_site_occupancy
  Tb  Tb0  1  0.995827  0.670234  0.250183  1
  Y  Y1  1  0.006090  0.331312  0.750021  1
  Y  Y2  1  0.668629  0.993831  0.249975  1
  Y  Y3  1  0.329627  0.004228  0.749776  1
  Al  Al4  1  0.125523  0.126383  0.250771  1
  Al  Al5  1  0.873607  0.874583  0.749218  1
  Al  Al6  1  0.999707  0.330944  0.076521  1
  Al  Al7  1  0.999242  0.669177  0.923023  1
  Al  Al8  1  0.996549  0.664829  0.575336  1
  Al  Al9  1  0.335280  0.003530  0.424747  1
  Al  Al10  1  0.996138  0.330995  0.424872  1
  Al  Al11  1  0.668831  0.003858  0.575148  1
  Al  Al12  1  0.668921  0.000306  0.923482  1
  Al  Al13  1  0.330958  0.000869  0.076892  1
  Al  Al14  1  0.332122  0.328882  0.551764  1
  Al  Al15  1  0.671066  0.667901  0.448401  1
  Al  Al16  1  0.670042  0.670119  0.054163  1
  Al  Al17  1  0.329919  0.329916  0.945717  1
  Al  Al18  1  0.340545  0.544956  0.250575  1
  Al  Al19  1  0.658896  0.451062  0.746569  1
  Al  Al20  1  0.548853  0.341138  0.253446  1
  Al  Al21  1  0.454989  0.659463  0.749413  1
  Pt  Pt22  1  0.671893  0.328129  0.999944  1
  Pt  Pt23  1  0.327433  0.672572  0.999948  1
  Pt  Pt24  1  0.327456  0.672517  0.500036  1
  Rh  Rh25  1  0.671925  0.328006  0.500070  1
  Rh  Rh26  1  0.999758  0.000337  0.999930  1
  Rh  Rh27  1  0.000176  0.999924  0.500058  1
