# generated using pymatgen
data_Yb4TmMg3Pt4
_symmetry_space_group_name_H-M   'P 1'
_cell_length_a   7.35117245
_cell_length_b   4.28235500
_cell_length_c   8.54338129
_cell_angle_alpha   90.00000000
_cell_angle_beta   89.35644014
_cell_angle_gamma   90.00000000
_symmetry_Int_Tables_number   1
_chemical_formula_structural   Yb4TmMg3Pt4
_chemical_formula_sum   'Yb4 Tm1 Mg3 Pt4'
_cell_volume   268.93149769
_cell_formula_units_Z   1
loop_
 _symmetry_equiv_pos_site_id
 _symmetry_equiv_pos_as_xyz
  1  'x, y, z'
loop_
 _atom_site_type_symbol
 _atom_site_label
 _atom_site_symmetry_multiplicity
 _atom_site_fract_x
 _atom_site_fract_y
 _atom_site_fract_z
 _atom_site_occupancy
  Yb  Yb0  1  0.478965  0.250000  0.180269  1
  Yb  Yb1  1  0.960089  0.250000  0.337418  1
  Yb  Yb2  1  0.028408  0.749999  0.668625  1
  Yb  Yb3  1  0.539602  0.749999  0.819820  1
  Tm  Tm4  1  0.136687  0.749999  0.064144  1
  Mg  Mg5  1  0.638574  0.749999  0.439360  1
  Mg  Mg6  1  0.363295  0.250000  0.560115  1
  Mg  Mg7  1  0.852496  0.250000  0.931380  1
  Pt  Pt8  1  0.766432  0.749999  0.126859  1
  Pt  Pt9  1  0.267776  0.749999  0.373586  1
  Pt  Pt10  1  0.732272  0.250000  0.625937  1
  Pt  Pt11  1  0.235404  0.250000  0.872485  1
