# generated using pymatgen
data_Li3(LaAu3)2
_symmetry_space_group_name_H-M   'P 1'
_cell_length_a   8.79452405
_cell_length_b   8.79452376
_cell_length_c   8.79452400
_cell_angle_alpha   57.37771348
_cell_angle_beta   57.37772243
_cell_angle_gamma   57.37770851
_symmetry_Int_Tables_number   1
_chemical_formula_structural   Li3(LaAu3)2
_chemical_formula_sum   'Li6 La4 Au12'
_cell_volume   451.94807987
_cell_formula_units_Z   2
loop_
 _symmetry_equiv_pos_site_id
 _symmetry_equiv_pos_as_xyz
  1  'x, y, z'
loop_
 _atom_site_type_symbol
 _atom_site_label
 _atom_site_symmetry_multiplicity
 _atom_site_fract_x
 _atom_site_fract_y
 _atom_site_fract_z
 _atom_site_occupancy
  Li  Li0  1  0.555615  0.750133  0.944240  1
  Li  Li1  1  0.944240  0.555615  0.750133  1
  Li  Li2  1  0.750133  0.944240  0.555615  1
  Li  Li3  1  0.444227  0.250241  0.055542  1
  Li  Li4  1  0.055542  0.444227  0.250241  1
  Li  Li5  1  0.250241  0.055542  0.444227  1
  La  La6  1  0.906955  0.906955  0.906955  1
  La  La7  1  0.406845  0.406845  0.406845  1
  La  La8  1  0.093269  0.093269  0.093269  1
  La  La9  1  0.593071  0.593071  0.593071  1
  Au  Au10  1  0.481182  0.865656  0.203357  1
  Au  Au11  1  0.203357  0.481182  0.865656  1
  Au  Au12  1  0.865656  0.203357  0.481182  1
  Au  Au13  1  0.703562  0.365419  0.981188  1
  Au  Au14  1  0.981188  0.703562  0.365419  1
  Au  Au15  1  0.365419  0.981188  0.703562  1
  Au  Au16  1  0.518601  0.134503  0.796505  1
  Au  Au17  1  0.796505  0.518601  0.134503  1
  Au  Au18  1  0.134503  0.796505  0.518601  1
  Au  Au19  1  0.297038  0.633874  0.018974  1
  Au  Au20  1  0.018974  0.297038  0.633874  1
  Au  Au21  1  0.633874  0.018974  0.297038  1
