# generated using pymatgen
data_AgBi3Ru3PtO14
_symmetry_space_group_name_H-M   'P 1'
_cell_length_a   7.42575699
_cell_length_b   7.42575794
_cell_length_c   7.22876764
_cell_angle_alpha   59.09437624
_cell_angle_beta   59.09438197
_cell_angle_gamma   60.00000623
_symmetry_Int_Tables_number   1
_chemical_formula_structural   AgBi3Ru3PtO14
_chemical_formula_sum   'Ag1 Bi3 Ru3 Pt1 O14'
_cell_volume   277.93826011
_cell_formula_units_Z   1
loop_
 _symmetry_equiv_pos_site_id
 _symmetry_equiv_pos_as_xyz
  1  'x, y, z'
loop_
 _atom_site_type_symbol
 _atom_site_label
 _atom_site_symmetry_multiplicity
 _atom_site_fract_x
 _atom_site_fract_y
 _atom_site_fract_z
 _atom_site_occupancy
  Ag  Ag0  1  0.125000  0.125000  0.625000  1
  Bi  Bi1  1  0.125000  0.625000  0.125000  1
  Bi  Bi2  1  0.625000  0.125000  0.125000  1
  Bi  Bi3  1  0.125000  0.125000  0.125000  1
  Ru  Ru4  1  0.625000  0.125000  0.625000  1
  Ru  Ru5  1  0.125000  0.625000  0.625000  1
  Ru  Ru6  1  0.625000  0.625000  0.625000  1
  Pt  Pt7  1  0.625000  0.625000  0.125000  1
  O  O8  1  0.246242  0.246242  0.261275  1
  O  O9  1  0.003758  0.003758  0.988725  1
  O  O10  1  0.561755  0.944277  0.549690  1
  O  O11  1  0.290875  0.710152  0.288821  1
  O  O12  1  0.539848  0.539848  0.961179  1
  O  O13  1  0.944277  0.561755  0.549690  1
  O  O14  1  0.539848  0.959125  0.961179  1
  O  O15  1  0.944277  0.944277  0.549690  1
  O  O16  1  0.959125  0.539848  0.961179  1
  O  O17  1  0.710152  0.290875  0.288821  1
  O  O18  1  0.305723  0.688245  0.700310  1
  O  O19  1  0.688245  0.305723  0.700310  1
  O  O20  1  0.305723  0.305723  0.700310  1
  O  O21  1  0.710152  0.710152  0.288821  1
