# generated using pymatgen
data_Hf3Fe2WN
_symmetry_space_group_name_H-M   'P 1'
_cell_length_a   8.35347377
_cell_length_b   8.35347265
_cell_length_c   8.35347300
_cell_angle_alpha   60.00000257
_cell_angle_beta   60.00000699
_cell_angle_gamma   60.00000253
_symmetry_Int_Tables_number   1
_chemical_formula_structural   Hf3Fe2WN
_chemical_formula_sum   'Hf12 Fe8 W4 N4'
_cell_volume   412.17940035
_cell_formula_units_Z   4
loop_
 _symmetry_equiv_pos_site_id
 _symmetry_equiv_pos_as_xyz
  1  'x, y, z'
loop_
 _atom_site_type_symbol
 _atom_site_label
 _atom_site_symmetry_multiplicity
 _atom_site_fract_x
 _atom_site_fract_y
 _atom_site_fract_z
 _atom_site_occupancy
  Hf  Hf0  1  0.809504  0.809504  0.190496  1
  Hf  Hf1  1  0.190496  0.190496  0.809504  1
  Hf  Hf2  1  0.809504  0.190496  0.809504  1
  Hf  Hf3  1  0.190496  0.809504  0.190496  1
  Hf  Hf4  1  0.190496  0.809504  0.809504  1
  Hf  Hf5  1  0.809504  0.190496  0.190496  1
  Hf  Hf6  1  0.440496  0.440496  0.059504  1
  Hf  Hf7  1  0.059504  0.059504  0.440496  1
  Hf  Hf8  1  0.440496  0.059504  0.440496  1
  Hf  Hf9  1  0.059504  0.440496  0.059504  1
  Hf  Hf10  1  0.059504  0.440496  0.440496  1
  Hf  Hf11  1  0.440496  0.059504  0.059504  1
  Fe  Fe12  1  0.738649  0.420450  0.420450  1
  Fe  Fe13  1  0.420450  0.738649  0.420450  1
  Fe  Fe14  1  0.420450  0.420450  0.738649  1
  Fe  Fe15  1  0.420450  0.420450  0.420450  1
  Fe  Fe16  1  0.511351  0.829550  0.829550  1
  Fe  Fe17  1  0.829550  0.511351  0.829550  1
  Fe  Fe18  1  0.829550  0.829550  0.511351  1
  Fe  Fe19  1  0.829550  0.829550  0.829550  1
  W  W20  1  0.125000  0.625000  0.625000  1
  W  W21  1  0.625000  0.125000  0.625000  1
  W  W22  1  0.625000  0.625000  0.125000  1
  W  W23  1  0.625000  0.625000  0.625000  1
  N  N24  1  0.625000  0.125000  0.125000  1
  N  N25  1  0.125000  0.625000  0.125000  1
  N  N26  1  0.125000  0.125000  0.625000  1
  N  N27  1  0.125000  0.125000  0.125000  1
