# generated using pymatgen
data_Zr8In4CoAu7
_symmetry_space_group_name_H-M   'P 1'
_cell_length_a   7.58372867
_cell_length_b   7.58372867
_cell_length_c   7.10196291
_cell_angle_alpha   90.24852133
_cell_angle_beta   90.24852133
_cell_angle_gamma   90.26302792
_symmetry_Int_Tables_number   1
_chemical_formula_structural   Zr8In4CoAu7
_chemical_formula_sum   'Zr8 In4 Co1 Au7'
_cell_volume   408.44274627
_cell_formula_units_Z   1
loop_
 _symmetry_equiv_pos_site_id
 _symmetry_equiv_pos_as_xyz
  1  'x, y, z'
loop_
 _atom_site_type_symbol
 _atom_site_label
 _atom_site_symmetry_multiplicity
 _atom_site_fract_x
 _atom_site_fract_y
 _atom_site_fract_z
 _atom_site_occupancy
  Zr  Zr0  1  0.158449  0.158449  0.013715  1
  Zr  Zr1  1  0.855564  0.855564  0.999031  1
  Zr  Zr2  1  0.633202  0.346789  0.487945  1
  Zr  Zr3  1  0.346789  0.633202  0.487945  1
  Zr  Zr4  1  0.681557  0.304158  0.007362  1
  Zr  Zr5  1  0.304158  0.681557  0.007362  1
  Zr  Zr6  1  0.805671  0.805671  0.498735  1
  Zr  Zr7  1  0.205519  0.205519  0.486048  1
  In  In8  1  0.498375  0.006720  0.245971  1
  In  In9  1  0.499247  0.997391  0.749137  1
  In  In10  1  0.006720  0.498375  0.245971  1
  In  In11  1  0.997391  0.499247  0.749137  1
  Co  Co12  1  0.371217  0.371217  0.216752  1
  Au  Au13  1  0.629850  0.629850  0.790151  1
  Au  Au14  1  0.626762  0.626762  0.204132  1
  Au  Au15  1  0.872100  0.134111  0.709545  1
  Au  Au16  1  0.872022  0.131127  0.296127  1
  Au  Au17  1  0.370172  0.370172  0.799262  1
  Au  Au18  1  0.131127  0.872022  0.296127  1
  Au  Au19  1  0.134111  0.872100  0.709545  1
