# generated using pymatgen
data_Nd2GePt8
_symmetry_space_group_name_H-M   'P 1'
_cell_length_a   9.29083451
_cell_length_b   9.29083414
_cell_length_c   4.33328800
_cell_angle_alpha   90.00000000
_cell_angle_beta   90.00000000
_cell_angle_gamma   145.55533364
_symmetry_Int_Tables_number   1
_chemical_formula_structural   Nd2GePt8
_chemical_formula_sum   'Nd2 Ge1 Pt8'
_cell_volume   211.56514416
_cell_formula_units_Z   1
loop_
 _symmetry_equiv_pos_site_id
 _symmetry_equiv_pos_as_xyz
  1  'x, y, z'
loop_
 _atom_site_type_symbol
 _atom_site_label
 _atom_site_symmetry_multiplicity
 _atom_site_fract_x
 _atom_site_fract_y
 _atom_site_fract_z
 _atom_site_occupancy
  Nd  Nd0  1  0.625704  0.377731  0.500000  1
  Nd  Nd1  1  0.377731  0.625704  0.500000  1
  Ge  Ge2  1  0.230385  0.230385  0.000000  1
  Pt  Pt3  1  0.102173  0.875021  0.000000  1
  Pt  Pt4  1  0.875021  0.102173  0.000000  1
  Pt  Pt5  1  0.487972  0.986125  0.000000  1
  Pt  Pt6  1  0.986125  0.487972  0.000000  1
  Pt  Pt7  1  0.195453  0.791101  0.500000  1
  Pt  Pt8  1  0.791101  0.195453  0.500000  1
  Pt  Pt9  1  0.987922  0.987922  0.500000  1
  Pt  Pt10  1  0.654012  0.654012  0.000000  1
