# generated using pymatgen
data_Ho2Lu2Ru7W
_symmetry_space_group_name_H-M   'P 1'
_cell_length_a   5.46503000
_cell_length_b   5.17210945
_cell_length_c   8.97223105
_cell_angle_alpha   89.99026345
_cell_angle_beta   90.00000000
_cell_angle_gamma   121.89183320
_symmetry_Int_Tables_number   1
_chemical_formula_structural   Ho2Lu2Ru7W
_chemical_formula_sum   'Ho2 Lu2 Ru7 W1'
_cell_volume   215.32399540
_cell_formula_units_Z   1
loop_
 _symmetry_equiv_pos_site_id
 _symmetry_equiv_pos_as_xyz
  1  'x, y, z'
loop_
 _atom_site_type_symbol
 _atom_site_label
 _atom_site_symmetry_multiplicity
 _atom_site_fract_x
 _atom_site_fract_y
 _atom_site_fract_z
 _atom_site_occupancy
  Ho  Ho0  1  0.335544  0.671090  0.431700  1
  Ho  Ho1  1  0.672844  0.345686  0.563020  1
  Lu  Lu2  1  0.673460  0.346918  0.937327  1
  Lu  Lu3  1  0.334937  0.669876  0.067635  1
  Ru  Ru4  1  0.169849  0.819103  0.752257  1
  Ru  Ru5  1  0.331108  0.162840  0.247954  1
  Ru  Ru6  1  0.820864  0.641726  0.247895  1
  Ru  Ru7  1  0.649254  0.819103  0.752257  1
  Ru  Ru8  1  0.009816  0.019632  0.001788  1
  Ru  Ru9  1  0.831734  0.162840  0.247954  1
  Ru  Ru10  1  0.009708  0.019417  0.498372  1
  W  W11  1  0.160883  0.321767  0.751841  1
