# generated using pymatgen
data_Cs4NaAlSe4
_symmetry_space_group_name_H-M   'P 1'
_cell_length_a   8.88700407
_cell_length_b   8.88700397
_cell_length_c   8.88700393
_cell_angle_alpha   132.40706378
_cell_angle_beta   129.35650915
_cell_angle_gamma   72.02889916
_symmetry_Int_Tables_number   1
_chemical_formula_structural   Cs4NaAlSe4
_chemical_formula_sum   'Cs4 Na1 Al1 Se4'
_cell_volume   391.90064119
_cell_formula_units_Z   1
loop_
 _symmetry_equiv_pos_site_id
 _symmetry_equiv_pos_as_xyz
  1  'x, y, z'
loop_
 _atom_site_type_symbol
 _atom_site_label
 _atom_site_symmetry_multiplicity
 _atom_site_fract_x
 _atom_site_fract_y
 _atom_site_fract_z
 _atom_site_occupancy
  Cs  Cs0  1  0.521415  0.862956  0.676628  1
  Cs  Cs1  1  0.478585  0.155214  0.341541  1
  Cs  Cs2  1  0.813672  0.637044  0.158459  1
  Cs  Cs3  1  0.186328  0.344786  0.823372  1
  Na  Na4  1  0.000000  0.250000  0.250000  1
  Al  Al5  1  0.000000  0.750000  0.750000  1
  Se  Se6  1  0.078442  0.855851  0.132283  1
  Se  Se7  1  0.723568  0.446159  0.367717  1
  Se  Se8  1  0.921558  0.053841  0.777409  1
  Se  Se9  1  0.276433  0.644149  0.722591  1
