# generated using pymatgen
data_MgZr10SnBi4
_symmetry_space_group_name_H-M   'P 1'
_cell_length_a   5.67394470
_cell_length_b   8.58155242
_cell_length_c   8.58155234
_cell_angle_alpha   96.27435933
_cell_angle_beta   109.30456402
_cell_angle_gamma   70.69542834
_symmetry_Int_Tables_number   1
_chemical_formula_structural   MgZr10SnBi4
_chemical_formula_sum   'Mg1 Zr10 Sn1 Bi4'
_cell_volume   372.18030086
_cell_formula_units_Z   1
loop_
 _symmetry_equiv_pos_site_id
 _symmetry_equiv_pos_as_xyz
  1  'x, y, z'
loop_
 _atom_site_type_symbol
 _atom_site_label
 _atom_site_symmetry_multiplicity
 _atom_site_fract_x
 _atom_site_fract_y
 _atom_site_fract_z
 _atom_site_occupancy
  Mg  Mg0  1  0.750000  0.000000  0.000000  1
  Zr  Zr1  1  0.427562  0.857306  0.703422  1
  Zr  Zr2  1  0.581447  0.142694  0.296578  1
  Zr  Zr3  1  0.918553  0.296578  0.142694  1
  Zr  Zr4  1  0.072438  0.703422  0.857306  1
  Zr  Zr5  1  0.724139  0.703422  0.142694  1
  Zr  Zr6  1  0.284868  0.296578  0.857306  1
  Zr  Zr7  1  0.775861  0.142694  0.703422  1
  Zr  Zr8  1  0.215132  0.857306  0.296578  1
  Zr  Zr9  1  0.250000  0.500000  0.500000  1
  Zr  Zr10  1  0.750000  0.500000  0.500000  1
  Sn  Sn11  1  0.250000  0.000000  0.000000  1
  Bi  Bi12  1  0.336127  0.500000  0.172255  1
  Bi  Bi13  1  0.663873  0.500000  0.827745  1
  Bi  Bi14  1  0.836127  0.827745  0.500000  1
  Bi  Bi15  1  0.163873  0.172255  0.500000  1
