# generated using pymatgen
data_NaPr4Se5
_symmetry_space_group_name_H-M   'P 1'
_cell_length_a   11.32388959
_cell_length_b   11.32388951
_cell_length_c   11.32389036
_cell_angle_alpha   158.31458689
_cell_angle_beta   148.96542538
_cell_angle_gamma   38.17904288
_symmetry_Int_Tables_number   1
_chemical_formula_structural   NaPr4Se5
_chemical_formula_sum   'Na1 Pr4 Se5'
_cell_volume   276.23173430
_cell_formula_units_Z   1
loop_
 _symmetry_equiv_pos_site_id
 _symmetry_equiv_pos_as_xyz
  1  'x, y, z'
loop_
 _atom_site_type_symbol
 _atom_site_label
 _atom_site_symmetry_multiplicity
 _atom_site_fract_x
 _atom_site_fract_y
 _atom_site_fract_z
 _atom_site_occupancy
  Na  Na0  1  0.000000  0.000000  0.000000  1
  Pr  Pr1  1  0.600264  0.600264  0.000000  1
  Pr  Pr2  1  0.203276  0.203276  0.000000  1
  Pr  Pr3  1  0.796724  0.796724  0.000000  1
  Pr  Pr4  1  0.399736  0.399736  0.000000  1
  Se  Se5  1  0.898394  0.398394  0.500000  1
  Se  Se6  1  0.698235  0.198235  0.500000  1
  Se  Se7  1  0.301765  0.801765  0.500000  1
  Se  Se8  1  0.500000  0.000000  0.500000  1
  Se  Se9  1  0.101606  0.601606  0.500000  1
