# generated using pymatgen
data_Tb5NbRuO12
_symmetry_space_group_name_H-M   'P 1'
_cell_length_a   6.85718324
_cell_length_b   6.85718224
_cell_length_c   7.53671269
_cell_angle_alpha   73.96233374
_cell_angle_beta   73.96233351
_cell_angle_gamma   50.58666566
_symmetry_Int_Tables_number   1
_chemical_formula_structural   Tb5NbRuO12
_chemical_formula_sum   'Tb5 Nb1 Ru1 O12'
_cell_volume   260.69668672
_cell_formula_units_Z   1
loop_
 _symmetry_equiv_pos_site_id
 _symmetry_equiv_pos_as_xyz
  1  'x, y, z'
loop_
 _atom_site_type_symbol
 _atom_site_label
 _atom_site_symmetry_multiplicity
 _atom_site_fract_x
 _atom_site_fract_y
 _atom_site_fract_z
 _atom_site_occupancy
  Tb  Tb0  1  0.694774  0.681841  0.674577  1
  Tb  Tb1  1  0.701026  0.690559  0.139178  1
  Tb  Tb2  1  0.000667  0.999333  0.000000  1
  Tb  Tb3  1  0.309441  0.298974  0.860822  1
  Tb  Tb4  1  0.318159  0.305226  0.325423  1
  Nb  Nb5  1  0.208365  0.791635  0.500000  1
  Ru  Ru6  1  0.753319  0.246681  0.500000  1
  O  O7  1  0.408966  0.898707  0.924292  1
  O  O8  1  0.580669  0.090749  0.583821  1
  O  O9  1  0.909251  0.419331  0.416179  1
  O  O10  1  0.101293  0.591034  0.075708  1
  O  O11  1  0.992672  0.007153  0.300175  1
  O  O12  1  0.495585  0.504249  0.683216  1
  O  O13  1  0.907288  0.403114  0.925026  1
  O  O14  1  0.101464  0.568424  0.583054  1
  O  O15  1  0.431576  0.898536  0.416946  1
  O  O16  1  0.596886  0.092712  0.074974  1
  O  O17  1  0.495751  0.504415  0.316784  1
  O  O18  1  0.992847  0.007328  0.699825  1
