# generated using pymatgen
data_YAl2Pt5
_symmetry_space_group_name_H-M   'P 1'
_cell_length_a   4.12978987
_cell_length_b   4.12978880
_cell_length_c   8.14341100
_cell_angle_alpha   104.68864447
_cell_angle_beta   104.68865492
_cell_angle_gamma   90.00000525
_symmetry_Int_Tables_number   1
_chemical_formula_structural   YAl2Pt5
_chemical_formula_sum   'Y1 Al2 Pt5'
_cell_volume   129.65013697
_cell_formula_units_Z   1
loop_
 _symmetry_equiv_pos_site_id
 _symmetry_equiv_pos_as_xyz
  1  'x, y, z'
loop_
 _atom_site_type_symbol
 _atom_site_label
 _atom_site_symmetry_multiplicity
 _atom_site_fract_x
 _atom_site_fract_y
 _atom_site_fract_z
 _atom_site_occupancy
  Y  Y0  1  0.000000  0.000000  0.000000  1
  Al  Al1  1  0.747375  0.747375  0.494750  1
  Al  Al2  1  0.252625  0.252625  0.505250  1
  Pt  Pt3  1  0.500000  0.500000  0.000000  1
  Pt  Pt4  1  0.644292  0.144293  0.288586  1
  Pt  Pt5  1  0.144293  0.644292  0.288586  1
  Pt  Pt6  1  0.855707  0.355707  0.711413  1
  Pt  Pt7  1  0.355707  0.855707  0.711413  1
