# generated using pymatgen
data_Tb15Er5(CoSb2)4
_symmetry_space_group_name_H-M   'P 1'
_cell_length_a   7.90051863
_cell_length_b   8.78496449
_cell_length_c   12.24667194
_cell_angle_alpha   89.97401141
_cell_angle_beta   90.03671885
_cell_angle_gamma   89.97218603
_symmetry_Int_Tables_number   1
_chemical_formula_structural   Tb15Er5(CoSb2)4
_chemical_formula_sum   'Tb15 Er5 Co4 Sb8'
_cell_volume   849.98940315
_cell_formula_units_Z   1
loop_
 _symmetry_equiv_pos_site_id
 _symmetry_equiv_pos_as_xyz
  1  'x, y, z'
loop_
 _atom_site_type_symbol
 _atom_site_label
 _atom_site_symmetry_multiplicity
 _atom_site_fract_x
 _atom_site_fract_y
 _atom_site_fract_z
 _atom_site_occupancy
  Tb  Tb0  1  0.155462  0.749911  0.203688  1
  Tb  Tb1  1  0.655265  0.250361  0.296499  1
  Tb  Tb2  1  0.844466  0.249839  0.796022  1
  Tb  Tb3  1  0.344880  0.749795  0.703460  1
  Tb  Tb4  1  0.453689  0.750180  0.997769  1
  Tb  Tb5  1  0.952135  0.250355  0.502258  1
  Tb  Tb6  1  0.546230  0.250291  0.002081  1
  Tb  Tb7  1  0.045236  0.749402  0.497834  1
  Tb  Tb8  1  0.624272  0.749681  0.307790  1
  Tb  Tb9  1  0.123703  0.249449  0.192737  1
  Tb  Tb10  1  0.377043  0.250954  0.692243  1
  Tb  Tb11  1  0.876339  0.749862  0.807090  1
  Tb  Tb12  1  0.821164  0.964076  0.065396  1
  Tb  Tb13  1  0.321086  0.035258  0.434896  1
  Tb  Tb14  1  0.178834  0.463950  0.934373  1
  Er  Er15  1  0.676376  0.536462  0.565830  1
  Er  Er16  1  0.176629  0.036119  0.934310  1
  Er  Er17  1  0.676616  0.963697  0.565845  1
  Er  Er18  1  0.823451  0.535980  0.065589  1
  Er  Er19  1  0.323873  0.464246  0.434693  1
  Co  Co20  1  0.436188  0.749479  0.491536  1
  Co  Co21  1  0.933990  0.249676  0.008972  1
  Co  Co22  1  0.566742  0.250922  0.509052  1
  Co  Co23  1  0.066017  0.749651  0.990824  1
  Sb  Sb24  1  0.929387  0.991973  0.326938  1
  Sb  Sb25  1  0.429646  0.007916  0.173357  1
  Sb  Sb26  1  0.069309  0.492229  0.672768  1
  Sb  Sb27  1  0.571067  0.508181  0.826525  1
  Sb  Sb28  1  0.069986  0.007870  0.673144  1
  Sb  Sb29  1  0.569633  0.992273  0.826605  1
  Sb  Sb30  1  0.930943  0.507633  0.326479  1
  Sb  Sb31  1  0.430344  0.492328  0.173395  1
