# generated using pymatgen
data_DyTm7Os3WC8
_symmetry_space_group_name_H-M   'P 1'
_cell_length_a   5.04398200
_cell_length_b   6.49156365
_cell_length_c   9.71622491
_cell_angle_alpha   89.52452509
_cell_angle_beta   90.00000000
_cell_angle_gamma   90.00000000
_symmetry_Int_Tables_number   1
_chemical_formula_structural   DyTm7Os3WC8
_chemical_formula_sum   'Dy1 Tm7 Os3 W1 C8'
_cell_volume   318.13060604
_cell_formula_units_Z   1
loop_
 _symmetry_equiv_pos_site_id
 _symmetry_equiv_pos_as_xyz
  1  'x, y, z'
loop_
 _atom_site_type_symbol
 _atom_site_label
 _atom_site_symmetry_multiplicity
 _atom_site_fract_x
 _atom_site_fract_y
 _atom_site_fract_z
 _atom_site_occupancy
  Dy  Dy0  1  0.750000  0.968744  0.715422  1
  Tm  Tm1  1  0.250000  0.676220  0.555264  1
  Tm  Tm2  1  0.750000  0.323991  0.443214  1
  Tm  Tm3  1  0.750000  0.826169  0.056661  1
  Tm  Tm4  1  0.250000  0.179002  0.943294  1
  Tm  Tm5  1  0.250000  0.533399  0.214960  1
  Tm  Tm6  1  0.750000  0.465305  0.780018  1
  Tm  Tm7  1  0.250000  0.031233  0.284932  1
  Os  Os8  1  0.750000  0.281681  0.133820  1
  Os  Os9  1  0.750000  0.779340  0.365284  1
  Os  Os10  1  0.250000  0.222308  0.630529  1
  W  W11  1  0.250000  0.718661  0.870068  1
  C  C12  1  0.250000  0.450775  0.760086  1
  C  C13  1  0.750000  0.545537  0.241605  1
  C  C14  1  0.750000  0.046706  0.259422  1
  C  C15  1  0.250000  0.955581  0.740464  1
  C  C16  1  0.250000  0.827384  0.060286  1
  C  C17  1  0.750000  0.173530  0.947900  1
  C  C18  1  0.750000  0.667692  0.552520  1
  C  C19  1  0.250000  0.326741  0.444251  1
