# generated using pymatgen
data_SrCa2Pd9
_symmetry_space_group_name_H-M   'P 1'
_cell_length_a   9.45512264
_cell_length_b   9.45512240
_cell_length_c   9.45512282
_cell_angle_alpha   33.62059019
_cell_angle_beta   33.62059076
_cell_angle_gamma   33.62059663
_symmetry_Int_Tables_number   1
_chemical_formula_structural   SrCa2Pd9
_chemical_formula_sum   'Sr1 Ca2 Pd9'
_cell_volume   230.84708211
_cell_formula_units_Z   1
loop_
 _symmetry_equiv_pos_site_id
 _symmetry_equiv_pos_as_xyz
  1  'x, y, z'
loop_
 _atom_site_type_symbol
 _atom_site_label
 _atom_site_symmetry_multiplicity
 _atom_site_fract_x
 _atom_site_fract_y
 _atom_site_fract_z
 _atom_site_occupancy
  Sr  Sr0  1  0.000000  0.000000  0.000000  1
  Ca  Ca1  1  0.140219  0.140219  0.140219  1
  Ca  Ca2  1  0.859781  0.859781  0.859781  1
  Pd  Pd3  1  0.586309  0.586309  0.082703  1
  Pd  Pd4  1  0.332425  0.332425  0.332425  1
  Pd  Pd5  1  0.917297  0.413690  0.413691  1
  Pd  Pd6  1  0.413690  0.917297  0.413691  1
  Pd  Pd7  1  0.500000  0.500000  0.500000  1
  Pd  Pd8  1  0.586310  0.082702  0.586309  1
  Pd  Pd9  1  0.082702  0.586310  0.586309  1
  Pd  Pd10  1  0.667574  0.667574  0.667574  1
  Pd  Pd11  1  0.413691  0.413691  0.917297  1
