# generated using pymatgen
data_Er8Hf8ScSi16Mo3
_symmetry_space_group_name_H-M   'P 1'
_cell_length_a   7.14417629
_cell_length_b   7.14417649
_cell_length_c   13.02689200
_cell_angle_alpha   89.94496725
_cell_angle_beta   90.05502473
_cell_angle_gamma   89.84788263
_symmetry_Int_Tables_number   1
_chemical_formula_structural   Er8Hf8ScSi16Mo3
_chemical_formula_sum   'Er8 Hf8 Sc1 Si16 Mo3'
_cell_volume   664.87992182
_cell_formula_units_Z   1
loop_
 _symmetry_equiv_pos_site_id
 _symmetry_equiv_pos_as_xyz
  1  'x, y, z'
loop_
 _atom_site_type_symbol
 _atom_site_label
 _atom_site_symmetry_multiplicity
 _atom_site_fract_x
 _atom_site_fract_y
 _atom_site_fract_z
 _atom_site_occupancy
  Er  Er0  1  0.846948  0.499252  0.285856  1
  Er  Er1  1  0.152641  0.502725  0.781988  1
  Er  Er2  1  0.996436  0.654737  0.035271  1
  Er  Er3  1  0.001258  0.345048  0.534445  1
  Er  Er4  1  0.502725  0.152641  0.218012  1
  Er  Er5  1  0.499252  0.846948  0.714144  1
  Er  Er6  1  0.654737  0.996436  0.964729  1
  Er  Er7  1  0.345048  0.001258  0.465555  1
  Hf  Hf8  1  0.647753  0.495750  0.871205  1
  Hf  Hf9  1  0.354907  0.506051  0.376508  1
  Hf  Hf10  1  0.993282  0.856306  0.624671  1
  Hf  Hf11  1  0.003579  0.142736  0.127149  1
  Hf  Hf12  1  0.506051  0.354907  0.623492  1
  Hf  Hf13  1  0.495750  0.647753  0.128795  1
  Hf  Hf14  1  0.856306  0.993282  0.375329  1
  Hf  Hf15  1  0.142736  0.003579  0.872851  1
  Sc  Sc16  1  0.324178  0.324178  0.000000  1
  Si  Si17  1  0.707112  0.360628  0.068558  1
  Si  Si18  1  0.295801  0.641869  0.568475  1
  Si  Si19  1  0.859047  0.796050  0.817405  1
  Si  Si20  1  0.141050  0.204355  0.318205  1
  Si  Si21  1  0.641869  0.295801  0.431525  1
  Si  Si22  1  0.360628  0.707112  0.931442  1
  Si  Si23  1  0.796050  0.859047  0.182595  1
  Si  Si24  1  0.204355  0.141050  0.681795  1
  Si  Si25  1  0.796104  0.552304  0.681968  1
  Si  Si26  1  0.202887  0.451474  0.186718  1
  Si  Si27  1  0.051593  0.703279  0.434781  1
  Si  Si28  1  0.943750  0.294069  0.932010  1
  Si  Si29  1  0.451474  0.202887  0.813282  1
  Si  Si30  1  0.552304  0.796104  0.318032  1
  Si  Si31  1  0.703279  0.051593  0.565219  1
  Si  Si32  1  0.294069  0.943750  0.067990  1
  Mo  Mo33  1  0.822306  0.175889  0.748267  1
  Mo  Mo34  1  0.175889  0.822306  0.251733  1
  Mo  Mo35  1  0.676844  0.676844  0.500000  1
