# generated using pymatgen
data_Y3Zr(Si5Os3)2
_symmetry_space_group_name_H-M   'P 1'
_cell_length_a   8.08618988
_cell_length_b   8.08322415
_cell_length_c   5.80328816
_cell_angle_alpha   70.84374829
_cell_angle_beta   70.55102199
_cell_angle_gamma   93.94763709
_symmetry_Int_Tables_number   1
_chemical_formula_structural   Y3Zr(Si5Os3)2
_chemical_formula_sum   'Y3 Zr1 Si10 Os6'
_cell_volume   331.04420061
_cell_formula_units_Z   1
loop_
 _symmetry_equiv_pos_site_id
 _symmetry_equiv_pos_as_xyz
  1  'x, y, z'
loop_
 _atom_site_type_symbol
 _atom_site_label
 _atom_site_symmetry_multiplicity
 _atom_site_fract_x
 _atom_site_fract_y
 _atom_site_fract_z
 _atom_site_occupancy
  Y  Y0  1  0.871034  0.601598  0.750437  1
  Y  Y1  1  0.398703  0.132616  0.745425  1
  Y  Y2  1  0.133170  0.397204  0.245635  1
  Zr  Zr3  1  0.595738  0.868781  0.254251  1
  Si  Si4  1  0.067478  0.262636  0.834947  1
  Si  Si5  1  0.738423  0.932930  0.665132  1
  Si  Si6  1  0.924185  0.740366  0.167299  1
  Si  Si7  1  0.263365  0.064441  0.334339  1
  Si  Si8  1  0.206826  0.794772  0.747803  1
  Si  Si9  1  0.791998  0.203097  0.252673  1
  Si  Si10  1  0.516126  0.487099  0.750715  1
  Si  Si11  1  0.486232  0.516227  0.249138  1
  Si  Si12  1  0.773546  0.224150  0.750669  1
  Si  Si13  1  0.230965  0.774932  0.251765  1
  Os  Os14  1  0.259519  0.543951  0.632578  1
  Os  Os15  1  0.457140  0.746457  0.865782  1
  Os  Os16  1  0.743366  0.456441  0.367601  1
  Os  Os17  1  0.545648  0.255092  0.130097  1
  Os  Os18  1  0.000479  0.996144  0.753162  1
  Os  Os19  1  0.996061  0.001065  0.250552  1
