# generated using pymatgen
data_Tm12InFe3Pb
_symmetry_space_group_name_H-M   'P 1'
_cell_length_a   8.26201781
_cell_length_b   8.26201724
_cell_length_c   8.26201741
_cell_angle_alpha   108.58672713
_cell_angle_beta   108.68209292
_cell_angle_gamma   111.15814254
_symmetry_Int_Tables_number   1
_chemical_formula_structural   Tm12InFe3Pb
_chemical_formula_sum   'Tm12 In1 Fe3 Pb1'
_cell_volume   433.86313713
_cell_formula_units_Z   1
loop_
 _symmetry_equiv_pos_site_id
 _symmetry_equiv_pos_as_xyz
  1  'x, y, z'
loop_
 _atom_site_type_symbol
 _atom_site_label
 _atom_site_symmetry_multiplicity
 _atom_site_fract_x
 _atom_site_fract_y
 _atom_site_fract_z
 _atom_site_occupancy
  Tm  Tm0  1  0.190385  0.426229  0.235845  1
  Tm  Tm1  1  0.809615  0.573771  0.764155  1
  Tm  Tm2  1  0.190385  0.954541  0.764155  1
  Tm  Tm3  1  0.958808  0.193129  0.765678  1
  Tm  Tm4  1  0.809615  0.045459  0.235845  1
  Tm  Tm5  1  0.041192  0.806871  0.234322  1
  Tm  Tm6  1  0.427451  0.193129  0.234322  1
  Tm  Tm7  1  0.572549  0.806871  0.765678  1
  Tm  Tm8  1  0.306058  0.309347  0.615405  1
  Tm  Tm9  1  0.693942  0.690653  0.384595  1
  Tm  Tm10  1  0.693942  0.309347  0.003289  1
  Tm  Tm11  1  0.306058  0.690653  0.996711  1
  In  In12  1  0.000000  0.500000  0.500000  1
  Fe  Fe13  1  0.385408  0.385408  0.000000  1
  Fe  Fe14  1  0.614592  0.614592  0.000000  1
  Fe  Fe15  1  0.000000  0.000000  0.000000  1
  Pb  Pb16  1  0.500000  0.000000  0.500000  1
