# generated using pymatgen
data_Lu5In2Bi
_symmetry_space_group_name_H-M   'P 1'
_cell_length_a   8.86414601
_cell_length_b   8.86414632
_cell_length_c   6.47309900
_cell_angle_alpha   90.00019057
_cell_angle_beta   90.00019659
_cell_angle_gamma   120.07739894
_symmetry_Int_Tables_number   1
_chemical_formula_structural   Lu5In2Bi
_chemical_formula_sum   'Lu10 In4 Bi2'
_cell_volume   440.12643456
_cell_formula_units_Z   2
loop_
 _symmetry_equiv_pos_site_id
 _symmetry_equiv_pos_as_xyz
  1  'x, y, z'
loop_
 _atom_site_type_symbol
 _atom_site_label
 _atom_site_symmetry_multiplicity
 _atom_site_fract_x
 _atom_site_fract_y
 _atom_site_fract_z
 _atom_site_occupancy
  Lu  Lu0  1  0.662471  0.333315  0.993019  1
  Lu  Lu1  1  0.333314  0.662470  0.993019  1
  Lu  Lu2  1  0.760526  0.760526  0.250004  1
  Lu  Lu3  1  0.236723  0.008072  0.250011  1
  Lu  Lu4  1  0.008072  0.236723  0.250011  1
  Lu  Lu5  1  0.662480  0.333315  0.506984  1
  Lu  Lu6  1  0.333315  0.662480  0.506984  1
  Lu  Lu7  1  0.235655  0.235656  0.749998  1
  Lu  Lu8  1  0.765334  0.000020  0.749987  1
  Lu  Lu9  1  0.000021  0.765334  0.749987  1
  In  In10  1  0.401435  0.401435  0.250003  1
  In  In11  1  0.394124  0.998021  0.750001  1
  In  In12  1  0.998021  0.394124  0.750001  1
  In  In13  1  0.603242  0.603242  0.749997  1
  Bi  Bi14  1  0.604560  0.000705  0.249997  1
  Bi  Bi15  1  0.000705  0.604558  0.249997  1
