# generated using pymatgen
data_Ho3Mn(Co4P3)2
_symmetry_space_group_name_H-M   'P 1'
_cell_length_a   3.69003500
_cell_length_b   10.54503000
_cell_length_c   12.20204200
_cell_angle_alpha   90.00000000
_cell_angle_beta   90.00000000
_cell_angle_gamma   90.00000000
_symmetry_Int_Tables_number   1
_chemical_formula_structural   Ho3Mn(Co4P3)2
_chemical_formula_sum   'Ho6 Mn2 Co16 P12'
_cell_volume   474.80012061
_cell_formula_units_Z   2
loop_
 _symmetry_equiv_pos_site_id
 _symmetry_equiv_pos_as_xyz
  1  'x, y, z'
loop_
 _atom_site_type_symbol
 _atom_site_label
 _atom_site_symmetry_multiplicity
 _atom_site_fract_x
 _atom_site_fract_y
 _atom_site_fract_z
 _atom_site_occupancy
  Ho  Ho0  1  0.000000  0.500000  0.522843  1
  Ho  Ho1  1  0.500000  0.000000  0.477157  1
  Ho  Ho2  1  0.500000  0.818055  0.205241  1
  Ho  Ho3  1  0.500000  0.181945  0.205241  1
  Ho  Ho4  1  0.000000  0.681945  0.794759  1
  Ho  Ho5  1  0.000000  0.318055  0.794759  1
  Mn  Mn6  1  0.500000  0.500000  0.158676  1
  Mn  Mn7  1  0.000000  0.000000  0.841324  1
  Co  Co8  1  0.500000  0.500000  0.702653  1
  Co  Co9  1  0.000000  0.000000  0.297347  1
  Co  Co10  1  0.000000  0.500000  0.985979  1
  Co  Co11  1  0.500000  0.000000  0.014021  1
  Co  Co12  1  0.500000  0.333139  0.993673  1
  Co  Co13  1  0.500000  0.666861  0.993673  1
  Co  Co14  1  0.000000  0.166861  0.006327  1
  Co  Co15  1  0.000000  0.833139  0.006327  1
  Co  Co16  1  0.500000  0.296642  0.430487  1
  Co  Co17  1  0.500000  0.703358  0.430487  1
  Co  Co18  1  0.000000  0.203358  0.569513  1
  Co  Co19  1  0.000000  0.796642  0.569513  1
  Co  Co20  1  0.500000  0.879362  0.709261  1
  Co  Co21  1  0.500000  0.120638  0.709261  1
  Co  Co22  1  0.000000  0.620638  0.290739  1
  Co  Co23  1  0.000000  0.379362  0.290739  1
  P  P24  1  0.500000  0.500000  0.882377  1
  P  P25  1  0.000000  0.000000  0.117623  1
  P  P26  1  0.500000  0.500000  0.345344  1
  P  P27  1  0.000000  0.000000  0.654656  1
  P  P28  1  0.500000  0.311549  0.616278  1
  P  P29  1  0.500000  0.688451  0.616278  1
  P  P30  1  0.000000  0.188451  0.383722  1
  P  P31  1  0.000000  0.811549  0.383722  1
  P  P32  1  0.500000  0.847390  0.892773  1
  P  P33  1  0.500000  0.152610  0.892773  1
  P  P34  1  0.000000  0.652610  0.107227  1
  P  P35  1  0.000000  0.347390  0.107227  1
