# generated using pymatgen
data_Th3AlGa2IrPt2
_symmetry_space_group_name_H-M   'P 1'
_cell_length_a   7.35936713
_cell_length_b   7.35338145
_cell_length_c   4.11506300
_cell_angle_alpha   90.00000000
_cell_angle_beta   90.00000000
_cell_angle_gamma   120.50269311
_symmetry_Int_Tables_number   1
_chemical_formula_structural   Th3AlGa2IrPt2
_chemical_formula_sum   'Th3 Al1 Ga2 Ir1 Pt2'
_cell_volume   191.87235947
_cell_formula_units_Z   1
loop_
 _symmetry_equiv_pos_site_id
 _symmetry_equiv_pos_as_xyz
  1  'x, y, z'
loop_
 _atom_site_type_symbol
 _atom_site_label
 _atom_site_symmetry_multiplicity
 _atom_site_fract_x
 _atom_site_fract_y
 _atom_site_fract_z
 _atom_site_occupancy
  Th  Th0  1  0.411860  0.417004  0.500000  1
  Th  Th1  1  0.578786  0.996691  0.500000  1
  Th  Th2  1  0.006303  0.583508  0.500000  1
  Al  Al3  1  0.762331  0.765724  0.000000  1
  Ga  Ga4  1  0.238152  0.995829  0.000000  1
  Ga  Ga5  1  0.000761  0.240250  0.000000  1
  Ir  Ir6  1  0.343115  0.669473  0.000000  1
  Pt  Pt7  1  0.669593  0.342905  0.000000  1
  Pt  Pt8  1  0.989099  0.988616  0.500000  1
