# generated using pymatgen
data_Tb12Sm8Sn11Bi5
_symmetry_space_group_name_H-M   'P 1'
_cell_length_a   8.24827989
_cell_length_b   8.28372910
_cell_length_c   15.65322599
_cell_angle_alpha   90.10191757
_cell_angle_beta   90.13980173
_cell_angle_gamma   89.94858865
_symmetry_Int_Tables_number   1
_chemical_formula_structural   Tb12Sm8Sn11Bi5
_chemical_formula_sum   'Tb12 Sm8 Sn11 Bi5'
_cell_volume   1069.52509594
_cell_formula_units_Z   1
loop_
 _symmetry_equiv_pos_site_id
 _symmetry_equiv_pos_as_xyz
  1  'x, y, z'
loop_
 _atom_site_type_symbol
 _atom_site_label
 _atom_site_symmetry_multiplicity
 _atom_site_fract_x
 _atom_site_fract_y
 _atom_site_fract_z
 _atom_site_occupancy
  Tb  Tb0  1  0.370137  0.840146  0.875120  1
  Tb  Tb1  1  0.873630  0.659741  0.624523  1
  Tb  Tb2  1  0.626136  0.159829  0.375240  1
  Tb  Tb3  1  0.124237  0.339479  0.124693  1
  Tb  Tb4  1  0.632735  0.164376  0.124828  1
  Tb  Tb5  1  0.134466  0.337145  0.377522  1
  Tb  Tb6  1  0.363574  0.838235  0.623355  1
  Tb  Tb7  1  0.867876  0.657084  0.875927  1
  Tb  Tb8  1  0.200609  0.501034  0.745373  1
  Tb  Tb9  1  0.699562  0.999407  0.748996  1
  Tb  Tb10  1  0.800029  0.499235  0.247470  1
  Tb  Tb11  1  0.300330  0.000916  0.253723  1
  Sm  Sm12  1  0.538438  0.329977  0.895169  1
  Sm  Sm13  1  0.038197  0.174845  0.603505  1
  Sm  Sm14  1  0.462381  0.675707  0.396679  1
  Sm  Sm15  1  0.966022  0.821236  0.106090  1
  Sm  Sm16  1  0.473382  0.671986  0.104177  1
  Sm  Sm17  1  0.977766  0.823954  0.397789  1
  Sm  Sm18  1  0.521965  0.324508  0.601749  1
  Sm  Sm19  1  0.029954  0.179974  0.895570  1
  Sn  Sn20  1  0.212094  0.534981  0.542690  1
  Sn  Sn21  1  0.287984  0.034270  0.457413  1
  Sn  Sn22  1  0.786033  0.466299  0.042830  1
  Sn  Sn23  1  0.565642  0.625434  0.749069  1
  Sn  Sn24  1  0.064122  0.876821  0.752199  1
  Sn  Sn25  1  0.433200  0.376652  0.249292  1
  Sn  Sn26  1  0.934312  0.123287  0.251524  1
  Sn  Sn27  1  0.336946  0.146385  0.751405  1
  Sn  Sn28  1  0.835426  0.352913  0.748231  1
  Sn  Sn29  1  0.664808  0.854227  0.250967  1
  Sn  Sn30  1  0.165541  0.644494  0.249986  1
  Bi  Bi31  1  0.283750  0.032410  0.043678  1
  Bi  Bi32  1  0.785579  0.466176  0.456931  1
  Bi  Bi33  1  0.713443  0.966003  0.542379  1
  Bi  Bi34  1  0.214343  0.533787  0.956896  1
  Bi  Bi35  1  0.715350  0.967048  0.957012  1
