# generated using pymatgen
data_Ti8BeFeBi4
_symmetry_space_group_name_H-M   'P 1'
_cell_length_a   7.83915770
_cell_length_b   7.83915768
_cell_length_c   7.83915716
_cell_angle_alpha   95.59041574
_cell_angle_beta   95.59041858
_cell_angle_gamma   143.62640713
_symmetry_Int_Tables_number   1
_chemical_formula_structural   Ti8BeFeBi4
_chemical_formula_sum   'Ti8 Be1 Fe1 Bi4'
_cell_volume   271.41985100
_cell_formula_units_Z   1
loop_
 _symmetry_equiv_pos_site_id
 _symmetry_equiv_pos_as_xyz
  1  'x, y, z'
loop_
 _atom_site_type_symbol
 _atom_site_label
 _atom_site_symmetry_multiplicity
 _atom_site_fract_x
 _atom_site_fract_y
 _atom_site_fract_z
 _atom_site_occupancy
  Ti  Ti0  1  0.580009  0.691982  0.272055  1
  Ti  Ti1  1  0.919991  0.192046  0.111974  1
  Ti  Ti2  1  0.307954  0.580009  0.888026  1
  Ti  Ti3  1  0.808018  0.919991  0.727945  1
  Ti  Ti4  1  0.691982  0.419927  0.111974  1
  Ti  Ti5  1  0.080073  0.808018  0.888026  1
  Ti  Ti6  1  0.419927  0.307954  0.727945  1
  Ti  Ti7  1  0.192046  0.080073  0.272055  1
  Be  Be8  1  0.750000  0.750000  0.000000  1
  Fe  Fe9  1  0.250000  0.250000  0.000000  1
  Bi  Bi10  1  0.361179  0.861179  0.222359  1
  Bi  Bi11  1  0.138821  0.361179  0.500000  1
  Bi  Bi12  1  0.638821  0.138821  0.777641  1
  Bi  Bi13  1  0.861179  0.638821  0.500000  1
