# generated using pymatgen
data_Ce5Ta3(P3Ir4)4
_symmetry_space_group_name_H-M   'P 1'
_cell_length_a   12.79517800
_cell_length_b   12.79517733
_cell_length_c   4.02529300
_cell_angle_alpha   90.00000000
_cell_angle_beta   90.00000000
_cell_angle_gamma   119.99999656
_symmetry_Int_Tables_number   1
_chemical_formula_structural   Ce5Ta3(P3Ir4)4
_chemical_formula_sum   'Ce5 Ta3 P12 Ir16'
_cell_volume   570.71696966
_cell_formula_units_Z   1
loop_
 _symmetry_equiv_pos_site_id
 _symmetry_equiv_pos_as_xyz
  1  'x, y, z'
loop_
 _atom_site_type_symbol
 _atom_site_label
 _atom_site_symmetry_multiplicity
 _atom_site_fract_x
 _atom_site_fract_y
 _atom_site_fract_z
 _atom_site_occupancy
  Ce  Ce0  1  0.333333  0.666667  0.500000  1
  Ce  Ce1  1  0.666667  0.333333  0.500000  1
  Ce  Ce2  1  0.000000  0.815259  0.000000  1
  Ce  Ce3  1  0.184741  0.184741  0.000000  1
  Ce  Ce4  1  0.815259  0.000000  0.000000  1
  Ta  Ta5  1  0.000000  0.452791  0.500000  1
  Ta  Ta6  1  0.547209  0.547209  0.500000  1
  Ta  Ta7  1  0.452791  0.000000  0.500000  1
  P  P8  1  0.000000  0.639750  0.500000  1
  P  P9  1  0.360250  0.360250  0.500000  1
  P  P10  1  0.639750  0.000000  0.500000  1
  P  P11  1  0.517879  0.684576  0.000000  1
  P  P12  1  0.315424  0.833302  0.000000  1
  P  P13  1  0.166698  0.482121  0.000000  1
  P  P14  1  0.482121  0.166698  0.000000  1
  P  P15  1  0.684576  0.517879  0.000000  1
  P  P16  1  0.833302  0.315424  0.000000  1
  P  P17  1  0.000000  0.177781  0.500000  1
  P  P18  1  0.822219  0.822219  0.500000  1
  P  P19  1  0.177781  0.000000  0.500000  1
  Ir  Ir20  1  0.509590  0.867160  0.000000  1
  Ir  Ir21  1  0.132840  0.642432  0.000000  1
  Ir  Ir22  1  0.357568  0.490410  0.000000  1
  Ir  Ir23  1  0.490410  0.357568  0.000000  1
  Ir  Ir24  1  0.867160  0.509590  0.000000  1
  Ir  Ir25  1  0.642432  0.132840  0.000000  1
  Ir  Ir26  1  0.000000  0.285332  0.000000  1
  Ir  Ir27  1  0.714668  0.714668  0.000000  1
  Ir  Ir28  1  0.285332  0.000000  0.000000  1
  Ir  Ir29  1  0.626252  0.803831  0.500000  1
  Ir  Ir30  1  0.196169  0.822421  0.500000  1
  Ir  Ir31  1  0.177579  0.373748  0.500000  1
  Ir  Ir32  1  0.373748  0.177579  0.500000  1
  Ir  Ir33  1  0.803831  0.626252  0.500000  1
  Ir  Ir34  1  0.822421  0.196169  0.500000  1
  Ir  Ir35  1  0.000000  0.000000  0.500000  1
