# generated using pymatgen
data_CrFeH2
_symmetry_space_group_name_H-M   'P 1'
_cell_length_a   2.64893800
_cell_length_b   2.64890717
_cell_length_c   8.55107500
_cell_angle_alpha   90.00000000
_cell_angle_beta   90.00000000
_cell_angle_gamma   120.00038502
_symmetry_Int_Tables_number   1
_chemical_formula_structural   CrFeH2
_chemical_formula_sum   'Cr2 Fe2 H4'
_cell_volume   51.96227948
_cell_formula_units_Z   2
loop_
 _symmetry_equiv_pos_site_id
 _symmetry_equiv_pos_as_xyz
  1  'x, y, z'
loop_
 _atom_site_type_symbol
 _atom_site_label
 _atom_site_symmetry_multiplicity
 _atom_site_fract_x
 _atom_site_fract_y
 _atom_site_fract_z
 _atom_site_occupancy
  Cr  Cr0  1  0.666521  0.333042  0.250000  1
  Cr  Cr1  1  0.333479  0.666958  0.750000  1
  Fe  Fe2  1  0.000000  0.000000  0.000000  1
  Fe  Fe3  1  0.000000  0.000000  0.500000  1
  H  H4  1  0.666689  0.333378  0.882285  1
  H  H5  1  0.333311  0.666622  0.117715  1
  H  H6  1  0.333311  0.666622  0.382285  1
  H  H7  1  0.666689  0.333378  0.617715  1
