# generated using pymatgen
data_Ho2Ir2O7
_symmetry_space_group_name_H-M   'P 1'
_cell_length_a   7.22639500
_cell_length_b   7.22639457
_cell_length_c   7.22639500
_cell_angle_alpha   119.99999741
_cell_angle_beta   90.00000000
_cell_angle_gamma   119.99999741
_symmetry_Int_Tables_number   1
_chemical_formula_structural   Ho2Ir2O7
_chemical_formula_sum   'Ho4 Ir4 O14'
_cell_volume   266.83948893
_cell_formula_units_Z   2
loop_
 _symmetry_equiv_pos_site_id
 _symmetry_equiv_pos_as_xyz
  1  'x, y, z'
loop_
 _atom_site_type_symbol
 _atom_site_label
 _atom_site_symmetry_multiplicity
 _atom_site_fract_x
 _atom_site_fract_y
 _atom_site_fract_z
 _atom_site_occupancy
  Ho  Ho0  1  0.000000  0.500000  0.000000  1
  Ho  Ho1  1  0.000000  0.000000  0.500000  1
  Ho  Ho2  1  0.500000  0.000000  0.500000  1
  Ho  Ho3  1  0.000000  0.500000  0.500000  1
  Ir  Ir4  1  0.000000  0.000000  0.000000  1
  Ir  Ir5  1  0.500000  0.000000  0.000000  1
  Ir  Ir6  1  0.500000  0.500000  0.000000  1
  Ir  Ir7  1  0.500000  0.500000  0.500000  1
  O  O8  1  0.838175  0.176348  0.088175  1
  O  O9  1  0.411826  0.750001  0.088175  1
  O  O10  1  0.838175  0.750001  0.088175  1
  O  O11  1  0.161826  0.250000  0.338175  1
  O  O12  1  0.588175  0.250000  0.338175  1
  O  O13  1  0.588175  0.676349  0.338175  1
  O  O14  1  0.125000  0.750001  0.375000  1
  O  O15  1  0.875000  0.250000  0.625000  1
  O  O16  1  0.411826  0.323652  0.661826  1
  O  O17  1  0.411826  0.750001  0.661826  1
  O  O18  1  0.838175  0.750001  0.661826  1
  O  O19  1  0.161825  0.250000  0.911825  1
  O  O20  1  0.161825  0.823651  0.911825  1
  O  O21  1  0.588174  0.250000  0.911825  1
