# generated using pymatgen
data_Ba2Ca3Si6Ni
_symmetry_space_group_name_H-M   'P 1'
_cell_length_a   9.24831800
_cell_length_b   9.24831685
_cell_length_c   3.98296700
_cell_angle_alpha   90.00000000
_cell_angle_beta   90.00000000
_cell_angle_gamma   120.00000412
_symmetry_Int_Tables_number   1
_chemical_formula_structural   Ba2Ca3Si6Ni
_chemical_formula_sum   'Ba2 Ca3 Si6 Ni1'
_cell_volume   295.02768841
_cell_formula_units_Z   1
loop_
 _symmetry_equiv_pos_site_id
 _symmetry_equiv_pos_as_xyz
  1  'x, y, z'
loop_
 _atom_site_type_symbol
 _atom_site_label
 _atom_site_symmetry_multiplicity
 _atom_site_fract_x
 _atom_site_fract_y
 _atom_site_fract_z
 _atom_site_occupancy
  Ba  Ba0  1  0.333333  0.666667  0.000000  1
  Ba  Ba1  1  0.666667  0.333333  0.000000  1
  Ca  Ca2  1  0.000000  0.752887  0.500000  1
  Ca  Ca3  1  0.247113  0.247113  0.500000  1
  Ca  Ca4  1  0.752887  0.000000  0.500000  1
  Si  Si5  1  0.000000  0.253495  0.000000  1
  Si  Si6  1  0.746505  0.746505  0.000000  1
  Si  Si7  1  0.253495  0.000000  0.000000  1
  Si  Si8  1  0.000000  0.403310  0.500000  1
  Si  Si9  1  0.596690  0.596690  0.500000  1
  Si  Si10  1  0.403310  0.000000  0.500000  1
  Ni  Ni11  1  0.000000  0.000000  0.000000  1
