# generated using pymatgen
data_Pt4Rh4W
_symmetry_space_group_name_H-M   'P 1'
_cell_length_a   6.20179930
_cell_length_b   6.20180028
_cell_length_c   6.20180055
_cell_angle_alpha   95.68357494
_cell_angle_beta   95.68357224
_cell_angle_gamma   143.31490948
_symmetry_Int_Tables_number   1
_chemical_formula_structural   Pt4Rh4W
_chemical_formula_sum   'Pt4 Rh4 W1'
_cell_volume   135.26472841
_cell_formula_units_Z   1
loop_
 _symmetry_equiv_pos_site_id
 _symmetry_equiv_pos_as_xyz
  1  'x, y, z'
loop_
 _atom_site_type_symbol
 _atom_site_label
 _atom_site_symmetry_multiplicity
 _atom_site_fract_x
 _atom_site_fract_y
 _atom_site_fract_z
 _atom_site_occupancy
  Pt  Pt0  1  0.000000  0.326427  0.326427  1
  Pt  Pt1  1  0.000000  0.673573  0.673573  1
  Pt  Pt2  1  0.673573  0.000000  0.673573  1
  Pt  Pt3  1  0.326427  0.000000  0.326427  1
  Rh  Rh4  1  0.339975  0.339975  0.679950  1
  Rh  Rh5  1  0.660025  0.660025  0.320050  1
  Rh  Rh6  1  0.660025  0.339975  0.000000  1
  Rh  Rh7  1  0.339975  0.660025  0.000000  1
  W  W8  1  0.000000  0.000000  0.000000  1
