# generated using pymatgen
data_Ce2Tc3Ni9P7
_symmetry_space_group_name_H-M   'P 1'
_cell_length_a   9.22323344
_cell_length_b   9.16005031
_cell_length_c   3.75450900
_cell_angle_alpha   90.00000000
_cell_angle_beta   90.00000000
_cell_angle_gamma   119.60371627
_symmetry_Int_Tables_number   1
_chemical_formula_structural   Ce2Tc3Ni9P7
_chemical_formula_sum   'Ce2 Tc3 Ni9 P7'
_cell_volume   275.79428328
_cell_formula_units_Z   1
loop_
 _symmetry_equiv_pos_site_id
 _symmetry_equiv_pos_as_xyz
  1  'x, y, z'
loop_
 _atom_site_type_symbol
 _atom_site_label
 _atom_site_symmetry_multiplicity
 _atom_site_fract_x
 _atom_site_fract_y
 _atom_site_fract_z
 _atom_site_occupancy
  Ce  Ce0  1  0.672149  0.334219  0.500000  1
  Ce  Ce1  1  0.333749  0.672506  0.000000  1
  Tc  Tc2  1  0.381816  0.429636  0.500000  1
  Tc  Tc3  1  0.883534  0.785078  0.500000  1
  Tc  Tc4  1  0.905938  0.116828  0.500000  1
  Ni  Ni5  1  0.153492  0.272562  0.000000  1
  Ni  Ni6  1  0.125109  0.849365  0.000000  1
  Ni  Ni7  1  0.720598  0.878558  0.000000  1
  Ni  Ni8  1  0.051882  0.614637  0.500000  1
  Ni  Ni9  1  0.939836  0.371532  0.000000  1
  Ni  Ni10  1  0.198022  0.082644  0.500000  1
  Ni  Ni11  1  0.565607  0.950968  0.500000  1
  Ni  Ni12  1  0.633014  0.572709  0.000000  1
  Ni  Ni13  1  0.434077  0.060578  0.000000  1
  P  P14  1  0.598532  0.712735  0.500000  1
  P  P15  1  0.109625  0.402937  0.500000  1
  P  P16  1  0.892276  0.596590  0.000000  1
  P  P17  1  0.290966  0.893283  0.500000  1
  P  P18  1  0.996158  0.998059  0.000000  1
  P  P19  1  0.702861  0.110257  0.000000  1
  P  P20  1  0.410759  0.294321  0.000000  1
