# generated using pymatgen
data_YTm7(Si4Mo3)4
_symmetry_space_group_name_H-M   'P 1'
_cell_length_a   6.72758322
_cell_length_b   6.92235016
_cell_length_c   12.87498000
_cell_angle_alpha   90.03304213
_cell_angle_beta   89.99851714
_cell_angle_gamma   90.02065846
_symmetry_Int_Tables_number   1
_chemical_formula_structural   YTm7(Si4Mo3)4
_chemical_formula_sum   'Y1 Tm7 Si16 Mo12'
_cell_volume   599.59652133
_cell_formula_units_Z   1
loop_
 _symmetry_equiv_pos_site_id
 _symmetry_equiv_pos_as_xyz
  1  'x, y, z'
loop_
 _atom_site_type_symbol
 _atom_site_label
 _atom_site_symmetry_multiplicity
 _atom_site_fract_x
 _atom_site_fract_y
 _atom_site_fract_z
 _atom_site_occupancy
  Y  Y0  1  0.997435  0.167332  0.093290  1
  Tm  Tm1  1  0.496815  0.332367  0.093776  1
  Tm  Tm2  1  0.996900  0.167865  0.406195  1
  Tm  Tm3  1  0.503107  0.667853  0.593842  1
  Tm  Tm4  1  0.003116  0.831860  0.905931  1
  Tm  Tm5  1  0.503130  0.667827  0.906118  1
  Tm  Tm6  1  0.003068  0.832114  0.593842  1
  Tm  Tm7  1  0.496947  0.332156  0.406284  1
  Si  Si8  1  0.660129  0.040590  0.547055  1
  Si  Si9  1  0.160563  0.460094  0.952651  1
  Si  Si10  1  0.341235  0.958563  0.046824  1
  Si  Si11  1  0.839790  0.540573  0.453067  1
  Si  Si12  1  0.339869  0.959418  0.453038  1
  Si  Si13  1  0.839270  0.541914  0.046825  1
  Si  Si14  1  0.659479  0.040350  0.952671  1
  Si  Si15  1  0.160162  0.459388  0.547023  1
  Si  Si16  1  0.534208  0.368039  0.749950  1
  Si  Si17  1  0.034257  0.131937  0.749999  1
  Si  Si18  1  0.465677  0.631962  0.250015  1
  Si  Si19  1  0.965548  0.867232  0.250375  1
  Si  Si20  1  0.801924  0.631554  0.749946  1
  Si  Si21  1  0.301997  0.868433  0.749997  1
  Si  Si22  1  0.198768  0.369402  0.250633  1
  Si  Si23  1  0.697138  0.131346  0.250482  1
  Mo  Mo24  1  0.829975  0.334771  0.624771  1
  Mo  Mo25  1  0.330152  0.165395  0.874972  1
  Mo  Mo26  1  0.170140  0.665179  0.124841  1
  Mo  Mo27  1  0.670059  0.834579  0.375336  1
  Mo  Mo28  1  0.170030  0.665408  0.375270  1
  Mo  Mo29  1  0.669202  0.834082  0.125068  1
  Mo  Mo30  1  0.829633  0.335047  0.874694  1
  Mo  Mo31  1  0.329942  0.165275  0.624832  1
  Mo  Mo32  1  0.666322  0.997392  0.749921  1
  Mo  Mo33  1  0.166272  0.502657  0.749947  1
  Mo  Mo34  1  0.334253  0.002054  0.250266  1
  Mo  Mo35  1  0.833490  0.497996  0.250253  1
