# generated using pymatgen
data_Tm3Mn(Al4Os)3
_symmetry_space_group_name_H-M   'P 1'
_cell_length_a   8.75756300
_cell_length_b   8.75756409
_cell_length_c   9.47617400
_cell_angle_alpha   90.00000000
_cell_angle_beta   90.00000000
_cell_angle_gamma   119.99999967
_symmetry_Int_Tables_number   1
_chemical_formula_structural   Tm3Mn(Al4Os)3
_chemical_formula_sum   'Tm6 Mn2 Al24 Os6'
_cell_volume   629.40509483
_cell_formula_units_Z   2
loop_
 _symmetry_equiv_pos_site_id
 _symmetry_equiv_pos_as_xyz
  1  'x, y, z'
loop_
 _atom_site_type_symbol
 _atom_site_label
 _atom_site_symmetry_multiplicity
 _atom_site_fract_x
 _atom_site_fract_y
 _atom_site_fract_z
 _atom_site_occupancy
  Tm  Tm0  1  0.193925  0.387849  0.250000  1
  Tm  Tm1  1  0.806075  0.612151  0.750000  1
  Tm  Tm2  1  0.612151  0.806075  0.250000  1
  Tm  Tm3  1  0.387849  0.193925  0.750000  1
  Tm  Tm4  1  0.193925  0.806075  0.250000  1
  Tm  Tm5  1  0.806075  0.193925  0.750000  1
  Mn  Mn6  1  0.000000  0.000000  0.000000  1
  Mn  Mn7  1  0.000000  0.000000  0.500000  1
  Al  Al8  1  0.333333  0.666667  0.015380  1
  Al  Al9  1  0.666667  0.333333  0.984620  1
  Al  Al10  1  0.666667  0.333333  0.515380  1
  Al  Al11  1  0.333333  0.666667  0.484620  1
  Al  Al12  1  0.159537  0.319074  0.575745  1
  Al  Al13  1  0.840463  0.680926  0.424255  1
  Al  Al14  1  0.680926  0.840463  0.575745  1
  Al  Al15  1  0.840463  0.680926  0.075745  1
  Al  Al16  1  0.319074  0.159537  0.424255  1
  Al  Al17  1  0.159537  0.319074  0.924255  1
  Al  Al18  1  0.159537  0.840463  0.575745  1
  Al  Al19  1  0.319074  0.159537  0.075745  1
  Al  Al20  1  0.840463  0.159537  0.424255  1
  Al  Al21  1  0.680926  0.840463  0.924255  1
  Al  Al22  1  0.840463  0.159537  0.075745  1
  Al  Al23  1  0.159537  0.840463  0.924255  1
  Al  Al24  1  0.561203  0.122405  0.250000  1
  Al  Al25  1  0.438797  0.877595  0.750000  1
  Al  Al26  1  0.877595  0.438797  0.250000  1
  Al  Al27  1  0.122405  0.561203  0.750000  1
  Al  Al28  1  0.561203  0.438797  0.250000  1
  Al  Al29  1  0.438797  0.561203  0.750000  1
  Al  Al30  1  0.000000  0.000000  0.250000  1
  Al  Al31  1  0.000000  0.000000  0.750000  1
  Os  Os32  1  0.500000  0.000000  0.000000  1
  Os  Os33  1  0.000000  0.500000  0.000000  1
  Os  Os34  1  0.500000  0.000000  0.500000  1
  Os  Os35  1  0.500000  0.500000  0.000000  1
  Os  Os36  1  0.000000  0.500000  0.500000  1
  Os  Os37  1  0.500000  0.500000  0.500000  1
