# generated using pymatgen
data_TbNd2Lu7Pb6
_symmetry_space_group_name_H-M   'P 1'
_cell_length_a   9.04953498
_cell_length_b   9.02735618
_cell_length_c   6.55982600
_cell_angle_alpha   90.00000000
_cell_angle_beta   90.00000000
_cell_angle_gamma   120.31196079
_symmetry_Int_Tables_number   1
_chemical_formula_structural   TbNd2Lu7Pb6
_chemical_formula_sum   'Tb1 Nd2 Lu7 Pb6'
_cell_volume   462.63232716
_cell_formula_units_Z   1
loop_
 _symmetry_equiv_pos_site_id
 _symmetry_equiv_pos_as_xyz
  1  'x, y, z'
loop_
 _atom_site_type_symbol
 _atom_site_label
 _atom_site_symmetry_multiplicity
 _atom_site_fract_x
 _atom_site_fract_y
 _atom_site_fract_z
 _atom_site_occupancy
  Tb  Tb0  1  0.002186  0.762028  0.250000  1
  Nd  Nd1  1  0.766045  0.767351  0.750000  1
  Nd  Nd2  1  0.232255  0.232118  0.250000  1
  Lu  Lu3  1  0.667145  0.335476  0.999687  1
  Lu  Lu4  1  0.333568  0.665706  0.999906  1
  Lu  Lu5  1  0.333568  0.665706  0.500094  1
  Lu  Lu6  1  0.667145  0.335476  0.500313  1
  Lu  Lu7  1  0.238353  0.998747  0.750000  1
  Lu  Lu8  1  0.998165  0.235832  0.750000  1
  Lu  Lu9  1  0.761704  0.001844  0.250000  1
  Pb  Pb10  1  0.388921  0.388720  0.750000  1
  Pb  Pb11  1  0.601592  0.004162  0.750000  1
  Pb  Pb12  1  0.004256  0.602519  0.750000  1
  Pb  Pb13  1  0.607372  0.609414  0.250000  1
  Pb  Pb14  1  0.401492  0.998718  0.250000  1
  Pb  Pb15  1  0.996234  0.396184  0.250000  1
