# generated using pymatgen
data_TmLu2Sn3RuPt2
_symmetry_space_group_name_H-M   'P 1'
_cell_length_a   7.71779173
_cell_length_b   7.71779284
_cell_length_c   3.65238400
_cell_angle_alpha   90.00000000
_cell_angle_beta   90.00000000
_cell_angle_gamma   120.07668348
_symmetry_Int_Tables_number   1
_chemical_formula_structural   TmLu2Sn3RuPt2
_chemical_formula_sum   'Tm1 Lu2 Sn3 Ru1 Pt2'
_cell_volume   188.25959972
_cell_formula_units_Z   1
loop_
 _symmetry_equiv_pos_site_id
 _symmetry_equiv_pos_as_xyz
  1  'x, y, z'
loop_
 _atom_site_type_symbol
 _atom_site_label
 _atom_site_symmetry_multiplicity
 _atom_site_fract_x
 _atom_site_fract_y
 _atom_site_fract_z
 _atom_site_occupancy
  Tm  Tm0  1  0.397772  0.397772  0.500000  1
  Lu  Lu1  1  0.602433  0.999942  0.500000  1
  Lu  Lu2  1  0.999942  0.602433  0.500000  1
  Sn  Sn3  1  0.734193  0.734193  0.000000  1
  Sn  Sn4  1  0.265877  0.999523  0.000000  1
  Sn  Sn5  1  0.999523  0.265877  0.000000  1
  Ru  Ru6  1  0.999369  0.999369  0.500000  1
  Pt  Pt7  1  0.667767  0.333124  0.000000  1
  Pt  Pt8  1  0.333124  0.667767  0.000000  1
