# generated using pymatgen
data_PrNd4Sn15Rh8
_symmetry_space_group_name_H-M   'P 1'
_cell_length_a   4.53833300
_cell_length_b   7.30817852
_cell_length_c   18.76632602
_cell_angle_alpha   89.90033073
_cell_angle_beta   90.00000000
_cell_angle_gamma   90.00000000
_symmetry_Int_Tables_number   1
_chemical_formula_structural   PrNd4Sn15Rh8
_chemical_formula_sum   'Pr1 Nd4 Sn15 Rh8'
_cell_volume   622.42081308
_cell_formula_units_Z   1
loop_
 _symmetry_equiv_pos_site_id
 _symmetry_equiv_pos_as_xyz
  1  'x, y, z'
loop_
 _atom_site_type_symbol
 _atom_site_label
 _atom_site_symmetry_multiplicity
 _atom_site_fract_x
 _atom_site_fract_y
 _atom_site_fract_z
 _atom_site_occupancy
  Pr  Pr0  1  0.000000  0.000943  0.143584  1
  Nd  Nd1  1  0.500000  0.002056  0.855890  1
  Nd  Nd2  1  0.500000  0.500441  0.357361  1
  Nd  Nd3  1  0.000000  0.500138  0.641739  1
  Nd  Nd4  1  0.500000  0.495652  0.930521  1
  Sn  Sn5  1  0.000000  0.718314  0.806793  1
  Sn  Sn6  1  0.000000  0.778857  0.305280  1
  Sn  Sn7  1  0.500000  0.277978  0.194288  1
  Sn  Sn8  1  0.500000  0.218871  0.693914  1
  Sn  Sn9  1  0.000000  0.854165  0.969299  1
  Sn  Sn10  1  0.000000  0.632365  0.468338  1
  Sn  Sn11  1  0.500000  0.134150  0.031845  1
  Sn  Sn12  1  0.500000  0.366663  0.530514  1
  Sn  Sn13  1  0.000000  0.303992  0.819587  1
  Sn  Sn14  1  0.000000  0.198929  0.317685  1
  Sn  Sn15  1  0.500000  0.696616  0.184857  1
  Sn  Sn16  1  0.500000  0.806339  0.679254  1
  Sn  Sn17  1  0.500000  0.018571  0.432809  1
  Sn  Sn18  1  0.000000  0.511328  0.067442  1
  Sn  Sn19  1  0.000000  0.981972  0.568394  1
  Rh  Rh20  1  0.000000  0.230321  0.965690  1
  Rh  Rh21  1  0.000000  0.247572  0.464326  1
  Rh  Rh22  1  0.500000  0.764386  0.044268  1
  Rh  Rh23  1  0.500000  0.750980  0.533512  1
  Rh  Rh24  1  0.000000  0.018532  0.716039  1
  Rh  Rh25  1  0.000000  0.482539  0.213341  1
  Rh  Rh26  1  0.500000  0.985810  0.288785  1
  Rh  Rh27  1  0.500000  0.521516  0.774646  1
