# generated using pymatgen
data_Er3Tm(IrO6)2
_symmetry_space_group_name_H-M   'P 1'
_cell_length_a   5.24138801
_cell_length_b   9.09978024
_cell_length_c   9.80516426
_cell_angle_alpha   90.02559122
_cell_angle_beta   90.00577772
_cell_angle_gamma   90.00603869
_symmetry_Int_Tables_number   1
_chemical_formula_structural   Er3Tm(IrO6)2
_chemical_formula_sum   'Er6 Tm2 Ir4 O24'
_cell_volume   467.66195504
_cell_formula_units_Z   2
loop_
 _symmetry_equiv_pos_site_id
 _symmetry_equiv_pos_as_xyz
  1  'x, y, z'
loop_
 _atom_site_type_symbol
 _atom_site_label
 _atom_site_symmetry_multiplicity
 _atom_site_fract_x
 _atom_site_fract_y
 _atom_site_fract_z
 _atom_site_occupancy
  Er  Er0  1  0.457307  0.718488  0.128871  1
  Er  Er1  1  0.482434  0.600750  0.533164  1
  Er  Er2  1  0.517513  0.101487  0.966815  1
  Er  Er3  1  0.543122  0.218979  0.371301  1
  Er  Er4  1  0.957397  0.781070  0.871089  1
  Er  Er5  1  0.982551  0.899193  0.466921  1
  Tm  Tm6  1  0.017326  0.399299  0.033000  1
  Tm  Tm7  1  0.042903  0.281313  0.628846  1
  Ir  Ir8  1  0.042210  0.004266  0.148754  1
  Ir  Ir9  1  0.457924  0.996485  0.648821  1
  Ir  Ir10  1  0.541997  0.495425  0.851132  1
  Ir  Ir11  1  0.958153  0.503695  0.351014  1
  O  O12  1  0.084503  0.657069  0.472929  1
  O  O13  1  0.165303  0.553677  0.198062  1
  O  O14  1  0.188701  0.855702  0.265548  1
  O  O15  1  0.168287  0.865575  0.682661  1
  O  O16  1  0.237706  0.384540  0.430564  1
  O  O17  1  0.251629  0.090662  0.501641  1
  O  O18  1  0.248108  0.910361  0.001221  1
  O  O19  1  0.262113  0.614840  0.930076  1
  O  O20  1  0.332366  0.134423  0.182818  1
  O  O21  1  0.309860  0.144857  0.765253  1
  O  O22  1  0.333570  0.444713  0.698721  1
  O  O23  1  0.413176  0.343011  0.973273  1
  O  O24  1  0.584284  0.843230  0.526757  1
  O  O25  1  0.665350  0.945609  0.801257  1
  O  O26  1  0.688533  0.643956  0.734394  1
  O  O27  1  0.667836  0.634150  0.317395  1
  O  O28  1  0.738867  0.115945  0.570575  1
  O  O29  1  0.753343  0.409800  0.499035  1
  O  O30  1  0.748675  0.588676  0.998812  1
  O  O31  1  0.762141  0.884868  0.069854  1
  O  O32  1  0.832938  0.365178  0.817509  1
  O  O33  1  0.811534  0.355824  0.233495  1
  O  O34  1  0.834389  0.054711  0.301244  1
  O  O35  1  0.915947  0.158172  0.027181  1
