# generated using pymatgen
data_RbUCl6
_symmetry_space_group_name_H-M   'P 1'
_cell_length_a   7.23442640
_cell_length_b   7.23442652
_cell_length_c   13.03340914
_cell_angle_alpha   79.43085661
_cell_angle_beta   79.43085727
_cell_angle_gamma   55.51605462
_symmetry_Int_Tables_number   1
_chemical_formula_structural   RbUCl6
_chemical_formula_sum   'Rb2 U2 Cl12'
_cell_volume   550.05736525
_cell_formula_units_Z   2
loop_
 _symmetry_equiv_pos_site_id
 _symmetry_equiv_pos_as_xyz
  1  'x, y, z'
loop_
 _atom_site_type_symbol
 _atom_site_label
 _atom_site_symmetry_multiplicity
 _atom_site_fract_x
 _atom_site_fract_y
 _atom_site_fract_z
 _atom_site_occupancy
  Rb  Rb0  1  0.881971  0.118029  0.750000  1
  Rb  Rb1  1  0.118029  0.881971  0.250000  1
  U  U2  1  0.500000  0.000000  0.500000  1
  U  U3  1  0.000000  0.500000  0.000000  1
  Cl  Cl4  1  0.459337  0.694156  0.608226  1
  Cl  Cl5  1  0.540663  0.305844  0.391774  1
  Cl  Cl6  1  0.305844  0.540663  0.891774  1
  Cl  Cl7  1  0.694156  0.459337  0.108226  1
  Cl  Cl8  1  0.368723  0.202791  0.664089  1
  Cl  Cl9  1  0.631277  0.797209  0.335911  1
  Cl  Cl10  1  0.797209  0.631277  0.835911  1
  Cl  Cl11  1  0.202791  0.368723  0.164089  1
  Cl  Cl12  1  0.796348  0.905893  0.039798  1
  Cl  Cl13  1  0.203652  0.094107  0.960202  1
  Cl  Cl14  1  0.094107  0.203652  0.460202  1
  Cl  Cl15  1  0.905893  0.796348  0.539798  1
