# generated using pymatgen
data_TbSm2Ga3(Ni3Sn)3
_symmetry_space_group_name_H-M   'P 1'
_cell_length_a   4.08379600
_cell_length_b   9.16897396
_cell_length_c   9.16897389
_cell_angle_alpha   59.99413600
_cell_angle_beta   90.00000000
_cell_angle_gamma   90.00000000
_symmetry_Int_Tables_number   1
_chemical_formula_structural   TbSm2Ga3(Ni3Sn)3
_chemical_formula_sum   'Tb1 Sm2 Ga3 Ni9 Sn3'
_cell_volume   297.31066000
_cell_formula_units_Z   1
loop_
 _symmetry_equiv_pos_site_id
 _symmetry_equiv_pos_as_xyz
  1  'x, y, z'
loop_
 _atom_site_type_symbol
 _atom_site_label
 _atom_site_symmetry_multiplicity
 _atom_site_fract_x
 _atom_site_fract_y
 _atom_site_fract_z
 _atom_site_occupancy
  Tb  Tb0  1  0.000000  0.999967  0.000033  1
  Sm  Sm1  1  0.500000  0.333359  0.333277  1
  Sm  Sm2  1  0.500000  0.666723  0.666641  1
  Ga  Ga3  1  0.500000  0.741610  0.258390  1
  Ga  Ga4  1  0.500000  0.258376  0.000040  1
  Ga  Ga5  1  0.500000  0.999960  0.741624  1
  Ni  Ni6  1  0.000000  0.206929  0.158961  1
  Ni  Ni7  1  0.000000  0.158964  0.634142  1
  Ni  Ni8  1  0.000000  0.634167  0.206842  1
  Ni  Ni9  1  0.000000  0.841039  0.793071  1
  Ni  Ni10  1  0.000000  0.365858  0.841036  1
  Ni  Ni11  1  0.000000  0.793158  0.365833  1
  Ni  Ni12  1  0.500000  0.278301  0.721699  1
  Ni  Ni13  1  0.500000  0.721511  0.000072  1
  Ni  Ni14  1  0.500000  0.999928  0.278489  1
  Sn  Sn15  1  0.000000  0.468327  0.531673  1
  Sn  Sn16  1  0.000000  0.531691  0.999966  1
  Sn  Sn17  1  0.000000  0.000034  0.468309  1
