# generated using pymatgen
data_KIn2SnAu3
_symmetry_space_group_name_H-M   'P 1'
_cell_length_a   4.62787800
_cell_length_b   8.18347600
_cell_length_c   9.31510800
_cell_angle_alpha   90.00000000
_cell_angle_beta   90.00000000
_cell_angle_gamma   90.00000000
_symmetry_Int_Tables_number   1
_chemical_formula_structural   KIn2SnAu3
_chemical_formula_sum   'K2 In4 Sn2 Au6'
_cell_volume   352.78296758
_cell_formula_units_Z   2
loop_
 _symmetry_equiv_pos_site_id
 _symmetry_equiv_pos_as_xyz
  1  'x, y, z'
loop_
 _atom_site_type_symbol
 _atom_site_label
 _atom_site_symmetry_multiplicity
 _atom_site_fract_x
 _atom_site_fract_y
 _atom_site_fract_z
 _atom_site_occupancy
  K  K0  1  0.000000  0.500000  0.266738  1
  K  K1  1  0.500000  0.000000  0.734272  1
  In  In2  1  0.500000  0.196131  0.116867  1
  In  In3  1  0.500000  0.803869  0.116867  1
  In  In4  1  0.000000  0.000000  0.377708  1
  In  In5  1  0.500000  0.500000  0.619893  1
  Sn  Sn6  1  0.000000  0.694631  0.883382  1
  Sn  Sn7  1  0.000000  0.305369  0.883382  1
  Au  Au8  1  0.500000  0.787313  0.416109  1
  Au  Au9  1  0.000000  0.000000  0.048030  1
  Au  Au10  1  0.500000  0.500000  0.950932  1
  Au  Au11  1  0.000000  0.714934  0.584855  1
  Au  Au12  1  0.000000  0.285066  0.584855  1
  Au  Au13  1  0.500000  0.212687  0.416109  1
