# generated using pymatgen
data_Er2TmZn3Si2Hg
_symmetry_space_group_name_H-M   'P 1'
_cell_length_a   6.84643600
_cell_length_b   6.84643733
_cell_length_c   4.31562800
_cell_angle_alpha   90.00000000
_cell_angle_beta   90.00000000
_cell_angle_gamma   119.95306513
_symmetry_Int_Tables_number   1
_chemical_formula_structural   Er2TmZn3Si2Hg
_chemical_formula_sum   'Er2 Tm1 Zn3 Si2 Hg1'
_cell_volume   175.27058171
_cell_formula_units_Z   1
loop_
 _symmetry_equiv_pos_site_id
 _symmetry_equiv_pos_as_xyz
  1  'x, y, z'
loop_
 _atom_site_type_symbol
 _atom_site_label
 _atom_site_symmetry_multiplicity
 _atom_site_fract_x
 _atom_site_fract_y
 _atom_site_fract_z
 _atom_site_occupancy
  Er  Er0  1  0.567761  0.999819  0.000000  1
  Er  Er1  1  0.999819  0.567761  0.000000  1
  Tm  Tm2  1  0.432295  0.432295  0.000000  1
  Zn  Zn3  1  0.255175  0.999943  0.500000  1
  Zn  Zn4  1  0.999943  0.255175  0.500000  1
  Zn  Zn5  1  0.744957  0.744957  0.500000  1
  Si  Si6  1  0.333735  0.665980  0.500000  1
  Si  Si7  1  0.665980  0.333735  0.500000  1
  Hg  Hg8  1  0.000336  0.000336  0.000000  1
