# generated using pymatgen
data_Pr3Er7(SiHg)4
_symmetry_space_group_name_H-M   'P 1'
_cell_length_a   9.14722112
_cell_length_b   8.56078658
_cell_length_c   7.57577722
_cell_angle_alpha   89.77497618
_cell_angle_beta   90.11178977
_cell_angle_gamma   129.04379464
_symmetry_Int_Tables_number   1
_chemical_formula_structural   Pr3Er7(SiHg)4
_chemical_formula_sum   'Pr3 Er7 Si4 Hg4'
_cell_volume   460.74450591
_cell_formula_units_Z   1
loop_
 _symmetry_equiv_pos_site_id
 _symmetry_equiv_pos_as_xyz
  1  'x, y, z'
loop_
 _atom_site_type_symbol
 _atom_site_label
 _atom_site_symmetry_multiplicity
 _atom_site_fract_x
 _atom_site_fract_y
 _atom_site_fract_z
 _atom_site_occupancy
  Pr  Pr0  1  0.066808  0.340750  0.321711  1
  Pr  Pr1  1  0.933802  0.659695  0.678254  1
  Pr  Pr2  1  0.431891  0.158279  0.825241  1
  Er  Er3  1  0.778847  0.538287  0.174438  1
  Er  Er4  1  0.567094  0.831320  0.172956  1
  Er  Er5  1  0.224793  0.469057  0.825075  1
  Er  Er6  1  0.720141  0.960921  0.674621  1
  Er  Er7  1  0.275207  0.038370  0.326467  1
  Er  Er8  1  0.000274  0.003001  0.999395  1
  Er  Er9  1  0.498976  0.501212  0.498657  1
  Si  Si10  1  0.382175  0.387414  0.121741  1
  Si  Si11  1  0.620144  0.619450  0.880746  1
  Si  Si12  1  0.120034  0.120285  0.623172  1
  Si  Si13  1  0.874934  0.881382  0.375228  1
  Hg  Hg14  1  0.820147  0.250231  0.973707  1
  Hg  Hg15  1  0.180061  0.738455  0.041984  1
  Hg  Hg16  1  0.671807  0.238050  0.467055  1
  Hg  Hg17  1  0.332863  0.763843  0.519552  1
