# generated using pymatgen
data_TbPaCoNi
_symmetry_space_group_name_H-M   'P 1'
_cell_length_a   6.07483826
_cell_length_b   6.07483867
_cell_length_c   3.82148600
_cell_angle_alpha   90.00000000
_cell_angle_beta   90.00000000
_cell_angle_gamma   145.33584809
_symmetry_Int_Tables_number   1
_chemical_formula_structural   TbPaCoNi
_chemical_formula_sum   'Tb1 Pa1 Co1 Ni1'
_cell_volume   80.21112771
_cell_formula_units_Z   1
loop_
 _symmetry_equiv_pos_site_id
 _symmetry_equiv_pos_as_xyz
  1  'x, y, z'
loop_
 _atom_site_type_symbol
 _atom_site_label
 _atom_site_symmetry_multiplicity
 _atom_site_fract_x
 _atom_site_fract_y
 _atom_site_fract_z
 _atom_site_occupancy
  Tb  Tb0  1  0.150937  0.849063  0.000000  1
  Pa  Pa1  1  0.885156  0.114844  0.500000  1
  Co  Co2  1  0.403572  0.596428  0.000000  1
  Ni  Ni3  1  0.560335  0.439665  0.500000  1
