# generated using pymatgen
data_Dy2Er2TmSn4
_symmetry_space_group_name_H-M   'P 1'
_cell_length_a   7.99602600
_cell_length_b   8.12985300
_cell_length_c   15.37299200
_cell_angle_alpha   90.00000000
_cell_angle_beta   90.00000000
_cell_angle_gamma   90.00000000
_symmetry_Int_Tables_number   1
_chemical_formula_structural   Dy2Er2TmSn4
_chemical_formula_sum   'Dy8 Er8 Tm4 Sn16'
_cell_volume   999.34464987
_cell_formula_units_Z   4
loop_
 _symmetry_equiv_pos_site_id
 _symmetry_equiv_pos_as_xyz
  1  'x, y, z'
loop_
 _atom_site_type_symbol
 _atom_site_label
 _atom_site_symmetry_multiplicity
 _atom_site_fract_x
 _atom_site_fract_y
 _atom_site_fract_z
 _atom_site_occupancy
  Dy  Dy0  1  0.521484  0.320461  0.902729  1
  Dy  Dy1  1  0.021484  0.179539  0.597271  1
  Dy  Dy2  1  0.478516  0.679539  0.402729  1
  Dy  Dy3  1  0.978516  0.820461  0.097271  1
  Dy  Dy4  1  0.478516  0.679539  0.097271  1
  Dy  Dy5  1  0.978516  0.820461  0.402729  1
  Dy  Dy6  1  0.521484  0.320461  0.597271  1
  Dy  Dy7  1  0.021484  0.179539  0.902729  1
  Er  Er8  1  0.367597  0.836343  0.877484  1
  Er  Er9  1  0.867597  0.663657  0.622516  1
  Er  Er10  1  0.632403  0.163657  0.377484  1
  Er  Er11  1  0.132403  0.336343  0.122516  1
  Er  Er12  1  0.632403  0.163657  0.122516  1
  Er  Er13  1  0.132403  0.336343  0.377484  1
  Er  Er14  1  0.367597  0.836343  0.622516  1
  Er  Er15  1  0.867597  0.663657  0.877484  1
  Tm  Tm16  1  0.198236  0.503873  0.750000  1
  Tm  Tm17  1  0.698236  0.996127  0.750000  1
  Tm  Tm18  1  0.801764  0.496127  0.250000  1
  Tm  Tm19  1  0.301764  0.003873  0.250000  1
  Sn  Sn20  1  0.293553  0.036360  0.041774  1
  Sn  Sn21  1  0.793553  0.463640  0.458226  1
  Sn  Sn22  1  0.706447  0.963640  0.541774  1
  Sn  Sn23  1  0.206447  0.536360  0.958226  1
  Sn  Sn24  1  0.706447  0.963640  0.958226  1
  Sn  Sn25  1  0.206447  0.536360  0.541774  1
  Sn  Sn26  1  0.293553  0.036360  0.458226  1
  Sn  Sn27  1  0.793553  0.463640  0.041774  1
  Sn  Sn28  1  0.564562  0.620193  0.750000  1
  Sn  Sn29  1  0.064562  0.879807  0.750000  1
  Sn  Sn30  1  0.435438  0.379807  0.250000  1
  Sn  Sn31  1  0.935438  0.120193  0.250000  1
  Sn  Sn32  1  0.330222  0.147503  0.750000  1
  Sn  Sn33  1  0.830222  0.352497  0.750000  1
  Sn  Sn34  1  0.669778  0.852497  0.250000  1
  Sn  Sn35  1  0.169778  0.647503  0.250000  1
