# generated using pymatgen
data_Hf6Nb4Al12Fe7
_symmetry_space_group_name_H-M   'P 1'
_cell_length_a   8.60621133
_cell_length_b   8.59917431
_cell_length_c   8.60936256
_cell_angle_alpha   60.01360921
_cell_angle_beta   60.02421784
_cell_angle_gamma   60.02656817
_symmetry_Int_Tables_number   1
_chemical_formula_structural   Hf6Nb4Al12Fe7
_chemical_formula_sum   'Hf6 Nb4 Al12 Fe7'
_cell_volume   450.75029744
_cell_formula_units_Z   1
loop_
 _symmetry_equiv_pos_site_id
 _symmetry_equiv_pos_as_xyz
  1  'x, y, z'
loop_
 _atom_site_type_symbol
 _atom_site_label
 _atom_site_symmetry_multiplicity
 _atom_site_fract_x
 _atom_site_fract_y
 _atom_site_fract_z
 _atom_site_occupancy
  Hf  Hf0  1  0.696763  0.696639  0.303150  1
  Hf  Hf1  1  0.303385  0.696657  0.303251  1
  Hf  Hf2  1  0.696681  0.303552  0.303174  1
  Hf  Hf3  1  0.303125  0.303436  0.696796  1
  Hf  Hf4  1  0.696567  0.303451  0.696656  1
  Hf  Hf5  1  0.303323  0.696486  0.696741  1
  Nb  Nb6  1  0.881056  0.881224  0.356849  1
  Nb  Nb7  1  0.880828  0.357032  0.881101  1
  Nb  Nb8  1  0.356893  0.880920  0.881014  1
  Nb  Nb9  1  0.881168  0.881051  0.880817  1
  Al  Al10  1  0.120442  0.120194  0.638890  1
  Al  Al11  1  0.120468  0.638938  0.120356  1
  Al  Al12  1  0.638891  0.120359  0.120523  1
  Al  Al13  1  0.120275  0.120150  0.120627  1
  Al  Al14  1  0.663027  0.663079  0.010591  1
  Al  Al15  1  0.663129  0.011073  0.662915  1
  Al  Al16  1  0.010758  0.663309  0.662922  1
  Al  Al17  1  0.662998  0.663004  0.663086  1
  Al  Al18  1  0.333996  0.333908  0.998294  1
  Al  Al19  1  0.333804  0.997963  0.334148  1
  Al  Al20  1  0.998140  0.333778  0.334071  1
  Al  Al21  1  0.334044  0.334076  0.333823  1
  Fe  Fe22  1  0.999875  0.000180  0.999822  1
  Fe  Fe23  1  0.997139  0.997142  0.502936  1
  Fe  Fe24  1  0.502953  0.997051  0.502987  1
  Fe  Fe25  1  0.997193  0.502813  0.503059  1
  Fe  Fe26  1  0.502822  0.502886  0.997093  1
  Fe  Fe27  1  0.997103  0.502785  0.997055  1
  Fe  Fe28  1  0.503154  0.996866  0.997253  1
