# generated using pymatgen
data_Ho12InCoCuNi3
_symmetry_space_group_name_H-M   'P 1'
_cell_length_a   8.27471173
_cell_length_b   8.28656596
_cell_length_c   8.27471218
_cell_angle_alpha   112.15892505
_cell_angle_beta   109.71734529
_cell_angle_gamma   106.52864821
_symmetry_Int_Tables_number   1
_chemical_formula_structural   Ho12InCoCuNi3
_chemical_formula_sum   'Ho12 In1 Co1 Cu1 Ni3'
_cell_volume   436.02960424
_cell_formula_units_Z   1
loop_
 _symmetry_equiv_pos_site_id
 _symmetry_equiv_pos_as_xyz
  1  'x, y, z'
loop_
 _atom_site_type_symbol
 _atom_site_label
 _atom_site_symmetry_multiplicity
 _atom_site_fract_x
 _atom_site_fract_y
 _atom_site_fract_z
 _atom_site_occupancy
  Ho  Ho0  1  0.325911  0.630567  0.308490  1
  Ho  Ho1  1  0.677923  0.369433  0.695344  1
  Ho  Ho2  1  0.325973  0.017212  0.695157  1
  Ho  Ho3  1  0.677943  0.982788  0.308759  1
  Ho  Ho4  1  0.181345  0.292487  0.473766  1
  Ho  Ho5  1  0.815650  0.710235  0.525780  1
  Ho  Ho6  1  0.181279  0.707513  0.888856  1
  Ho  Ho7  1  0.815545  0.289765  0.105416  1
  Ho  Ho8  1  0.413932  0.219557  0.194276  1
  Ho  Ho9  1  0.587764  0.782190  0.805733  1
  Ho  Ho10  1  0.023543  0.217810  0.805574  1
  Ho  Ho11  1  0.974719  0.780443  0.194375  1
  In  In12  1  0.499922  0.500000  0.999922  1
  Co  Co13  1  0.640868  0.000000  0.640868  1
  Cu  Cu14  1  0.998978  0.000000  0.998978  1
  Ni  Ni15  1  0.122580  0.623416  0.499357  1
  Ni  Ni16  1  0.875941  0.376584  0.499164  1
  Ni  Ni17  1  0.360186  0.000000  0.360186  1
