# generated using pymatgen
data_SmZr(SnIr)2
_symmetry_space_group_name_H-M   'P 1'
_cell_length_a   7.50261500
_cell_length_b   7.50261509
_cell_length_c   7.71813300
_cell_angle_alpha   90.00000000
_cell_angle_beta   90.00000000
_cell_angle_gamma   119.99999638
_symmetry_Int_Tables_number   1
_chemical_formula_structural   SmZr(SnIr)2
_chemical_formula_sum   'Sm3 Zr3 Sn6 Ir6'
_cell_volume   376.24283044
_cell_formula_units_Z   3
loop_
 _symmetry_equiv_pos_site_id
 _symmetry_equiv_pos_as_xyz
  1  'x, y, z'
loop_
 _atom_site_type_symbol
 _atom_site_label
 _atom_site_symmetry_multiplicity
 _atom_site_fract_x
 _atom_site_fract_y
 _atom_site_fract_z
 _atom_site_occupancy
  Sm  Sm0  1  0.592397  0.592178  0.750000  1
  Sm  Sm1  1  0.999780  0.407603  0.750000  1
  Sm  Sm2  1  0.407822  0.000220  0.750000  1
  Zr  Zr3  1  0.393810  0.001448  0.250000  1
  Zr  Zr4  1  0.607640  0.606190  0.250000  1
  Zr  Zr5  1  0.998552  0.392360  0.250000  1
  Sn  Sn6  1  0.263821  0.264913  0.491210  1
  Sn  Sn7  1  0.263821  0.264913  0.008790  1
  Sn  Sn8  1  0.735087  0.998909  0.008790  1
  Sn  Sn9  1  0.001091  0.736179  0.491210  1
  Sn  Sn10  1  0.735087  0.998909  0.491210  1
  Sn  Sn11  1  0.001091  0.736179  0.008790  1
  Ir  Ir12  1  0.666667  0.333333  0.463713  1
  Ir  Ir13  1  0.666667  0.333333  0.036287  1
  Ir  Ir14  1  0.333333  0.666667  0.039554  1
  Ir  Ir15  1  0.333333  0.666667  0.460446  1
  Ir  Ir16  1  0.000000  0.000000  0.750000  1
  Ir  Ir17  1  0.000000  0.000000  0.250000  1
