# generated using pymatgen
data_TmCd2SbO6
_symmetry_space_group_name_H-M   'P 1'
_cell_length_a   5.79377148
_cell_length_b   5.79377163
_cell_length_c   5.79377078
_cell_angle_alpha   58.77964631
_cell_angle_beta   58.77964270
_cell_angle_gamma   58.77964207
_symmetry_Int_Tables_number   1
_chemical_formula_structural   TmCd2SbO6
_chemical_formula_sum   'Tm1 Cd2 Sb1 O6'
_cell_volume   133.68796297
_cell_formula_units_Z   1
loop_
 _symmetry_equiv_pos_site_id
 _symmetry_equiv_pos_as_xyz
  1  'x, y, z'
loop_
 _atom_site_type_symbol
 _atom_site_label
 _atom_site_symmetry_multiplicity
 _atom_site_fract_x
 _atom_site_fract_y
 _atom_site_fract_z
 _atom_site_occupancy
  Tm  Tm0  1  0.000000  0.000000  0.000000  1
  Cd  Cd1  1  0.266778  0.266778  0.266778  1
  Cd  Cd2  1  0.733222  0.733222  0.733222  1
  Sb  Sb3  1  0.500000  0.500000  0.500000  1
  O  O4  1  0.374503  0.723429  0.153649  1
  O  O5  1  0.846350  0.625497  0.276572  1
  O  O6  1  0.723428  0.153649  0.374504  1
  O  O7  1  0.276572  0.846351  0.625496  1
  O  O8  1  0.153650  0.374503  0.723428  1
  O  O9  1  0.625497  0.276571  0.846351  1
