# generated using pymatgen
data_DyErFe3Ni7P6
_symmetry_space_group_name_H-M   'P 1'
_cell_length_a   3.69576600
_cell_length_b   10.28278800
_cell_length_c   11.88836000
_cell_angle_alpha   90.00000000
_cell_angle_beta   90.00000000
_cell_angle_gamma   90.00000000
_symmetry_Int_Tables_number   1
_chemical_formula_structural   DyErFe3Ni7P6
_chemical_formula_sum   'Dy2 Er2 Fe6 Ni14 P12'
_cell_volume   451.79070914
_cell_formula_units_Z   2
loop_
 _symmetry_equiv_pos_site_id
 _symmetry_equiv_pos_as_xyz
  1  'x, y, z'
loop_
 _atom_site_type_symbol
 _atom_site_label
 _atom_site_symmetry_multiplicity
 _atom_site_fract_x
 _atom_site_fract_y
 _atom_site_fract_z
 _atom_site_occupancy
  Dy  Dy0  1  0.750000  0.419488  0.294900  1
  Dy  Dy1  1  0.750000  0.080512  0.794900  1
  Er  Er2  1  0.250000  0.575155  0.704536  1
  Er  Er3  1  0.250000  0.924845  0.204536  1
  Fe  Fe4  1  0.750000  0.125006  0.298486  1
  Fe  Fe5  1  0.750000  0.374994  0.798486  1
  Fe  Fe6  1  0.250000  0.465881  0.931988  1
  Fe  Fe7  1  0.250000  0.034119  0.431988  1
  Fe  Fe8  1  0.750000  0.540238  0.068570  1
  Fe  Fe9  1  0.750000  0.959762  0.568570  1
  Ni  Ni10  1  0.250000  0.717357  0.998992  1
  Ni  Ni11  1  0.250000  0.782643  0.498992  1
  Ni  Ni12  1  0.750000  0.289399  0.007851  1
  Ni  Ni13  1  0.750000  0.210601  0.507851  1
  Ni  Ni14  1  0.250000  0.406815  0.485143  1
  Ni  Ni15  1  0.250000  0.093185  0.985143  1
  Ni  Ni16  1  0.750000  0.590228  0.512440  1
  Ni  Ni17  1  0.750000  0.909772  0.012440  1
  Ni  Ni18  1  0.250000  0.226501  0.172327  1
  Ni  Ni19  1  0.250000  0.273499  0.672327  1
  Ni  Ni20  1  0.750000  0.772597  0.824409  1
  Ni  Ni21  1  0.750000  0.727403  0.324409  1
  Ni  Ni22  1  0.250000  0.873972  0.702944  1
  Ni  Ni23  1  0.250000  0.626028  0.202944  1
  P  P24  1  0.250000  0.429990  0.110997  1
  P  P25  1  0.250000  0.070010  0.610997  1
  P  P26  1  0.750000  0.569253  0.886304  1
  P  P27  1  0.750000  0.930747  0.386304  1
  P  P28  1  0.250000  0.272552  0.863999  1
  P  P29  1  0.250000  0.227448  0.363999  1
  P  P30  1  0.750000  0.735411  0.132485  1
  P  P31  1  0.750000  0.764589  0.632485  1
  P  P32  1  0.250000  0.604095  0.393012  1
  P  P33  1  0.250000  0.895905  0.893012  1
  P  P34  1  0.750000  0.393383  0.610619  1
  P  P35  1  0.750000  0.106617  0.110619  1
