# generated using pymatgen
data_Tb2HoGa6Ni8Ir
_symmetry_space_group_name_H-M   'P 1'
_cell_length_a   4.11999800
_cell_length_b   8.87243152
_cell_length_c   8.87242933
_cell_angle_alpha   58.70224982
_cell_angle_beta   90.00000000
_cell_angle_gamma   90.00000000
_symmetry_Int_Tables_number   1
_chemical_formula_structural   Tb2HoGa6Ni8Ir
_chemical_formula_sum   'Tb2 Ho1 Ga6 Ni8 Ir1'
_cell_volume   277.13011382
_cell_formula_units_Z   1
loop_
 _symmetry_equiv_pos_site_id
 _symmetry_equiv_pos_as_xyz
  1  'x, y, z'
loop_
 _atom_site_type_symbol
 _atom_site_label
 _atom_site_symmetry_multiplicity
 _atom_site_fract_x
 _atom_site_fract_y
 _atom_site_fract_z
 _atom_site_occupancy
  Tb  Tb0  1  0.500000  0.333566  0.334728  1
  Tb  Tb1  1  0.500000  0.665272  0.666434  1
  Ho  Ho2  1  0.000000  0.010775  0.989225  1
  Ga  Ga3  1  0.500000  0.733996  0.266004  1
  Ga  Ga4  1  0.500000  0.273013  0.006221  1
  Ga  Ga5  1  0.500000  0.993779  0.726987  1
  Ga  Ga6  1  0.000000  0.477561  0.522439  1
  Ga  Ga7  1  0.000000  0.519362  0.008426  1
  Ga  Ga8  1  0.000000  0.991574  0.480638  1
  Ni  Ni9  1  0.000000  0.196219  0.175664  1
  Ni  Ni10  1  0.000000  0.166763  0.615606  1
  Ni  Ni11  1  0.000000  0.633462  0.197240  1
  Ni  Ni12  1  0.000000  0.824335  0.803781  1
  Ni  Ni13  1  0.000000  0.384394  0.833237  1
  Ni  Ni14  1  0.000000  0.802760  0.366538  1
  Ni  Ni15  1  0.500000  0.707021  0.003743  1
  Ni  Ni16  1  0.500000  0.996257  0.292979  1
  Ir  Ir17  1  0.500000  0.289793  0.710207  1
