# generated using pymatgen
data_LaTh5(CdHg2)6
_symmetry_space_group_name_H-M   'P 1'
_cell_length_a   5.16704600
_cell_length_b   7.46459200
_cell_length_c   15.70257500
_cell_angle_alpha   90.00000000
_cell_angle_beta   89.99950793
_cell_angle_gamma   90.00000000
_symmetry_Int_Tables_number   1
_chemical_formula_structural   LaTh5(CdHg2)6
_chemical_formula_sum   'La1 Th5 Cd6 Hg12'
_cell_volume   605.64659415
_cell_formula_units_Z   1
loop_
 _symmetry_equiv_pos_site_id
 _symmetry_equiv_pos_as_xyz
  1  'x, y, z'
loop_
 _atom_site_type_symbol
 _atom_site_label
 _atom_site_symmetry_multiplicity
 _atom_site_fract_x
 _atom_site_fract_y
 _atom_site_fract_z
 _atom_site_occupancy
  La  La0  1  0.500110  0.500000  0.833465  1
  Th  Th1  1  0.000000  0.000000  0.999074  1
  Th  Th2  1  0.499914  0.500000  0.166453  1
  Th  Th3  1  0.999915  0.000000  0.333449  1
  Th  Th4  1  0.499998  0.500000  0.500087  1
  Th  Th5  1  0.000088  0.000000  0.667489  1
  Cd  Cd6  1  0.000001  0.500000  0.000158  1
  Cd  Cd7  1  0.499918  0.000000  0.167152  1
  Cd  Cd8  1  0.999939  0.500000  0.333236  1
  Cd  Cd9  1  0.499997  0.000000  0.499612  1
  Cd  Cd10  1  0.000057  0.500000  0.666610  1
  Cd  Cd11  1  0.500075  0.000000  0.833219  1
  Hg  Hg12  1  0.499997  0.253035  0.000880  1
  Hg  Hg13  1  0.499997  0.746964  0.000880  1
  Hg  Hg14  1  0.999895  0.244752  0.166618  1
  Hg  Hg15  1  0.999895  0.755248  0.166618  1
  Hg  Hg16  1  0.499902  0.253984  0.333295  1
  Hg  Hg17  1  0.499902  0.746016  0.333295  1
  Hg  Hg18  1  0.000001  0.245056  0.500088  1
  Hg  Hg19  1  0.000001  0.754943  0.500088  1
  Hg  Hg20  1  0.500096  0.253348  0.665821  1
  Hg  Hg21  1  0.500096  0.746652  0.665821  1
  Hg  Hg22  1  0.000103  0.242269  0.833295  1
  Hg  Hg23  1  0.000103  0.757731  0.833295  1
