# generated using pymatgen
data_Er2Al2Co5NiB2
_symmetry_space_group_name_H-M   'P 1'
_cell_length_a   5.12521220
_cell_length_b   5.12521203
_cell_length_c   6.66272400
_cell_angle_alpha   90.00000000
_cell_angle_beta   90.00000000
_cell_angle_gamma   119.38756537
_symmetry_Int_Tables_number   1
_chemical_formula_structural   Er2Al2Co5NiB2
_chemical_formula_sum   'Er2 Al2 Co5 Ni1 B2'
_cell_volume   152.49421142
_cell_formula_units_Z   1
loop_
 _symmetry_equiv_pos_site_id
 _symmetry_equiv_pos_as_xyz
  1  'x, y, z'
loop_
 _atom_site_type_symbol
 _atom_site_label
 _atom_site_symmetry_multiplicity
 _atom_site_fract_x
 _atom_site_fract_y
 _atom_site_fract_z
 _atom_site_occupancy
  Er  Er0  1  0.000000  0.000000  0.008312  1
  Er  Er1  1  0.000000  0.000000  0.502033  1
  Al  Al2  1  0.667752  0.332248  0.999365  1
  Al  Al3  1  0.332248  0.667752  0.999365  1
  Co  Co4  1  0.500000  0.000000  0.704308  1
  Co  Co5  1  0.000000  0.500000  0.704308  1
  Co  Co6  1  0.500000  0.500000  0.294431  1
  Co  Co7  1  0.500000  0.000000  0.293491  1
  Co  Co8  1  0.000000  0.500000  0.293491  1
  Ni  Ni9  1  0.500000  0.500000  0.706022  1
  B  B10  1  0.670576  0.329424  0.497437  1
  B  B11  1  0.329424  0.670576  0.497437  1
