# generated using pymatgen
data_Er7Tm3(CoBi2)2
_symmetry_space_group_name_H-M   'P 1'
_cell_length_a   7.88654946
_cell_length_b   8.85337317
_cell_length_c   12.35288747
_cell_angle_alpha   89.97334685
_cell_angle_beta   89.99915241
_cell_angle_gamma   90.02655175
_symmetry_Int_Tables_number   1
_chemical_formula_structural   Er7Tm3(CoBi2)2
_chemical_formula_sum   'Er14 Tm6 Co4 Bi8'
_cell_volume   862.51010742
_cell_formula_units_Z   2
loop_
 _symmetry_equiv_pos_site_id
 _symmetry_equiv_pos_as_xyz
  1  'x, y, z'
loop_
 _atom_site_type_symbol
 _atom_site_label
 _atom_site_symmetry_multiplicity
 _atom_site_fract_x
 _atom_site_fract_y
 _atom_site_fract_z
 _atom_site_occupancy
  Er  Er0  1  0.653817  0.749828  0.699794  1
  Er  Er1  1  0.346183  0.250172  0.300206  1
  Er  Er2  1  0.153755  0.249950  0.799952  1
  Er  Er3  1  0.846245  0.750050  0.200048  1
  Er  Er4  1  0.120413  0.750882  0.814694  1
  Er  Er5  1  0.879587  0.249118  0.185306  1
  Er  Er6  1  0.619752  0.251415  0.685665  1
  Er  Er7  1  0.380248  0.748585  0.314335  1
  Er  Er8  1  0.555903  0.749730  0.996897  1
  Er  Er9  1  0.444097  0.250270  0.003103  1
  Er  Er10  1  0.054146  0.251466  0.502722  1
  Er  Er11  1  0.945854  0.748534  0.497278  1
  Er  Er12  1  0.674436  0.036316  0.435942  1
  Er  Er13  1  0.325564  0.963684  0.564058  1
  Tm  Tm14  1  0.827632  0.463428  0.935793  1
  Tm  Tm15  1  0.172368  0.536572  0.064207  1
  Tm  Tm16  1  0.327697  0.537484  0.564514  1
  Tm  Tm17  1  0.172591  0.963211  0.064145  1
  Tm  Tm18  1  0.672303  0.462516  0.435486  1
  Tm  Tm19  1  0.827409  0.036789  0.935855  1
  Co  Co20  1  0.937309  0.749944  0.993724  1
  Co  Co21  1  0.062691  0.250056  0.006276  1
  Co  Co22  1  0.436040  0.250866  0.506830  1
  Co  Co23  1  0.563960  0.749134  0.493170  1
  Bi  Bi24  1  0.932054  0.007782  0.672942  1
  Bi  Bi25  1  0.067946  0.992218  0.327058  1
  Bi  Bi26  1  0.434359  0.993158  0.827017  1
  Bi  Bi27  1  0.066011  0.506953  0.326223  1
  Bi  Bi28  1  0.565641  0.006842  0.172983  1
  Bi  Bi29  1  0.933989  0.493047  0.673777  1
  Bi  Bi30  1  0.566572  0.492497  0.172918  1
  Bi  Bi31  1  0.433428  0.507503  0.827082  1
