# generated using pymatgen
data_Dy3HoMn9Fe11P12
_symmetry_space_group_name_H-M   'P 1'
_cell_length_a   3.64426700
_cell_length_b   10.31267770
_cell_length_c   12.12590701
_cell_angle_alpha   89.65468941
_cell_angle_beta   90.00000000
_cell_angle_gamma   90.00000000
_symmetry_Int_Tables_number   1
_chemical_formula_structural   Dy3HoMn9Fe11P12
_chemical_formula_sum   'Dy3 Ho1 Mn9 Fe11 P12'
_cell_volume   455.70939223
_cell_formula_units_Z   1
loop_
 _symmetry_equiv_pos_site_id
 _symmetry_equiv_pos_as_xyz
  1  'x, y, z'
loop_
 _atom_site_type_symbol
 _atom_site_label
 _atom_site_symmetry_multiplicity
 _atom_site_fract_x
 _atom_site_fract_y
 _atom_site_fract_z
 _atom_site_occupancy
  Dy  Dy0  1  0.250000  0.580963  0.710511  1
  Dy  Dy1  1  0.250000  0.915849  0.210789  1
  Dy  Dy2  1  0.750000  0.080301  0.788695  1
  Ho  Ho3  1  0.750000  0.424072  0.291982  1
  Mn  Mn4  1  0.250000  0.704568  0.991711  1
  Mn  Mn5  1  0.250000  0.796021  0.491454  1
  Mn  Mn6  1  0.750000  0.292141  0.011134  1
  Mn  Mn7  1  0.750000  0.206892  0.507305  1
  Mn  Mn8  1  0.250000  0.411051  0.492201  1
  Mn  Mn9  1  0.250000  0.089331  0.989575  1
  Mn  Mn10  1  0.750000  0.592550  0.510231  1
  Mn  Mn11  1  0.750000  0.903816  0.008079  1
  Mn  Mn12  1  0.250000  0.218056  0.174424  1
  Fe  Fe13  1  0.250000  0.279038  0.671693  1
  Fe  Fe14  1  0.750000  0.778160  0.827615  1
  Fe  Fe15  1  0.750000  0.721615  0.328884  1
  Fe  Fe16  1  0.250000  0.878050  0.694794  1
  Fe  Fe17  1  0.250000  0.622719  0.196318  1
  Fe  Fe18  1  0.750000  0.127545  0.300039  1
  Fe  Fe19  1  0.750000  0.376269  0.805264  1
  Fe  Fe20  1  0.250000  0.461945  0.936116  1
  Fe  Fe21  1  0.250000  0.039081  0.433820  1
  Fe  Fe22  1  0.750000  0.536731  0.064196  1
  Fe  Fe23  1  0.750000  0.963912  0.563113  1
  P  P24  1  0.250000  0.425625  0.113590  1
  P  P25  1  0.250000  0.077349  0.611659  1
  P  P26  1  0.750000  0.575433  0.886789  1
  P  P27  1  0.750000  0.924467  0.386475  1
  P  P28  1  0.250000  0.268582  0.861274  1
  P  P29  1  0.250000  0.236553  0.367640  1
  P  P30  1  0.750000  0.729503  0.138923  1
  P  P31  1  0.750000  0.770110  0.638664  1
  P  P32  1  0.250000  0.604962  0.382075  1
  P  P33  1  0.250000  0.895702  0.880247  1
  P  P34  1  0.750000  0.396584  0.619712  1
  P  P35  1  0.750000  0.094459  0.113007  1
