# generated using pymatgen
data_TbCr4(CuO4)3
_symmetry_space_group_name_H-M   'P 1'
_cell_length_a   6.40544591
_cell_length_b   6.40545290
_cell_length_c   6.40546497
_cell_angle_alpha   70.50308678
_cell_angle_beta   70.52563693
_cell_angle_gamma   109.44237335
_symmetry_Int_Tables_number   1
_chemical_formula_structural   TbCr4(CuO4)3
_chemical_formula_sum   'Tb1 Cr4 Cu3 O12'
_cell_volume   202.31494790
_cell_formula_units_Z   1
loop_
 _symmetry_equiv_pos_site_id
 _symmetry_equiv_pos_as_xyz
  1  'x, y, z'
loop_
 _atom_site_type_symbol
 _atom_site_label
 _atom_site_symmetry_multiplicity
 _atom_site_fract_x
 _atom_site_fract_y
 _atom_site_fract_z
 _atom_site_occupancy
  Tb  Tb0  1  0.000000  0.999990  0.000003  1
  Cr  Cr1  1  0.999978  0.500037  0.999963  1
  Cr  Cr2  1  0.499948  0.500067  0.500068  1
  Cr  Cr3  1  0.499950  0.999988  0.999988  1
  Cr  Cr4  1  0.000052  0.000083  0.499972  1
  Cu  Cu5  1  0.499996  0.999960  0.499995  1
  Cu  Cu6  1  0.500057  0.499995  0.999982  1
  Cu  Cu7  1  0.000027  0.499973  0.500010  1
  O  O8  1  0.859908  0.693444  0.833536  1
  O  O9  1  0.473017  0.306548  0.833538  1
  O  O10  1  0.526983  0.693440  0.166467  1
  O  O11  1  0.140091  0.306546  0.166461  1
  O  O12  1  0.833814  0.140062  0.693749  1
  O  O13  1  0.833818  0.527564  0.306249  1
  O  O14  1  0.166175  0.472418  0.693756  1
  O  O15  1  0.166183  0.859917  0.306256  1
  O  O16  1  0.306819  0.166581  0.526595  1
  O  O17  1  0.693182  0.166584  0.140233  1
  O  O18  1  0.306825  0.833400  0.859766  1
  O  O19  1  0.693179  0.833403  0.473411  1
