# generated using pymatgen
data_Tb4Lu6Ga7Si
_symmetry_space_group_name_H-M   'P 1'
_cell_length_a   7.44046507
_cell_length_b   7.67834943
_cell_length_c   14.98963600
_cell_angle_alpha   90.00000000
_cell_angle_beta   90.00000000
_cell_angle_gamma   90.22671672
_symmetry_Int_Tables_number   1
_chemical_formula_structural   Tb4Lu6Ga7Si
_chemical_formula_sum   'Tb8 Lu12 Ga14 Si2'
_cell_volume   856.35855649
_cell_formula_units_Z   2
loop_
 _symmetry_equiv_pos_site_id
 _symmetry_equiv_pos_as_xyz
  1  'x, y, z'
loop_
 _atom_site_type_symbol
 _atom_site_label
 _atom_site_symmetry_multiplicity
 _atom_site_fract_x
 _atom_site_fract_y
 _atom_site_fract_z
 _atom_site_occupancy
  Tb  Tb0  1  0.014215  0.178268  0.096986  1
  Tb  Tb1  1  0.985785  0.821732  0.903014  1
  Tb  Tb2  1  0.487796  0.677449  0.903628  1
  Tb  Tb3  1  0.985785  0.821732  0.596986  1
  Tb  Tb4  1  0.512204  0.322551  0.096372  1
  Tb  Tb5  1  0.014215  0.178268  0.403014  1
  Tb  Tb6  1  0.512204  0.322551  0.403628  1
  Tb  Tb7  1  0.487796  0.677449  0.596372  1
  Lu  Lu8  1  0.162081  0.507045  0.750000  1
  Lu  Lu9  1  0.837919  0.492955  0.250000  1
  Lu  Lu10  1  0.336290  0.008884  0.250000  1
  Lu  Lu11  1  0.663710  0.991116  0.750000  1
  Lu  Lu12  1  0.329903  0.174077  0.621607  1
  Lu  Lu13  1  0.670097  0.825923  0.378393  1
  Lu  Lu14  1  0.171404  0.671707  0.377637  1
  Lu  Lu15  1  0.670097  0.825923  0.121607  1
  Lu  Lu16  1  0.828596  0.328293  0.622363  1
  Lu  Lu17  1  0.329903  0.174077  0.878393  1
  Lu  Lu18  1  0.828596  0.328293  0.877637  1
  Lu  Lu19  1  0.171404  0.671707  0.122363  1
  Ga  Ga20  1  0.034386  0.114681  0.750000  1
  Ga  Ga21  1  0.965614  0.885319  0.250000  1
  Ga  Ga22  1  0.464912  0.610527  0.250000  1
  Ga  Ga23  1  0.535088  0.389473  0.750000  1
  Ga  Ga24  1  0.282715  0.872915  0.750000  1
  Ga  Ga25  1  0.717285  0.127085  0.250000  1
  Ga  Ga26  1  0.157339  0.466864  0.539775  1
  Ga  Ga27  1  0.842661  0.533136  0.460225  1
  Ga  Ga28  1  0.340711  0.966666  0.460030  1
  Ga  Ga29  1  0.842661  0.533136  0.039775  1
  Ga  Ga30  1  0.659289  0.033334  0.539970  1
  Ga  Ga31  1  0.157339  0.466864  0.960225  1
  Ga  Ga32  1  0.659289  0.033334  0.960030  1
  Ga  Ga33  1  0.340711  0.966666  0.039970  1
  Si  Si34  1  0.217650  0.375716  0.250000  1
  Si  Si35  1  0.782350  0.624284  0.750000  1
