# generated using pymatgen
data_La4Al17GaIr6
_symmetry_space_group_name_H-M   'P 1'
_cell_length_a   7.65916004
_cell_length_b   7.65916015
_cell_length_c   9.69347400
_cell_angle_alpha   90.00000000
_cell_angle_beta   90.00000000
_cell_angle_gamma   119.30110883
_symmetry_Int_Tables_number   1
_chemical_formula_structural   La4Al17GaIr6
_chemical_formula_sum   'La4 Al17 Ga1 Ir6'
_cell_volume   495.89303953
_cell_formula_units_Z   1
loop_
 _symmetry_equiv_pos_site_id
 _symmetry_equiv_pos_as_xyz
  1  'x, y, z'
loop_
 _atom_site_type_symbol
 _atom_site_label
 _atom_site_symmetry_multiplicity
 _atom_site_fract_x
 _atom_site_fract_y
 _atom_site_fract_z
 _atom_site_occupancy
  La  La0  1  0.995297  0.672030  0.250000  1
  La  La1  1  0.004168  0.329616  0.750000  1
  La  La2  1  0.672030  0.995297  0.250000  1
  La  La3  1  0.329616  0.004168  0.750000  1
  Al  Al4  1  0.867200  0.867200  0.750000  1
  Al  Al5  1  0.004232  0.336004  0.071634  1
  Al  Al6  1  0.995989  0.664370  0.927637  1
  Al  Al7  1  0.995989  0.664370  0.572363  1
  Al  Al8  1  0.336004  0.004232  0.428366  1
  Al  Al9  1  0.004232  0.336004  0.428366  1
  Al  Al10  1  0.664370  0.995989  0.572363  1
  Al  Al11  1  0.664370  0.995989  0.927637  1
  Al  Al12  1  0.336004  0.004232  0.071634  1
  Al  Al13  1  0.334966  0.334966  0.546180  1
  Al  Al14  1  0.664520  0.664520  0.456096  1
  Al  Al15  1  0.664520  0.664520  0.043904  1
  Al  Al16  1  0.334966  0.334966  0.953820  1
  Al  Al17  1  0.337781  0.544287  0.250000  1
  Al  Al18  1  0.661217  0.456144  0.750000  1
  Al  Al19  1  0.544287  0.337781  0.250000  1
  Al  Al20  1  0.456144  0.661217  0.750000  1
  Ga  Ga21  1  0.134962  0.134962  0.250000  1
  Ir  Ir22  1  0.670240  0.329250  0.000240  1
  Ir  Ir23  1  0.329250  0.670240  0.000240  1
  Ir  Ir24  1  0.329250  0.670240  0.499760  1
  Ir  Ir25  1  0.670240  0.329250  0.499760  1
  Ir  Ir26  1  0.999078  0.999078  0.997701  1
  Ir  Ir27  1  0.999078  0.999078  0.502299  1
