# generated using pymatgen
data_Tb2NdCo(P3Ir4)2
_symmetry_space_group_name_H-M   'P 1'
_cell_length_a   3.94532800
_cell_length_b   11.13830200
_cell_length_c   12.85598800
_cell_angle_alpha   90.00000000
_cell_angle_beta   90.00000000
_cell_angle_gamma   90.00000000
_symmetry_Int_Tables_number   1
_chemical_formula_structural   Tb2NdCo(P3Ir4)2
_chemical_formula_sum   'Tb4 Nd2 Co2 P12 Ir16'
_cell_volume   564.94681177
_cell_formula_units_Z   2
loop_
 _symmetry_equiv_pos_site_id
 _symmetry_equiv_pos_as_xyz
  1  'x, y, z'
loop_
 _atom_site_type_symbol
 _atom_site_label
 _atom_site_symmetry_multiplicity
 _atom_site_fract_x
 _atom_site_fract_y
 _atom_site_fract_z
 _atom_site_occupancy
  Tb  Tb0  1  0.500000  0.815858  0.199866  1
  Tb  Tb1  1  0.500000  0.184142  0.199866  1
  Tb  Tb2  1  0.000000  0.684142  0.800134  1
  Tb  Tb3  1  0.000000  0.315858  0.800134  1
  Nd  Nd4  1  0.000000  0.500000  0.522283  1
  Nd  Nd5  1  0.500000  0.000000  0.477717  1
  Co  Co6  1  0.000000  0.500000  0.978453  1
  Co  Co7  1  0.500000  0.000000  0.021547  1
  P  P8  1  0.500000  0.500000  0.882105  1
  P  P9  1  0.000000  0.000000  0.117895  1
  P  P10  1  0.500000  0.500000  0.354605  1
  P  P11  1  0.000000  0.000000  0.645395  1
  P  P12  1  0.500000  0.314387  0.620510  1
  P  P13  1  0.500000  0.685613  0.620510  1
  P  P14  1  0.000000  0.185613  0.379490  1
  P  P15  1  0.000000  0.814387  0.379490  1
  P  P16  1  0.500000  0.851852  0.897243  1
  P  P17  1  0.500000  0.148148  0.897243  1
  P  P18  1  0.000000  0.648148  0.102757  1
  P  P19  1  0.000000  0.351852  0.102757  1
  Ir  Ir20  1  0.500000  0.500000  0.176479  1
  Ir  Ir21  1  0.000000  0.000000  0.823521  1
  Ir  Ir22  1  0.500000  0.500000  0.705797  1
  Ir  Ir23  1  0.000000  0.000000  0.294203  1
  Ir  Ir24  1  0.500000  0.338971  0.997968  1
  Ir  Ir25  1  0.500000  0.661029  0.997968  1
  Ir  Ir26  1  0.000000  0.161029  0.002032  1
  Ir  Ir27  1  0.000000  0.838971  0.002032  1
  Ir  Ir28  1  0.500000  0.290642  0.427866  1
  Ir  Ir29  1  0.500000  0.709358  0.427866  1
  Ir  Ir30  1  0.000000  0.209358  0.572134  1
  Ir  Ir31  1  0.000000  0.790642  0.572134  1
  Ir  Ir32  1  0.500000  0.871178  0.715866  1
  Ir  Ir33  1  0.500000  0.128822  0.715866  1
  Ir  Ir34  1  0.000000  0.628822  0.284134  1
  Ir  Ir35  1  0.000000  0.371178  0.284134  1
