# generated using pymatgen
data_Tb2Y2Al13Ga5Ir6
_symmetry_space_group_name_H-M   'P 1'
_cell_length_a   7.53794300
_cell_length_b   7.53884992
_cell_length_c   9.58447900
_cell_angle_alpha   90.00000000
_cell_angle_beta   90.00000000
_cell_angle_gamma   119.55710609
_symmetry_Int_Tables_number   1
_chemical_formula_structural   Tb2Y2Al13Ga5Ir6
_chemical_formula_sum   'Tb2 Y2 Al13 Ga5 Ir6'
_cell_volume   473.78144631
_cell_formula_units_Z   1
loop_
 _symmetry_equiv_pos_site_id
 _symmetry_equiv_pos_as_xyz
  1  'x, y, z'
loop_
 _atom_site_type_symbol
 _atom_site_label
 _atom_site_symmetry_multiplicity
 _atom_site_fract_x
 _atom_site_fract_y
 _atom_site_fract_z
 _atom_site_occupancy
  Tb  Tb0  1  0.994793  0.670184  0.250000  1
  Tb  Tb1  1  0.670388  0.996157  0.250000  1
  Y  Y2  1  0.000685  0.326006  0.750000  1
  Y  Y3  1  0.330121  0.006898  0.750000  1
  Al  Al4  1  0.002595  0.334993  0.071773  1
  Al  Al5  1  0.999364  0.665409  0.927678  1
  Al  Al6  1  0.999364  0.665409  0.572322  1
  Al  Al7  1  0.334874  0.002016  0.428427  1
  Al  Al8  1  0.002595  0.334993  0.428227  1
  Al  Al9  1  0.664617  0.997770  0.572599  1
  Al  Al10  1  0.664617  0.997770  0.927401  1
  Al  Al11  1  0.334874  0.002016  0.071573  1
  Al  Al12  1  0.333854  0.334359  0.556078  1
  Al  Al13  1  0.665872  0.665817  0.447868  1
  Al  Al14  1  0.665872  0.665817  0.052132  1
  Al  Al15  1  0.333854  0.334359  0.943922  1
  Al  Al16  1  0.450658  0.661342  0.750000  1
  Ga  Ga17  1  0.129155  0.129170  0.250000  1
  Ga  Ga18  1  0.869581  0.868837  0.750000  1
  Ga  Ga19  1  0.338792  0.547052  0.250000  1
  Ga  Ga20  1  0.661826  0.454381  0.750000  1
  Ga  Ga21  1  0.547045  0.339233  0.250000  1
  Ir  Ir22  1  0.672356  0.328142  0.000154  1
  Ir  Ir23  1  0.329479  0.671661  0.997673  1
  Ir  Ir24  1  0.329479  0.671661  0.502327  1
  Ir  Ir25  1  0.672356  0.328142  0.499846  1
  Ir  Ir26  1  0.000468  0.000206  0.999905  1
  Ir  Ir27  1  0.000468  0.000206  0.500095  1
