# generated using pymatgen
data_DyY2Al12Ir3Os
_symmetry_space_group_name_H-M   'P 1'
_cell_length_a   8.79946300
_cell_length_b   8.81946727
_cell_length_c   9.56413000
_cell_angle_alpha   90.00000000
_cell_angle_beta   90.00000000
_cell_angle_gamma   119.92499330
_symmetry_Int_Tables_number   1
_chemical_formula_structural   DyY2Al12Ir3Os
_chemical_formula_sum   'Dy2 Y4 Al24 Ir6 Os2'
_cell_volume   643.28344655
_cell_formula_units_Z   2
loop_
 _symmetry_equiv_pos_site_id
 _symmetry_equiv_pos_as_xyz
  1  'x, y, z'
loop_
 _atom_site_type_symbol
 _atom_site_label
 _atom_site_symmetry_multiplicity
 _atom_site_fract_x
 _atom_site_fract_y
 _atom_site_fract_z
 _atom_site_occupancy
  Dy  Dy0  1  0.191398  0.382796  0.250000  1
  Dy  Dy1  1  0.808602  0.617204  0.750000  1
  Y  Y2  1  0.616833  0.808645  0.250000  1
  Y  Y3  1  0.383167  0.191355  0.750000  1
  Y  Y4  1  0.191812  0.808645  0.250000  1
  Y  Y5  1  0.808188  0.191355  0.750000  1
  Al  Al6  1  0.333316  0.666632  0.031735  1
  Al  Al7  1  0.666684  0.333368  0.968265  1
  Al  Al8  1  0.666684  0.333368  0.531735  1
  Al  Al9  1  0.333316  0.666632  0.468265  1
  Al  Al10  1  0.164132  0.328264  0.574530  1
  Al  Al11  1  0.835868  0.671736  0.425470  1
  Al  Al12  1  0.671961  0.835957  0.574931  1
  Al  Al13  1  0.835868  0.671736  0.074530  1
  Al  Al14  1  0.328039  0.164043  0.425069  1
  Al  Al15  1  0.164132  0.328264  0.925470  1
  Al  Al16  1  0.163996  0.835957  0.574931  1
  Al  Al17  1  0.328039  0.164043  0.074931  1
  Al  Al18  1  0.836004  0.164043  0.425069  1
  Al  Al19  1  0.671961  0.835957  0.925069  1
  Al  Al20  1  0.836004  0.164043  0.074931  1
  Al  Al21  1  0.163996  0.835957  0.925069  1
  Al  Al22  1  0.562412  0.124825  0.250000  1
  Al  Al23  1  0.437588  0.875175  0.750000  1
  Al  Al24  1  0.874876  0.437507  0.250000  1
  Al  Al25  1  0.125124  0.562493  0.750000  1
  Al  Al26  1  0.562631  0.437507  0.250000  1
  Al  Al27  1  0.437369  0.562493  0.750000  1
  Al  Al28  1  0.000363  0.000727  0.250000  1
  Al  Al29  1  0.999637  0.999273  0.750000  1
  Ir  Ir30  1  0.500000  0.000000  0.000000  1
  Ir  Ir31  1  0.000000  0.500000  0.000000  1
  Ir  Ir32  1  0.500000  0.000000  0.500000  1
  Ir  Ir33  1  0.500000  0.500000  0.000000  1
  Ir  Ir34  1  0.000000  0.500000  0.500000  1
  Ir  Ir35  1  0.500000  0.500000  0.500000  1
  Os  Os36  1  0.000000  0.000000  0.000000  1
  Os  Os37  1  0.000000  0.000000  0.500000  1
