# generated using pymatgen
data_Li5Zn2Ir
_symmetry_space_group_name_H-M   'P 1'
_cell_length_a   5.16781400
_cell_length_b   5.63176317
_cell_length_c   4.48771200
_cell_angle_alpha   90.00000000
_cell_angle_beta   90.00000000
_cell_angle_gamma   117.31030830
_symmetry_Int_Tables_number   1
_chemical_formula_structural   Li5Zn2Ir
_chemical_formula_sum   'Li5 Zn2 Ir1'
_cell_volume   116.05146541
_cell_formula_units_Z   1
loop_
 _symmetry_equiv_pos_site_id
 _symmetry_equiv_pos_as_xyz
  1  'x, y, z'
loop_
 _atom_site_type_symbol
 _atom_site_label
 _atom_site_symmetry_multiplicity
 _atom_site_fract_x
 _atom_site_fract_y
 _atom_site_fract_z
 _atom_site_occupancy
  Li  Li0  1  0.673415  0.858597  0.250000  1
  Li  Li1  1  0.185182  0.858597  0.250000  1
  Li  Li2  1  0.813945  0.627891  0.750000  1
  Li  Li3  1  0.315384  0.156651  0.750000  1
  Li  Li4  1  0.841267  0.156651  0.750000  1
  Zn  Zn5  1  0.314647  0.629295  0.750000  1
  Zn  Zn6  1  0.672392  0.344782  0.250000  1
  Ir  Ir7  1  0.183768  0.367536  0.250000  1
