# generated using pymatgen
data_Dy12TlCo6
_symmetry_space_group_name_H-M   'P 1'
_cell_length_a   8.35892072
_cell_length_b   8.35892188
_cell_length_c   8.35892200
_cell_angle_alpha   109.47121851
_cell_angle_beta   109.47122131
_cell_angle_gamma   109.47122401
_symmetry_Int_Tables_number   1
_chemical_formula_structural   Dy12TlCo6
_chemical_formula_sum   'Dy12 Tl1 Co6'
_cell_volume   449.60263121
_cell_formula_units_Z   1
loop_
 _symmetry_equiv_pos_site_id
 _symmetry_equiv_pos_as_xyz
  1  'x, y, z'
loop_
 _atom_site_type_symbol
 _atom_site_label
 _atom_site_symmetry_multiplicity
 _atom_site_fract_x
 _atom_site_fract_y
 _atom_site_fract_z
 _atom_site_occupancy
  Dy  Dy0  1  0.806361  0.697101  0.503463  1
  Dy  Dy1  1  0.193639  0.302899  0.496537  1
  Dy  Dy2  1  0.193639  0.697101  0.890740  1
  Dy  Dy3  1  0.806361  0.302899  0.109260  1
  Dy  Dy4  1  0.697101  0.503463  0.806361  1
  Dy  Dy5  1  0.302899  0.496537  0.193639  1
  Dy  Dy6  1  0.697101  0.890740  0.193639  1
  Dy  Dy7  1  0.302899  0.109260  0.806361  1
  Dy  Dy8  1  0.503463  0.806361  0.697101  1
  Dy  Dy9  1  0.496537  0.193639  0.302899  1
  Dy  Dy10  1  0.109260  0.806361  0.302899  1
  Dy  Dy11  1  0.890740  0.193639  0.697101  1
  Tl  Tl12  1  0.000000  0.000000  0.000000  1
  Co  Co13  1  0.886766  0.386766  0.500000  1
  Co  Co14  1  0.113234  0.613234  0.500000  1
  Co  Co15  1  0.386766  0.500000  0.886766  1
  Co  Co16  1  0.613234  0.500000  0.113234  1
  Co  Co17  1  0.500000  0.886766  0.386766  1
  Co  Co18  1  0.500000  0.113234  0.613234  1
