# generated using pymatgen
data_Li3Y12Th4MgIr4
_symmetry_space_group_name_H-M   'P 1'
_cell_length_a   9.79921296
_cell_length_b   9.80777099
_cell_length_c   9.80777200
_cell_angle_alpha   60.00000334
_cell_angle_beta   59.97110934
_cell_angle_gamma   59.97111545
_symmetry_Int_Tables_number   1
_chemical_formula_structural   Li3Y12Th4MgIr4
_chemical_formula_sum   'Li3 Y12 Th4 Mg1 Ir4'
_cell_volume   666.23450343
_cell_formula_units_Z   1
loop_
 _symmetry_equiv_pos_site_id
 _symmetry_equiv_pos_as_xyz
  1  'x, y, z'
loop_
 _atom_site_type_symbol
 _atom_site_label
 _atom_site_symmetry_multiplicity
 _atom_site_fract_x
 _atom_site_fract_y
 _atom_site_fract_z
 _atom_site_occupancy
  Li  Li0  1  0.829596  0.829713  0.829713  1
  Li  Li1  1  0.829596  0.829713  0.510977  1
  Li  Li2  1  0.829596  0.510977  0.829713  1
  Y  Y3  1  0.064819  0.435243  0.435243  1
  Y  Y4  1  0.435309  0.063842  0.063842  1
  Y  Y5  1  0.435309  0.063842  0.437008  1
  Y  Y6  1  0.064819  0.435243  0.064696  1
  Y  Y7  1  0.435309  0.437008  0.063842  1
  Y  Y8  1  0.064819  0.064696  0.435243  1
  Y  Y9  1  0.184473  0.815486  0.815486  1
  Y  Y10  1  0.815600  0.184489  0.184489  1
  Y  Y11  1  0.815600  0.184489  0.815422  1
  Y  Y12  1  0.184473  0.815486  0.184554  1
  Y  Y13  1  0.815600  0.815422  0.184489  1
  Y  Y14  1  0.184473  0.184554  0.815486  1
  Th  Th15  1  0.598406  0.598954  0.598954  1
  Th  Th16  1  0.598406  0.598954  0.203686  1
  Th  Th17  1  0.598406  0.203686  0.598954  1
  Th  Th18  1  0.204440  0.598520  0.598520  1
  Mg  Mg19  1  0.509349  0.830217  0.830217  1
  Ir  Ir20  1  0.394328  0.393795  0.393795  1
  Ir  Ir21  1  0.394328  0.393795  0.818082  1
  Ir  Ir22  1  0.394328  0.818082  0.393795  1
  Ir  Ir23  1  0.818617  0.393794  0.393794  1
