# generated using pymatgen
data_Hf4Zr6Sn5Sb2
_symmetry_space_group_name_H-M   'P 1'
_cell_length_a   5.90847638
_cell_length_b   8.65481517
_cell_length_c   8.65207732
_cell_angle_alpha   120.01048620
_cell_angle_beta   89.91644824
_cell_angle_gamma   90.16703082
_symmetry_Int_Tables_number   1
_chemical_formula_structural   Hf4Zr6Sn5Sb2
_chemical_formula_sum   'Hf4 Zr6 Sn5 Sb2'
_cell_volume   383.12154928
_cell_formula_units_Z   1
loop_
 _symmetry_equiv_pos_site_id
 _symmetry_equiv_pos_as_xyz
  1  'x, y, z'
loop_
 _atom_site_type_symbol
 _atom_site_label
 _atom_site_symmetry_multiplicity
 _atom_site_fract_x
 _atom_site_fract_y
 _atom_site_fract_z
 _atom_site_occupancy
  Hf  Hf0  1  0.499896  0.334463  0.667874  1
  Hf  Hf1  1  0.499896  0.666589  0.332126  1
  Hf  Hf2  1  0.000785  0.666619  0.332880  1
  Hf  Hf3  1  0.000785  0.333739  0.667120  1
  Zr  Zr4  1  0.771546  0.267665  0.000000  1
  Zr  Zr5  1  0.771450  0.733899  0.734525  1
  Zr  Zr6  1  0.771450  0.999373  0.265475  1
  Zr  Zr7  1  0.229891  0.732051  0.000000  1
  Zr  Zr8  1  0.227636  0.266338  0.266495  1
  Zr  Zr9  1  0.227636  0.999843  0.733505  1
  Sn  Sn10  1  0.743566  0.388990  0.389090  1
  Sn  Sn11  1  0.743566  0.999899  0.610910  1
  Sn  Sn12  1  0.255876  0.386959  0.000000  1
  Sn  Sn13  1  0.255420  0.611347  0.610582  1
  Sn  Sn14  1  0.255420  0.000765  0.389418  1
  Sb  Sb15  1  0.746178  0.610721  0.000000  1
  Sb  Sb16  1  0.498998  0.000744  0.000000  1
