# generated using pymatgen
data_V3RhSe8
_symmetry_space_group_name_H-M   'P 1'
_cell_length_a   6.81424310
_cell_length_b   6.81424333
_cell_length_c   14.63185505
_cell_angle_alpha   70.79175803
_cell_angle_beta   70.79175965
_cell_angle_gamma   60.28854545
_symmetry_Int_Tables_number   1
_chemical_formula_structural   V3RhSe8
_chemical_formula_sum   'V6 Rh2 Se16'
_cell_volume   545.71829680
_cell_formula_units_Z   2
loop_
 _symmetry_equiv_pos_site_id
 _symmetry_equiv_pos_as_xyz
  1  'x, y, z'
loop_
 _atom_site_type_symbol
 _atom_site_label
 _atom_site_symmetry_multiplicity
 _atom_site_fract_x
 _atom_site_fract_y
 _atom_site_fract_z
 _atom_site_occupancy
  V  V0  1  0.031197  0.752386  0.000306  1
  V  V1  1  0.752386  0.031197  0.500306  1
  V  V2  1  0.021481  0.199084  0.003523  1
  V  V3  1  0.471986  0.306582  0.995980  1
  V  V4  1  0.306582  0.471986  0.495980  1
  V  V5  1  0.199084  0.021481  0.503523  1
  Rh  Rh6  1  0.752160  0.457680  0.499527  1
  Rh  Rh7  1  0.457680  0.752160  0.999527  1
  Se  Se8  1  0.208998  0.986087  0.871111  1
  Se  Se9  1  0.537489  0.780804  0.595152  1
  Se  Se10  1  0.224725  0.478490  0.883638  1
  Se  Se11  1  0.734805  0.470122  0.888290  1
  Se  Se12  1  0.967863  0.702041  0.404585  1
  Se  Se13  1  0.518836  0.261177  0.628494  1
  Se  Se14  1  0.702041  0.967863  0.904585  1
  Se  Se15  1  0.986087  0.208998  0.371111  1
  Se  Se16  1  0.261177  0.518836  0.128494  1
  Se  Se17  1  0.033950  0.295263  0.611246  1
  Se  Se18  1  0.026540  0.786732  0.616359  1
  Se  Se19  1  0.295263  0.033950  0.111246  1
  Se  Se20  1  0.478490  0.224725  0.383638  1
  Se  Se21  1  0.470122  0.734805  0.388290  1
  Se  Se22  1  0.786732  0.026540  0.116359  1
  Se  Se23  1  0.780804  0.537489  0.095152  1
