# generated using pymatgen
data_Li6Y11ThOs6
_symmetry_space_group_name_H-M   'P 1'
_cell_length_a   4.99098982
_cell_length_b   6.91035013
_cell_length_c   14.71709500
_cell_angle_alpha   89.99959443
_cell_angle_beta   89.99909670
_cell_angle_gamma   90.06559510
_symmetry_Int_Tables_number   1
_chemical_formula_structural   Li6Y11ThOs6
_chemical_formula_sum   'Li6 Y11 Th1 Os6'
_cell_volume   507.58472615
_cell_formula_units_Z   1
loop_
 _symmetry_equiv_pos_site_id
 _symmetry_equiv_pos_as_xyz
  1  'x, y, z'
loop_
 _atom_site_type_symbol
 _atom_site_label
 _atom_site_symmetry_multiplicity
 _atom_site_fract_x
 _atom_site_fract_y
 _atom_site_fract_z
 _atom_site_occupancy
  Li  Li0  1  0.999910  0.996484  0.999968  1
  Li  Li1  1  0.499237  0.500212  0.168507  1
  Li  Li2  1  0.999388  0.999426  0.334880  1
  Li  Li3  1  0.500111  0.501063  0.500037  1
  Li  Li4  1  0.000697  0.999424  0.665142  1
  Li  Li5  1  0.500722  0.500208  0.831454  1
  Y  Y6  1  0.499841  0.746702  0.999985  1
  Y  Y7  1  0.999482  0.252294  0.170557  1
  Y  Y8  1  0.999769  0.746992  0.167952  1
  Y  Y9  1  0.499822  0.249052  0.334530  1
  Y  Y10  1  0.499405  0.755422  0.333604  1
  Y  Y11  1  0.999718  0.253501  0.500027  1
  Y  Y12  1  0.000208  0.747936  0.500023  1
  Y  Y13  1  0.500632  0.249024  0.665490  1
  Y  Y14  1  0.500225  0.755441  0.666418  1
  Y  Y15  1  0.000270  0.252301  0.829418  1
  Y  Y16  1  0.000623  0.746976  0.832028  1
  Th  Th17  1  0.500232  0.242136  0.999979  1
  Os  Os18  1  0.999981  0.487646  0.999978  1
  Os  Os19  1  0.499502  0.005512  0.161912  1
  Os  Os20  1  0.999619  0.502719  0.333954  1
  Os  Os21  1  0.499963  0.001313  0.500027  1
  Os  Os22  1  0.000343  0.502722  0.666070  1
  Os  Os23  1  0.500299  0.005493  0.838061  1
