# generated using pymatgen
data_Ni8IrS8
_symmetry_space_group_name_H-M   'P 1'
_cell_length_a   7.09978957
_cell_length_b   7.09978984
_cell_length_c   7.09979000
_cell_angle_alpha   59.99999923
_cell_angle_beta   59.99999798
_cell_angle_gamma   59.99999722
_symmetry_Int_Tables_number   1
_chemical_formula_structural   Ni8IrS8
_chemical_formula_sum   'Ni8 Ir1 S8'
_cell_volume   253.05880731
_cell_formula_units_Z   1
loop_
 _symmetry_equiv_pos_site_id
 _symmetry_equiv_pos_as_xyz
  1  'x, y, z'
loop_
 _atom_site_type_symbol
 _atom_site_label
 _atom_site_symmetry_multiplicity
 _atom_site_fract_x
 _atom_site_fract_y
 _atom_site_fract_z
 _atom_site_occupancy
  Ni  Ni0  1  0.619735  0.126755  0.126755  1
  Ni  Ni1  1  0.126755  0.619735  0.126755  1
  Ni  Ni2  1  0.126755  0.126755  0.619735  1
  Ni  Ni3  1  0.126755  0.126755  0.126755  1
  Ni  Ni4  1  0.380265  0.873245  0.873245  1
  Ni  Ni5  1  0.873245  0.380265  0.873245  1
  Ni  Ni6  1  0.873245  0.873245  0.380265  1
  Ni  Ni7  1  0.873245  0.873245  0.873245  1
  Ir  Ir8  1  0.500000  0.500000  0.500000  1
  S  S9  1  0.250000  0.250000  0.250000  1
  S  S10  1  0.750000  0.750000  0.750000  1
  S  S11  1  0.740810  0.259190  0.259190  1
  S  S12  1  0.740810  0.259190  0.740810  1
  S  S13  1  0.740810  0.740810  0.259190  1
  S  S14  1  0.259190  0.740810  0.740810  1
  S  S15  1  0.259190  0.740810  0.259190  1
  S  S16  1  0.259190  0.259190  0.740810  1
