# generated using pymatgen
data_Tm6Sc2Hg3Au7
_symmetry_space_group_name_H-M   'P 1'
_cell_length_a   7.94644142
_cell_length_b   7.94644115
_cell_length_c   7.94644100
_cell_angle_alpha   66.37285954
_cell_angle_beta   66.37286037
_cell_angle_gamma   66.37285203
_symmetry_Int_Tables_number   1
_chemical_formula_structural   Tm6Sc2Hg3Au7
_chemical_formula_sum   'Tm6 Sc2 Hg3 Au7'
_cell_volume   403.57772603
_cell_formula_units_Z   1
loop_
 _symmetry_equiv_pos_site_id
 _symmetry_equiv_pos_as_xyz
  1  'x, y, z'
loop_
 _atom_site_type_symbol
 _atom_site_label
 _atom_site_symmetry_multiplicity
 _atom_site_fract_x
 _atom_site_fract_y
 _atom_site_fract_z
 _atom_site_occupancy
  Tm  Tm0  1  0.895666  0.206159  0.594591  1
  Tm  Tm1  1  0.594591  0.895666  0.206159  1
  Tm  Tm2  1  0.206159  0.594591  0.895666  1
  Tm  Tm3  1  0.108684  0.809279  0.384673  1
  Tm  Tm4  1  0.384673  0.108684  0.809279  1
  Tm  Tm5  1  0.809279  0.384673  0.108684  1
  Sc  Sc6  1  0.662798  0.662798  0.662798  1
  Sc  Sc7  1  0.336855  0.336855  0.336855  1
  Hg  Hg8  1  0.995089  0.995089  0.995089  1
  Hg  Hg9  1  0.499975  0.499975  0.499975  1
  Hg  Hg10  1  0.816860  0.816860  0.816860  1
  Au  Au11  1  0.189882  0.189882  0.189882  1
  Au  Au12  1  0.933065  0.563543  0.308375  1
  Au  Au13  1  0.308375  0.933065  0.563543  1
  Au  Au14  1  0.563543  0.308375  0.933065  1
  Au  Au15  1  0.065058  0.450119  0.679329  1
  Au  Au16  1  0.679329  0.065058  0.450119  1
  Au  Au17  1  0.450119  0.679329  0.065058  1
