# generated using pymatgen
data_La2Pr2TmRu2
_symmetry_space_group_name_H-M   'P 1'
_cell_length_a   6.62138559
_cell_length_b   7.24368006
_cell_length_c   9.01381385
_cell_angle_alpha   95.45467180
_cell_angle_beta   111.54864441
_cell_angle_gamma   90.00000074
_symmetry_Int_Tables_number   1
_chemical_formula_structural   La2Pr2TmRu2
_chemical_formula_sum   'La4 Pr4 Tm2 Ru4'
_cell_volume   400.00842598
_cell_formula_units_Z   2
loop_
 _symmetry_equiv_pos_site_id
 _symmetry_equiv_pos_as_xyz
  1  'x, y, z'
loop_
 _atom_site_type_symbol
 _atom_site_label
 _atom_site_symmetry_multiplicity
 _atom_site_fract_x
 _atom_site_fract_y
 _atom_site_fract_z
 _atom_site_occupancy
  La  La0  1  0.794227  0.093352  0.815215  1
  La  La1  1  0.979012  0.406648  0.184785  1
  La  La2  1  0.205773  0.906648  0.184785  1
  La  La3  1  0.020988  0.593352  0.815215  1
  Pr  Pr4  1  0.208467  0.186398  0.573852  1
  Pr  Pr5  1  0.634615  0.313602  0.426148  1
  Pr  Pr6  1  0.791533  0.813602  0.426148  1
  Pr  Pr7  1  0.365385  0.686398  0.573852  1
  Tm  Tm8  1  0.432391  0.250000  0.000000  1
  Tm  Tm9  1  0.567609  0.750000  0.000000  1
  Ru  Ru10  1  0.609162  0.419076  0.789249  1
  Ru  Ru11  1  0.819912  0.080924  0.210751  1
  Ru  Ru12  1  0.390838  0.580924  0.210751  1
  Ru  Ru13  1  0.180088  0.919076  0.789249  1
