# generated using pymatgen
data_Lu12Co4TcBi
_symmetry_space_group_name_H-M   'P 1'
_cell_length_a   8.13191580
_cell_length_b   8.13191412
_cell_length_c   8.13191554
_cell_angle_alpha   111.91314770
_cell_angle_beta   110.47277020
_cell_angle_gamma   106.08345308
_symmetry_Int_Tables_number   1
_chemical_formula_structural   Lu12Co4TcBi
_chemical_formula_sum   'Lu12 Co4 Tc1 Bi1'
_cell_volume   412.81157425
_cell_formula_units_Z   1
loop_
 _symmetry_equiv_pos_site_id
 _symmetry_equiv_pos_as_xyz
  1  'x, y, z'
loop_
 _atom_site_type_symbol
 _atom_site_label
 _atom_site_symmetry_multiplicity
 _atom_site_fract_x
 _atom_site_fract_y
 _atom_site_fract_z
 _atom_site_occupancy
  Lu  Lu0  1  0.419634  0.220433  0.199200  1
  Lu  Lu1  1  0.580366  0.779567  0.800800  1
  Lu  Lu2  1  0.021232  0.220433  0.800800  1
  Lu  Lu3  1  0.978768  0.779567  0.199200  1
  Lu  Lu4  1  0.180923  0.275493  0.456417  1
  Lu  Lu5  1  0.819077  0.724507  0.543583  1
  Lu  Lu6  1  0.180923  0.724507  0.905430  1
  Lu  Lu7  1  0.819077  0.275493  0.094570  1
  Lu  Lu8  1  0.310732  0.619791  0.309059  1
  Lu  Lu9  1  0.689268  0.380209  0.690941  1
  Lu  Lu10  1  0.310732  0.001672  0.690941  1
  Lu  Lu11  1  0.689268  0.998328  0.309059  1
  Co  Co12  1  0.374946  0.000000  0.374946  1
  Co  Co13  1  0.625054  0.000000  0.625054  1
  Co  Co14  1  0.111740  0.611740  0.500000  1
  Co  Co15  1  0.888260  0.388260  0.500000  1
  Tc  Tc16  1  0.000000  0.000000  0.000000  1
  Bi  Bi17  1  0.500000  0.500000  0.000000  1
