# generated using pymatgen
data_Yb3ScCd2Pt3
_symmetry_space_group_name_H-M   'P 1'
_cell_length_a   7.27596400
_cell_length_b   7.42453350
_cell_length_c   4.25162400
_cell_angle_alpha   90.00000000
_cell_angle_beta   90.00000000
_cell_angle_gamma   119.34024150
_symmetry_Int_Tables_number   1
_chemical_formula_structural   Yb3ScCd2Pt3
_chemical_formula_sum   'Yb3 Sc1 Cd2 Pt3'
_cell_volume   200.21390395
_cell_formula_units_Z   1
loop_
 _symmetry_equiv_pos_site_id
 _symmetry_equiv_pos_as_xyz
  1  'x, y, z'
loop_
 _atom_site_type_symbol
 _atom_site_label
 _atom_site_symmetry_multiplicity
 _atom_site_fract_x
 _atom_site_fract_y
 _atom_site_fract_z
 _atom_site_occupancy
  Yb  Yb0  1  0.397875  0.000000  0.000000  1
  Yb  Yb1  1  0.008393  0.420889  0.000000  1
  Yb  Yb2  1  0.587505  0.579111  0.000000  1
  Sc  Sc3  1  0.753486  0.000000  0.500000  1
  Cd  Cd4  1  0.997724  0.746565  0.500000  1
  Cd  Cd5  1  0.251159  0.253435  0.500000  1
  Pt  Pt6  1  0.353728  0.680886  0.500000  1
  Pt  Pt7  1  0.672842  0.319114  0.500000  1
  Pt  Pt8  1  0.977287  0.000000  0.000000  1
