# generated using pymatgen
data_Rb8Na4TbLu3Sb8
_symmetry_space_group_name_H-M   'P 1'
_cell_length_a   11.29932430
_cell_length_b   11.29932330
_cell_length_c   7.44614500
_cell_angle_alpha   90.07824099
_cell_angle_beta   89.92175992
_cell_angle_gamma   98.94355691
_symmetry_Int_Tables_number   1
_chemical_formula_structural   Rb8Na4TbLu3Sb8
_chemical_formula_sum   'Rb8 Na4 Tb1 Lu3 Sb8'
_cell_volume   939.12449726
_cell_formula_units_Z   1
loop_
 _symmetry_equiv_pos_site_id
 _symmetry_equiv_pos_as_xyz
  1  'x, y, z'
loop_
 _atom_site_type_symbol
 _atom_site_label
 _atom_site_symmetry_multiplicity
 _atom_site_fract_x
 _atom_site_fract_y
 _atom_site_fract_z
 _atom_site_occupancy
  Rb  Rb0  1  0.072174  0.428277  0.250370  1
  Rb  Rb1  1  0.428277  0.072174  0.749630  1
  Rb  Rb2  1  0.927824  0.572148  0.749841  1
  Rb  Rb3  1  0.572148  0.927824  0.250159  1
  Rb  Rb4  1  0.675396  0.324516  0.216574  1
  Rb  Rb5  1  0.824135  0.175461  0.716167  1
  Rb  Rb6  1  0.324516  0.675396  0.783426  1
  Rb  Rb7  1  0.175461  0.824135  0.283833  1
  Na  Na8  1  0.382606  0.382606  0.000000  1
  Na  Na9  1  0.117791  0.117791  0.500000  1
  Na  Na10  1  0.617776  0.617776  0.000000  1
  Na  Na11  1  0.882089  0.882089  0.500000  1
  Tb  Tb12  1  0.130954  0.130954  0.000000  1
  Lu  Lu13  1  0.370102  0.370102  0.500000  1
  Lu  Lu14  1  0.868985  0.868985  0.000000  1
  Lu  Lu15  1  0.629956  0.629956  0.500000  1
  Sb  Sb16  1  0.845235  0.654833  0.249831  1
  Sb  Sb17  1  0.654833  0.845235  0.750169  1
  Sb  Sb18  1  0.155121  0.348487  0.746077  1
  Sb  Sb19  1  0.348487  0.155121  0.253923  1
  Sb  Sb20  1  0.896930  0.099000  0.210812  1
  Sb  Sb21  1  0.599828  0.400374  0.708073  1
  Sb  Sb22  1  0.099000  0.896930  0.789188  1
  Sb  Sb23  1  0.400374  0.599828  0.291927  1
