# generated using pymatgen
data_Zr2Ta(VSi2)2
_symmetry_space_group_name_H-M   'P 1'
_cell_length_a   6.72231800
_cell_length_b   6.72231800
_cell_length_c   12.48115800
_cell_angle_alpha   90.00000000
_cell_angle_beta   90.00000000
_cell_angle_gamma   90.00000000
_symmetry_Int_Tables_number   1
_chemical_formula_structural   Zr2Ta(VSi2)2
_chemical_formula_sum   'Zr8 Ta4 V8 Si16'
_cell_volume   564.01802949
_cell_formula_units_Z   4
loop_
 _symmetry_equiv_pos_site_id
 _symmetry_equiv_pos_as_xyz
  1  'x, y, z'
loop_
 _atom_site_type_symbol
 _atom_site_label
 _atom_site_symmetry_multiplicity
 _atom_site_fract_x
 _atom_site_fract_y
 _atom_site_fract_z
 _atom_site_occupancy
  Zr  Zr0  1  0.003610  0.661917  0.030320  1
  Zr  Zr1  1  0.996390  0.338083  0.530320  1
  Zr  Zr2  1  0.661917  0.003610  0.969680  1
  Zr  Zr3  1  0.161917  0.496390  0.780320  1
  Zr  Zr4  1  0.838083  0.503610  0.280320  1
  Zr  Zr5  1  0.496390  0.161917  0.219680  1
  Zr  Zr6  1  0.503610  0.838083  0.719680  1
  Zr  Zr7  1  0.338083  0.996390  0.469680  1
  Ta  Ta8  1  0.665566  0.665566  0.500000  1
  Ta  Ta9  1  0.834434  0.165566  0.750000  1
  Ta  Ta10  1  0.165566  0.834434  0.250000  1
  Ta  Ta11  1  0.334434  0.334434  0.000000  1
  V  V12  1  0.340131  0.505967  0.377164  1
  V  V13  1  0.840131  0.994033  0.372836  1
  V  V14  1  0.005967  0.159869  0.127164  1
  V  V15  1  0.994033  0.840131  0.627164  1
  V  V16  1  0.659869  0.494033  0.877164  1
  V  V17  1  0.505967  0.340131  0.622836  1
  V  V18  1  0.494033  0.659869  0.122836  1
  V  V19  1  0.159869  0.005967  0.872836  1
  Si  Si20  1  0.041927  0.708464  0.438144  1
  Si  Si21  1  0.958073  0.291536  0.938144  1
  Si  Si22  1  0.708464  0.041927  0.561856  1
  Si  Si23  1  0.208464  0.458073  0.188144  1
  Si  Si24  1  0.791536  0.541927  0.688144  1
  Si  Si25  1  0.458073  0.208464  0.811856  1
  Si  Si26  1  0.541927  0.791536  0.311856  1
  Si  Si27  1  0.291536  0.958073  0.061856  1
  Si  Si28  1  0.875368  0.790182  0.823141  1
  Si  Si29  1  0.124632  0.209818  0.323141  1
  Si  Si30  1  0.790182  0.875368  0.176859  1
  Si  Si31  1  0.290182  0.624632  0.573141  1
  Si  Si32  1  0.709818  0.375368  0.073141  1
  Si  Si33  1  0.624632  0.290182  0.426859  1
  Si  Si34  1  0.375368  0.709818  0.926859  1
  Si  Si35  1  0.209818  0.124632  0.676859  1
