# generated using pymatgen
data_Hf15ZrCoNi3Mo4
_symmetry_space_group_name_H-M   'P 1'
_cell_length_a   8.69713236
_cell_length_b   8.70481087
_cell_length_c   8.71073650
_cell_angle_alpha   60.02249401
_cell_angle_beta   60.03253465
_cell_angle_gamma   59.97079098
_symmetry_Int_Tables_number   1
_chemical_formula_structural   Hf15ZrCoNi3Mo4
_chemical_formula_sum   'Hf15 Zr1 Co1 Ni3 Mo4'
_cell_volume   466.40128650
_cell_formula_units_Z   1
loop_
 _symmetry_equiv_pos_site_id
 _symmetry_equiv_pos_as_xyz
  1  'x, y, z'
loop_
 _atom_site_type_symbol
 _atom_site_label
 _atom_site_symmetry_multiplicity
 _atom_site_fract_x
 _atom_site_fract_y
 _atom_site_fract_z
 _atom_site_occupancy
  Hf  Hf0  1  0.192138  0.602516  0.602830  1
  Hf  Hf1  1  0.602969  0.196048  0.600139  1
  Hf  Hf2  1  0.602969  0.600844  0.600139  1
  Hf  Hf3  1  0.602975  0.600215  0.196595  1
  Hf  Hf4  1  0.452129  0.454348  0.047156  1
  Hf  Hf5  1  0.046498  0.052159  0.449585  1
  Hf  Hf6  1  0.452129  0.046367  0.047156  1
  Hf  Hf7  1  0.046498  0.451758  0.449585  1
  Hf  Hf8  1  0.046355  0.450541  0.052563  1
  Hf  Hf9  1  0.452746  0.047220  0.452814  1
  Hf  Hf10  1  0.815340  0.813323  0.186238  1
  Hf  Hf11  1  0.186793  0.184798  0.814682  1
  Hf  Hf12  1  0.815340  0.185099  0.186238  1
  Hf  Hf13  1  0.186793  0.813727  0.814682  1
  Hf  Hf14  1  0.185133  0.815078  0.184711  1
  Zr  Zr15  1  0.816762  0.183793  0.815652  1
  Co  Co16  1  0.825012  0.392212  0.390567  1
  Ni  Ni17  1  0.390633  0.826349  0.391356  1
  Ni  Ni18  1  0.390633  0.391663  0.391356  1
  Ni  Ni19  1  0.390225  0.391691  0.826395  1
  Mo  Mo20  1  0.500807  0.833137  0.832919  1
  Mo  Mo21  1  0.833056  0.500866  0.833646  1
  Mo  Mo22  1  0.833056  0.832432  0.833646  1
  Mo  Mo23  1  0.833013  0.833817  0.499352  1
