# generated using pymatgen
data_Hf3In2OF12
_symmetry_space_group_name_H-M   'P 1'
_cell_length_a   10.93717128
_cell_length_b   10.93717143
_cell_length_c   10.93717083
_cell_angle_alpha   41.52481621
_cell_angle_beta   41.52481641
_cell_angle_gamma   41.52481088
_symmetry_Int_Tables_number   1
_chemical_formula_structural   Hf3In2OF12
_chemical_formula_sum   'Hf6 In4 O2 F24'
_cell_volume   519.63722829
_cell_formula_units_Z   2
loop_
 _symmetry_equiv_pos_site_id
 _symmetry_equiv_pos_as_xyz
  1  'x, y, z'
loop_
 _atom_site_type_symbol
 _atom_site_label
 _atom_site_symmetry_multiplicity
 _atom_site_fract_x
 _atom_site_fract_y
 _atom_site_fract_z
 _atom_site_occupancy
  Hf  Hf0  1  0.576195  0.576195  0.028731  1
  Hf  Hf1  1  0.028731  0.576195  0.576195  1
  Hf  Hf2  1  0.576195  0.028731  0.576195  1
  Hf  Hf3  1  0.423805  0.971269  0.423805  1
  Hf  Hf4  1  0.971269  0.423805  0.423805  1
  Hf  Hf5  1  0.423805  0.423805  0.971269  1
  In  In6  1  0.000000  0.000000  0.000000  1
  In  In7  1  0.500000  0.500000  0.500000  1
  In  In8  1  0.141213  0.141213  0.141213  1
  In  In9  1  0.858787  0.858787  0.858787  1
  O  O10  1  0.713178  0.713178  0.713178  1
  O  O11  1  0.286822  0.286822  0.286822  1
  F  F12  1  0.706547  0.706547  0.372320  1
  F  F13  1  0.372320  0.706547  0.706547  1
  F  F14  1  0.706547  0.372320  0.706547  1
  F  F15  1  0.293453  0.627680  0.293453  1
  F  F16  1  0.293453  0.293453  0.627680  1
  F  F17  1  0.627680  0.293453  0.293453  1
  F  F18  1  0.909040  0.909040  0.406076  1
  F  F19  1  0.406076  0.909040  0.909040  1
  F  F20  1  0.647058  0.352942  0.000000  1
  F  F21  1  0.352942  0.000000  0.647058  1
  F  F22  1  0.000000  0.647058  0.352942  1
  F  F23  1  0.352942  0.647058  0.000000  1
  F  F24  1  0.647058  0.000000  0.352942  1
  F  F25  1  0.000000  0.352942  0.647058  1
  F  F26  1  0.918051  0.350315  0.350315  1
  F  F27  1  0.350315  0.350315  0.918051  1
  F  F28  1  0.350315  0.918051  0.350315  1
  F  F29  1  0.649685  0.081949  0.649685  1
  F  F30  1  0.081949  0.649685  0.649685  1
  F  F31  1  0.649685  0.649685  0.081949  1
  F  F32  1  0.593924  0.090960  0.090960  1
  F  F33  1  0.090960  0.090960  0.593924  1
  F  F34  1  0.090960  0.593924  0.090960  1
  F  F35  1  0.909040  0.406076  0.909040  1
