# generated using pymatgen
data_Zr5Co16Si7Mo3P5
_symmetry_space_group_name_H-M   'P 1'
_cell_length_a   12.05262618
_cell_length_b   12.06404247
_cell_length_c   3.64254700
_cell_angle_alpha   90.00000000
_cell_angle_beta   90.00000000
_cell_angle_gamma   119.98843070
_symmetry_Int_Tables_number   1
_chemical_formula_structural   Zr5Co16Si7Mo3P5
_chemical_formula_sum   'Zr5 Co16 Si7 Mo3 P5'
_cell_volume   458.73402985
_cell_formula_units_Z   1
loop_
 _symmetry_equiv_pos_site_id
 _symmetry_equiv_pos_as_xyz
  1  'x, y, z'
loop_
 _atom_site_type_symbol
 _atom_site_label
 _atom_site_symmetry_multiplicity
 _atom_site_fract_x
 _atom_site_fract_y
 _atom_site_fract_z
 _atom_site_occupancy
  Zr  Zr0  1  0.667030  0.333364  0.000000  1
  Zr  Zr1  1  0.331882  0.665865  0.000000  1
  Zr  Zr2  1  0.819600  0.819479  0.500000  1
  Zr  Zr3  1  0.180194  0.000879  0.500000  1
  Zr  Zr4  1  0.998799  0.179354  0.500000  1
  Co  Co5  1  0.198076  0.373762  0.000000  1
  Co  Co6  1  0.174135  0.801866  0.000000  1
  Co  Co7  1  0.827766  0.631323  0.000000  1
  Co  Co8  1  0.804747  0.173602  0.000000  1
  Co  Co9  1  0.367804  0.195732  0.000000  1
  Co  Co10  1  0.131807  0.485155  0.500000  1
  Co  Co11  1  0.349743  0.870508  0.500000  1
  Co  Co12  1  0.515325  0.642698  0.500000  1
  Co  Co13  1  0.646128  0.521750  0.500000  1
  Co  Co14  1  0.877353  0.354341  0.500000  1
  Co  Co15  1  0.476789  0.123578  0.500000  1
  Co  Co16  1  0.000459  0.000297  0.000000  1
  Co  Co17  1  0.724584  0.999440  0.500000  1
  Co  Co18  1  0.003109  0.724427  0.500000  1
  Co  Co19  1  0.629695  0.824716  0.000000  1
  Co  Co20  1  0.275042  0.278832  0.500000  1
  Si  Si21  1  0.644581  0.644195  0.000000  1
  Si  Si22  1  0.354892  0.999620  0.000000  1
  Si  Si23  1  0.000193  0.355382  0.000000  1
  Si  Si24  1  0.481678  0.313407  0.500000  1
  Si  Si25  1  0.686467  0.167990  0.500000  1
  Si  Si26  1  0.832338  0.518037  0.500000  1
  Si  Si27  1  0.517976  0.831795  0.500000  1
  Mo  Mo28  1  0.442648  0.443299  0.000000  1
  Mo  Mo29  1  0.556688  0.999552  0.000000  1
  Mo  Mo30  1  0.001910  0.557046  0.000000  1
  P  P31  1  0.167480  0.687002  0.500000  1
  P  P32  1  0.823381  0.999164  0.000000  1
  P  P33  1  0.000381  0.824296  0.000000  1
  P  P34  1  0.313932  0.481303  0.500000  1
  P  P35  1  0.175388  0.176943  0.000000  1
