# generated using pymatgen
data_PrNdGa5Ir3
_symmetry_space_group_name_H-M   'P 1'
_cell_length_a   8.67053711
_cell_length_b   8.66900579
_cell_length_c   8.66900610
_cell_angle_alpha   140.74852390
_cell_angle_beta   108.28437213
_cell_angle_gamma   84.94283302
_symmetry_Int_Tables_number   1
_chemical_formula_structural   PrNdGa5Ir3
_chemical_formula_sum   'Pr2 Nd2 Ga10 Ir6'
_cell_volume   378.25322187
_cell_formula_units_Z   2
loop_
 _symmetry_equiv_pos_site_id
 _symmetry_equiv_pos_as_xyz
  1  'x, y, z'
loop_
 _atom_site_type_symbol
 _atom_site_label
 _atom_site_symmetry_multiplicity
 _atom_site_fract_x
 _atom_site_fract_y
 _atom_site_fract_z
 _atom_site_occupancy
  Pr  Pr0  1  0.865928  0.635630  0.230297  1
  Pr  Pr1  1  0.134072  0.364370  0.769703  1
  Nd  Nd2  1  0.405385  0.135692  0.269694  1
  Nd  Nd3  1  0.594615  0.864308  0.730306  1
  Ga  Ga4  1  0.500000  0.750133  0.250133  1
  Ga  Ga5  1  0.500000  0.249867  0.749867  1
  Ga  Ga6  1  0.207963  0.957860  0.750302  1
  Ga  Ga7  1  0.792037  0.542338  0.749896  1
  Ga  Ga8  1  0.792037  0.042140  0.249698  1
  Ga  Ga9  1  0.207963  0.457662  0.250104  1
  Ga  Ga10  1  0.077778  0.907701  0.170077  1
  Ga  Ga11  1  0.922222  0.092299  0.829923  1
  Ga  Ga12  1  0.737429  0.407514  0.329914  1
  Ga  Ga13  1  0.262571  0.592486  0.670086  1
  Ir  Ir14  1  0.000000  0.750162  0.750162  1
  Ir  Ir15  1  0.000000  0.249838  0.249838  1
  Ir  Ir16  1  0.257181  0.852593  0.404588  1
  Ir  Ir17  1  0.742819  0.147407  0.595412  1
  Ir  Ir18  1  0.448307  0.352482  0.095826  1
  Ir  Ir19  1  0.551693  0.647518  0.904174  1
