# generated using pymatgen
data_La6Nd2GaPd24
_symmetry_space_group_name_H-M   'P 1'
_cell_length_a   8.54489400
_cell_length_b   8.54787619
_cell_length_c   8.54787619
_cell_angle_alpha   90.02394285
_cell_angle_beta   90.00000000
_cell_angle_gamma   90.00000000
_symmetry_Int_Tables_number   1
_chemical_formula_structural   La6Nd2GaPd24
_chemical_formula_sum   'La6 Nd2 Ga1 Pd24'
_cell_volume   624.34277096
_cell_formula_units_Z   1
loop_
 _symmetry_equiv_pos_site_id
 _symmetry_equiv_pos_as_xyz
  1  'x, y, z'
loop_
 _atom_site_type_symbol
 _atom_site_label
 _atom_site_symmetry_multiplicity
 _atom_site_fract_x
 _atom_site_fract_y
 _atom_site_fract_z
 _atom_site_occupancy
  La  La0  1  0.252059  0.252053  0.747947  1
  La  La1  1  0.252059  0.747947  0.252053  1
  La  La2  1  0.748060  0.251972  0.251972  1
  La  La3  1  0.748060  0.748028  0.748028  1
  La  La4  1  0.747960  0.747977  0.252023  1
  La  La5  1  0.747960  0.252023  0.747977  1
  Nd  Nd6  1  0.251620  0.748301  0.748301  1
  Nd  Nd7  1  0.251620  0.251699  0.251699  1
  Ga  Ga8  1  0.000187  0.000000  0.000000  1
  Pd  Pd9  1  0.499739  0.500439  0.746451  1
  Pd  Pd10  1  0.499739  0.253549  0.499561  1
  Pd  Pd11  1  0.253545  0.500000  0.500000  1
  Pd  Pd12  1  0.499739  0.499561  0.253549  1
  Pd  Pd13  1  0.499739  0.746451  0.500439  1
  Pd  Pd14  1  0.746459  0.500000  0.500000  1
  Pd  Pd15  1  0.000328  0.999545  0.706371  1
  Pd  Pd16  1  0.000328  0.293629  0.000455  1
  Pd  Pd17  1  0.293609  0.000000  0.000000  1
  Pd  Pd18  1  0.000328  0.000455  0.293629  1
  Pd  Pd19  1  0.000328  0.706371  0.999545  1
  Pd  Pd20  1  0.706298  0.000000  0.000000  1
  Pd  Pd21  1  0.000265  0.500415  0.739277  1
  Pd  Pd22  1  0.499778  0.260726  0.000424  1
  Pd  Pd23  1  0.260738  0.000000  0.500000  1
  Pd  Pd24  1  0.000265  0.260723  0.499585  1
  Pd  Pd25  1  0.499778  0.999576  0.739274  1
  Pd  Pd26  1  0.260738  0.500000  0.000000  1
  Pd  Pd27  1  0.000265  0.499585  0.260723  1
  Pd  Pd28  1  0.499778  0.739274  0.999576  1
  Pd  Pd29  1  0.000265  0.739277  0.500415  1
  Pd  Pd30  1  0.499778  0.000424  0.260726  1
  Pd  Pd31  1  0.739295  0.000000  0.500000  1
  Pd  Pd32  1  0.739295  0.500000  0.000000  1
