# generated using pymatgen
data_Ho4Ge2B4(RuRh)5
_symmetry_space_group_name_H-M   'P 1'
_cell_length_a   9.55778279
_cell_length_b   9.57041178
_cell_length_c   3.09680000
_cell_angle_alpha   90.00000000
_cell_angle_beta   90.00000000
_cell_angle_gamma   89.95352997
_symmetry_Int_Tables_number   1
_chemical_formula_structural   Ho4Ge2B4(RuRh)5
_chemical_formula_sum   'Ho4 Ge2 B4 Ru5 Rh5'
_cell_volume   283.27013949
_cell_formula_units_Z   1
loop_
 _symmetry_equiv_pos_site_id
 _symmetry_equiv_pos_as_xyz
  1  'x, y, z'
loop_
 _atom_site_type_symbol
 _atom_site_label
 _atom_site_symmetry_multiplicity
 _atom_site_fract_x
 _atom_site_fract_y
 _atom_site_fract_z
 _atom_site_occupancy
  Ho  Ho0  1  0.826840  0.321061  0.000000  1
  Ho  Ho1  1  0.322216  0.173077  0.000000  1
  Ho  Ho2  1  0.675646  0.827075  0.000000  1
  Ho  Ho3  1  0.176114  0.676562  0.000000  1
  Ge  Ge4  1  0.000964  0.004885  0.000000  1
  Ge  Ge5  1  0.499628  0.499673  0.000000  1
  B  B6  1  0.625303  0.115803  0.000000  1
  B  B7  1  0.117413  0.375603  0.000000  1
  B  B8  1  0.881403  0.620891  0.000000  1
  B  B9  1  0.374215  0.883574  0.000000  1
  Ru  Ru10  1  0.069979  0.217545  0.500000  1
  Ru  Ru11  1  0.213956  0.929798  0.500000  1
  Ru  Ru12  1  0.785009  0.067712  0.500000  1
  Ru  Ru13  1  0.499534  0.999920  0.500000  1
  Ru  Ru14  1  0.000116  0.501702  0.500000  1
  Rh  Rh15  1  0.929712  0.783624  0.500000  1
  Rh  Rh16  1  0.431901  0.715703  0.500000  1
  Rh  Rh17  1  0.569063  0.283997  0.500000  1
  Rh  Rh18  1  0.716272  0.570137  0.500000  1
  Rh  Rh19  1  0.284717  0.431657  0.500000  1
