# generated using pymatgen
data_Pr10SnPb5Cl2
_symmetry_space_group_name_H-M   'P 1'
_cell_length_a   9.64151200
_cell_length_b   9.61549594
_cell_length_c   6.85826500
_cell_angle_alpha   90.00000000
_cell_angle_beta   90.00000000
_cell_angle_gamma   120.08954226
_symmetry_Int_Tables_number   1
_chemical_formula_structural   Pr10SnPb5Cl2
_chemical_formula_sum   'Pr10 Sn1 Pb5 Cl2'
_cell_volume   550.13485630
_cell_formula_units_Z   1
loop_
 _symmetry_equiv_pos_site_id
 _symmetry_equiv_pos_as_xyz
  1  'x, y, z'
loop_
 _atom_site_type_symbol
 _atom_site_label
 _atom_site_symmetry_multiplicity
 _atom_site_fract_x
 _atom_site_fract_y
 _atom_site_fract_z
 _atom_site_occupancy
  Pr  Pr0  1  0.261202  0.000000  0.750000  1
  Pr  Pr1  1  0.739915  0.000000  0.250000  1
  Pr  Pr2  1  0.997446  0.256703  0.750000  1
  Pr  Pr3  1  0.999726  0.740173  0.250000  1
  Pr  Pr4  1  0.740744  0.743297  0.750000  1
  Pr  Pr5  1  0.259553  0.259827  0.250000  1
  Pr  Pr6  1  0.334642  0.668413  0.501692  1
  Pr  Pr7  1  0.666230  0.331587  0.501692  1
  Pr  Pr8  1  0.666230  0.331587  0.998308  1
  Pr  Pr9  1  0.334642  0.668413  0.998308  1
  Sn  Sn10  1  0.612051  0.000000  0.750000  1
  Pb  Pb11  1  0.387148  0.000000  0.250000  1
  Pb  Pb12  1  0.999345  0.612251  0.750000  1
  Pb  Pb13  1  0.000460  0.387951  0.250000  1
  Pb  Pb14  1  0.387094  0.387749  0.750000  1
  Pb  Pb15  1  0.612508  0.612049  0.250000  1
  Cl  Cl16  1  0.000532  0.000000  0.499778  1
  Cl  Cl17  1  0.000532  0.000000  0.000222  1
