# generated using pymatgen
data_Rb8Lu2O7
_symmetry_space_group_name_H-M   'P 1'
_cell_length_a   18.69330800
_cell_length_b   7.20443082
_cell_length_c   7.25144134
_cell_angle_alpha   61.11588686
_cell_angle_beta   90.00000000
_cell_angle_gamma   90.00000000
_symmetry_Int_Tables_number   1
_chemical_formula_structural   Rb8Lu2O7
_chemical_formula_sum   'Rb16 Lu4 O14'
_cell_volume   855.09660632
_cell_formula_units_Z   2
loop_
 _symmetry_equiv_pos_site_id
 _symmetry_equiv_pos_as_xyz
  1  'x, y, z'
loop_
 _atom_site_type_symbol
 _atom_site_label
 _atom_site_symmetry_multiplicity
 _atom_site_fract_x
 _atom_site_fract_y
 _atom_site_fract_z
 _atom_site_occupancy
  Rb  Rb0  1  0.705139  0.549174  0.222866  1
  Rb  Rb1  1  0.588572  0.004276  0.641615  1
  Rb  Rb2  1  0.794861  0.049174  0.222866  1
  Rb  Rb3  1  0.294861  0.450826  0.777134  1
  Rb  Rb4  1  0.691304  0.454780  0.782295  1
  Rb  Rb5  1  0.411428  0.995724  0.358385  1
  Rb  Rb6  1  0.308696  0.545220  0.217705  1
  Rb  Rb7  1  0.504481  0.526794  0.239825  1
  Rb  Rb8  1  0.808696  0.954780  0.782295  1
  Rb  Rb9  1  0.995519  0.026794  0.239825  1
  Rb  Rb10  1  0.088572  0.495724  0.358385  1
  Rb  Rb11  1  0.004481  0.973206  0.760175  1
  Rb  Rb12  1  0.495519  0.473206  0.760175  1
  Rb  Rb13  1  0.911428  0.504276  0.641615  1
  Rb  Rb14  1  0.191304  0.045220  0.217705  1
  Rb  Rb15  1  0.205139  0.950826  0.777134  1
  Lu  Lu16  1  0.097891  0.500020  0.850468  1
  Lu  Lu17  1  0.402109  0.000020  0.850468  1
  Lu  Lu18  1  0.597891  0.999980  0.149532  1
  Lu  Lu19  1  0.902109  0.499980  0.149532  1
  O  O20  1  0.319633  0.002258  0.045600  1
  O  O21  1  0.398996  0.274584  0.556624  1
  O  O22  1  0.898996  0.225416  0.443376  1
  O  O23  1  0.101004  0.774584  0.556624  1
  O  O24  1  0.180367  0.502258  0.045600  1
  O  O25  1  0.393728  0.723027  0.825121  1
  O  O26  1  0.893728  0.776973  0.174879  1
  O  O27  1  0.601004  0.725416  0.443376  1
  O  O28  1  0.000000  0.500000  0.000000  1
  O  O29  1  0.606272  0.276973  0.174879  1
  O  O30  1  0.680367  0.997742  0.954400  1
  O  O31  1  0.819633  0.497742  0.954400  1
  O  O32  1  0.500000  0.000000  0.000000  1
  O  O33  1  0.106272  0.223027  0.825121  1
