# generated using pymatgen
data_Cs4USe5
_symmetry_space_group_name_H-M   'P 1'
_cell_length_a   8.62873534
_cell_length_b   8.72228626
_cell_length_c   12.75895185
_cell_angle_alpha   101.41852234
_cell_angle_beta   110.10841895
_cell_angle_gamma   103.31090680
_symmetry_Int_Tables_number   1
_chemical_formula_structural   Cs4USe5
_chemical_formula_sum   'Cs8 U2 Se10'
_cell_volume   836.18354252
_cell_formula_units_Z   2
loop_
 _symmetry_equiv_pos_site_id
 _symmetry_equiv_pos_as_xyz
  1  'x, y, z'
loop_
 _atom_site_type_symbol
 _atom_site_label
 _atom_site_symmetry_multiplicity
 _atom_site_fract_x
 _atom_site_fract_y
 _atom_site_fract_z
 _atom_site_occupancy
  Cs  Cs0  1  0.575804  0.793735  0.094201  1
  Cs  Cs1  1  0.203085  0.589532  0.702704  1
  Cs  Cs2  1  0.599132  0.296336  0.599283  1
  Cs  Cs3  1  0.400868  0.703664  0.400717  1
  Cs  Cs4  1  0.424196  0.206265  0.905799  1
  Cs  Cs5  1  0.000000  0.000000  0.500000  1
  Cs  Cs6  1  0.000000  0.500000  0.000000  1
  Cs  Cs7  1  0.796915  0.410468  0.297296  1
  U  U8  1  0.182847  0.095971  0.187841  1
  U  U9  1  0.817153  0.904029  0.812159  1
  Se  Se10  1  0.352582  0.370788  0.156359  1
  Se  Se11  1  0.647418  0.629212  0.843641  1
  Se  Se12  1  0.175570  0.286972  0.378359  1
  Se  Se13  1  0.824430  0.713028  0.621641  1
  Se  Se14  1  0.973655  0.172558  0.767338  1
  Se  Se15  1  0.026345  0.827442  0.232662  1
  Se  Se16  1  0.857810  0.098484  0.033044  1
  Se  Se17  1  0.142190  0.901516  0.966956  1
  Se  Se18  1  0.507848  0.938095  0.700249  1
  Se  Se19  1  0.492152  0.061905  0.299751  1
