# generated using pymatgen
data_Ca5Cu2Ag
_symmetry_space_group_name_H-M   'P 1'
_cell_length_a   9.23671827
_cell_length_b   9.23671810
_cell_length_c   9.23671897
_cell_angle_alpha   130.20944887
_cell_angle_beta   130.20944562
_cell_angle_gamma   73.07215072
_symmetry_Int_Tables_number   1
_chemical_formula_structural   Ca5Cu2Ag
_chemical_formula_sum   'Ca10 Cu4 Ag2'
_cell_volume   448.82098085
_cell_formula_units_Z   2
loop_
 _symmetry_equiv_pos_site_id
 _symmetry_equiv_pos_as_xyz
  1  'x, y, z'
loop_
 _atom_site_type_symbol
 _atom_site_label
 _atom_site_symmetry_multiplicity
 _atom_site_fract_x
 _atom_site_fract_y
 _atom_site_fract_z
 _atom_site_occupancy
  Ca  Ca0  1  0.472650  0.972650  0.161848  1
  Ca  Ca1  1  0.189199  0.689199  0.161848  1
  Ca  Ca2  1  0.527350  0.027350  0.838152  1
  Ca  Ca3  1  0.027350  0.189199  0.500000  1
  Ca  Ca4  1  0.689199  0.527350  0.500000  1
  Ca  Ca5  1  0.972650  0.810801  0.500000  1
  Ca  Ca6  1  0.000000  0.000000  0.000000  1
  Ca  Ca7  1  0.500000  0.500000  0.000000  1
  Ca  Ca8  1  0.810801  0.310801  0.838152  1
  Ca  Ca9  1  0.310801  0.472650  0.500000  1
  Cu  Cu10  1  0.114556  0.614556  0.729110  1
  Cu  Cu11  1  0.614556  0.885444  0.500000  1
  Cu  Cu12  1  0.385444  0.114556  0.500000  1
  Cu  Cu13  1  0.885444  0.385444  0.270890  1
  Ag  Ag14  1  0.750000  0.750000  0.000000  1
  Ag  Ag15  1  0.250000  0.250000  0.000000  1
