# generated using pymatgen
data_Yb10InBiPt4
_symmetry_space_group_name_H-M   'P 1'
_cell_length_a   9.09571436
_cell_length_b   9.09571494
_cell_length_c   9.09571377
_cell_angle_alpha   129.33733455
_cell_angle_beta   129.33733924
_cell_angle_gamma   74.46838604
_symmetry_Int_Tables_number   1
_chemical_formula_structural   Yb10InBiPt4
_chemical_formula_sum   'Yb10 In1 Bi1 Pt4'
_cell_volume   438.69550764
_cell_formula_units_Z   1
loop_
 _symmetry_equiv_pos_site_id
 _symmetry_equiv_pos_as_xyz
  1  'x, y, z'
loop_
 _atom_site_type_symbol
 _atom_site_label
 _atom_site_symmetry_multiplicity
 _atom_site_fract_x
 _atom_site_fract_y
 _atom_site_fract_z
 _atom_site_occupancy
  Yb  Yb0  1  0.000532  0.000532  0.000000  1
  Yb  Yb1  1  0.499468  0.499468  0.000000  1
  Yb  Yb2  1  0.794899  0.293718  0.830293  1
  Yb  Yb3  1  0.206282  0.705101  0.169707  1
  Yb  Yb4  1  0.463424  0.964605  0.169707  1
  Yb  Yb5  1  0.293718  0.463424  0.498819  1
  Yb  Yb6  1  0.036576  0.206282  0.501181  1
  Yb  Yb7  1  0.535395  0.036576  0.830293  1
  Yb  Yb8  1  0.705101  0.535395  0.498819  1
  Yb  Yb9  1  0.964605  0.794899  0.501181  1
  In  In10  1  0.250000  0.250000  0.000000  1
  Bi  Bi11  1  0.750000  0.750000  0.000000  1
  Pt  Pt12  1  0.132175  0.632175  0.764350  1
  Pt  Pt13  1  0.867825  0.367825  0.235650  1
  Pt  Pt14  1  0.632175  0.867825  0.500000  1
  Pt  Pt15  1  0.367825  0.132175  0.500000  1
