# generated using pymatgen
data_ZrNbGePRh2
_symmetry_space_group_name_H-M   'P 1'
_cell_length_a   3.84649800
_cell_length_b   6.52455700
_cell_length_c   7.45513600
_cell_angle_alpha   90.00000000
_cell_angle_beta   90.00000000
_cell_angle_gamma   90.00000000
_symmetry_Int_Tables_number   1
_chemical_formula_structural   ZrNbGePRh2
_chemical_formula_sum   'Zr2 Nb2 Ge2 P2 Rh4'
_cell_volume   187.09927774
_cell_formula_units_Z   2
loop_
 _symmetry_equiv_pos_site_id
 _symmetry_equiv_pos_as_xyz
  1  'x, y, z'
loop_
 _atom_site_type_symbol
 _atom_site_label
 _atom_site_symmetry_multiplicity
 _atom_site_fract_x
 _atom_site_fract_y
 _atom_site_fract_z
 _atom_site_occupancy
  Zr  Zr0  1  0.250000  0.024563  0.822205  1
  Zr  Zr1  1  0.250000  0.524563  0.677795  1
  Nb  Nb2  1  0.750000  0.969975  0.179098  1
  Nb  Nb3  1  0.750000  0.469975  0.320902  1
  Ge  Ge4  1  0.250000  0.762626  0.369475  1
  Ge  Ge5  1  0.250000  0.262626  0.130525  1
  P  P6  1  0.750000  0.238109  0.615663  1
  P  P7  1  0.750000  0.738109  0.884337  1
  Rh  Rh8  1  0.250000  0.146954  0.449397  1
  Rh  Rh9  1  0.250000  0.646954  0.050603  1
  Rh  Rh10  1  0.750000  0.857772  0.573314  1
  Rh  Rh11  1  0.750000  0.357772  0.926686  1
