# generated using pymatgen
data_Cs12K2Li2Si15Sn
_symmetry_space_group_name_H-M   'P 1'
_cell_length_a   8.22789748
_cell_length_b   11.20248277
_cell_length_c   13.42909040
_cell_angle_alpha   92.22493138
_cell_angle_beta   89.67048181
_cell_angle_gamma   89.80909848
_symmetry_Int_Tables_number   1
_chemical_formula_structural   Cs12K2Li2Si15Sn
_chemical_formula_sum   'Cs12 K2 Li2 Si15 Sn1'
_cell_volume   1236.83649735
_cell_formula_units_Z   1
loop_
 _symmetry_equiv_pos_site_id
 _symmetry_equiv_pos_as_xyz
  1  'x, y, z'
loop_
 _atom_site_type_symbol
 _atom_site_label
 _atom_site_symmetry_multiplicity
 _atom_site_fract_x
 _atom_site_fract_y
 _atom_site_fract_z
 _atom_site_occupancy
  Cs  Cs0  1  0.646490  0.274349  0.393975  1
  Cs  Cs1  1  0.143777  0.225760  0.110091  1
  Cs  Cs2  1  0.350860  0.724765  0.598852  1
  Cs  Cs3  1  0.860275  0.773540  0.890250  1
  Cs  Cs4  1  0.655237  0.429046  0.691307  1
  Cs  Cs5  1  0.154559  0.083266  0.811897  1
  Cs  Cs6  1  0.352481  0.951413  0.310088  1
  Cs  Cs7  1  0.849670  0.552899  0.192325  1
  Cs  Cs8  1  0.341216  0.572858  0.310835  1
  Cs  Cs9  1  0.842650  0.925515  0.189261  1
  Cs  Cs10  1  0.641085  0.046013  0.695311  1
  Cs  Cs11  1  0.149702  0.442658  0.805086  1
  K  K12  1  0.497871  0.495665  0.006913  1
  K  K13  1  0.997642  0.999413  0.501929  1
  Li  Li14  1  0.502695  0.003805  0.003563  1
  Li  Li15  1  0.998547  0.500607  0.500079  1
  Si  Si16  1  0.844610  0.730421  0.587125  1
  Si  Si17  1  0.653067  0.228770  0.090794  1
  Si  Si18  1  0.153860  0.267551  0.409966  1
  Si  Si19  1  0.728755  0.602406  0.453754  1
  Si  Si20  1  0.231742  0.899418  0.047801  1
  Si  Si21  1  0.291541  0.185540  0.554610  1
  Si  Si22  1  0.795688  0.314317  0.948849  1
  Si  Si23  1  0.024766  0.279405  0.575455  1
  Si  Si24  1  0.530435  0.221612  0.923913  1
  Si  Si25  1  0.972689  0.720744  0.421183  1
  Si  Si26  1  0.473855  0.779433  0.081955  1
  Si  Si27  1  0.206631  0.688828  0.059472  1
  Si  Si28  1  0.706369  0.814024  0.443576  1
  Si  Si29  1  0.773085  0.102465  0.956140  1
  Si  Si30  1  0.269327  0.396863  0.542622  1
  Sn  Sn31  1  0.358820  0.766632  0.891024  1
