# generated using pymatgen
data_Er3Tm5Sc12Si13Pt3
_symmetry_space_group_name_H-M   'P 1'
_cell_length_a   7.07675833
_cell_length_b   7.41128868
_cell_length_c   13.97226110
_cell_angle_alpha   89.71033408
_cell_angle_beta   89.62374667
_cell_angle_gamma   90.69719001
_symmetry_Int_Tables_number   1
_chemical_formula_structural   Er3Tm5Sc12Si13Pt3
_chemical_formula_sum   'Er3 Tm5 Sc12 Si13 Pt3'
_cell_volume   732.73602050
_cell_formula_units_Z   1
loop_
 _symmetry_equiv_pos_site_id
 _symmetry_equiv_pos_as_xyz
  1  'x, y, z'
loop_
 _atom_site_type_symbol
 _atom_site_label
 _atom_site_symmetry_multiplicity
 _atom_site_fract_x
 _atom_site_fract_y
 _atom_site_fract_z
 _atom_site_occupancy
  Er  Er0  1  0.009162  0.177539  0.094279  1
  Er  Er1  1  0.990295  0.823019  0.906077  1
  Er  Er2  1  0.487512  0.680398  0.906399  1
  Tm  Tm3  1  0.990601  0.819202  0.594290  1
  Tm  Tm4  1  0.511903  0.321425  0.094625  1
  Tm  Tm5  1  0.010988  0.179118  0.405737  1
  Tm  Tm6  1  0.507823  0.321571  0.404888  1
  Tm  Tm7  1  0.486928  0.671778  0.595539  1
  Sc  Sc8  1  0.158844  0.503413  0.748348  1
  Sc  Sc9  1  0.841582  0.497495  0.251490  1
  Sc  Sc10  1  0.332465  0.002225  0.250504  1
  Sc  Sc11  1  0.667154  0.995627  0.748902  1
  Sc  Sc12  1  0.331670  0.181402  0.622630  1
  Sc  Sc13  1  0.673846  0.825831  0.373943  1
  Sc  Sc14  1  0.171360  0.667737  0.378072  1
  Sc  Sc15  1  0.675084  0.827064  0.125006  1
  Sc  Sc16  1  0.829529  0.328050  0.624829  1
  Sc  Sc17  1  0.325621  0.172976  0.874745  1
  Sc  Sc18  1  0.831641  0.321825  0.875167  1
  Sc  Sc19  1  0.170845  0.676964  0.124678  1
  Si  Si20  1  0.468824  0.608732  0.248262  1
  Si  Si21  1  0.533510  0.392275  0.753875  1
  Si  Si22  1  0.288654  0.867437  0.750504  1
  Si  Si23  1  0.711190  0.135625  0.249459  1
  Si  Si24  1  0.221664  0.370653  0.247599  1
  Si  Si25  1  0.780402  0.629367  0.753110  1
  Si  Si26  1  0.830441  0.533328  0.460228  1
  Si  Si27  1  0.343955  0.964466  0.459528  1
  Si  Si28  1  0.842060  0.532523  0.038993  1
  Si  Si29  1  0.658330  0.030845  0.539165  1
  Si  Si30  1  0.156109  0.468054  0.960859  1
  Si  Si31  1  0.656390  0.033018  0.960644  1
  Si  Si32  1  0.343257  0.968851  0.040354  1
  Pt  Pt33  1  0.034755  0.112452  0.747172  1
  Pt  Pt34  1  0.968430  0.893965  0.250554  1
  Pt  Pt35  1  0.157175  0.463748  0.539549  1
