# generated using pymatgen
data_Tb2Yb(SiPd)3
_symmetry_space_group_name_H-M   'P 1'
_cell_length_a   4.34668600
_cell_length_b   7.45388600
_cell_length_c   21.21417300
_cell_angle_alpha   90.00000000
_cell_angle_beta   90.00000000
_cell_angle_gamma   90.00000000
_symmetry_Int_Tables_number   1
_chemical_formula_structural   Tb2Yb(SiPd)3
_chemical_formula_sum   'Tb8 Yb4 Si12 Pd12'
_cell_volume   687.33288172
_cell_formula_units_Z   4
loop_
 _symmetry_equiv_pos_site_id
 _symmetry_equiv_pos_as_xyz
  1  'x, y, z'
loop_
 _atom_site_type_symbol
 _atom_site_label
 _atom_site_symmetry_multiplicity
 _atom_site_fract_x
 _atom_site_fract_y
 _atom_site_fract_z
 _atom_site_occupancy
  Tb  Tb0  1  0.250000  0.795627  0.166602  1
  Tb  Tb1  1  0.750000  0.204373  0.833398  1
  Tb  Tb2  1  0.750000  0.295627  0.333398  1
  Tb  Tb3  1  0.250000  0.704373  0.666602  1
  Tb  Tb4  1  0.250000  0.706639  0.000353  1
  Tb  Tb5  1  0.750000  0.293361  0.999647  1
  Tb  Tb6  1  0.750000  0.206639  0.499647  1
  Tb  Tb7  1  0.250000  0.793361  0.500353  1
  Yb  Yb8  1  0.250000  0.704700  0.332107  1
  Yb  Yb9  1  0.750000  0.295300  0.667893  1
  Yb  Yb10  1  0.750000  0.204700  0.167893  1
  Yb  Yb11  1  0.250000  0.795300  0.832107  1
  Si  Si12  1  0.250000  0.086562  0.065716  1
  Si  Si13  1  0.750000  0.913438  0.934284  1
  Si  Si14  1  0.750000  0.586562  0.434284  1
  Si  Si15  1  0.250000  0.413438  0.565716  1
  Si  Si16  1  0.250000  0.086706  0.274119  1
  Si  Si17  1  0.750000  0.913294  0.725881  1
  Si  Si18  1  0.750000  0.586706  0.225881  1
  Si  Si19  1  0.250000  0.413294  0.774119  1
  Si  Si20  1  0.250000  0.089333  0.394864  1
  Si  Si21  1  0.750000  0.910667  0.605136  1
  Si  Si22  1  0.750000  0.589333  0.105136  1
  Si  Si23  1  0.250000  0.410667  0.894864  1
  Pd  Pd24  1  0.250000  0.415173  0.236828  1
  Pd  Pd25  1  0.750000  0.584827  0.763172  1
  Pd  Pd26  1  0.750000  0.915173  0.263172  1
  Pd  Pd27  1  0.250000  0.084827  0.736828  1
  Pd  Pd28  1  0.250000  0.418611  0.436374  1
  Pd  Pd29  1  0.750000  0.581389  0.563626  1
  Pd  Pd30  1  0.750000  0.918611  0.063626  1
  Pd  Pd31  1  0.250000  0.081389  0.936374  1
  Pd  Pd32  1  0.250000  0.416847  0.093290  1
  Pd  Pd33  1  0.750000  0.583153  0.906710  1
  Pd  Pd34  1  0.750000  0.916847  0.406710  1
  Pd  Pd35  1  0.250000  0.083153  0.593290  1
