# generated using pymatgen
data_Tb3CeF12
_symmetry_space_group_name_H-M   'P 1'
_cell_length_a   4.50316111
_cell_length_b   6.56844399
_cell_length_c   7.07445900
_cell_angle_alpha   90.00000000
_cell_angle_beta   90.00000000
_cell_angle_gamma   90.87466931
_symmetry_Int_Tables_number   1
_chemical_formula_structural   Tb3CeF12
_chemical_formula_sum   'Tb3 Ce1 F12'
_cell_volume   209.22935331
_cell_formula_units_Z   1
loop_
 _symmetry_equiv_pos_site_id
 _symmetry_equiv_pos_as_xyz
  1  'x, y, z'
loop_
 _atom_site_type_symbol
 _atom_site_label
 _atom_site_symmetry_multiplicity
 _atom_site_fract_x
 _atom_site_fract_y
 _atom_site_fract_z
 _atom_site_occupancy
  Tb  Tb0  1  0.439543  0.871253  0.250000  1
  Tb  Tb1  1  0.561038  0.133096  0.750000  1
  Tb  Tb2  1  0.060586  0.364592  0.250000  1
  Ce  Ce3  1  0.943583  0.634842  0.750000  1
  F  F4  1  0.374382  0.163511  0.434045  1
  F  F5  1  0.877031  0.326997  0.557945  1
  F  F6  1  0.127397  0.661308  0.069964  1
  F  F7  1  0.612767  0.843868  0.937609  1
  F  F8  1  0.596264  0.527173  0.250000  1
  F  F9  1  0.088169  0.990546  0.750000  1
  F  F10  1  0.907438  0.020774  0.250000  1
  F  F11  1  0.420225  0.466357  0.750000  1
  F  F12  1  0.374382  0.163511  0.065955  1
  F  F13  1  0.877031  0.326997  0.942055  1
  F  F14  1  0.127397  0.661308  0.430036  1
  F  F15  1  0.612767  0.843868  0.562391  1
