# generated using pymatgen
data_HfZrNb2(Co4P3)2
_symmetry_space_group_name_H-M   'P 1'
_cell_length_a   11.94501667
_cell_length_b   11.94501632
_cell_length_c   3.64773400
_cell_angle_alpha   90.00000000
_cell_angle_beta   90.00000000
_cell_angle_gamma   119.90529578
_symmetry_Int_Tables_number   1
_chemical_formula_structural   HfZrNb2(Co4P3)2
_chemical_formula_sum   'Hf2 Zr2 Nb4 Co16 P12'
_cell_volume   451.17077303
_cell_formula_units_Z   2
loop_
 _symmetry_equiv_pos_site_id
 _symmetry_equiv_pos_as_xyz
  1  'x, y, z'
loop_
 _atom_site_type_symbol
 _atom_site_label
 _atom_site_symmetry_multiplicity
 _atom_site_fract_x
 _atom_site_fract_y
 _atom_site_fract_z
 _atom_site_occupancy
  Hf  Hf0  1  0.822910  0.000098  0.500000  1
  Hf  Hf1  1  0.000098  0.822910  0.500000  1
  Zr  Zr2  1  0.333444  0.666788  0.000000  1
  Zr  Zr3  1  0.666788  0.333444  0.000000  1
  Nb  Nb4  1  0.178570  0.178570  0.500000  1
  Nb  Nb5  1  0.446462  0.000012  0.000000  1
  Nb  Nb6  1  0.000012  0.446462  0.000000  1
  Nb  Nb7  1  0.552846  0.552846  0.000000  1
  Co  Co8  1  0.276197  0.001202  0.500000  1
  Co  Co9  1  0.001202  0.276197  0.500000  1
  Co  Co10  1  0.723044  0.723044  0.500000  1
  Co  Co11  1  0.628474  0.807251  0.000000  1
  Co  Co12  1  0.192879  0.821356  0.000000  1
  Co  Co13  1  0.179068  0.370689  0.000000  1
  Co  Co14  1  0.370689  0.179068  0.000000  1
  Co  Co15  1  0.807251  0.628474  0.000000  1
  Co  Co16  1  0.821356  0.192879  0.000000  1
  Co  Co17  1  0.516286  0.871417  0.500000  1
  Co  Co18  1  0.128142  0.645017  0.500000  1
  Co  Co19  1  0.354225  0.482039  0.500000  1
  Co  Co20  1  0.482039  0.354225  0.500000  1
  Co  Co21  1  0.871417  0.516286  0.500000  1
  Co  Co22  1  0.645017  0.128142  0.500000  1
  Co  Co23  1  0.000669  0.000669  0.000000  1
  P  P24  1  0.175667  0.000986  0.000000  1
  P  P25  1  0.000986  0.175667  0.000000  1
  P  P26  1  0.825253  0.825253  0.000000  1
  P  P27  1  0.519296  0.688808  0.500000  1
  P  P28  1  0.310356  0.830685  0.500000  1
  P  P29  1  0.169830  0.480510  0.500000  1
  P  P30  1  0.480510  0.169830  0.500000  1
  P  P31  1  0.688808  0.519296  0.500000  1
  P  P32  1  0.830685  0.310356  0.500000  1
  P  P33  1  0.649046  0.000088  0.000000  1
  P  P34  1  0.000088  0.649046  0.000000  1
  P  P35  1  0.350392  0.350392  0.000000  1
