# generated using pymatgen
data_LiTmB6Rh
_symmetry_space_group_name_H-M   'P 1'
_cell_length_a   3.52873400
_cell_length_b   8.86934440
_cell_length_c   11.23387200
_cell_angle_alpha   90.14751379
_cell_angle_beta   90.00000000
_cell_angle_gamma   90.00000000
_symmetry_Int_Tables_number   1
_chemical_formula_structural   LiTmB6Rh
_chemical_formula_sum   'Li4 Tm4 B24 Rh4'
_cell_volume   351.59158539
_cell_formula_units_Z   4
loop_
 _symmetry_equiv_pos_site_id
 _symmetry_equiv_pos_as_xyz
  1  'x, y, z'
loop_
 _atom_site_type_symbol
 _atom_site_label
 _atom_site_symmetry_multiplicity
 _atom_site_fract_x
 _atom_site_fract_y
 _atom_site_fract_z
 _atom_site_occupancy
  Li  Li0  1  0.500000  0.446154  0.122714  1
  Li  Li1  1  0.500000  0.554032  0.876462  1
  Li  Li2  1  0.500000  0.054069  0.624290  1
  Li  Li3  1  0.500000  0.945909  0.376603  1
  Tm  Tm4  1  0.500000  0.317530  0.414282  1
  Tm  Tm5  1  0.500000  0.682285  0.585759  1
  Tm  Tm6  1  0.500000  0.182445  0.914188  1
  Tm  Tm7  1  0.500000  0.817551  0.085799  1
  B  B8  1  0.000000  0.091130  0.475110  1
  B  B9  1  0.000000  0.908801  0.524975  1
  B  B10  1  0.000000  0.408809  0.974979  1
  B  B11  1  0.000000  0.591399  0.024914  1
  B  B12  1  0.000000  0.125224  0.318876  1
  B  B13  1  0.000000  0.874811  0.681094  1
  B  B14  1  0.000000  0.374973  0.819011  1
  B  B15  1  0.000000  0.625021  0.180967  1
  B  B16  1  0.000000  0.055752  0.067263  1
  B  B17  1  0.000000  0.944250  0.932602  1
  B  B18  1  0.000000  0.444188  0.567525  1
  B  B19  1  0.000000  0.555657  0.432590  1
  B  B20  1  0.000000  0.479570  0.285137  1
  B  B21  1  0.000000  0.520386  0.714935  1
  B  B22  1  0.000000  0.020336  0.785431  1
  B  B23  1  0.000000  0.979650  0.214532  1
  B  B24  1  0.000000  0.258011  0.081489  1
  B  B25  1  0.000000  0.742157  0.918413  1
  B  B26  1  0.000000  0.241977  0.581764  1
  B  B27  1  0.000000  0.757876  0.418390  1
  B  B28  1  0.000000  0.293711  0.235912  1
  B  B29  1  0.000000  0.706379  0.763985  1
  B  B30  1  0.000000  0.206229  0.736146  1
  B  B31  1  0.000000  0.793742  0.263940  1
  Rh  Rh32  1  0.500000  0.140667  0.181768  1
  Rh  Rh33  1  0.500000  0.859361  0.818135  1
  Rh  Rh34  1  0.500000  0.359373  0.682043  1
  Rh  Rh35  1  0.500000  0.640585  0.317978  1
