# generated using pymatgen
data_K4HfTeI12
_symmetry_space_group_name_H-M   'P 1'
_cell_length_a   8.49738341
_cell_length_b   8.19013016
_cell_length_c   14.20981109
_cell_angle_alpha   54.94787891
_cell_angle_beta   90.00756491
_cell_angle_gamma   89.82558702
_symmetry_Int_Tables_number   1
_chemical_formula_structural   K4HfTeI12
_chemical_formula_sum   'K4 Hf1 Te1 I12'
_cell_volume   809.55952088
_cell_formula_units_Z   1
loop_
 _symmetry_equiv_pos_site_id
 _symmetry_equiv_pos_as_xyz
  1  'x, y, z'
loop_
 _atom_site_type_symbol
 _atom_site_label
 _atom_site_symmetry_multiplicity
 _atom_site_fract_x
 _atom_site_fract_y
 _atom_site_fract_z
 _atom_site_occupancy
  K  K0  1  0.577986  0.725448  0.251779  1
  K  K1  1  0.077181  0.273879  0.247457  1
  K  K2  1  0.422014  0.274552  0.748221  1
  K  K3  1  0.922819  0.726121  0.752543  1
  Hf  Hf4  1  0.000000  0.000000  0.000000  1
  Te  Te5  1  0.500000  0.000000  0.500000  1
  I  I6  1  0.993829  0.840187  0.239291  1
  I  I7  1  0.493218  0.163561  0.251384  1
  I  I8  1  0.006171  0.159813  0.760709  1
  I  I9  1  0.506782  0.836439  0.748616  1
  I  I10  1  0.696142  0.657684  0.546964  1
  I  I11  1  0.186521  0.328931  0.956275  1
  I  I12  1  0.303858  0.342316  0.453036  1
  I  I13  1  0.813479  0.671069  0.043725  1
  I  I14  1  0.716507  0.220419  0.964468  1
  I  I15  1  0.207093  0.770059  0.537235  1
  I  I16  1  0.283493  0.779581  0.035532  1
  I  I17  1  0.792907  0.229941  0.462765  1
