# generated using pymatgen
data_Y6Tm14Cd6TcRu
_symmetry_space_group_name_H-M   'P 1'
_cell_length_a   9.48254000
_cell_length_b   9.48253954
_cell_length_c   9.78591800
_cell_angle_alpha   90.00000000
_cell_angle_beta   90.00000000
_cell_angle_gamma   120.00000161
_symmetry_Int_Tables_number   1
_chemical_formula_structural   Y6Tm14Cd6TcRu
_chemical_formula_sum   'Y6 Tm14 Cd6 Tc1 Ru1'
_cell_volume   762.04662250
_cell_formula_units_Z   1
loop_
 _symmetry_equiv_pos_site_id
 _symmetry_equiv_pos_as_xyz
  1  'x, y, z'
loop_
 _atom_site_type_symbol
 _atom_site_label
 _atom_site_symmetry_multiplicity
 _atom_site_fract_x
 _atom_site_fract_y
 _atom_site_fract_z
 _atom_site_occupancy
  Y  Y0  1  0.539683  0.460317  0.250000  1
  Y  Y1  1  0.539683  0.079366  0.250000  1
  Y  Y2  1  0.920634  0.460317  0.250000  1
  Y  Y3  1  0.459213  0.540787  0.750000  1
  Y  Y4  1  0.459213  0.918427  0.750000  1
  Y  Y5  1  0.081573  0.540787  0.750000  1
  Tm  Tm6  1  0.000000  0.000000  0.500252  1
  Tm  Tm7  1  0.000000  0.000000  0.999748  1
  Tm  Tm8  1  0.209911  0.790089  0.441370  1
  Tm  Tm9  1  0.209911  0.419822  0.441370  1
  Tm  Tm10  1  0.580178  0.790089  0.441370  1
  Tm  Tm11  1  0.789907  0.210093  0.559170  1
  Tm  Tm12  1  0.789907  0.579811  0.559170  1
  Tm  Tm13  1  0.420189  0.210093  0.559170  1
  Tm  Tm14  1  0.789907  0.210093  0.940830  1
  Tm  Tm15  1  0.789907  0.579811  0.940830  1
  Tm  Tm16  1  0.420189  0.210093  0.940830  1
  Tm  Tm17  1  0.209911  0.790089  0.058630  1
  Tm  Tm18  1  0.209911  0.419822  0.058630  1
  Tm  Tm19  1  0.580178  0.790089  0.058630  1
  Cd  Cd20  1  0.885792  0.114208  0.250000  1
  Cd  Cd21  1  0.885792  0.771586  0.250000  1
  Cd  Cd22  1  0.228414  0.114208  0.250000  1
  Cd  Cd23  1  0.113994  0.886006  0.750000  1
  Cd  Cd24  1  0.113994  0.227987  0.750000  1
  Cd  Cd25  1  0.772013  0.886006  0.750000  1
  Tc  Tc26  1  0.333333  0.666667  0.250000  1
  Ru  Ru27  1  0.666667  0.333333  0.750000  1
