# generated using pymatgen
data_Dy6Tm10InAg3Ir4
_symmetry_space_group_name_H-M   'P 1'
_cell_length_a   9.49709512
_cell_length_b   9.52158101
_cell_length_c   9.52158000
_cell_angle_alpha   59.99999655
_cell_angle_beta   59.91467201
_cell_angle_gamma   59.91467817
_symmetry_Int_Tables_number   1
_chemical_formula_structural   Dy6Tm10InAg3Ir4
_chemical_formula_sum   'Dy6 Tm10 In1 Ag3 Ir4'
_cell_volume   608.04056971
_cell_formula_units_Z   1
loop_
 _symmetry_equiv_pos_site_id
 _symmetry_equiv_pos_as_xyz
  1  'x, y, z'
loop_
 _atom_site_type_symbol
 _atom_site_label
 _atom_site_symmetry_multiplicity
 _atom_site_fract_x
 _atom_site_fract_y
 _atom_site_fract_z
 _atom_site_occupancy
  Dy  Dy0  1  0.183921  0.812706  0.812706  1
  Dy  Dy1  1  0.810892  0.188056  0.188056  1
  Dy  Dy2  1  0.810892  0.188056  0.812994  1
  Dy  Dy3  1  0.183921  0.812706  0.190668  1
  Dy  Dy4  1  0.810892  0.812994  0.188056  1
  Dy  Dy5  1  0.183921  0.190668  0.812706  1
  Tm  Tm6  1  0.599600  0.601703  0.601703  1
  Tm  Tm7  1  0.599600  0.601703  0.196994  1
  Tm  Tm8  1  0.599600  0.196994  0.601703  1
  Tm  Tm9  1  0.196802  0.601066  0.601066  1
  Tm  Tm10  1  0.063381  0.437165  0.437165  1
  Tm  Tm11  1  0.438774  0.060856  0.060856  1
  Tm  Tm12  1  0.438774  0.060856  0.439514  1
  Tm  Tm13  1  0.063381  0.437165  0.062290  1
  Tm  Tm14  1  0.438774  0.439514  0.060856  1
  Tm  Tm15  1  0.063381  0.062290  0.437165  1
  In  In16  1  0.513593  0.828802  0.828802  1
  Ag  Ag17  1  0.833318  0.831748  0.831748  1
  Ag  Ag18  1  0.833318  0.831748  0.503186  1
  Ag  Ag19  1  0.833318  0.503186  0.831748  1
  Ir  Ir20  1  0.392847  0.392434  0.392434  1
  Ir  Ir21  1  0.392847  0.392434  0.822288  1
  Ir  Ir22  1  0.392847  0.822288  0.392434  1
  Ir  Ir23  1  0.821409  0.392864  0.392864  1
