# generated using pymatgen
data_Lu3HfAl17GaRh6
_symmetry_space_group_name_H-M   'P 1'
_cell_length_a   7.49910327
_cell_length_b   7.48804252
_cell_length_c   9.36639700
_cell_angle_alpha   90.00000000
_cell_angle_beta   90.00000000
_cell_angle_gamma   119.44531473
_symmetry_Int_Tables_number   1
_chemical_formula_structural   Lu3HfAl17GaRh6
_chemical_formula_sum   'Lu3 Hf1 Al17 Ga1 Rh6'
_cell_volume   458.01661128
_cell_formula_units_Z   1
loop_
 _symmetry_equiv_pos_site_id
 _symmetry_equiv_pos_as_xyz
  1  'x, y, z'
loop_
 _atom_site_type_symbol
 _atom_site_label
 _atom_site_symmetry_multiplicity
 _atom_site_fract_x
 _atom_site_fract_y
 _atom_site_fract_z
 _atom_site_occupancy
  Lu  Lu0  1  0.006555  0.325347  0.750000  1
  Lu  Lu1  1  0.672520  0.995885  0.250000  1
  Lu  Lu2  1  0.326376  0.006720  0.750000  1
  Hf  Hf3  1  0.995945  0.671887  0.250000  1
  Al  Al4  1  0.125376  0.123030  0.250000  1
  Al  Al5  1  0.999648  0.338148  0.079843  1
  Al  Al6  1  0.999928  0.664374  0.926590  1
  Al  Al7  1  0.999928  0.664374  0.573410  1
  Al  Al8  1  0.333192  0.997671  0.419975  1
  Al  Al9  1  0.999648  0.338148  0.420157  1
  Al  Al10  1  0.664056  0.999093  0.575933  1
  Al  Al11  1  0.664056  0.999093  0.924067  1
  Al  Al12  1  0.333192  0.997671  0.080025  1
  Al  Al13  1  0.333530  0.333571  0.551197  1
  Al  Al14  1  0.669466  0.667575  0.441059  1
  Al  Al15  1  0.669466  0.667575  0.058941  1
  Al  Al16  1  0.333530  0.333571  0.948803  1
  Al  Al17  1  0.336054  0.551923  0.250000  1
  Al  Al18  1  0.661684  0.449293  0.750000  1
  Al  Al19  1  0.556622  0.343535  0.250000  1
  Al  Al20  1  0.447568  0.660076  0.750000  1
  Ga  Ga21  1  0.869686  0.868962  0.750000  1
  Rh  Rh22  1  0.673263  0.328403  0.000745  1
  Rh  Rh23  1  0.327833  0.673186  0.001425  1
  Rh  Rh24  1  0.327833  0.673186  0.498575  1
  Rh  Rh25  1  0.673263  0.328403  0.499255  1
  Rh  Rh26  1  0.999890  0.999649  0.003282  1
  Rh  Rh27  1  0.999890  0.999649  0.496718  1
