# generated using pymatgen
data_Zr5Mn(Co3P2)6
_symmetry_space_group_name_H-M   'P 1'
_cell_length_a   11.84213980
_cell_length_b   11.84213918
_cell_length_c   3.61029100
_cell_angle_alpha   90.00000000
_cell_angle_beta   90.00000000
_cell_angle_gamma   119.92208536
_symmetry_Int_Tables_number   1
_chemical_formula_structural   Zr5Mn(Co3P2)6
_chemical_formula_sum   'Zr5 Mn1 Co18 P12'
_cell_volume   438.80707700
_cell_formula_units_Z   1
loop_
 _symmetry_equiv_pos_site_id
 _symmetry_equiv_pos_as_xyz
  1  'x, y, z'
loop_
 _atom_site_type_symbol
 _atom_site_label
 _atom_site_symmetry_multiplicity
 _atom_site_fract_x
 _atom_site_fract_y
 _atom_site_fract_z
 _atom_site_occupancy
  Zr  Zr0  1  0.666496  0.333686  0.000000  1
  Zr  Zr1  1  0.333686  0.666496  0.000000  1
  Zr  Zr2  1  0.183790  0.183790  0.500000  1
  Zr  Zr3  1  0.815672  0.999059  0.500000  1
  Zr  Zr4  1  0.999059  0.815672  0.500000  1
  Mn  Mn5  1  0.554645  0.554645  0.000000  1
  Co  Co6  1  0.450947  0.999890  0.000000  1
  Co  Co7  1  0.999890  0.450947  0.000000  1
  Co  Co8  1  0.820959  0.198241  0.000000  1
  Co  Co9  1  0.803952  0.623302  0.000000  1
  Co  Co10  1  0.375964  0.177510  0.000000  1
  Co  Co11  1  0.198241  0.820959  0.000000  1
  Co  Co12  1  0.623302  0.803952  0.000000  1
  Co  Co13  1  0.177510  0.375964  0.000000  1
  Co  Co14  1  0.642873  0.126845  0.500000  1
  Co  Co15  1  0.873663  0.515820  0.500000  1
  Co  Co16  1  0.483103  0.355490  0.500000  1
  Co  Co17  1  0.126845  0.642873  0.500000  1
  Co  Co18  1  0.515820  0.873663  0.500000  1
  Co  Co19  1  0.355490  0.483103  0.500000  1
  Co  Co20  1  0.716492  0.716492  0.500000  1
  Co  Co21  1  0.284624  0.999388  0.500000  1
  Co  Co22  1  0.999388  0.284624  0.500000  1
  Co  Co23  1  0.000673  0.000673  0.000000  1
  P  P24  1  0.359009  0.359009  0.000000  1
  P  P25  1  0.638393  0.001030  0.000000  1
  P  P26  1  0.001030  0.638393  0.000000  1
  P  P27  1  0.832846  0.315497  0.500000  1
  P  P28  1  0.685169  0.517464  0.500000  1
  P  P29  1  0.481977  0.166052  0.500000  1
  P  P30  1  0.315497  0.832846  0.500000  1
  P  P31  1  0.517464  0.685169  0.500000  1
  P  P32  1  0.166052  0.481977  0.500000  1
  P  P33  1  0.822957  0.822957  0.000000  1
  P  P34  1  0.177228  0.999294  0.000000  1
  P  P35  1  0.999294  0.177228  0.000000  1
