# generated using pymatgen
data_CsLi(NbBr3)3
_symmetry_space_group_name_H-M   'P 1'
_cell_length_a   10.11925527
_cell_length_b   10.14811125
_cell_length_c   10.21030226
_cell_angle_alpha   119.50022237
_cell_angle_beta   105.07004241
_cell_angle_gamma   96.76500870
_symmetry_Int_Tables_number   1
_chemical_formula_structural   CsLi(NbBr3)3
_chemical_formula_sum   'Cs2 Li2 Nb6 Br18'
_cell_volume   842.64957999
_cell_formula_units_Z   2
loop_
 _symmetry_equiv_pos_site_id
 _symmetry_equiv_pos_as_xyz
  1  'x, y, z'
loop_
 _atom_site_type_symbol
 _atom_site_label
 _atom_site_symmetry_multiplicity
 _atom_site_fract_x
 _atom_site_fract_y
 _atom_site_fract_z
 _atom_site_occupancy
  Cs  Cs0  1  0.331951  0.265357  0.476361  1
  Cs  Cs1  1  0.668049  0.734643  0.523639  1
  Li  Li2  1  0.618139  0.045632  0.184958  1
  Li  Li3  1  0.381861  0.954368  0.815042  1
  Nb  Nb4  1  0.130772  0.569277  0.233710  1
  Nb  Nb5  1  0.869228  0.430723  0.766290  1
  Nb  Nb6  1  0.124341  0.352658  0.900277  1
  Nb  Nb7  1  0.865104  0.311635  0.980257  1
  Nb  Nb8  1  0.875659  0.647342  0.099723  1
  Nb  Nb9  1  0.134896  0.688365  0.019743  1
  Br  Br10  1  0.005535  0.647084  0.738871  1
  Br  Br11  1  0.687152  0.595124  0.834653  1
  Br  Br12  1  0.330478  0.953719  0.053674  1
  Br  Br13  1  0.988211  0.089484  0.857046  1
  Br  Br14  1  0.009176  0.764619  0.407137  1
  Br  Br15  1  0.684763  0.332945  0.445076  1
  Br  Br16  1  0.317409  0.552788  0.905626  1
  Br  Br17  1  0.312848  0.404876  0.165347  1
  Br  Br18  1  0.292393  0.155885  0.763008  1
  Br  Br19  1  0.994465  0.352916  0.261129  1
  Br  Br20  1  0.682591  0.447212  0.094374  1
  Br  Br21  1  0.674750  0.182508  0.688506  1
  Br  Br22  1  0.707607  0.844115  0.236992  1
  Br  Br23  1  0.011789  0.910516  0.142954  1
  Br  Br24  1  0.990824  0.235381  0.592863  1
  Br  Br25  1  0.315237  0.667055  0.554924  1
  Br  Br26  1  0.669522  0.046281  0.946326  1
  Br  Br27  1  0.325250  0.817492  0.311494  1
