# generated using pymatgen
data_Pr18Nd2Si15Se
_symmetry_space_group_name_H-M   'P 1'
_cell_length_a   7.95954137
_cell_length_b   7.91612173
_cell_length_c   15.38349379
_cell_angle_alpha   89.74393325
_cell_angle_beta   89.27781646
_cell_angle_gamma   90.00140871
_symmetry_Int_Tables_number   1
_chemical_formula_structural   Pr18Nd2Si15Se
_chemical_formula_sum   'Pr18 Nd2 Si15 Se1'
_cell_volume   969.20724197
_cell_formula_units_Z   1
loop_
 _symmetry_equiv_pos_site_id
 _symmetry_equiv_pos_as_xyz
  1  'x, y, z'
loop_
 _atom_site_type_symbol
 _atom_site_label
 _atom_site_symmetry_multiplicity
 _atom_site_fract_x
 _atom_site_fract_y
 _atom_site_fract_z
 _atom_site_occupancy
  Pr  Pr0  1  0.801596  0.190516  0.751533  1
  Pr  Pr1  1  0.686908  0.688643  0.497517  1
  Pr  Pr2  1  0.381377  0.007195  0.443344  1
  Pr  Pr3  1  0.492041  0.875569  0.698222  1
  Pr  Pr4  1  0.510451  0.120972  0.196399  1
  Pr  Pr5  1  0.876968  0.487236  0.301542  1
  Pr  Pr6  1  0.122881  0.510768  0.803398  1
  Pr  Pr7  1  0.628843  0.985928  0.949768  1
  Pr  Pr8  1  0.001131  0.380220  0.548731  1
  Pr  Pr9  1  0.990604  0.621689  0.053420  1
  Pr  Pr10  1  0.136586  0.988521  0.873322  1
  Pr  Pr11  1  0.518150  0.628819  0.126160  1
  Pr  Pr12  1  0.478164  0.370066  0.630431  1
  Pr  Pr13  1  0.631254  0.521384  0.875485  1
  Pr  Pr14  1  0.370626  0.478748  0.374364  1
  Pr  Pr15  1  0.871802  0.018989  0.376479  1
  Pr  Pr16  1  0.982557  0.128410  0.124500  1
  Pr  Pr17  1  0.015514  0.867951  0.621893  1
  Nd  Nd18  1  0.310925  0.310138  0.000309  1
  Nd  Nd19  1  0.188501  0.808934  0.249588  1
  Si  Si20  1  0.330213  0.696808  0.951200  1
  Si  Si21  1  0.664388  0.304644  0.454302  1
  Si  Si22  1  0.699636  0.334470  0.049349  1
  Si  Si23  1  0.304076  0.667640  0.548988  1
  Si  Si24  1  0.804352  0.832384  0.202670  1
  Si  Si25  1  0.168328  0.194708  0.297124  1
  Si  Si26  1  0.840117  0.803563  0.796892  1
  Si  Si27  1  0.285998  0.921793  0.058525  1
  Si  Si28  1  0.577193  0.786849  0.308715  1
  Si  Si29  1  0.447888  0.210648  0.823182  1
  Si  Si30  1  0.788986  0.578702  0.688923  1
  Si  Si31  1  0.211961  0.423671  0.190941  1
  Si  Si32  1  0.704559  0.075795  0.560447  1
  Si  Si33  1  0.926243  0.289967  0.940513  1
  Si  Si34  1  0.077918  0.711384  0.440457  1
  Se  Se35  1  0.171265  0.176277  0.691366  1
