# generated using pymatgen
data_Tm2Sb2Cl2O5
_symmetry_space_group_name_H-M   'P 1'
_cell_length_a   6.61142253
_cell_length_b   6.81556797
_cell_length_c   10.01516400
_cell_angle_alpha   110.15473199
_cell_angle_beta   96.23425632
_cell_angle_gamma   99.58590954
_symmetry_Int_Tables_number   1
_chemical_formula_structural   Tm2Sb2Cl2O5
_chemical_formula_sum   'Tm4 Sb4 Cl4 O10'
_cell_volume   410.96957163
_cell_formula_units_Z   2
loop_
 _symmetry_equiv_pos_site_id
 _symmetry_equiv_pos_as_xyz
  1  'x, y, z'
loop_
 _atom_site_type_symbol
 _atom_site_label
 _atom_site_symmetry_multiplicity
 _atom_site_fract_x
 _atom_site_fract_y
 _atom_site_fract_z
 _atom_site_occupancy
  Tm  Tm0  1  0.391691  0.758771  0.542274  1
  Tm  Tm1  1  0.608309  0.241229  0.457726  1
  Tm  Tm2  1  0.855266  0.746300  0.372123  1
  Tm  Tm3  1  0.144734  0.253700  0.627877  1
  Sb  Sb4  1  0.904352  0.783251  0.720566  1
  Sb  Sb5  1  0.095648  0.216749  0.279434  1
  Sb  Sb6  1  0.683022  0.268012  0.803764  1
  Sb  Sb7  1  0.316978  0.731988  0.196236  1
  Cl  Cl8  1  0.348740  0.664820  0.791061  1
  Cl  Cl9  1  0.651260  0.335180  0.208939  1
  Cl  Cl10  1  0.878318  0.759718  0.098808  1
  Cl  Cl11  1  0.121682  0.240282  0.901192  1
  O  O12  1  0.847167  0.352845  0.670221  1
  O  O13  1  0.152833  0.647155  0.329779  1
  O  O14  1  0.552120  0.837980  0.373426  1
  O  O15  1  0.447880  0.162020  0.626574  1
  O  O16  1  0.688224  0.958344  0.712021  1
  O  O17  1  0.311776  0.041656  0.287979  1
  O  O18  1  0.714039  0.598322  0.525603  1
  O  O19  1  0.285961  0.401678  0.474397  1
  O  O20  1  0.074197  0.888756  0.589676  1
  O  O21  1  0.925803  0.111244  0.410324  1
