# generated using pymatgen
data_Sr6SmTl(RhO6)2
_symmetry_space_group_name_H-M   'P 1'
_cell_length_a   6.88562177
_cell_length_b   6.88562331
_cell_length_c   6.88562355
_cell_angle_alpha   90.77931928
_cell_angle_beta   90.77931987
_cell_angle_gamma   90.77932585
_symmetry_Int_Tables_number   1
_chemical_formula_structural   Sr6SmTl(RhO6)2
_chemical_formula_sum   'Sr6 Sm1 Tl1 Rh2 O12'
_cell_volume   326.36836633
_cell_formula_units_Z   1
loop_
 _symmetry_equiv_pos_site_id
 _symmetry_equiv_pos_as_xyz
  1  'x, y, z'
loop_
 _atom_site_type_symbol
 _atom_site_label
 _atom_site_symmetry_multiplicity
 _atom_site_fract_x
 _atom_site_fract_y
 _atom_site_fract_z
 _atom_site_occupancy
  Sr  Sr0  1  0.750001  0.378923  0.121078  1
  Sr  Sr1  1  0.616685  0.883316  0.250000  1
  Sr  Sr2  1  0.121078  0.750000  0.378923  1
  Sr  Sr3  1  0.883315  0.250001  0.616685  1
  Sr  Sr4  1  0.378924  0.121077  0.750000  1
  Sr  Sr5  1  0.250000  0.616686  0.883315  1
  Sm  Sm6  1  0.750001  0.750001  0.750000  1
  Tl  Tl7  1  0.250000  0.250000  0.250000  1
  Rh  Rh8  1  0.995959  0.995959  0.995959  1
  Rh  Rh9  1  0.504041  0.504041  0.504041  1
  O  O10  1  0.911731  0.704915  0.046831  1
  O  O11  1  0.283588  0.950224  0.083590  1
  O  O12  1  0.416410  0.549775  0.216412  1
  O  O13  1  0.950224  0.083591  0.283588  1
  O  O14  1  0.549776  0.216412  0.416410  1
  O  O15  1  0.795084  0.588268  0.453169  1
  O  O16  1  0.216412  0.416411  0.549775  1
  O  O17  1  0.453169  0.795084  0.588269  1
  O  O18  1  0.046831  0.911730  0.704916  1
  O  O19  1  0.588268  0.453169  0.795085  1
  O  O20  1  0.704916  0.046831  0.911730  1
  O  O21  1  0.083590  0.283589  0.950224  1
