# generated using pymatgen
data_Yb8Si16(Tc3Os)3
_symmetry_space_group_name_H-M   'P 1'
_cell_length_a   6.75933147
_cell_length_b   6.75933193
_cell_length_c   12.59965700
_cell_angle_alpha   89.96227090
_cell_angle_beta   90.03772911
_cell_angle_gamma   89.96233813
_symmetry_Int_Tables_number   1
_chemical_formula_structural   Yb8Si16(Tc3Os)3
_chemical_formula_sum   'Yb8 Si16 Tc9 Os3'
_cell_volume   575.65987348
_cell_formula_units_Z   1
loop_
 _symmetry_equiv_pos_site_id
 _symmetry_equiv_pos_as_xyz
  1  'x, y, z'
loop_
 _atom_site_type_symbol
 _atom_site_label
 _atom_site_symmetry_multiplicity
 _atom_site_fract_x
 _atom_site_fract_y
 _atom_site_fract_z
 _atom_site_occupancy
  Yb  Yb0  1  0.993637  0.665508  0.028209  1
  Yb  Yb1  1  0.007034  0.333442  0.528508  1
  Yb  Yb2  1  0.333442  0.007034  0.471492  1
  Yb  Yb3  1  0.165265  0.506273  0.778350  1
  Yb  Yb4  1  0.834720  0.493202  0.277700  1
  Yb  Yb5  1  0.506273  0.165265  0.221650  1
  Yb  Yb6  1  0.493202  0.834720  0.722300  1
  Yb  Yb7  1  0.665508  0.993637  0.971791  1
  Si  Si8  1  0.027877  0.714429  0.432200  1
  Si  Si9  1  0.624620  0.307219  0.441147  1
  Si  Si10  1  0.376938  0.691895  0.940935  1
  Si  Si11  1  0.192425  0.123108  0.690915  1
  Si  Si12  1  0.307219  0.624620  0.558853  1
  Si  Si13  1  0.691895  0.376938  0.059065  1
  Si  Si14  1  0.807888  0.876876  0.190960  1
  Si  Si15  1  0.123108  0.192425  0.309085  1
  Si  Si16  1  0.972440  0.283640  0.932788  1
  Si  Si17  1  0.714429  0.027877  0.567800  1
  Si  Si18  1  0.217797  0.472474  0.182560  1
  Si  Si19  1  0.782807  0.527873  0.682762  1
  Si  Si20  1  0.472474  0.217797  0.817440  1
  Si  Si21  1  0.527873  0.782807  0.317238  1
  Si  Si22  1  0.283640  0.972440  0.067212  1
  Si  Si23  1  0.876876  0.807888  0.809040  1
  Tc  Tc24  1  0.668387  0.668387  0.500000  1
  Tc  Tc25  1  0.012188  0.830477  0.625376  1
  Tc  Tc26  1  0.986153  0.169834  0.125177  1
  Tc  Tc27  1  0.830477  0.012188  0.374624  1
  Tc  Tc28  1  0.330265  0.486921  0.374771  1
  Tc  Tc29  1  0.670397  0.514585  0.875754  1
  Tc  Tc30  1  0.486921  0.330265  0.625229  1
  Tc  Tc31  1  0.514585  0.670397  0.124246  1
  Tc  Tc32  1  0.169834  0.986153  0.874823  1
  Os  Os33  1  0.168660  0.831401  0.249491  1
  Os  Os34  1  0.331347  0.331347  0.000000  1
  Os  Os35  1  0.831401  0.168660  0.750509  1
