# generated using pymatgen
data_Sc8Ti5Al9Ir8
_symmetry_space_group_name_H-M   'P 1'
_cell_length_a   8.94638427
_cell_length_b   8.97182136
_cell_length_c   8.94638507
_cell_angle_alpha   59.91302880
_cell_angle_beta   59.89231270
_cell_angle_gamma   59.91303314
_symmetry_Int_Tables_number   1
_chemical_formula_structural   Sc8Ti5Al9Ir8
_chemical_formula_sum   'Sc8 Ti5 Al9 Ir8'
_cell_volume   506.68125888
_cell_formula_units_Z   1
loop_
 _symmetry_equiv_pos_site_id
 _symmetry_equiv_pos_as_xyz
  1  'x, y, z'
loop_
 _atom_site_type_symbol
 _atom_site_label
 _atom_site_symmetry_multiplicity
 _atom_site_fract_x
 _atom_site_fract_y
 _atom_site_fract_z
 _atom_site_occupancy
  Sc  Sc0  1  0.213319  0.212431  0.790676  1
  Sc  Sc1  1  0.790676  0.212431  0.213319  1
  Sc  Sc2  1  0.209519  0.791120  0.209519  1
  Sc  Sc3  1  0.798260  0.794739  0.191943  1
  Sc  Sc4  1  0.191943  0.794739  0.798260  1
  Sc  Sc5  1  0.793748  0.194197  0.793748  1
  Sc  Sc6  1  0.379463  0.382175  0.379463  1
  Sc  Sc7  1  0.381882  0.859323  0.381882  1
  Ti  Ti8  1  0.863237  0.381684  0.380684  1
  Ti  Ti9  1  0.380684  0.381684  0.863237  1
  Ti  Ti10  1  0.836599  0.487529  0.836599  1
  Ti  Ti11  1  0.490272  0.835648  0.835640  1
  Ti  Ti12  1  0.835640  0.835648  0.490272  1
  Al  Al13  1  0.164844  0.167367  0.164844  1
  Al  Al14  1  0.163779  0.507973  0.163779  1
  Al  Al15  1  0.512335  0.164250  0.162319  1
  Al  Al16  1  0.162319  0.164250  0.512335  1
  Al  Al17  1  0.619707  0.617553  0.619707  1
  Al  Al18  1  0.619523  0.143085  0.619523  1
  Al  Al19  1  0.144142  0.617605  0.620787  1
  Al  Al20  1  0.620787  0.617605  0.144142  1
  Al  Al21  1  0.824543  0.823829  0.824543  1
  Ir  Ir22  1  0.993633  0.006271  0.498388  1
  Ir  Ir23  1  0.498388  0.006271  0.993633  1
  Ir  Ir24  1  0.000809  0.497889  0.000809  1
  Ir  Ir25  1  0.502021  0.502384  0.992780  1
  Ir  Ir26  1  0.992780  0.502384  0.502021  1
  Ir  Ir27  1  0.503977  0.998206  0.503977  1
  Ir  Ir28  1  0.508028  0.492509  0.508028  1
  Ir  Ir29  1  0.003138  0.007217  0.003138  1
