# generated using pymatgen
data_Sr2V3Si7Pt9
_symmetry_space_group_name_H-M   'P 1'
_cell_length_a   9.90996400
_cell_length_b   9.90996300
_cell_length_c   3.98776100
_cell_angle_alpha   90.00000000
_cell_angle_beta   90.00000000
_cell_angle_gamma   119.99999665
_symmetry_Int_Tables_number   1
_chemical_formula_structural   Sr2V3Si7Pt9
_chemical_formula_sum   'Sr2 V3 Si7 Pt9'
_cell_volume   339.15941535
_cell_formula_units_Z   1
loop_
 _symmetry_equiv_pos_site_id
 _symmetry_equiv_pos_as_xyz
  1  'x, y, z'
loop_
 _atom_site_type_symbol
 _atom_site_label
 _atom_site_symmetry_multiplicity
 _atom_site_fract_x
 _atom_site_fract_y
 _atom_site_fract_z
 _atom_site_occupancy
  Sr  Sr0  1  0.000000  0.000000  0.000000  1
  Sr  Sr1  1  0.333333  0.666667  0.500000  1
  V  V2  1  0.874434  0.450244  0.500000  1
  V  V3  1  0.575810  0.125566  0.500000  1
  V  V4  1  0.549756  0.424190  0.500000  1
  Si  Si5  1  0.266646  0.223810  0.500000  1
  Si  Si6  1  0.776190  0.042837  0.500000  1
  Si  Si7  1  0.957163  0.733354  0.500000  1
  Si  Si8  1  0.552565  0.628348  0.000000  1
  Si  Si9  1  0.371652  0.924216  0.000000  1
  Si  Si10  1  0.075784  0.447435  0.000000  1
  Si  Si11  1  0.666667  0.333333  0.000000  1
  Pt  Pt12  1  0.232647  0.945974  0.500000  1
  Pt  Pt13  1  0.054026  0.286673  0.500000  1
  Pt  Pt14  1  0.713327  0.767353  0.500000  1
  Pt  Pt15  1  0.299960  0.399471  0.000000  1
  Pt  Pt16  1  0.600529  0.900489  0.000000  1
  Pt  Pt17  1  0.099511  0.700040  0.000000  1
  Pt  Pt18  1  0.395141  0.177133  0.000000  1
  Pt  Pt19  1  0.822867  0.218008  0.000000  1
  Pt  Pt20  1  0.781992  0.604859  0.000000  1
