# generated using pymatgen
data_Ho2Er2InNi
_symmetry_space_group_name_H-M   'P 1'
_cell_length_a   9.52447051
_cell_length_b   9.52446957
_cell_length_c   9.52624000
_cell_angle_alpha   59.99385781
_cell_angle_beta   59.99386109
_cell_angle_gamma   60.01229021
_symmetry_Int_Tables_number   1
_chemical_formula_structural   Ho2Er2InNi
_chemical_formula_sum   'Ho8 Er8 In4 Ni4'
_cell_volume   611.06605744
_cell_formula_units_Z   4
loop_
 _symmetry_equiv_pos_site_id
 _symmetry_equiv_pos_as_xyz
  1  'x, y, z'
loop_
 _atom_site_type_symbol
 _atom_site_label
 _atom_site_symmetry_multiplicity
 _atom_site_fract_x
 _atom_site_fract_y
 _atom_site_fract_z
 _atom_site_occupancy
  Ho  Ho0  1  0.347824  0.347824  0.347899  1
  Ho  Ho1  1  0.347824  0.347824  0.956455  1
  Ho  Ho2  1  0.347899  0.956455  0.347824  1
  Ho  Ho3  1  0.956455  0.347899  0.347824  1
  Ho  Ho4  1  0.812055  0.187945  0.187945  1
  Ho  Ho5  1  0.187945  0.812055  0.812055  1
  Ho  Ho6  1  0.187945  0.812055  0.187945  1
  Ho  Ho7  1  0.812055  0.187945  0.812055  1
  Er  Er8  1  0.187991  0.187991  0.812009  1
  Er  Er9  1  0.812009  0.812009  0.187991  1
  Er  Er10  1  0.937623  0.562377  0.562377  1
  Er  Er11  1  0.562377  0.937623  0.937623  1
  Er  Er12  1  0.562377  0.937623  0.562377  1
  Er  Er13  1  0.937623  0.562377  0.937623  1
  Er  Er14  1  0.562389  0.562389  0.937611  1
  Er  Er15  1  0.937611  0.937611  0.562389  1
  In  In16  1  0.582605  0.582605  0.582550  1
  In  In17  1  0.582605  0.582605  0.252240  1
  In  In18  1  0.582550  0.252240  0.582605  1
  In  In19  1  0.252240  0.582550  0.582605  1
  Ni  Ni20  1  0.142496  0.142496  0.142356  1
  Ni  Ni21  1  0.142496  0.142496  0.572652  1
  Ni  Ni22  1  0.142356  0.572652  0.142496  1
  Ni  Ni23  1  0.572652  0.142356  0.142496  1
