# generated using pymatgen
data_Ho6Fe5Co3(P6Rh5)2
_symmetry_space_group_name_H-M   'P 1'
_cell_length_a   3.79146800
_cell_length_b   10.97354713
_cell_length_c   12.48698529
_cell_angle_alpha   89.92957896
_cell_angle_beta   90.00000000
_cell_angle_gamma   90.00000000
_symmetry_Int_Tables_number   1
_chemical_formula_structural   Ho6Fe5Co3(P6Rh5)2
_chemical_formula_sum   'Ho6 Fe5 Co3 P12 Rh10'
_cell_volume   519.53127948
_cell_formula_units_Z   1
loop_
 _symmetry_equiv_pos_site_id
 _symmetry_equiv_pos_as_xyz
  1  'x, y, z'
loop_
 _atom_site_type_symbol
 _atom_site_label
 _atom_site_symmetry_multiplicity
 _atom_site_fract_x
 _atom_site_fract_y
 _atom_site_fract_z
 _atom_site_occupancy
  Ho  Ho0  1  0.000000  0.499554  0.519672  1
  Ho  Ho1  1  0.500000  0.000477  0.475763  1
  Ho  Ho2  1  0.500000  0.817472  0.196260  1
  Ho  Ho3  1  0.500000  0.182888  0.195985  1
  Ho  Ho4  1  0.000000  0.679312  0.805220  1
  Ho  Ho5  1  0.000000  0.321638  0.805173  1
  Fe  Fe6  1  0.000000  0.500426  0.992840  1
  Fe  Fe7  1  0.500000  0.999058  0.009640  1
  Fe  Fe8  1  0.000000  0.618826  0.283037  1
  Fe  Fe9  1  0.000000  0.380941  0.283265  1
  Fe  Fe10  1  0.000000  0.168023  0.006591  1
  Co  Co11  1  0.500000  0.335460  0.997565  1
  Co  Co12  1  0.500000  0.667035  0.997668  1
  Co  Co13  1  0.000000  0.831085  0.007772  1
  P  P14  1  0.500000  0.315276  0.620058  1
  P  P15  1  0.500000  0.684277  0.619328  1
  P  P16  1  0.000000  0.195026  0.370349  1
  P  P17  1  0.000000  0.804441  0.370392  1
  P  P18  1  0.500000  0.500956  0.894953  1
  P  P19  1  0.000000  0.001216  0.106962  1
  P  P20  1  0.500000  0.840596  0.904803  1
  P  P21  1  0.500000  0.161325  0.907689  1
  P  P22  1  0.000000  0.654934  0.104782  1
  P  P23  1  0.000000  0.343275  0.103811  1
  P  P24  1  0.500000  0.499683  0.339900  1
  P  P25  1  0.000000  0.000476  0.652892  1
  Rh  Rh26  1  0.500000  0.301200  0.425883  1
  Rh  Rh27  1  0.500000  0.697991  0.425380  1
  Rh  Rh28  1  0.000000  0.204689  0.569076  1
  Rh  Rh29  1  0.000000  0.793632  0.568588  1
  Rh  Rh30  1  0.500000  0.873212  0.715297  1
  Rh  Rh31  1  0.500000  0.128145  0.718598  1
  Rh  Rh32  1  0.500000  0.500356  0.156453  1
  Rh  Rh33  1  0.000000  0.997158  0.846479  1
  Rh  Rh34  1  0.500000  0.500350  0.706571  1
  Rh  Rh35  1  0.000000  0.999592  0.295303  1
