# generated using pymatgen
data_Er16In4PdPt3
_symmetry_space_group_name_H-M   'P 1'
_cell_length_a   9.64944431
_cell_length_b   9.63357929
_cell_length_c   9.64944400
_cell_angle_alpha   59.94550888
_cell_angle_beta   60.00000108
_cell_angle_gamma   59.94551248
_symmetry_Int_Tables_number   1
_chemical_formula_structural   Er16In4PdPt3
_chemical_formula_sum   'Er16 In4 Pd1 Pt3'
_cell_volume   633.75164176
_cell_formula_units_Z   1
loop_
 _symmetry_equiv_pos_site_id
 _symmetry_equiv_pos_as_xyz
  1  'x, y, z'
loop_
 _atom_site_type_symbol
 _atom_site_label
 _atom_site_symmetry_multiplicity
 _atom_site_fract_x
 _atom_site_fract_y
 _atom_site_fract_z
 _atom_site_occupancy
  Er  Er0  1  0.190409  0.187068  0.811261  1
  Er  Er1  1  0.437934  0.062854  0.061279  1
  Er  Er2  1  0.437934  0.062854  0.437934  1
  Er  Er3  1  0.061570  0.439399  0.061570  1
  Er  Er4  1  0.649807  0.050580  0.649807  1
  Er  Er5  1  0.188742  0.811390  0.811125  1
  Er  Er6  1  0.061279  0.062854  0.437934  1
  Er  Er7  1  0.811261  0.187068  0.190409  1
  Er  Er8  1  0.811125  0.811390  0.188742  1
  Er  Er9  1  0.647327  0.650821  0.054526  1
  Er  Er10  1  0.647327  0.650821  0.647327  1
  Er  Er11  1  0.061570  0.439399  0.437462  1
  Er  Er12  1  0.054526  0.650821  0.647327  1
  Er  Er13  1  0.811261  0.187068  0.811261  1
  Er  Er14  1  0.437462  0.439399  0.061570  1
  Er  Er15  1  0.188742  0.811390  0.188742  1
  In  In16  1  0.416460  0.750620  0.416460  1
  In  In17  1  0.416937  0.415964  0.750161  1
  In  In18  1  0.750161  0.415964  0.416937  1
  In  In19  1  0.416937  0.415964  0.416937  1
  Pd  Pd20  1  0.856376  0.430872  0.856376  1
  Pt  Pt21  1  0.857614  0.855146  0.429625  1
  Pt  Pt22  1  0.429625  0.855146  0.857614  1
  Pt  Pt23  1  0.857614  0.855146  0.857614  1
