# generated using pymatgen
data_Y3Pa(TcB6)2
_symmetry_space_group_name_H-M   'P 1'
_cell_length_a   3.70889200
_cell_length_b   9.17859479
_cell_length_c   11.54521821
_cell_angle_alpha   89.62903015
_cell_angle_beta   90.00000000
_cell_angle_gamma   90.00000000
_symmetry_Int_Tables_number   1
_chemical_formula_structural   Y3Pa(TcB6)2
_chemical_formula_sum   'Y6 Pa2 Tc4 B24'
_cell_volume   393.01889222
_cell_formula_units_Z   2
loop_
 _symmetry_equiv_pos_site_id
 _symmetry_equiv_pos_as_xyz
  1  'x, y, z'
loop_
 _atom_site_type_symbol
 _atom_site_label
 _atom_site_symmetry_multiplicity
 _atom_site_fract_x
 _atom_site_fract_y
 _atom_site_fract_z
 _atom_site_occupancy
  Y  Y0  1  0.000000  0.324325  0.414269  1
  Y  Y1  1  0.000000  0.675675  0.585731  1
  Y  Y2  1  0.000000  0.444600  0.127477  1
  Y  Y3  1  0.000000  0.555400  0.872523  1
  Y  Y4  1  0.000000  0.943534  0.373052  1
  Y  Y5  1  0.000000  0.056466  0.626948  1
  Pa  Pa6  1  0.000000  0.822583  0.087047  1
  Pa  Pa7  1  0.000000  0.177417  0.912953  1
  Tc  Tc8  1  0.000000  0.134991  0.174737  1
  Tc  Tc9  1  0.000000  0.865009  0.825263  1
  Tc  Tc10  1  0.000000  0.640567  0.317984  1
  Tc  Tc11  1  0.000000  0.359433  0.682016  1
  B  B12  1  0.500000  0.052968  0.066864  1
  B  B13  1  0.500000  0.947032  0.933137  1
  B  B14  1  0.500000  0.553399  0.432337  1
  B  B15  1  0.500000  0.446601  0.567662  1
  B  B16  1  0.500000  0.246999  0.079933  1
  B  B17  1  0.500000  0.753001  0.920067  1
  B  B18  1  0.500000  0.747249  0.419524  1
  B  B19  1  0.500000  0.252751  0.580476  1
  B  B20  1  0.500000  0.290944  0.233798  1
  B  B21  1  0.500000  0.709056  0.766202  1
  B  B22  1  0.500000  0.792081  0.265981  1
  B  B23  1  0.500000  0.207919  0.734019  1
  B  B24  1  0.500000  0.131522  0.313887  1
  B  B25  1  0.500000  0.868478  0.686113  1
  B  B26  1  0.500000  0.632962  0.185931  1
  B  B27  1  0.500000  0.367038  0.814069  1
  B  B28  1  0.500000  0.482540  0.287583  1
  B  B29  1  0.500000  0.517460  0.712417  1
  B  B30  1  0.500000  0.982988  0.212753  1
  B  B31  1  0.500000  0.017012  0.787247  1
  B  B32  1  0.500000  0.106477  0.470088  1
  B  B33  1  0.500000  0.893523  0.529912  1
  B  B34  1  0.500000  0.614064  0.031484  1
  B  B35  1  0.500000  0.385936  0.968516  1
