# generated using pymatgen
data_Y5Er3Re3B24Ir
_symmetry_space_group_name_H-M   'P 1'
_cell_length_a   3.66837600
_cell_length_b   9.15925499
_cell_length_c   11.54721500
_cell_angle_alpha   90.13532395
_cell_angle_beta   90.00000000
_cell_angle_gamma   90.00000000
_symmetry_Int_Tables_number   1
_chemical_formula_structural   Y5Er3Re3B24Ir
_chemical_formula_sum   'Y5 Er3 Re3 B24 Ir1'
_cell_volume   387.98062112
_cell_formula_units_Z   1
loop_
 _symmetry_equiv_pos_site_id
 _symmetry_equiv_pos_as_xyz
  1  'x, y, z'
loop_
 _atom_site_type_symbol
 _atom_site_label
 _atom_site_symmetry_multiplicity
 _atom_site_fract_x
 _atom_site_fract_y
 _atom_site_fract_z
 _atom_site_occupancy
  Y  Y0  1  0.000000  0.318201  0.415611  1
  Y  Y1  1  0.000000  0.678682  0.591303  1
  Y  Y2  1  0.000000  0.826651  0.081351  1
  Y  Y3  1  0.000000  0.177383  0.912572  1
  Y  Y4  1  0.000000  0.944455  0.370795  1
  Er  Er5  1  0.000000  0.055943  0.629247  1
  Er  Er6  1  0.000000  0.441088  0.128177  1
  Er  Er7  1  0.000000  0.556607  0.871517  1
  Re  Re8  1  0.000000  0.362491  0.677748  1
  Re  Re9  1  0.000000  0.138845  0.179809  1
  Re  Re10  1  0.000000  0.861505  0.820882  1
  B  B11  1  0.500000  0.553933  0.433538  1
  B  B12  1  0.500000  0.446517  0.566910  1
  B  B13  1  0.500000  0.053582  0.066745  1
  B  B14  1  0.500000  0.946741  0.932472  1
  B  B15  1  0.500000  0.748906  0.419985  1
  B  B16  1  0.500000  0.250252  0.581319  1
  B  B17  1  0.500000  0.249532  0.081349  1
  B  B18  1  0.500000  0.751144  0.918687  1
  B  B19  1  0.500000  0.790788  0.265150  1
  B  B20  1  0.500000  0.208317  0.733938  1
  B  B21  1  0.500000  0.292068  0.234722  1
  B  B22  1  0.500000  0.707974  0.766143  1
  B  B23  1  0.500000  0.631252  0.184277  1
  B  B24  1  0.500000  0.369681  0.814107  1
  B  B25  1  0.500000  0.131269  0.314571  1
  B  B26  1  0.500000  0.868741  0.685608  1
  B  B27  1  0.500000  0.983342  0.211871  1
  B  B28  1  0.500000  0.017208  0.786779  1
  B  B29  1  0.500000  0.482898  0.287513  1
  B  B30  1  0.500000  0.518020  0.712679  1
  B  B31  1  0.500000  0.602909  0.029145  1
  B  B32  1  0.500000  0.397966  0.972029  1
  B  B33  1  0.500000  0.102341  0.471669  1
  B  B34  1  0.500000  0.895531  0.528813  1
  Ir  Ir35  1  0.000000  0.637237  0.320968  1
