# generated using pymatgen
data_InPd6IO8
_symmetry_space_group_name_H-M   'P 1'
_cell_length_a   6.86113011
_cell_length_b   6.86113048
_cell_length_c   6.86113000
_cell_angle_alpha   60.00000233
_cell_angle_beta   60.00000051
_cell_angle_gamma   60.00000773
_symmetry_Int_Tables_number   1
_chemical_formula_structural   InPd6IO8
_chemical_formula_sum   'In1 Pd6 I1 O8'
_cell_volume   228.38733585
_cell_formula_units_Z   1
loop_
 _symmetry_equiv_pos_site_id
 _symmetry_equiv_pos_as_xyz
  1  'x, y, z'
loop_
 _atom_site_type_symbol
 _atom_site_label
 _atom_site_symmetry_multiplicity
 _atom_site_fract_x
 _atom_site_fract_y
 _atom_site_fract_z
 _atom_site_occupancy
  In  In0  1  0.000000  0.000000  0.000000  1
  Pd  Pd1  1  0.000000  0.000000  0.500000  1
  Pd  Pd2  1  0.500000  0.000000  0.000000  1
  Pd  Pd3  1  0.000000  0.500000  0.000000  1
  Pd  Pd4  1  0.500000  0.500000  0.000000  1
  Pd  Pd5  1  0.000000  0.500000  0.500000  1
  Pd  Pd6  1  0.500000  0.000000  0.500000  1
  I  I7  1  0.500000  0.500000  0.500000  1
  O  O8  1  0.138349  0.138349  0.584954  1
  O  O9  1  0.138349  0.584954  0.138349  1
  O  O10  1  0.584954  0.138349  0.138349  1
  O  O11  1  0.861651  0.415046  0.861651  1
  O  O12  1  0.138349  0.138349  0.138349  1
  O  O13  1  0.861651  0.861651  0.861651  1
  O  O14  1  0.861651  0.861651  0.415046  1
  O  O15  1  0.415046  0.861651  0.861651  1
