# generated using pymatgen
data_Sc22IrOs6Ru
_symmetry_space_group_name_H-M   'P 1'
_cell_length_a   9.45947310
_cell_length_b   9.40537901
_cell_length_c   9.45947272
_cell_angle_alpha   60.18898856
_cell_angle_beta   60.31396963
_cell_angle_gamma   60.18899265
_symmetry_Int_Tables_number   1
_chemical_formula_structural   Sc22IrOs6Ru
_chemical_formula_sum   'Sc22 Ir1 Os6 Ru1'
_cell_volume   598.21278580
_cell_formula_units_Z   1
loop_
 _symmetry_equiv_pos_site_id
 _symmetry_equiv_pos_as_xyz
  1  'x, y, z'
loop_
 _atom_site_type_symbol
 _atom_site_label
 _atom_site_symmetry_multiplicity
 _atom_site_fract_x
 _atom_site_fract_y
 _atom_site_fract_z
 _atom_site_occupancy
  Sc  Sc0  1  0.800662  0.803264  0.199338  1
  Sc  Sc1  1  0.198102  0.801898  0.198102  1
  Sc  Sc2  1  0.800662  0.196736  0.199338  1
  Sc  Sc3  1  0.199338  0.196736  0.800662  1
  Sc  Sc4  1  0.801898  0.198102  0.801898  1
  Sc  Sc5  1  0.199338  0.803264  0.800662  1
  Sc  Sc6  1  0.613359  0.618024  0.150590  1
  Sc  Sc7  1  0.616763  0.147261  0.616763  1
  Sc  Sc8  1  0.150590  0.618024  0.613359  1
  Sc  Sc9  1  0.616763  0.619213  0.616763  1
  Sc  Sc10  1  0.386641  0.381976  0.849410  1
  Sc  Sc11  1  0.383237  0.852739  0.383237  1
  Sc  Sc12  1  0.849410  0.381976  0.386641  1
  Sc  Sc13  1  0.383237  0.380787  0.383237  1
  Sc  Sc14  1  0.845383  0.843284  0.468048  1
  Sc  Sc15  1  0.843824  0.469697  0.843824  1
  Sc  Sc16  1  0.468048  0.843284  0.845383  1
  Sc  Sc17  1  0.843824  0.842654  0.843824  1
  Sc  Sc18  1  0.154617  0.156716  0.531952  1
  Sc  Sc19  1  0.156176  0.530303  0.156176  1
  Sc  Sc20  1  0.531952  0.156716  0.154617  1
  Sc  Sc21  1  0.156176  0.157346  0.156176  1
  Ir  Ir22  1  0.000000  0.500000  0.000000  1
  Os  Os23  1  0.500000  0.500000  0.500000  1
  Os  Os24  1  0.000000  0.000000  0.500000  1
  Os  Os25  1  0.500000  0.000000  0.500000  1
  Os  Os26  1  0.000000  0.500000  0.500000  1
  Os  Os27  1  0.500000  0.500000  0.000000  1
  Os  Os28  1  0.500000  0.000000  0.000000  1
  Ru  Ru29  1  0.000000  0.000000  0.000000  1
