# generated using pymatgen
data_CsRbLa2(SbAu)4
_symmetry_space_group_name_H-M   'P 1'
_cell_length_a   4.72104100
_cell_length_b   4.72104000
_cell_length_c   20.09742900
_cell_angle_alpha   90.00000000
_cell_angle_beta   90.00000000
_cell_angle_gamma   120.00001398
_symmetry_Int_Tables_number   1
_chemical_formula_structural   CsRbLa2(SbAu)4
_chemical_formula_sum   'Cs1 Rb1 La2 Sb4 Au4'
_cell_volume   387.92389003
_cell_formula_units_Z   1
loop_
 _symmetry_equiv_pos_site_id
 _symmetry_equiv_pos_as_xyz
  1  'x, y, z'
loop_
 _atom_site_type_symbol
 _atom_site_label
 _atom_site_symmetry_multiplicity
 _atom_site_fract_x
 _atom_site_fract_y
 _atom_site_fract_z
 _atom_site_occupancy
  Cs  Cs0  1  0.000000  0.000000  0.500000  1
  Rb  Rb1  1  0.000000  0.000000  0.000000  1
  La  La2  1  0.000000  0.000000  0.249703  1
  La  La3  1  0.000000  0.000000  0.750297  1
  Sb  Sb4  1  0.333333  0.666667  0.358793  1
  Sb  Sb5  1  0.666667  0.333333  0.641207  1
  Sb  Sb6  1  0.666667  0.333333  0.861313  1
  Sb  Sb7  1  0.333333  0.666667  0.138687  1
  Au  Au8  1  0.666667  0.333333  0.341534  1
  Au  Au9  1  0.333333  0.666667  0.658466  1
  Au  Au10  1  0.333333  0.666667  0.841663  1
  Au  Au11  1  0.666667  0.333333  0.158337  1
