# generated using pymatgen
data_Ho5Lu15(Cd3Os)2
_symmetry_space_group_name_H-M   'P 1'
_cell_length_a   9.43931100
_cell_length_b   9.44148213
_cell_length_c   9.70570500
_cell_angle_alpha   90.00000000
_cell_angle_beta   90.00000000
_cell_angle_gamma   119.77187863
_symmetry_Int_Tables_number   1
_chemical_formula_structural   Ho5Lu15(Cd3Os)2
_chemical_formula_sum   'Ho5 Lu15 Cd6 Os2'
_cell_volume   750.81323637
_cell_formula_units_Z   1
loop_
 _symmetry_equiv_pos_site_id
 _symmetry_equiv_pos_as_xyz
  1  'x, y, z'
loop_
 _atom_site_type_symbol
 _atom_site_label
 _atom_site_symmetry_multiplicity
 _atom_site_fract_x
 _atom_site_fract_y
 _atom_site_fract_z
 _atom_site_occupancy
  Ho  Ho0  1  0.539149  0.078783  0.250000  1
  Ho  Ho1  1  0.921566  0.461345  0.250000  1
  Ho  Ho2  1  0.460806  0.539111  0.750000  1
  Ho  Ho3  1  0.461641  0.924585  0.750000  1
  Ho  Ho4  1  0.075661  0.538427  0.750000  1
  Lu  Lu5  1  0.000691  0.999153  0.499710  1
  Lu  Lu6  1  0.000691  0.999153  0.000290  1
  Lu  Lu7  1  0.210470  0.789729  0.440839  1
  Lu  Lu8  1  0.210463  0.419423  0.441520  1
  Lu  Lu9  1  0.580579  0.789528  0.441403  1
  Lu  Lu10  1  0.790367  0.209664  0.558232  1
  Lu  Lu11  1  0.788238  0.579251  0.557725  1
  Lu  Lu12  1  0.420517  0.211649  0.557650  1
  Lu  Lu13  1  0.790367  0.209664  0.941768  1
  Lu  Lu14  1  0.788238  0.579251  0.942275  1
  Lu  Lu15  1  0.420517  0.211649  0.942350  1
  Lu  Lu16  1  0.210470  0.789729  0.059161  1
  Lu  Lu17  1  0.210463  0.419423  0.058480  1
  Lu  Lu18  1  0.580579  0.789528  0.058597  1
  Lu  Lu19  1  0.536304  0.463745  0.250000  1
  Cd  Cd20  1  0.886917  0.113374  0.250000  1
  Cd  Cd21  1  0.883834  0.772019  0.250000  1
  Cd  Cd22  1  0.228289  0.116142  0.250000  1
  Cd  Cd23  1  0.113228  0.886703  0.750000  1
  Cd  Cd24  1  0.114147  0.225615  0.750000  1
  Cd  Cd25  1  0.774018  0.885755  0.750000  1
  Os  Os26  1  0.334738  0.664560  0.250000  1
  Os  Os27  1  0.667051  0.333041  0.750000  1
