# generated using pymatgen
data_Th2Mn7CoP7Rh4
_symmetry_space_group_name_H-M   'P 1'
_cell_length_a   9.47582241
_cell_length_b   9.38516754
_cell_length_c   3.82206200
_cell_angle_alpha   90.00000000
_cell_angle_beta   90.00000000
_cell_angle_gamma   120.14921885
_symmetry_Int_Tables_number   1
_chemical_formula_structural   Th2Mn7CoP7Rh4
_chemical_formula_sum   'Th2 Mn7 Co1 P7 Rh4'
_cell_volume   293.92215224
_cell_formula_units_Z   1
loop_
 _symmetry_equiv_pos_site_id
 _symmetry_equiv_pos_as_xyz
  1  'x, y, z'
loop_
 _atom_site_type_symbol
 _atom_site_label
 _atom_site_symmetry_multiplicity
 _atom_site_fract_x
 _atom_site_fract_y
 _atom_site_fract_z
 _atom_site_occupancy
  Th  Th0  1  0.331770  0.660852  0.000000  1
  Th  Th1  1  0.002785  0.006572  0.500000  1
  Mn  Mn2  1  0.553136  0.063013  0.000000  1
  Mn  Mn3  1  0.937215  0.482420  0.000000  1
  Mn  Mn4  1  0.511342  0.450037  0.000000  1
  Mn  Mn5  1  0.277702  0.379310  0.500000  1
  Mn  Mn6  1  0.785367  0.232513  0.500000  1
  Mn  Mn7  1  0.766659  0.550006  0.500000  1
  Mn  Mn8  1  0.448377  0.221831  0.500000  1
  Co  Co9  1  0.034450  0.278102  0.000000  1
  P  P10  1  0.782660  0.048471  0.000000  1
  P  P11  1  0.961932  0.733316  0.000000  1
  P  P12  1  0.257112  0.239868  0.000000  1
  P  P13  1  0.388811  0.943784  0.500000  1
  P  P14  1  0.068629  0.433892  0.500000  1
  P  P15  1  0.538763  0.598611  0.500000  1
  P  P16  1  0.665326  0.334474  0.000000  1
  Rh  Rh17  1  0.731645  0.762992  0.000000  1
  Rh  Rh18  1  0.237138  0.972853  0.000000  1
  Rh  Rh19  1  0.613029  0.892324  0.500000  1
  Rh  Rh20  1  0.106149  0.714756  0.500000  1
