# generated using pymatgen
data_Yb5Lu3(Si4W3)4
_symmetry_space_group_name_H-M   'P 1'
_cell_length_a   6.69339246
_cell_length_b   6.90463997
_cell_length_c   12.94769104
_cell_angle_alpha   89.88891791
_cell_angle_beta   89.97731498
_cell_angle_gamma   89.91119736
_symmetry_Int_Tables_number   1
_chemical_formula_structural   Yb5Lu3(Si4W3)4
_chemical_formula_sum   'Yb5 Lu3 Si16 W12'
_cell_volume   598.38167395
_cell_formula_units_Z   1
loop_
 _symmetry_equiv_pos_site_id
 _symmetry_equiv_pos_as_xyz
  1  'x, y, z'
loop_
 _atom_site_type_symbol
 _atom_site_label
 _atom_site_symmetry_multiplicity
 _atom_site_fract_x
 _atom_site_fract_y
 _atom_site_fract_z
 _atom_site_occupancy
  Yb  Yb0  1  0.498262  0.334164  0.089820  1
  Yb  Yb1  1  0.998431  0.168225  0.408946  1
  Yb  Yb2  1  0.500916  0.668627  0.591093  1
  Yb  Yb3  1  0.001191  0.831056  0.908746  1
  Yb  Yb4  1  0.501062  0.667423  0.910242  1
  Lu  Lu5  1  0.001468  0.828577  0.593451  1
  Lu  Lu6  1  0.498359  0.330020  0.406769  1
  Lu  Lu7  1  0.997700  0.169920  0.093225  1
  Si  Si8  1  0.663847  0.041216  0.543934  1
  Si  Si9  1  0.161675  0.456964  0.955897  1
  Si  Si10  1  0.336815  0.959065  0.045492  1
  Si  Si11  1  0.835935  0.541486  0.455383  1
  Si  Si12  1  0.337052  0.958268  0.455280  1
  Si  Si13  1  0.838705  0.542074  0.045185  1
  Si  Si14  1  0.662791  0.041867  0.955673  1
  Si  Si15  1  0.163109  0.458341  0.543964  1
  Si  Si16  1  0.534193  0.377757  0.750024  1
  Si  Si17  1  0.035021  0.121241  0.749114  1
  Si  Si18  1  0.465758  0.625260  0.249603  1
  Si  Si19  1  0.966017  0.876902  0.250190  1
  Si  Si20  1  0.798099  0.634647  0.750417  1
  Si  Si21  1  0.301306  0.863682  0.750662  1
  Si  Si22  1  0.200503  0.364618  0.249776  1
  Si  Si23  1  0.699551  0.137150  0.250055  1
  W  W24  1  0.833367  0.333618  0.625546  1
  W  W25  1  0.333620  0.166428  0.872931  1
  W  W26  1  0.165674  0.665289  0.126475  1
  W  W27  1  0.667307  0.835368  0.374255  1
  W  W28  1  0.165933  0.665278  0.374329  1
  W  W29  1  0.668250  0.837247  0.126834  1
  W  W30  1  0.836546  0.331400  0.873317  1
  W  W31  1  0.333824  0.165893  0.624942  1
  W  W32  1  0.661606  0.007952  0.749032  1
  W  W33  1  0.159957  0.491339  0.748693  1
  W  W34  1  0.337940  0.995535  0.250589  1
  W  W35  1  0.838208  0.506109  0.250118  1
