# generated using pymatgen
data_DyLu11Co5Sb
_symmetry_space_group_name_H-M   'P 1'
_cell_length_a   8.11123354
_cell_length_b   8.11865868
_cell_length_c   8.11865855
_cell_angle_alpha   111.13902937
_cell_angle_beta   110.93137289
_cell_angle_gamma   106.42162938
_symmetry_Int_Tables_number   1
_chemical_formula_structural   DyLu11Co5Sb
_chemical_formula_sum   'Dy1 Lu11 Co5 Sb1'
_cell_volume   410.50292172
_cell_formula_units_Z   1
loop_
 _symmetry_equiv_pos_site_id
 _symmetry_equiv_pos_as_xyz
  1  'x, y, z'
loop_
 _atom_site_type_symbol
 _atom_site_label
 _atom_site_symmetry_multiplicity
 _atom_site_fract_x
 _atom_site_fract_y
 _atom_site_fract_z
 _atom_site_occupancy
  Dy  Dy0  1  0.018015  0.212898  0.805117  1
  Lu  Lu1  1  0.815075  0.712497  0.528998  1
  Lu  Lu2  1  0.183848  0.285230  0.468005  1
  Lu  Lu3  1  0.183848  0.715843  0.898617  1
  Lu  Lu4  1  0.815075  0.286076  0.102578  1
  Lu  Lu5  1  0.686531  0.380999  0.692387  1
  Lu  Lu6  1  0.313490  0.620596  0.308445  1
  Lu  Lu7  1  0.686531  0.994143  0.305531  1
  Lu  Lu8  1  0.313490  0.005045  0.692895  1
  Lu  Lu9  1  0.592221  0.787272  0.804949  1
  Lu  Lu10  1  0.408725  0.212314  0.196411  1
  Lu  Lu11  1  0.983182  0.787736  0.195446  1
  Co  Co12  1  0.625085  0.999119  0.625967  1
  Co  Co13  1  0.373421  0.000471  0.372952  1
  Co  Co14  1  0.113404  0.613230  0.500173  1
  Co  Co15  1  0.886082  0.387329  0.498753  1
  Co  Co16  1  0.000261  0.998414  0.001847  1
  Sb  Sb17  1  0.501715  0.500789  0.000926  1
