# generated using pymatgen
data_Dy4Y4TiV3O20
_symmetry_space_group_name_H-M   'P 1'
_cell_length_a   3.72983100
_cell_length_b   10.41750640
_cell_length_c   11.29409807
_cell_angle_alpha   90.11760443
_cell_angle_beta   90.00000000
_cell_angle_gamma   90.00000000
_symmetry_Int_Tables_number   1
_chemical_formula_structural   Dy4Y4TiV3O20
_chemical_formula_sum   'Dy4 Y4 Ti1 V3 O20'
_cell_volume   438.83733565
_cell_formula_units_Z   1
loop_
 _symmetry_equiv_pos_site_id
 _symmetry_equiv_pos_as_xyz
  1  'x, y, z'
loop_
 _atom_site_type_symbol
 _atom_site_label
 _atom_site_symmetry_multiplicity
 _atom_site_fract_x
 _atom_site_fract_y
 _atom_site_fract_z
 _atom_site_occupancy
  Dy  Dy0  1  0.750000  0.381408  0.773629  1
  Dy  Dy1  1  0.750000  0.880521  0.725504  1
  Dy  Dy2  1  0.250000  0.617378  0.224461  1
  Dy  Dy3  1  0.250000  0.117717  0.275429  1
  Y  Y4  1  0.250000  0.136222  0.943801  1
  Y  Y5  1  0.250000  0.637318  0.554774  1
  Y  Y6  1  0.750000  0.862561  0.055732  1
  Y  Y7  1  0.750000  0.363764  0.445154  1
  Ti  Ti8  1  0.750000  0.326256  0.119362  1
  V  V9  1  0.250000  0.171075  0.618690  1
  V  V10  1  0.250000  0.671287  0.881068  1
  V  V11  1  0.750000  0.828539  0.380967  1
  O  O12  1  0.250000  0.225532  0.457661  1
  O  O13  1  0.250000  0.726303  0.041931  1
  O  O14  1  0.750000  0.774399  0.542386  1
  O  O15  1  0.750000  0.276609  0.956950  1
  O  O16  1  0.250000  0.494049  0.394650  1
  O  O17  1  0.250000  0.994969  0.105765  1
  O  O18  1  0.750000  0.506022  0.605919  1
  O  O19  1  0.750000  0.006468  0.894160  1
  O  O20  1  0.250000  0.264534  0.117395  1
  O  O21  1  0.250000  0.764859  0.383198  1
  O  O22  1  0.750000  0.735071  0.883075  1
  O  O23  1  0.750000  0.234862  0.616593  1
  O  O24  1  0.250000  0.008562  0.654248  1
  O  O25  1  0.250000  0.508592  0.845648  1
  O  O26  1  0.750000  0.991559  0.346307  1
  O  O27  1  0.750000  0.492948  0.154745  1
  O  O28  1  0.250000  0.258371  0.769327  1
  O  O29  1  0.250000  0.758552  0.730757  1
  O  O30  1  0.750000  0.742928  0.230346  1
  O  O31  1  0.750000  0.240771  0.270369  1
