# generated using pymatgen
data_ZrTiBe9Re
_symmetry_space_group_name_H-M   'P 1'
_cell_length_a   7.51908654
_cell_length_b   7.51908642
_cell_length_c   7.51908690
_cell_angle_alpha   34.70570338
_cell_angle_beta   34.70570794
_cell_angle_gamma   34.70570055
_symmetry_Int_Tables_number   1
_chemical_formula_structural   ZrTiBe9Re
_chemical_formula_sum   'Zr1 Ti1 Be9 Re1'
_cell_volume   122.98358093
_cell_formula_units_Z   1
loop_
 _symmetry_equiv_pos_site_id
 _symmetry_equiv_pos_as_xyz
  1  'x, y, z'
loop_
 _atom_site_type_symbol
 _atom_site_label
 _atom_site_symmetry_multiplicity
 _atom_site_fract_x
 _atom_site_fract_y
 _atom_site_fract_z
 _atom_site_occupancy
  Zr  Zr0  1  0.996659  0.996659  0.996659  1
  Ti  Ti1  1  0.143841  0.143841  0.143841  1
  Be  Be2  1  0.413816  0.917862  0.413816  1
  Be  Be3  1  0.413816  0.413816  0.917862  1
  Be  Be4  1  0.917862  0.413816  0.413816  1
  Be  Be5  1  0.588497  0.076777  0.588497  1
  Be  Be6  1  0.588497  0.588497  0.076777  1
  Be  Be7  1  0.076777  0.588497  0.588497  1
  Be  Be8  1  0.667443  0.667443  0.667443  1
  Be  Be9  1  0.336541  0.336541  0.336541  1
  Be  Be10  1  0.500165  0.500165  0.500165  1
  Re  Re11  1  0.856086  0.856086  0.856086  1
