# generated using pymatgen
data_CeY(ReN3)2
_symmetry_space_group_name_H-M   'P 1'
_cell_length_a   5.44962200
_cell_length_b   5.64416900
_cell_length_c   7.75396000
_cell_angle_alpha   90.00000000
_cell_angle_beta   90.00000000
_cell_angle_gamma   90.00000000
_symmetry_Int_Tables_number   1
_chemical_formula_structural   CeY(ReN3)2
_chemical_formula_sum   'Ce2 Y2 Re4 N12'
_cell_volume   238.50085755
_cell_formula_units_Z   2
loop_
 _symmetry_equiv_pos_site_id
 _symmetry_equiv_pos_as_xyz
  1  'x, y, z'
loop_
 _atom_site_type_symbol
 _atom_site_label
 _atom_site_symmetry_multiplicity
 _atom_site_fract_x
 _atom_site_fract_y
 _atom_site_fract_z
 _atom_site_occupancy
  Ce  Ce0  1  0.478527  0.450945  0.250000  1
  Ce  Ce1  1  0.021473  0.950945  0.250000  1
  Y  Y2  1  0.501719  0.561838  0.750000  1
  Y  Y3  1  0.998281  0.061838  0.750000  1
  Re  Re4  1  0.509208  0.004109  0.502957  1
  Re  Re5  1  0.990792  0.504109  0.997043  1
  Re  Re6  1  0.990792  0.504109  0.502957  1
  Re  Re7  1  0.509208  0.004109  0.997043  1
  N  N8  1  0.701814  0.292868  0.541808  1
  N  N9  1  0.300333  0.699729  0.044081  1
  N  N10  1  0.199667  0.199729  0.044081  1
  N  N11  1  0.418104  0.980093  0.750000  1
  N  N12  1  0.927163  0.513712  0.250000  1
  N  N13  1  0.300333  0.699729  0.455919  1
  N  N14  1  0.798186  0.792868  0.958192  1
  N  N15  1  0.701814  0.292868  0.958192  1
  N  N16  1  0.798186  0.792868  0.541808  1
  N  N17  1  0.081896  0.480093  0.750000  1
  N  N18  1  0.199667  0.199729  0.455919  1
  N  N19  1  0.572837  0.013712  0.250000  1
