# generated using pymatgen
data_Dy3Y5Tc(B8Ru)3
_symmetry_space_group_name_H-M   'P 1'
_cell_length_a   3.67588000
_cell_length_b   9.15772613
_cell_length_c   11.54488701
_cell_angle_alpha   89.90495355
_cell_angle_beta   90.00000000
_cell_angle_gamma   90.00000000
_symmetry_Int_Tables_number   1
_chemical_formula_structural   Dy3Y5Tc(B8Ru)3
_chemical_formula_sum   'Dy3 Y5 Tc1 B24 Ru3'
_cell_volume   388.63156002
_cell_formula_units_Z   1
loop_
 _symmetry_equiv_pos_site_id
 _symmetry_equiv_pos_as_xyz
  1  'x, y, z'
loop_
 _atom_site_type_symbol
 _atom_site_label
 _atom_site_symmetry_multiplicity
 _atom_site_fract_x
 _atom_site_fract_y
 _atom_site_fract_z
 _atom_site_occupancy
  Dy  Dy0  1  0.000000  0.057017  0.628471  1
  Dy  Dy1  1  0.000000  0.444267  0.128196  1
  Dy  Dy2  1  0.000000  0.556596  0.871213  1
  Y  Y3  1  0.000000  0.324685  0.413240  1
  Y  Y4  1  0.000000  0.676386  0.583556  1
  Y  Y5  1  0.000000  0.821110  0.087989  1
  Y  Y6  1  0.000000  0.176538  0.914962  1
  Y  Y7  1  0.000000  0.943653  0.372494  1
  Tc  Tc8  1  0.000000  0.637869  0.321135  1
  B  B9  1  0.500000  0.553145  0.433014  1
  B  B10  1  0.500000  0.446089  0.567608  1
  B  B11  1  0.500000  0.053975  0.067317  1
  B  B12  1  0.500000  0.945905  0.932911  1
  B  B13  1  0.500000  0.748027  0.419482  1
  B  B14  1  0.500000  0.252184  0.580644  1
  B  B15  1  0.500000  0.247957  0.080388  1
  B  B16  1  0.500000  0.751911  0.919475  1
  B  B17  1  0.500000  0.791640  0.266216  1
  B  B18  1  0.500000  0.209019  0.733655  1
  B  B19  1  0.500000  0.291054  0.232937  1
  B  B20  1  0.500000  0.709414  0.766348  1
  B  B21  1  0.500000  0.632056  0.185755  1
  B  B22  1  0.500000  0.367585  0.814581  1
  B  B23  1  0.500000  0.132315  0.314052  1
  B  B24  1  0.500000  0.868246  0.685606  1
  B  B25  1  0.500000  0.983958  0.212595  1
  B  B26  1  0.500000  0.015943  0.787743  1
  B  B27  1  0.500000  0.483166  0.287288  1
  B  B28  1  0.500000  0.515672  0.712667  1
  B  B29  1  0.500000  0.608344  0.029356  1
  B  B30  1  0.500000  0.391150  0.969581  1
  B  B31  1  0.500000  0.109123  0.470204  1
  B  B32  1  0.500000  0.892310  0.530469  1
  Ru  Ru33  1  0.000000  0.361555  0.679402  1
  Ru  Ru34  1  0.000000  0.138109  0.178286  1
  Ru  Ru35  1  0.000000  0.862027  0.821161  1
