# generated using pymatgen
data_Er12Fe4CuSn
_symmetry_space_group_name_H-M   'P 1'
_cell_length_a   8.25013812
_cell_length_b   8.25001237
_cell_length_c   8.25013873
_cell_angle_alpha   110.82169277
_cell_angle_beta   110.96820815
_cell_angle_gamma   106.66043305
_symmetry_Int_Tables_number   1
_chemical_formula_structural   Er12Fe4CuSn
_chemical_formula_sum   'Er12 Fe4 Cu1 Sn1'
_cell_volume   431.49067343
_cell_formula_units_Z   1
loop_
 _symmetry_equiv_pos_site_id
 _symmetry_equiv_pos_as_xyz
  1  'x, y, z'
loop_
 _atom_site_type_symbol
 _atom_site_label
 _atom_site_symmetry_multiplicity
 _atom_site_fract_x
 _atom_site_fract_y
 _atom_site_fract_z
 _atom_site_occupancy
  Er  Er0  1  0.312644  0.614010  0.301365  1
  Er  Er1  1  0.687356  0.385991  0.698635  1
  Er  Er2  1  0.312649  0.011287  0.698638  1
  Er  Er3  1  0.687351  0.988713  0.301362  1
  Er  Er4  1  0.419476  0.217848  0.201632  1
  Er  Er5  1  0.580524  0.782152  0.798368  1
  Er  Er6  1  0.016215  0.217848  0.798371  1
  Er  Er7  1  0.983785  0.782152  0.201629  1
  Er  Er8  1  0.186648  0.288470  0.475119  1
  Er  Er9  1  0.813352  0.711530  0.524881  1
  Er  Er10  1  0.186650  0.711530  0.898179  1
  Er  Er11  1  0.813350  0.288470  0.101821  1
  Fe  Fe12  1  0.108737  0.608737  0.500000  1
  Fe  Fe13  1  0.891264  0.391264  0.500000  1
  Fe  Fe14  1  0.383575  0.000000  0.383575  1
  Fe  Fe15  1  0.616425  0.000000  0.616425  1
  Cu  Cu16  1  0.000000  0.000000  0.000000  1
  Sn  Sn17  1  0.500000  0.500000  0.000000  1
