# generated using pymatgen
data_Er7USb20
_symmetry_space_group_name_H-M   'P 1'
_cell_length_a   4.19150500
_cell_length_b   13.05486927
_cell_length_c   14.53750200
_cell_angle_alpha   78.48552573
_cell_angle_beta   90.00000000
_cell_angle_gamma   90.00000000
_symmetry_Int_Tables_number   1
_chemical_formula_structural   Er7USb20
_chemical_formula_sum   'Er7 U1 Sb20'
_cell_volume   779.47586796
_cell_formula_units_Z   1
loop_
 _symmetry_equiv_pos_site_id
 _symmetry_equiv_pos_as_xyz
  1  'x, y, z'
loop_
 _atom_site_type_symbol
 _atom_site_label
 _atom_site_symmetry_multiplicity
 _atom_site_fract_x
 _atom_site_fract_y
 _atom_site_fract_z
 _atom_site_occupancy
  Er  Er0  1  0.750000  0.606562  0.227942  1
  Er  Er1  1  0.250000  0.664106  0.858310  1
  Er  Er2  1  0.750000  0.337624  0.143267  1
  Er  Er3  1  0.250000  0.671773  0.572992  1
  Er  Er4  1  0.750000  0.331246  0.423964  1
  Er  Er5  1  0.250000  0.953278  0.360649  1
  Er  Er6  1  0.750000  0.046138  0.639957  1
  U  U7  1  0.250000  0.391005  0.770692  1
  Sb  Sb8  1  0.250000  0.143080  0.777720  1
  Sb  Sb9  1  0.750000  0.858159  0.224629  1
  Sb  Sb10  1  0.250000  0.144445  0.484915  1
  Sb  Sb11  1  0.750000  0.857357  0.516910  1
  Sb  Sb12  1  0.250000  0.151516  0.169307  1
  Sb  Sb13  1  0.750000  0.849407  0.830704  1
  Sb  Sb14  1  0.250000  0.421423  0.976654  1
  Sb  Sb15  1  0.750000  0.579259  0.022005  1
  Sb  Sb16  1  0.750000  0.030406  0.917947  1
  Sb  Sb17  1  0.250000  0.966329  0.085747  1
  Sb  Sb18  1  0.750000  0.139751  0.321117  1
  Sb  Sb19  1  0.250000  0.860027  0.680115  1
  Sb  Sb20  1  0.750000  0.277008  0.927856  1
  Sb  Sb21  1  0.250000  0.724056  0.062648  1
  Sb  Sb22  1  0.750000  0.283790  0.657267  1
  Sb  Sb23  1  0.250000  0.716194  0.344748  1
  Sb  Sb24  1  0.750000  0.569916  0.736162  1
  Sb  Sb25  1  0.250000  0.423723  0.265689  1
  Sb  Sb26  1  0.750000  0.573151  0.447654  1
  Sb  Sb27  1  0.250000  0.429273  0.552434  1
