# generated using pymatgen
data_HgIr2PbO7
_symmetry_space_group_name_H-M   'P 1'
_cell_length_a   7.33804204
_cell_length_b   7.33804176
_cell_length_c   7.25602700
_cell_angle_alpha   60.36904167
_cell_angle_beta   60.36904290
_cell_angle_gamma   60.91449288
_symmetry_Int_Tables_number   1
_chemical_formula_structural   HgIr2PbO7
_chemical_formula_sum   'Hg2 Ir4 Pb2 O14'
_cell_volume   279.69834426
_cell_formula_units_Z   2
loop_
 _symmetry_equiv_pos_site_id
 _symmetry_equiv_pos_as_xyz
  1  'x, y, z'
loop_
 _atom_site_type_symbol
 _atom_site_label
 _atom_site_symmetry_multiplicity
 _atom_site_fract_x
 _atom_site_fract_y
 _atom_site_fract_z
 _atom_site_occupancy
  Hg  Hg0  1  0.125000  0.125000  0.625000  1
  Hg  Hg1  1  0.125000  0.125000  0.125000  1
  Ir  Ir2  1  0.125000  0.625000  0.625000  1
  Ir  Ir3  1  0.625000  0.125000  0.625000  1
  Ir  Ir4  1  0.625000  0.625000  0.125000  1
  Ir  Ir5  1  0.625000  0.625000  0.625000  1
  Pb  Pb6  1  0.625000  0.125000  0.125000  1
  Pb  Pb7  1  0.125000  0.625000  0.125000  1
  O  O8  1  0.705123  0.705123  0.294877  1
  O  O9  1  0.308690  0.308690  0.691310  1
  O  O10  1  0.688299  0.303335  0.708763  1
  O  O11  1  0.303335  0.688299  0.299603  1
  O  O12  1  0.303335  0.688299  0.708763  1
  O  O13  1  0.688299  0.303335  0.299603  1
  O  O14  1  0.544877  0.544877  0.955123  1
  O  O15  1  0.941310  0.941310  0.558690  1
  O  O16  1  0.561701  0.946665  0.541237  1
  O  O17  1  0.946665  0.561701  0.950397  1
  O  O18  1  0.946665  0.561701  0.541237  1
  O  O19  1  0.561701  0.946665  0.950397  1
  O  O20  1  0.235625  0.235625  0.264375  1
  O  O21  1  0.014375  0.014375  0.985625  1
