# generated using pymatgen
data_Zr4NiRhN
_symmetry_space_group_name_H-M   'P 1'
_cell_length_a   8.70099104
_cell_length_b   8.70099152
_cell_length_c   8.70099200
_cell_angle_alpha   59.99999818
_cell_angle_beta   59.99999634
_cell_angle_gamma   60.00000379
_symmetry_Int_Tables_number   1
_chemical_formula_structural   Zr4NiRhN
_chemical_formula_sum   'Zr16 Ni4 Rh4 N4'
_cell_volume   465.79115017
_cell_formula_units_Z   4
loop_
 _symmetry_equiv_pos_site_id
 _symmetry_equiv_pos_as_xyz
  1  'x, y, z'
loop_
 _atom_site_type_symbol
 _atom_site_label
 _atom_site_symmetry_multiplicity
 _atom_site_fract_x
 _atom_site_fract_y
 _atom_site_fract_z
 _atom_site_occupancy
  Zr  Zr0  1  0.088773  0.637075  0.637075  1
  Zr  Zr1  1  0.637075  0.088773  0.637075  1
  Zr  Zr2  1  0.637075  0.637075  0.088773  1
  Zr  Zr3  1  0.637075  0.637075  0.637075  1
  Zr  Zr4  1  0.814072  0.814072  0.185928  1
  Zr  Zr5  1  0.185928  0.185928  0.814072  1
  Zr  Zr6  1  0.814072  0.185928  0.814072  1
  Zr  Zr7  1  0.185928  0.814072  0.185928  1
  Zr  Zr8  1  0.185928  0.814072  0.814072  1
  Zr  Zr9  1  0.814072  0.185928  0.185928  1
  Zr  Zr10  1  0.433268  0.433268  0.066732  1
  Zr  Zr11  1  0.066732  0.066732  0.433268  1
  Zr  Zr12  1  0.433268  0.066732  0.433268  1
  Zr  Zr13  1  0.066732  0.433268  0.066732  1
  Zr  Zr14  1  0.066732  0.433268  0.433268  1
  Zr  Zr15  1  0.433268  0.066732  0.066732  1
  Ni  Ni16  1  0.448278  0.850574  0.850574  1
  Ni  Ni17  1  0.850574  0.448278  0.850574  1
  Ni  Ni18  1  0.850574  0.850574  0.448278  1
  Ni  Ni19  1  0.850574  0.850574  0.850574  1
  Rh  Rh20  1  0.752142  0.415953  0.415953  1
  Rh  Rh21  1  0.415953  0.752142  0.415953  1
  Rh  Rh22  1  0.415953  0.415953  0.752142  1
  Rh  Rh23  1  0.415953  0.415953  0.415953  1
  N  N24  1  0.624296  0.125234  0.125234  1
  N  N25  1  0.125234  0.624296  0.125234  1
  N  N26  1  0.125234  0.125234  0.624296  1
  N  N27  1  0.125234  0.125234  0.125234  1
