# generated using pymatgen
data_Tb3Yb6Sm2In9Pd4
_symmetry_space_group_name_H-M   'P 1'
_cell_length_a   13.37742401
_cell_length_b   13.37749722
_cell_length_c   3.70546700
_cell_angle_alpha   90.00000000
_cell_angle_beta   90.00000000
_cell_angle_gamma   112.07129569
_symmetry_Int_Tables_number   1
_chemical_formula_structural   Tb3Yb6Sm2In9Pd4
_chemical_formula_sum   'Tb3 Yb6 Sm2 In9 Pd4'
_cell_volume   614.52200713
_cell_formula_units_Z   1
loop_
 _symmetry_equiv_pos_site_id
 _symmetry_equiv_pos_as_xyz
  1  'x, y, z'
loop_
 _atom_site_type_symbol
 _atom_site_label
 _atom_site_symmetry_multiplicity
 _atom_site_fract_x
 _atom_site_fract_y
 _atom_site_fract_z
 _atom_site_occupancy
  Tb  Tb0  1  0.623132  0.376869  0.000000  1
  Tb  Tb1  1  0.310550  0.310001  0.000000  1
  Tb  Tb2  1  0.689995  0.689447  0.000000  1
  Yb  Yb3  1  0.413973  0.069806  0.000000  1
  Yb  Yb4  1  0.586304  0.930813  0.000000  1
  Yb  Yb5  1  0.069187  0.413696  0.000000  1
  Yb  Yb6  1  0.930194  0.586027  0.000000  1
  Yb  Yb7  1  0.160569  0.839432  0.000000  1
  Yb  Yb8  1  0.839464  0.160537  0.000000  1
  Sm  Sm9  1  0.376652  0.623349  0.000000  1
  Sm  Sm10  1  0.999921  0.000079  0.000000  1
  In  In11  1  0.369242  0.835737  0.500000  1
  In  In12  1  0.630647  0.165311  0.500000  1
  In  In13  1  0.834689  0.369353  0.500000  1
  In  In14  1  0.164264  0.630758  0.500000  1
  In  In15  1  0.219218  0.078782  0.500000  1
  In  In16  1  0.781063  0.921369  0.500000  1
  In  In17  1  0.078632  0.218937  0.500000  1
  In  In18  1  0.921217  0.780782  0.500000  1
  In  In19  1  0.500715  0.499282  0.500000  1
  Pd  Pd20  1  0.446920  0.244480  0.500000  1
  Pd  Pd21  1  0.555197  0.757266  0.500000  1
  Pd  Pd22  1  0.242734  0.444803  0.500000  1
  Pd  Pd23  1  0.755521  0.553081  0.500000  1
