# generated using pymatgen
data_SrLi6Pr5(TeO6)4
_symmetry_space_group_name_H-M   'P 1'
_cell_length_a   11.08674753
_cell_length_b   11.09859073
_cell_length_c   11.08649104
_cell_angle_alpha   109.56057790
_cell_angle_beta   109.51649509
_cell_angle_gamma   109.36497304
_symmetry_Int_Tables_number   1
_chemical_formula_structural   SrLi6Pr5(TeO6)4
_chemical_formula_sum   'Sr2 Li12 Pr10 Te8 O48'
_cell_volume   1049.76223279
_cell_formula_units_Z   2
loop_
 _symmetry_equiv_pos_site_id
 _symmetry_equiv_pos_as_xyz
  1  'x, y, z'
loop_
 _atom_site_type_symbol
 _atom_site_label
 _atom_site_symmetry_multiplicity
 _atom_site_fract_x
 _atom_site_fract_y
 _atom_site_fract_z
 _atom_site_occupancy
  Sr  Sr0  1  0.748980  0.374818  0.125308  1
  Sr  Sr1  1  0.376146  0.249875  0.125205  1
  Li  Li2  1  0.874790  0.749981  0.124149  1
  Li  Li3  1  0.249491  0.874258  0.124183  1
  Li  Li4  1  0.874418  0.125037  0.250302  1
  Li  Li5  1  0.375836  0.625307  0.250263  1
  Li  Li6  1  0.750788  0.624321  0.374692  1
  Li  Li7  1  0.623881  0.250142  0.374232  1
  Li  Li8  1  0.375493  0.750091  0.625262  1
  Li  Li9  1  0.249617  0.375152  0.625117  1
  Li  Li10  1  0.124434  0.873889  0.749478  1
  Li  Li11  1  0.625105  0.375608  0.749468  1
  Li  Li12  1  0.125612  0.250058  0.876509  1
  Li  Li13  1  0.750605  0.126308  0.876461  1
  Pr  Pr14  1  0.624548  0.874637  0.249170  1
  Pr  Pr15  1  0.124689  0.374689  0.249360  1
  Pr  Pr16  1  0.251012  0.126190  0.374739  1
  Pr  Pr17  1  0.123654  0.748503  0.374730  1
  Pr  Pr18  1  0.749879  0.874677  0.625022  1
  Pr  Pr19  1  0.875177  0.250418  0.625005  1
  Pr  Pr20  1  0.376674  0.126454  0.753151  1
  Pr  Pr21  1  0.874742  0.624758  0.749496  1
  Pr  Pr22  1  0.249882  0.624808  0.874872  1
  Pr  Pr23  1  0.625100  0.750345  0.874938  1
  Te  Te24  1  0.998627  0.999511  0.999729  1
  Te  Te25  1  0.499714  0.998044  0.998571  1
  Te  Te26  1  0.498850  0.500545  0.998591  1
  Te  Te27  1  0.001096  0.500216  0.999724  1
  Te  Te28  1  0.999927  0.000274  0.500109  1
  Te  Te29  1  0.500026  0.500043  0.501128  1
  Te  Te30  1  0.500177  0.999847  0.500070  1
  Te  Te31  1  0.001118  0.501099  0.501135  1
  O  O32  1  0.911461  0.330215  0.019980  1
  O  O33  1  0.108526  0.189753  0.019998  1
  O  O34  1  0.405317  0.881685  0.074482  1
  O  O35  1  0.669176  0.692845  0.074508  1
  O  O36  1  0.669616  0.974711  0.092391  1
  O  O37  1  0.422793  0.617726  0.092368  1
  O  O38  1  0.930056  0.599661  0.115342  1
  O  O39  1  0.185271  0.015673  0.115338  1
  O  O40  1  0.576831  0.183648  0.170063  1
  O  O41  1  0.593061  0.486351  0.169934  1
  O  O42  1  0.171594  0.576568  0.192351  1
  O  O43  1  0.020744  0.115799  0.192365  1
  O  O44  1  0.383654  0.483698  0.314686  1
  O  O45  1  0.931048  0.330923  0.314639  1
  O  O46  1  0.308848  0.925025  0.330097  1
  O  O47  1  0.021286  0.905091  0.330114  1
  O  O48  1  0.911988  0.582172  0.391747  1
  O  O49  1  0.479759  0.309511  0.391727  1
  O  O50  1  0.522647  0.830325  0.405776  1
  O  O51  1  0.883142  0.075463  0.405797  1
  O  O52  1  0.808657  0.830527  0.424656  1
  O  O53  1  0.616028  0.094153  0.424644  1
  O  O54  1  0.307938  0.384559  0.479774  1
  O  O55  1  0.171869  0.595255  0.479805  1
  O  O56  1  0.691816  0.616306  0.522580  1
  O  O57  1  0.830737  0.406253  0.522519  1
  O  O58  1  0.190925  0.169663  0.574201  1
  O  O59  1  0.383222  0.904486  0.574128  1
  O  O60  1  0.117402  0.926295  0.595418  1
  O  O61  1  0.478027  0.169122  0.595418  1
  O  O62  1  0.523347  0.693084  0.618333  1
  O  O63  1  0.094969  0.425303  0.618298  1
  O  O64  1  0.978041  0.094561  0.670092  1
  O  O65  1  0.692011  0.075556  0.670080  1
  O  O66  1  0.617206  0.524430  0.694357  1
  O  O67  1  0.077182  0.670024  0.694429  1
  O  O68  1  0.976622  0.882891  0.807250  1
  O  O69  1  0.830664  0.424385  0.807259  1
  O  O70  1  0.405779  0.524567  0.829436  1
  O  O71  1  0.423652  0.804855  0.829425  1
  O  O72  1  0.805955  0.976250  0.883099  1
  O  O73  1  0.077129  0.406869  0.883103  1
  O  O74  1  0.571186  0.385285  0.899945  1
  O  O75  1  0.328753  0.014608  0.899935  1
  O  O76  1  0.327843  0.309458  0.917073  1
  O  O77  1  0.589230  0.107559  0.917047  1
  O  O78  1  0.094791  0.669486  0.976916  1
  O  O79  1  0.882125  0.807479  0.976903  1
