# generated using pymatgen
data_K8Li4Sc3GaP8
_symmetry_space_group_name_H-M   'P 1'
_cell_length_a   9.78756493
_cell_length_b   9.78756377
_cell_length_c   6.33087300
_cell_angle_alpha   90.25890394
_cell_angle_beta   89.74110385
_cell_angle_gamma   99.87766917
_symmetry_Int_Tables_number   1
_chemical_formula_structural   K8Li4Sc3GaP8
_chemical_formula_sum   'K8 Li4 Sc3 Ga1 P8'
_cell_volume   597.47430291
_cell_formula_units_Z   1
loop_
 _symmetry_equiv_pos_site_id
 _symmetry_equiv_pos_as_xyz
  1  'x, y, z'
loop_
 _atom_site_type_symbol
 _atom_site_label
 _atom_site_symmetry_multiplicity
 _atom_site_fract_x
 _atom_site_fract_y
 _atom_site_fract_z
 _atom_site_occupancy
  K  K0  1  0.568053  0.930678  0.747819  1
  K  K1  1  0.930678  0.568053  0.252181  1
  K  K2  1  0.431395  0.076753  0.257184  1
  K  K3  1  0.076753  0.431395  0.742816  1
  K  K4  1  0.672025  0.320851  0.784644  1
  K  K5  1  0.823647  0.177139  0.290411  1
  K  K6  1  0.320851  0.672025  0.215356  1
  K  K7  1  0.177139  0.823647  0.709589  1
  Li  Li8  1  0.617261  0.617261  0.000000  1
  Li  Li9  1  0.879508  0.879508  0.500000  1
  Li  Li10  1  0.380055  0.380055  0.000000  1
  Li  Li11  1  0.124617  0.124617  0.500000  1
  Sc  Sc12  1  0.868465  0.868465  0.000000  1
  Sc  Sc13  1  0.624775  0.624775  0.500000  1
  Sc  Sc14  1  0.133386  0.133386  0.000000  1
  Ga  Ga15  1  0.373070  0.373070  0.500000  1
  P  P16  1  0.342907  0.167753  0.741397  1
  P  P17  1  0.167753  0.342907  0.258603  1
  P  P18  1  0.657030  0.837569  0.250376  1
  P  P19  1  0.837569  0.657030  0.749624  1
  P  P20  1  0.909557  0.093931  0.778873  1
  P  P21  1  0.586890  0.402688  0.277542  1
  P  P22  1  0.093931  0.909557  0.221127  1
  P  P23  1  0.402688  0.586890  0.722458  1
