# generated using pymatgen
data_NdYNi10
_symmetry_space_group_name_H-M   'P 1'
_cell_length_a   3.94995600
_cell_length_b   4.91481742
_cell_length_c   8.48954272
_cell_angle_alpha   89.95269121
_cell_angle_beta   90.00000000
_cell_angle_gamma   90.00000000
_symmetry_Int_Tables_number   1
_chemical_formula_structural   NdYNi10
_chemical_formula_sum   'Nd1 Y1 Ni10'
_cell_volume   164.81009014
_cell_formula_units_Z   1
loop_
 _symmetry_equiv_pos_site_id
 _symmetry_equiv_pos_as_xyz
  1  'x, y, z'
loop_
 _atom_site_type_symbol
 _atom_site_label
 _atom_site_symmetry_multiplicity
 _atom_site_fract_x
 _atom_site_fract_y
 _atom_site_fract_z
 _atom_site_occupancy
  Nd  Nd0  1  0.000000  0.500000  0.000000  1
  Y  Y1  1  0.000000  0.000000  0.500000  1
  Ni  Ni2  1  0.000000  0.500009  0.336330  1
  Ni  Ni3  1  0.000000  0.000007  0.830292  1
  Ni  Ni4  1  0.000000  0.999993  0.169708  1
  Ni  Ni5  1  0.000000  0.499991  0.663670  1
  Ni  Ni6  1  0.500000  0.500000  0.500000  1
  Ni  Ni7  1  0.500000  0.000000  0.000000  1
  Ni  Ni8  1  0.500000  0.751619  0.252523  1
  Ni  Ni9  1  0.500000  0.248381  0.747477  1
  Ni  Ni10  1  0.500000  0.248381  0.252523  1
  Ni  Ni11  1  0.500000  0.751619  0.747477  1
