# generated using pymatgen
data_Na7TaAs4
_symmetry_space_group_name_H-M   'P 1'
_cell_length_a   7.56793000
_cell_length_b   8.43300300
_cell_length_c   9.33868200
_cell_angle_alpha   90.00000000
_cell_angle_beta   90.00000000
_cell_angle_gamma   90.00000000
_symmetry_Int_Tables_number   1
_chemical_formula_structural   Na7TaAs4
_chemical_formula_sum   'Na14 Ta2 As8'
_cell_volume   595.99820026
_cell_formula_units_Z   2
loop_
 _symmetry_equiv_pos_site_id
 _symmetry_equiv_pos_as_xyz
  1  'x, y, z'
loop_
 _atom_site_type_symbol
 _atom_site_label
 _atom_site_symmetry_multiplicity
 _atom_site_fract_x
 _atom_site_fract_y
 _atom_site_fract_z
 _atom_site_occupancy
  Na  Na0  1  0.711828  0.833374  0.723798  1
  Na  Na1  1  0.211828  0.166626  0.776202  1
  Na  Na2  1  0.211828  0.166626  0.223798  1
  Na  Na3  1  0.711828  0.833374  0.276202  1
  Na  Na4  1  0.870947  0.460076  0.709481  1
  Na  Na5  1  0.370947  0.539924  0.790519  1
  Na  Na6  1  0.370947  0.539924  0.209481  1
  Na  Na7  1  0.870947  0.460076  0.290519  1
  Na  Na8  1  0.160579  0.660012  0.500000  1
  Na  Na9  1  0.660579  0.339988  0.000000  1
  Na  Na10  1  0.878207  0.036896  0.000000  1
  Na  Na11  1  0.378207  0.963104  0.500000  1
  Na  Na12  1  0.383633  0.897220  0.000000  1
  Na  Na13  1  0.883633  0.102780  0.500000  1
  Ta  Ta14  1  0.999652  0.672958  0.000000  1
  Ta  Ta15  1  0.499652  0.327042  0.500000  1
  As  As16  1  0.670254  0.677810  0.000000  1
  As  As17  1  0.170254  0.322190  0.500000  1
  As  As18  1  0.104225  0.819796  0.778586  1
  As  As19  1  0.604225  0.180204  0.721414  1
  As  As20  1  0.604225  0.180204  0.278586  1
  As  As21  1  0.104225  0.819796  0.221414  1
  As  As22  1  0.586285  0.612744  0.500000  1
  As  As23  1  0.086285  0.387256  0.000000  1
