# generated using pymatgen
data_Sc20Cd6CoRu
_symmetry_space_group_name_H-M   'P 1'
_cell_length_a   8.99623200
_cell_length_b   8.99623161
_cell_length_c   9.10929700
_cell_angle_alpha   90.00000000
_cell_angle_beta   90.00000000
_cell_angle_gamma   120.00000143
_symmetry_Int_Tables_number   1
_chemical_formula_structural   Sc20Cd6CoRu
_chemical_formula_sum   'Sc20 Cd6 Co1 Ru1'
_cell_volume   638.46451115
_cell_formula_units_Z   1
loop_
 _symmetry_equiv_pos_site_id
 _symmetry_equiv_pos_as_xyz
  1  'x, y, z'
loop_
 _atom_site_type_symbol
 _atom_site_label
 _atom_site_symmetry_multiplicity
 _atom_site_fract_x
 _atom_site_fract_y
 _atom_site_fract_z
 _atom_site_occupancy
  Sc  Sc0  1  0.000000  0.000000  0.499922  1
  Sc  Sc1  1  0.000000  0.000000  0.000078  1
  Sc  Sc2  1  0.212461  0.787539  0.436332  1
  Sc  Sc3  1  0.212461  0.424923  0.436332  1
  Sc  Sc4  1  0.575077  0.787539  0.436332  1
  Sc  Sc5  1  0.790213  0.209787  0.558095  1
  Sc  Sc6  1  0.790213  0.580425  0.558095  1
  Sc  Sc7  1  0.419575  0.209787  0.558095  1
  Sc  Sc8  1  0.790213  0.209787  0.941905  1
  Sc  Sc9  1  0.790213  0.580425  0.941905  1
  Sc  Sc10  1  0.419575  0.209787  0.941905  1
  Sc  Sc11  1  0.212461  0.787539  0.063668  1
  Sc  Sc12  1  0.212461  0.424923  0.063668  1
  Sc  Sc13  1  0.575077  0.787539  0.063668  1
  Sc  Sc14  1  0.541209  0.458791  0.250000  1
  Sc  Sc15  1  0.541209  0.082419  0.250000  1
  Sc  Sc16  1  0.917581  0.458791  0.250000  1
  Sc  Sc17  1  0.458447  0.541553  0.750000  1
  Sc  Sc18  1  0.458447  0.916894  0.750000  1
  Sc  Sc19  1  0.083106  0.541553  0.750000  1
  Cd  Cd20  1  0.884378  0.115622  0.250000  1
  Cd  Cd21  1  0.884378  0.768758  0.250000  1
  Cd  Cd22  1  0.231242  0.115622  0.250000  1
  Cd  Cd23  1  0.115735  0.884265  0.750000  1
  Cd  Cd24  1  0.115735  0.231470  0.750000  1
  Cd  Cd25  1  0.768530  0.884265  0.750000  1
  Co  Co26  1  0.333333  0.666667  0.250000  1
  Ru  Ru27  1  0.666667  0.333333  0.750000  1
