# generated using pymatgen
data_Ce4NbZn3Ru4
_symmetry_space_group_name_H-M   'P 1'
_cell_length_a   4.02057900
_cell_length_b   7.43614000
_cell_length_c   15.89540100
_cell_angle_alpha   90.00000000
_cell_angle_beta   90.00000000
_cell_angle_gamma   90.00000000
_symmetry_Int_Tables_number   1
_chemical_formula_structural   Ce4NbZn3Ru4
_chemical_formula_sum   'Ce8 Nb2 Zn6 Ru8'
_cell_volume   475.23415536
_cell_formula_units_Z   2
loop_
 _symmetry_equiv_pos_site_id
 _symmetry_equiv_pos_as_xyz
  1  'x, y, z'
loop_
 _atom_site_type_symbol
 _atom_site_label
 _atom_site_symmetry_multiplicity
 _atom_site_fract_x
 _atom_site_fract_y
 _atom_site_fract_z
 _atom_site_occupancy
  Ce  Ce0  1  0.750000  0.963778  0.220418  1
  Ce  Ce1  1  0.250000  0.172217  0.567954  1
  Ce  Ce2  1  0.750000  0.819423  0.447928  1
  Ce  Ce3  1  0.750000  0.463778  0.279582  1
  Ce  Ce4  1  0.750000  0.319423  0.052072  1
  Ce  Ce5  1  0.250000  0.672217  0.932046  1
  Ce  Ce6  1  0.250000  0.057885  0.785675  1
  Ce  Ce7  1  0.250000  0.557885  0.714325  1
  Nb  Nb8  1  0.250000  0.632417  0.148234  1
  Nb  Nb9  1  0.250000  0.132417  0.351766  1
  Zn  Zn10  1  0.750000  0.493392  0.559053  1
  Zn  Zn11  1  0.750000  0.378099  0.846416  1
  Zn  Zn12  1  0.750000  0.993392  0.940947  1
  Zn  Zn13  1  0.750000  0.878099  0.653584  1
  Zn  Zn14  1  0.250000  0.495826  0.437452  1
  Zn  Zn15  1  0.250000  0.995826  0.062548  1
  Ru  Ru16  1  0.750000  0.741179  0.818323  1
  Ru  Ru17  1  0.250000  0.235667  0.935211  1
  Ru  Ru18  1  0.750000  0.238384  0.432065  1
  Ru  Ru19  1  0.250000  0.771734  0.309328  1
  Ru  Ru20  1  0.750000  0.738384  0.067935  1
  Ru  Ru21  1  0.750000  0.241179  0.681677  1
  Ru  Ru22  1  0.250000  0.271734  0.190672  1
  Ru  Ru23  1  0.250000  0.735667  0.564789  1
