# generated using pymatgen
data_LaCu5(PdO6)2
_symmetry_space_group_name_H-M   'P 1'
_cell_length_a   6.50594264
_cell_length_b   6.50594173
_cell_length_c   6.50622812
_cell_angle_alpha   109.12439151
_cell_angle_beta   108.94865619
_cell_angle_gamma   110.34244710
_symmetry_Int_Tables_number   1
_chemical_formula_structural   LaCu5(PdO6)2
_chemical_formula_sum   'La1 Cu5 Pd2 O12'
_cell_volume   211.96326573
_cell_formula_units_Z   1
loop_
 _symmetry_equiv_pos_site_id
 _symmetry_equiv_pos_as_xyz
  1  'x, y, z'
loop_
 _atom_site_type_symbol
 _atom_site_label
 _atom_site_symmetry_multiplicity
 _atom_site_fract_x
 _atom_site_fract_y
 _atom_site_fract_z
 _atom_site_occupancy
  La  La0  1  0.000000  0.000000  0.000000  1
  Cu  Cu1  1  0.500000  0.500000  0.500000  1
  Cu  Cu2  1  0.000000  0.000000  0.500000  1
  Cu  Cu3  1  0.000000  0.500000  0.500000  1
  Cu  Cu4  1  0.500000  0.500000  0.000000  1
  Cu  Cu5  1  0.500000  0.000000  0.500000  1
  Pd  Pd6  1  0.500000  0.000000  0.000000  1
  Pd  Pd7  1  0.000000  0.500000  0.000000  1
  O  O8  1  0.306403  0.841969  0.148373  1
  O  O9  1  0.693597  0.158031  0.851627  1
  O  O10  1  0.685180  0.826254  0.511434  1
  O  O11  1  0.855244  0.690131  0.168141  1
  O  O12  1  0.832892  0.144032  0.314643  1
  O  O13  1  0.170612  0.481752  0.314643  1
  O  O14  1  0.478010  0.312896  0.168141  1
  O  O15  1  0.167108  0.855968  0.685357  1
  O  O16  1  0.314820  0.173746  0.488566  1
  O  O17  1  0.144756  0.309869  0.831859  1
  O  O18  1  0.829388  0.518248  0.685357  1
  O  O19  1  0.521990  0.687104  0.831859  1
