# generated using pymatgen
data_Cs3Er(Si2O5)3
_symmetry_space_group_name_H-M   'P 1'
_cell_length_a   7.38990200
_cell_length_b   14.81145300
_cell_length_c   16.03808200
_cell_angle_alpha   90.00000000
_cell_angle_beta   90.00000000
_cell_angle_gamma   90.00000000
_symmetry_Int_Tables_number   1
_chemical_formula_structural   Cs3Er(Si2O5)3
_chemical_formula_sum   'Cs12 Er4 Si24 O60'
_cell_volume   1755.45125076
_cell_formula_units_Z   4
loop_
 _symmetry_equiv_pos_site_id
 _symmetry_equiv_pos_as_xyz
  1  'x, y, z'
loop_
 _atom_site_type_symbol
 _atom_site_label
 _atom_site_symmetry_multiplicity
 _atom_site_fract_x
 _atom_site_fract_y
 _atom_site_fract_z
 _atom_site_occupancy
  Cs  Cs0  1  0.500000  0.547694  0.372724  1
  Cs  Cs1  1  0.500000  0.598933  0.917020  1
  Cs  Cs2  1  0.500000  0.401067  0.082980  1
  Cs  Cs3  1  0.500000  0.098933  0.582980  1
  Cs  Cs4  1  0.000000  0.609777  0.716394  1
  Cs  Cs5  1  0.000000  0.390223  0.283606  1
  Cs  Cs6  1  0.000000  0.109777  0.783606  1
  Cs  Cs7  1  0.000000  0.890223  0.216394  1
  Cs  Cs8  1  0.500000  0.901067  0.417020  1
  Cs  Cs9  1  0.500000  0.047694  0.127276  1
  Cs  Cs10  1  0.500000  0.452306  0.627276  1
  Cs  Cs11  1  0.500000  0.952306  0.872724  1
  Er  Er12  1  0.000000  0.500000  0.000000  1
  Er  Er13  1  0.000000  0.000000  0.500000  1
  Er  Er14  1  0.000000  0.500000  0.500000  1
  Er  Er15  1  0.000000  0.000000  0.000000  1
  Si  Si16  1  0.716680  0.196431  0.960089  1
  Si  Si17  1  0.716680  0.803569  0.039911  1
  Si  Si18  1  0.283320  0.696431  0.539911  1
  Si  Si19  1  0.283320  0.303569  0.460088  1
  Si  Si20  1  0.283320  0.803569  0.039911  1
  Si  Si21  1  0.283320  0.196431  0.960089  1
  Si  Si22  1  0.716680  0.303569  0.460088  1
  Si  Si23  1  0.716680  0.696431  0.539911  1
  Si  Si24  1  0.000000  0.782529  0.415175  1
  Si  Si25  1  0.000000  0.217471  0.584825  1
  Si  Si26  1  0.000000  0.282529  0.084825  1
  Si  Si27  1  0.000000  0.717471  0.915175  1
  Si  Si28  1  0.715967  0.366333  0.853621  1
  Si  Si29  1  0.715967  0.633667  0.146379  1
  Si  Si30  1  0.284033  0.866333  0.646379  1
  Si  Si31  1  0.000000  0.871932  0.794121  1
  Si  Si32  1  0.284033  0.133667  0.353621  1
  Si  Si33  1  0.000000  0.128068  0.205879  1
  Si  Si34  1  0.284033  0.366333  0.853621  1
  Si  Si35  1  0.715967  0.133667  0.353621  1
  Si  Si36  1  0.284033  0.633667  0.146379  1
  Si  Si37  1  0.000000  0.628068  0.294121  1
  Si  Si38  1  0.000000  0.371932  0.705879  1
  Si  Si39  1  0.715967  0.866333  0.646379  1
  O  O40  1  0.750412  0.257312  0.874580  1
  O  O41  1  0.500000  0.795884  0.015417  1
  O  O42  1  0.500000  0.204116  0.984583  1
  O  O43  1  0.500000  0.295884  0.484583  1
  O  O44  1  0.500000  0.704116  0.515417  1
  O  O45  1  0.780613  0.093791  0.949363  1
  O  O46  1  0.780613  0.906209  0.050637  1
  O  O47  1  0.219387  0.593791  0.550637  1
  O  O48  1  0.219387  0.406209  0.449363  1
  O  O49  1  0.219387  0.906209  0.050637  1
  O  O50  1  0.219387  0.093791  0.949363  1
  O  O51  1  0.780613  0.406209  0.449363  1
  O  O52  1  0.780613  0.593791  0.550637  1
  O  O53  1  0.750412  0.742688  0.125420  1
  O  O54  1  0.249588  0.757312  0.625420  1
  O  O55  1  0.249588  0.242688  0.374580  1
  O  O56  1  0.249588  0.742688  0.125420  1
  O  O57  1  0.500000  0.620557  0.171494  1
  O  O58  1  0.750412  0.242688  0.374580  1
  O  O59  1  0.750412  0.757312  0.625420  1
  O  O60  1  0.773742  0.431671  0.928196  1
  O  O61  1  0.773742  0.568329  0.071804  1
  O  O62  1  0.226258  0.931671  0.571804  1
  O  O63  1  0.226258  0.068329  0.428196  1
  O  O64  1  0.226258  0.568329  0.071804  1
  O  O65  1  0.249588  0.257312  0.874580  1
  O  O66  1  0.773742  0.068329  0.428196  1
  O  O67  1  0.773742  0.931671  0.571804  1
  O  O68  1  0.814626  0.753304  0.960886  1
  O  O69  1  0.814626  0.246696  0.039114  1
  O  O70  1  0.185374  0.253304  0.539114  1
  O  O71  1  0.185374  0.746696  0.460886  1
  O  O72  1  0.185374  0.246696  0.039114  1
  O  O73  1  0.185374  0.753304  0.960886  1
  O  O74  1  0.814626  0.746696  0.460886  1
  O  O75  1  0.814626  0.253304  0.539114  1
  O  O76  1  0.000000  0.610522  0.904945  1
  O  O77  1  0.000000  0.389478  0.095055  1
  O  O78  1  0.000000  0.110522  0.595055  1
  O  O79  1  0.000000  0.889478  0.404945  1
  O  O80  1  0.000000  0.764966  0.821602  1
  O  O81  1  0.000000  0.235034  0.178398  1
  O  O82  1  0.000000  0.264966  0.678398  1
  O  O83  1  0.000000  0.735034  0.321602  1
  O  O84  1  0.000000  0.936593  0.873732  1
  O  O85  1  0.000000  0.063407  0.126268  1
  O  O86  1  0.000000  0.436593  0.626268  1
  O  O87  1  0.000000  0.563407  0.373732  1
  O  O88  1  0.818785  0.889064  0.735619  1
  O  O89  1  0.818785  0.110936  0.264381  1
  O  O90  1  0.181215  0.389064  0.764381  1
  O  O91  1  0.181215  0.610936  0.235619  1
  O  O92  1  0.181215  0.110936  0.264381  1
  O  O93  1  0.181215  0.889064  0.735619  1
  O  O94  1  0.818785  0.610936  0.235619  1
  O  O95  1  0.818785  0.389064  0.764381  1
  O  O96  1  0.500000  0.879443  0.671494  1
  O  O97  1  0.500000  0.120557  0.328506  1
  O  O98  1  0.500000  0.379443  0.828506  1
  O  O99  1  0.226258  0.431671  0.928196  1
