# generated using pymatgen
data_Ho20(Ir3Rh)3
_symmetry_space_group_name_H-M   'P 1'
_cell_length_a   10.83700500
_cell_length_b   10.83700500
_cell_length_c   6.36416800
_cell_angle_alpha   90.00000000
_cell_angle_beta   90.00000000
_cell_angle_gamma   90.00000000
_symmetry_Int_Tables_number   1
_chemical_formula_structural   Ho20(Ir3Rh)3
_chemical_formula_sum   'Ho20 Ir9 Rh3'
_cell_volume   747.41220082
_cell_formula_units_Z   1
loop_
 _symmetry_equiv_pos_site_id
 _symmetry_equiv_pos_as_xyz
  1  'x, y, z'
loop_
 _atom_site_type_symbol
 _atom_site_label
 _atom_site_symmetry_multiplicity
 _atom_site_fract_x
 _atom_site_fract_y
 _atom_site_fract_z
 _atom_site_occupancy
  Ho  Ho0  1  0.290379  0.088419  0.378572  1
  Ho  Ho1  1  0.290318  0.911402  0.878531  1
  Ho  Ho2  1  0.709682  0.088598  0.878531  1
  Ho  Ho3  1  0.709621  0.911581  0.378572  1
  Ho  Ho4  1  0.588598  0.790318  0.878531  1
  Ho  Ho5  1  0.588419  0.209621  0.378572  1
  Ho  Ho6  1  0.411581  0.790379  0.378572  1
  Ho  Ho7  1  0.411402  0.209682  0.878531  1
  Ho  Ho8  1  0.209006  0.411674  0.620618  1
  Ho  Ho9  1  0.209215  0.588490  0.122687  1
  Ho  Ho10  1  0.790785  0.411510  0.122687  1
  Ho  Ho11  1  0.790994  0.588326  0.620618  1
  Ho  Ho12  1  0.911510  0.709215  0.122687  1
  Ho  Ho13  1  0.911674  0.290994  0.620618  1
  Ho  Ho14  1  0.088326  0.709006  0.620618  1
  Ho  Ho15  1  0.088490  0.290785  0.122687  1
  Ho  Ho16  1  0.000000  0.000000  0.500185  1
  Ho  Ho17  1  0.000000  0.000000  0.000065  1
  Ho  Ho18  1  0.500000  0.500000  0.000065  1
  Ho  Ho19  1  0.500000  0.500000  0.500185  1
  Ir  Ir20  1  0.845703  0.153493  0.249708  1
  Ir  Ir21  1  0.845808  0.846348  0.749877  1
  Ir  Ir22  1  0.154192  0.153652  0.749877  1
  Ir  Ir23  1  0.154297  0.846507  0.249708  1
  Ir  Ir24  1  0.653652  0.345808  0.749877  1
  Ir  Ir25  1  0.653493  0.654297  0.249708  1
  Ir  Ir26  1  0.346507  0.345703  0.249708  1
  Ir  Ir27  1  0.346348  0.654192  0.749877  1
  Ir  Ir28  1  0.000000  0.500000  0.378080  1
  Rh  Rh29  1  0.500000  0.000000  0.121227  1
  Rh  Rh30  1  0.500000  0.000000  0.621305  1
  Rh  Rh31  1  0.000000  0.500000  0.878920  1
