# generated using pymatgen
data_Dy5TiMoO12
_symmetry_space_group_name_H-M   'P 1'
_cell_length_a   6.83606238
_cell_length_b   6.83606303
_cell_length_c   7.33285982
_cell_angle_alpha   74.36881337
_cell_angle_beta   74.36880892
_cell_angle_gamma   51.24053305
_symmetry_Int_Tables_number   1
_chemical_formula_structural   Dy5TiMoO12
_chemical_formula_sum   'Dy5 Ti1 Mo1 O12'
_cell_volume   255.00384036
_cell_formula_units_Z   1
loop_
 _symmetry_equiv_pos_site_id
 _symmetry_equiv_pos_as_xyz
  1  'x, y, z'
loop_
 _atom_site_type_symbol
 _atom_site_label
 _atom_site_symmetry_multiplicity
 _atom_site_fract_x
 _atom_site_fract_y
 _atom_site_fract_z
 _atom_site_occupancy
  Dy  Dy0  1  0.312955  0.292547  0.361129  1
  Dy  Dy1  1  0.707453  0.687045  0.638871  1
  Dy  Dy2  1  0.310826  0.307034  0.827836  1
  Dy  Dy3  1  0.692966  0.689174  0.172164  1
  Dy  Dy4  1  0.004087  0.995913  0.500000  1
  Ti  Ti5  1  0.749995  0.250005  0.000000  1
  Mo  Mo6  1  0.233851  0.766149  0.000000  1
  O  O7  1  0.899353  0.429662  0.917728  1
  O  O8  1  0.425106  0.899223  0.917625  1
  O  O9  1  0.100777  0.574894  0.082375  1
  O  O10  1  0.570338  0.100647  0.082272  1
  O  O11  1  0.102314  0.593133  0.573176  1
  O  O12  1  0.599065  0.090331  0.577019  1
  O  O13  1  0.909669  0.400935  0.422981  1
  O  O14  1  0.406867  0.897686  0.426824  1
  O  O15  1  0.989372  0.011782  0.812954  1
  O  O16  1  0.988218  0.010628  0.187046  1
  O  O17  1  0.497757  0.500968  0.812746  1
  O  O18  1  0.499032  0.502243  0.187254  1
