# generated using pymatgen
data_Tb3CoMoP6Rh7
_symmetry_space_group_name_H-M   'P 1'
_cell_length_a   3.88985300
_cell_length_b   11.12410300
_cell_length_c   12.80146600
_cell_angle_alpha   90.00000000
_cell_angle_beta   90.00000000
_cell_angle_gamma   90.00000000
_symmetry_Int_Tables_number   1
_chemical_formula_structural   Tb3CoMoP6Rh7
_chemical_formula_sum   'Tb6 Co2 Mo2 P12 Rh14'
_cell_volume   553.93384093
_cell_formula_units_Z   2
loop_
 _symmetry_equiv_pos_site_id
 _symmetry_equiv_pos_as_xyz
  1  'x, y, z'
loop_
 _atom_site_type_symbol
 _atom_site_label
 _atom_site_symmetry_multiplicity
 _atom_site_fract_x
 _atom_site_fract_y
 _atom_site_fract_z
 _atom_site_occupancy
  Tb  Tb0  1  0.000000  0.500000  0.521219  1
  Tb  Tb1  1  0.500000  0.000000  0.478781  1
  Tb  Tb2  1  0.500000  0.816640  0.200901  1
  Tb  Tb3  1  0.500000  0.183360  0.200901  1
  Tb  Tb4  1  0.000000  0.683360  0.799099  1
  Tb  Tb5  1  0.000000  0.316640  0.799099  1
  Co  Co6  1  0.000000  0.500000  0.990236  1
  Co  Co7  1  0.500000  0.000000  0.009764  1
  Mo  Mo8  1  0.500000  0.500000  0.155442  1
  Mo  Mo9  1  0.000000  0.000000  0.844558  1
  P  P10  1  0.500000  0.500000  0.880523  1
  P  P11  1  0.000000  0.000000  0.119477  1
  P  P12  1  0.500000  0.500000  0.344440  1
  P  P13  1  0.000000  0.000000  0.655560  1
  P  P14  1  0.500000  0.315036  0.618649  1
  P  P15  1  0.500000  0.684964  0.618649  1
  P  P16  1  0.000000  0.184964  0.381351  1
  P  P17  1  0.000000  0.815036  0.381351  1
  P  P18  1  0.500000  0.851469  0.892424  1
  P  P19  1  0.500000  0.148531  0.892424  1
  P  P20  1  0.000000  0.648531  0.107576  1
  P  P21  1  0.000000  0.351469  0.107576  1
  Rh  Rh22  1  0.500000  0.500000  0.701707  1
  Rh  Rh23  1  0.000000  0.000000  0.298293  1
  Rh  Rh24  1  0.500000  0.334189  0.987478  1
  Rh  Rh25  1  0.500000  0.665811  0.987478  1
  Rh  Rh26  1  0.000000  0.165811  0.012522  1
  Rh  Rh27  1  0.000000  0.834189  0.012522  1
  Rh  Rh28  1  0.500000  0.294495  0.431205  1
  Rh  Rh29  1  0.500000  0.705505  0.431205  1
  Rh  Rh30  1  0.000000  0.205505  0.568795  1
  Rh  Rh31  1  0.000000  0.794495  0.568795  1
  Rh  Rh32  1  0.500000  0.875024  0.710589  1
  Rh  Rh33  1  0.500000  0.124976  0.710589  1
  Rh  Rh34  1  0.000000  0.624976  0.289411  1
  Rh  Rh35  1  0.000000  0.375024  0.289411  1
