# generated using pymatgen
data_CaYb3(In5Au3)2
_symmetry_space_group_name_H-M   'P 1'
_cell_length_a   4.56669110
_cell_length_b   7.65072917
_cell_length_c   13.85718292
_cell_angle_alpha   89.50264881
_cell_angle_beta   99.48427597
_cell_angle_gamma   89.99999748
_symmetry_Int_Tables_number   1
_chemical_formula_structural   CaYb3(In5Au3)2
_chemical_formula_sum   'Ca1 Yb3 In10 Au6'
_cell_volume   477.51301903
_cell_formula_units_Z   1
loop_
 _symmetry_equiv_pos_site_id
 _symmetry_equiv_pos_as_xyz
  1  'x, y, z'
loop_
 _atom_site_type_symbol
 _atom_site_label
 _atom_site_symmetry_multiplicity
 _atom_site_fract_x
 _atom_site_fract_y
 _atom_site_fract_z
 _atom_site_occupancy
  Ca  Ca0  1  0.821856  0.292733  0.643710  1
  Yb  Yb1  1  0.178488  0.800103  0.356978  1
  Yb  Yb2  1  0.522466  0.199551  0.044932  1
  Yb  Yb3  1  0.477876  0.701035  0.955752  1
  In  In4  1  0.123010  0.231029  0.246020  1
  In  In5  1  0.876357  0.735373  0.752715  1
  In  In6  1  0.707621  0.093908  0.415243  1
  In  In7  1  0.291690  0.590063  0.583381  1
  In  In8  1  0.402378  0.078449  0.804756  1
  In  In9  1  0.597909  0.576380  0.195819  1
  In  In10  1  0.055659  0.866247  0.111318  1
  In  In11  1  0.944917  0.370427  0.889833  1
  In  In12  1  0.704267  0.504128  0.408534  1
  In  In13  1  0.295546  0.998856  0.591091  1
  Au  Au14  1  0.958762  0.984349  0.917522  1
  Au  Au15  1  0.041637  0.482428  0.083275  1
  Au  Au16  1  0.227862  0.297751  0.455724  1
  Au  Au17  1  0.770619  0.796511  0.541236  1
  Au  Au18  1  0.612228  0.961277  0.224457  1
  Au  Au19  1  0.388853  0.467327  0.777705  1
