# generated using pymatgen
data_Hf3ZnGa3FeRh
_symmetry_space_group_name_H-M   'P 1'
_cell_length_a   7.17189800
_cell_length_b   7.17189775
_cell_length_c   3.34966700
_cell_angle_alpha   90.00000000
_cell_angle_beta   90.00000000
_cell_angle_gamma   120.00001036
_symmetry_Int_Tables_number   1
_chemical_formula_structural   Hf3ZnGa3FeRh
_chemical_formula_sum   'Hf3 Zn1 Ga3 Fe1 Rh1'
_cell_volume   149.21085359
_cell_formula_units_Z   1
loop_
 _symmetry_equiv_pos_site_id
 _symmetry_equiv_pos_as_xyz
  1  'x, y, z'
loop_
 _atom_site_type_symbol
 _atom_site_label
 _atom_site_symmetry_multiplicity
 _atom_site_fract_x
 _atom_site_fract_y
 _atom_site_fract_z
 _atom_site_occupancy
  Hf  Hf0  1  0.379604  0.971608  0.500000  1
  Hf  Hf1  1  0.028392  0.407995  0.500000  1
  Hf  Hf2  1  0.592005  0.620396  0.500000  1
  Zn  Zn3  1  0.666667  0.333333  0.000000  1
  Ga  Ga4  1  0.727012  0.004052  0.000000  1
  Ga  Ga5  1  0.995948  0.722961  0.000000  1
  Ga  Ga6  1  0.277039  0.272988  0.000000  1
  Fe  Fe7  1  0.333333  0.666667  0.000000  1
  Rh  Rh8  1  0.000000  0.000000  0.500000  1
