# generated using pymatgen
data_La9Sm(Pb3S)2
_symmetry_space_group_name_H-M   'P 1'
_cell_length_a   9.67085601
_cell_length_b   9.67143689
_cell_length_c   7.07928601
_cell_angle_alpha   90.00443511
_cell_angle_beta   89.99861070
_cell_angle_gamma   120.00264868
_symmetry_Int_Tables_number   1
_chemical_formula_structural   La9Sm(Pb3S)2
_chemical_formula_sum   'La9 Sm1 Pb6 S2'
_cell_volume   573.40888251
_cell_formula_units_Z   1
loop_
 _symmetry_equiv_pos_site_id
 _symmetry_equiv_pos_as_xyz
  1  'x, y, z'
loop_
 _atom_site_type_symbol
 _atom_site_label
 _atom_site_symmetry_multiplicity
 _atom_site_fract_x
 _atom_site_fract_y
 _atom_site_fract_z
 _atom_site_occupancy
  La  La0  1  0.757971  0.757354  0.750747  1
  La  La1  1  0.242646  0.000623  0.750765  1
  La  La2  1  0.999397  0.242043  0.750755  1
  La  La3  1  0.242638  0.242030  0.249237  1
  La  La4  1  0.757981  0.000625  0.249247  1
  La  La5  1  0.999383  0.757350  0.249249  1
  La  La6  1  0.333331  0.666665  0.999992  1
  La  La7  1  0.333316  0.666677  0.500000  1
  La  La8  1  0.666670  0.333330  0.499996  1
  Sm  Sm9  1  0.666664  0.333333  0.000008  1
  Pb  Pb10  1  0.398397  0.396049  0.752524  1
  Pb  Pb11  1  0.603941  0.002325  0.752513  1
  Pb  Pb12  1  0.997661  0.601610  0.752519  1
  Pb  Pb13  1  0.603944  0.601604  0.247483  1
  Pb  Pb14  1  0.398392  0.002341  0.247477  1
  Pb  Pb15  1  0.997663  0.396046  0.247487  1
  S  S16  1  0.000004  0.999998  0.000000  1
  S  S17  1  0.000003  0.999996  0.500002  1
