# generated using pymatgen
data_TbYTm(Ga2Co3)3
_symmetry_space_group_name_H-M   'P 1'
_cell_length_a   4.05532500
_cell_length_b   8.73712902
_cell_length_c   8.73586071
_cell_angle_alpha   59.99505297
_cell_angle_beta   90.00000000
_cell_angle_gamma   90.00000000
_symmetry_Int_Tables_number   1
_chemical_formula_structural   TbYTm(Ga2Co3)3
_chemical_formula_sum   'Tb1 Y1 Tm1 Ga6 Co9'
_cell_volume   268.04585442
_cell_formula_units_Z   1
loop_
 _symmetry_equiv_pos_site_id
 _symmetry_equiv_pos_as_xyz
  1  'x, y, z'
loop_
 _atom_site_type_symbol
 _atom_site_label
 _atom_site_symmetry_multiplicity
 _atom_site_fract_x
 _atom_site_fract_y
 _atom_site_fract_z
 _atom_site_occupancy
  Tb  Tb0  1  0.500000  0.666649  0.666603  1
  Y  Y1  1  0.500000  0.333294  0.333388  1
  Tm  Tm2  1  0.000000  0.999978  0.000007  1
  Ga  Ga3  1  0.000000  0.496237  0.503495  1
  Ga  Ga4  1  0.000000  0.503410  0.000292  1
  Ga  Ga5  1  0.000000  0.000269  0.496240  1
  Ga  Ga6  1  0.500000  0.729251  0.270556  1
  Ga  Ga7  1  0.500000  0.270584  0.000233  1
  Ga  Ga8  1  0.500000  0.000135  0.729217  1
  Co  Co9  1  0.000000  0.179476  0.180223  1
  Co  Co10  1  0.000000  0.180154  0.640306  1
  Co  Co11  1  0.000000  0.640307  0.179553  1
  Co  Co12  1  0.000000  0.819720  0.821321  1
  Co  Co13  1  0.000000  0.358943  0.819638  1
  Co  Co14  1  0.000000  0.821294  0.358947  1
  Co  Co15  1  0.500000  0.297053  0.703284  1
  Co  Co16  1  0.500000  0.703278  0.999793  1
  Co  Co17  1  0.500000  0.999869  0.297002  1
