# generated using pymatgen
data_DyY7Re3TcB24
_symmetry_space_group_name_H-M   'P 1'
_cell_length_a   3.68859300
_cell_length_b   9.19241412
_cell_length_c   11.58082300
_cell_angle_alpha   90.02918810
_cell_angle_beta   90.00000000
_cell_angle_gamma   90.00000000
_symmetry_Int_Tables_number   1
_chemical_formula_structural   DyY7Re3TcB24
_chemical_formula_sum   'Dy1 Y7 Re3 Tc1 B24'
_cell_volume   392.67177594
_cell_formula_units_Z   1
loop_
 _symmetry_equiv_pos_site_id
 _symmetry_equiv_pos_as_xyz
  1  'x, y, z'
loop_
 _atom_site_type_symbol
 _atom_site_label
 _atom_site_symmetry_multiplicity
 _atom_site_fract_x
 _atom_site_fract_y
 _atom_site_fract_z
 _atom_site_occupancy
  Dy  Dy0  1  0.000000  0.557233  0.870140  1
  Y  Y1  1  0.000000  0.323881  0.413968  1
  Y  Y2  1  0.000000  0.676387  0.585725  1
  Y  Y3  1  0.000000  0.823604  0.085855  1
  Y  Y4  1  0.000000  0.176677  0.914154  1
  Y  Y5  1  0.000000  0.941818  0.369737  1
  Y  Y6  1  0.000000  0.057096  0.629699  1
  Y  Y7  1  0.000000  0.443451  0.130642  1
  Re  Re8  1  0.000000  0.361559  0.679137  1
  Re  Re9  1  0.000000  0.138545  0.179169  1
  Re  Re10  1  0.000000  0.861394  0.820890  1
  Tc  Tc11  1  0.000000  0.638571  0.320808  1
  B  B12  1  0.500000  0.553412  0.432624  1
  B  B13  1  0.500000  0.446748  0.567144  1
  B  B14  1  0.500000  0.053421  0.067201  1
  B  B15  1  0.500000  0.946806  0.932725  1
  B  B16  1  0.500000  0.748314  0.418216  1
  B  B17  1  0.500000  0.251278  0.581582  1
  B  B18  1  0.500000  0.248942  0.081743  1
  B  B19  1  0.500000  0.751324  0.918276  1
  B  B20  1  0.500000  0.791225  0.265303  1
  B  B21  1  0.500000  0.208431  0.734460  1
  B  B22  1  0.500000  0.291548  0.234774  1
  B  B23  1  0.500000  0.708374  0.765619  1
  B  B24  1  0.500000  0.630963  0.185947  1
  B  B25  1  0.500000  0.369387  0.814126  1
  B  B26  1  0.500000  0.130536  0.314217  1
  B  B27  1  0.500000  0.869148  0.685783  1
  B  B28  1  0.500000  0.982218  0.211678  1
  B  B29  1  0.500000  0.017708  0.788151  1
  B  B30  1  0.500000  0.482595  0.288421  1
  B  B31  1  0.500000  0.517665  0.711963  1
  B  B32  1  0.500000  0.600375  0.028201  1
  B  B33  1  0.500000  0.400009  0.972180  1
  B  B34  1  0.500000  0.099861  0.471745  1
  B  B35  1  0.500000  0.899494  0.527993  1
