# generated using pymatgen
data_SmTh3(B4Os)4
_symmetry_space_group_name_H-M   'P 1'
_cell_length_a   7.12202845
_cell_length_b   7.12202920
_cell_length_c   7.12202838
_cell_angle_alpha   111.38419808
_cell_angle_beta   111.38419710
_cell_angle_gamma   105.70949307
_symmetry_Int_Tables_number   1
_chemical_formula_structural   SmTh3(B4Os)4
_chemical_formula_sum   'Sm1 Th3 B16 Os4'
_cell_volume   277.20110798
_cell_formula_units_Z   1
loop_
 _symmetry_equiv_pos_site_id
 _symmetry_equiv_pos_as_xyz
  1  'x, y, z'
loop_
 _atom_site_type_symbol
 _atom_site_label
 _atom_site_symmetry_multiplicity
 _atom_site_fract_x
 _atom_site_fract_y
 _atom_site_fract_z
 _atom_site_occupancy
  Sm  Sm0  1  0.781960  0.781960  0.000000  1
  Th  Th1  1  0.751070  0.251070  0.500000  1
  Th  Th2  1  0.251070  0.751070  0.500000  1
  Th  Th3  1  0.219773  0.219773  0.000000  1
  B  B4  1  0.413439  0.413439  0.527176  1
  B  B5  1  0.886263  0.886263  0.472824  1
  B  B6  1  0.585762  0.113529  0.000000  1
  B  B7  1  0.113529  0.585762  0.000000  1
  B  B8  1  0.585762  0.585762  0.472232  1
  B  B9  1  0.113529  0.113529  0.527768  1
  B  B10  1  0.886263  0.413439  0.000000  1
  B  B11  1  0.413439  0.886263  0.000000  1
  B  B12  1  0.107299  0.264279  0.373207  1
  B  B13  1  0.891073  0.734092  0.626793  1
  B  B14  1  0.891073  0.264279  0.156981  1
  B  B15  1  0.107299  0.734092  0.843019  1
  B  B16  1  0.734092  0.891073  0.626793  1
  B  B17  1  0.264279  0.107299  0.373207  1
  B  B18  1  0.734092  0.107299  0.843019  1
  B  B19  1  0.264279  0.891073  0.156981  1
  Os  Os20  1  0.501164  0.261971  0.760807  1
  Os  Os21  1  0.501164  0.740357  0.239193  1
  Os  Os22  1  0.740357  0.501164  0.239193  1
  Os  Os23  1  0.261971  0.501164  0.760807  1
