# generated using pymatgen
data_Dy3Co2Sn3
_symmetry_space_group_name_H-M   'P 1'
_cell_length_a   5.79311700
_cell_length_b   5.79311771
_cell_length_c   14.80537700
_cell_angle_alpha   90.00000000
_cell_angle_beta   90.00000000
_cell_angle_gamma   134.92175657
_symmetry_Int_Tables_number   1
_chemical_formula_structural   Dy3Co2Sn3
_chemical_formula_sum   'Dy6 Co4 Sn6'
_cell_volume   351.82070259
_cell_formula_units_Z   2
loop_
 _symmetry_equiv_pos_site_id
 _symmetry_equiv_pos_as_xyz
  1  'x, y, z'
loop_
 _atom_site_type_symbol
 _atom_site_label
 _atom_site_symmetry_multiplicity
 _atom_site_fract_x
 _atom_site_fract_y
 _atom_site_fract_z
 _atom_site_occupancy
  Dy  Dy0  1  0.569558  0.430442  0.611549  1
  Dy  Dy1  1  0.430442  0.569558  0.388451  1
  Dy  Dy2  1  0.430442  0.569558  0.111549  1
  Dy  Dy3  1  0.569558  0.430442  0.888451  1
  Dy  Dy4  1  0.146508  0.853492  0.250000  1
  Dy  Dy5  1  0.853492  0.146508  0.750000  1
  Co  Co6  1  0.298944  0.701056  0.608369  1
  Co  Co7  1  0.701056  0.298944  0.391631  1
  Co  Co8  1  0.701056  0.298944  0.108369  1
  Co  Co9  1  0.298944  0.701056  0.891631  1
  Sn  Sn10  1  0.859807  0.140193  0.535154  1
  Sn  Sn11  1  0.140193  0.859807  0.464846  1
  Sn  Sn12  1  0.152483  0.847517  0.750000  1
  Sn  Sn13  1  0.847517  0.152483  0.250000  1
  Sn  Sn14  1  0.859807  0.140193  0.964846  1
  Sn  Sn15  1  0.140193  0.859807  0.035154  1
