# generated using pymatgen
data_TbSm5EuPtI12
_symmetry_space_group_name_H-M   'P 1'
_cell_length_a   9.95406401
_cell_length_b   9.96057008
_cell_length_c   9.94646063
_cell_angle_alpha   106.56597195
_cell_angle_beta   106.50272024
_cell_angle_gamma   106.61735108
_symmetry_Int_Tables_number   1
_chemical_formula_structural   TbSm5EuPtI12
_chemical_formula_sum   'Tb1 Sm5 Eu1 Pt1 I12'
_cell_volume   830.91119491
_cell_formula_units_Z   1
loop_
 _symmetry_equiv_pos_site_id
 _symmetry_equiv_pos_as_xyz
  1  'x, y, z'
loop_
 _atom_site_type_symbol
 _atom_site_label
 _atom_site_symmetry_multiplicity
 _atom_site_fract_x
 _atom_site_fract_y
 _atom_site_fract_z
 _atom_site_occupancy
  Tb  Tb0  1  0.403229  0.476200  0.200525  1
  Sm  Sm1  1  0.197018  0.402023  0.475836  1
  Sm  Sm2  1  0.476195  0.197324  0.401431  1
  Sm  Sm3  1  0.597706  0.523578  0.802505  1
  Sm  Sm4  1  0.802610  0.598022  0.522901  1
  Sm  Sm5  1  0.523380  0.802417  0.597016  1
  Eu  Eu6  1  0.999961  0.999997  0.000030  1
  Pt  Pt7  1  0.499774  0.499806  0.499311  1
  I  I8  1  0.048396  0.357085  0.124617  1
  I  I9  1  0.124746  0.045256  0.356068  1
  I  I10  1  0.356179  0.127615  0.045627  1
  I  I11  1  0.954837  0.644194  0.875190  1
  I  I12  1  0.875343  0.954801  0.644111  1
  I  I13  1  0.643944  0.874984  0.954658  1
  I  I14  1  0.720517  0.573155  0.176788  1
  I  I15  1  0.177337  0.724097  0.574298  1
  I  I16  1  0.574278  0.177576  0.724159  1
  I  I17  1  0.276581  0.426025  0.824769  1
  I  I18  1  0.822681  0.275881  0.425757  1
  I  I19  1  0.425290  0.819964  0.274405  1
