# generated using pymatgen
data_TbTm7(Tc3Ge4)4
_symmetry_space_group_name_H-M   'P 1'
_cell_length_a   6.95718606
_cell_length_b   6.91435940
_cell_length_c   12.85403939
_cell_angle_alpha   90.05283514
_cell_angle_beta   90.01319093
_cell_angle_gamma   90.04392566
_symmetry_Int_Tables_number   1
_chemical_formula_structural   TbTm7(Tc3Ge4)4
_chemical_formula_sum   'Tb1 Tm7 Tc12 Ge16'
_cell_volume   618.33648170
_cell_formula_units_Z   1
loop_
 _symmetry_equiv_pos_site_id
 _symmetry_equiv_pos_as_xyz
  1  'x, y, z'
loop_
 _atom_site_type_symbol
 _atom_site_label
 _atom_site_symmetry_multiplicity
 _atom_site_fract_x
 _atom_site_fract_y
 _atom_site_fract_z
 _atom_site_occupancy
  Tb  Tb0  1  0.985500  0.164620  0.092113  1
  Tm  Tm1  1  0.484028  0.334163  0.092431  1
  Tm  Tm2  1  0.983851  0.165978  0.407288  1
  Tm  Tm3  1  0.515877  0.666553  0.592502  1
  Tm  Tm4  1  0.016489  0.833671  0.906933  1
  Tm  Tm5  1  0.516459  0.665249  0.906773  1
  Tm  Tm6  1  0.016339  0.834691  0.592688  1
  Tm  Tm7  1  0.484333  0.334027  0.408049  1
  Tc  Tc8  1  0.678077  0.989237  0.749381  1
  Tc  Tc9  1  0.177542  0.511447  0.749879  1
  Tc  Tc10  1  0.322787  0.010277  0.250573  1
  Tc  Tc11  1  0.821800  0.489848  0.250664  1
  Tc  Tc12  1  0.826567  0.356282  0.623532  1
  Tc  Tc13  1  0.327531  0.143925  0.876304  1
  Tc  Tc14  1  0.174200  0.643534  0.122987  1
  Tc  Tc15  1  0.673559  0.855907  0.377323  1
  Tc  Tc16  1  0.174556  0.643664  0.377532  1
  Tc  Tc17  1  0.672106  0.854982  0.123516  1
  Tc  Tc18  1  0.823569  0.357736  0.875795  1
  Tc  Tc19  1  0.324749  0.143571  0.623213  1
  Ge  Ge20  1  0.819985  0.643777  0.749489  1
  Ge  Ge21  1  0.320313  0.857306  0.749885  1
  Ge  Ge22  1  0.181099  0.357774  0.250855  1
  Ge  Ge23  1  0.678623  0.142698  0.250476  1
  Ge  Ge24  1  0.526320  0.350890  0.748964  1
  Ge  Ge25  1  0.026761  0.149705  0.750674  1
  Ge  Ge26  1  0.472611  0.648888  0.250403  1
  Ge  Ge27  1  0.972693  0.848977  0.250801  1
  Ge  Ge28  1  0.668054  0.053372  0.550652  1
  Ge  Ge29  1  0.168243  0.447251  0.948715  1
  Ge  Ge30  1  0.333979  0.945782  0.050083  1
  Ge  Ge31  1  0.832056  0.552733  0.450022  1
  Ge  Ge32  1  0.331634  0.947774  0.449806  1
  Ge  Ge33  1  0.831776  0.554221  0.050324  1
  Ge  Ge34  1  0.667752  0.052426  0.948748  1
  Ge  Ge35  1  0.168186  0.447065  0.550627  1
