# generated using pymatgen
data_TbNdRe2F14
_symmetry_space_group_name_H-M   'P 1'
_cell_length_a   5.72075236
_cell_length_b   9.09966214
_cell_length_c   12.24578500
_cell_angle_alpha   62.39443231
_cell_angle_beta   89.85886246
_cell_angle_gamma   89.95148653
_symmetry_Int_Tables_number   1
_chemical_formula_structural   TbNdRe2F14
_chemical_formula_sum   'Tb2 Nd2 Re4 F28'
_cell_volume   564.90463572
_cell_formula_units_Z   2
loop_
 _symmetry_equiv_pos_site_id
 _symmetry_equiv_pos_as_xyz
  1  'x, y, z'
loop_
 _atom_site_type_symbol
 _atom_site_label
 _atom_site_symmetry_multiplicity
 _atom_site_fract_x
 _atom_site_fract_y
 _atom_site_fract_z
 _atom_site_occupancy
  Tb  Tb0  1  0.758269  0.189289  0.234889  1
  Tb  Tb1  1  0.241731  0.810711  0.765111  1
  Nd  Nd2  1  0.257931  0.814323  0.265107  1
  Nd  Nd3  1  0.742069  0.185677  0.734893  1
  Re  Re4  1  0.757305  0.723927  0.042096  1
  Re  Re5  1  0.242695  0.276073  0.957904  1
  Re  Re6  1  0.256749  0.270974  0.455111  1
  Re  Re7  1  0.743251  0.729026  0.544889  1
  F  F8  1  0.944994  0.707253  0.421852  1
  F  F9  1  0.055006  0.292747  0.578148  1
  F  F10  1  0.449288  0.292758  0.081414  1
  F  F11  1  0.550712  0.707242  0.918586  1
  F  F12  1  0.481440  0.728396  0.138115  1
  F  F13  1  0.518560  0.271604  0.861885  1
  F  F14  1  0.978770  0.268585  0.359014  1
  F  F15  1  0.021230  0.731415  0.640986  1
  F  F16  1  0.952631  0.742531  0.168896  1
  F  F17  1  0.047369  0.257469  0.831104  1
  F  F18  1  0.458774  0.253309  0.328851  1
  F  F19  1  0.541226  0.746691  0.671149  1
  F  F20  1  0.768274  0.478654  0.140970  1
  F  F21  1  0.231726  0.521346  0.859030  1
  F  F22  1  0.268086  0.515622  0.358917  1
  F  F23  1  0.731914  0.484378  0.641083  1
  F  F24  1  0.953715  0.281141  0.047788  1
  F  F25  1  0.046285  0.718859  0.952212  1
  F  F26  1  0.457997  0.718218  0.456773  1
  F  F27  1  0.542003  0.281782  0.543227  1
  F  F28  1  0.740956  0.973597  0.446789  1
  F  F29  1  0.259044  0.026403  0.553211  1
  F  F30  1  0.241776  0.031446  0.050983  1
  F  F31  1  0.758224  0.968554  0.949017  1
  F  F32  1  0.587074  0.976661  0.231752  1
  F  F33  1  0.412926  0.023339  0.768248  1
  F  F34  1  0.074289  0.035234  0.267472  1
  F  F35  1  0.925711  0.964766  0.732528  1
