# generated using pymatgen
data_Li12Sm11Gd(WO6)8
_symmetry_space_group_name_H-M   'P 1'
_cell_length_a   10.83105538
_cell_length_b   10.82685410
_cell_length_c   10.83105501
_cell_angle_alpha   109.47667285
_cell_angle_beta   109.47613919
_cell_angle_gamma   109.47670457
_symmetry_Int_Tables_number   1
_chemical_formula_structural   Li12Sm11Gd(WO6)8
_chemical_formula_sum   'Li12 Sm11 Gd1 W8 O48'
_cell_volume   977.54537397
_cell_formula_units_Z   1
loop_
 _symmetry_equiv_pos_site_id
 _symmetry_equiv_pos_as_xyz
  1  'x, y, z'
loop_
 _atom_site_type_symbol
 _atom_site_label
 _atom_site_symmetry_multiplicity
 _atom_site_fract_x
 _atom_site_fract_y
 _atom_site_fract_z
 _atom_site_occupancy
  Li  Li0  1  0.749816  0.374919  0.124982  1
  Li  Li1  1  0.875014  0.750000  0.125013  1
  Li  Li2  1  0.125099  0.374915  0.249936  1
  Li  Li3  1  0.624969  0.874978  0.249992  1
  Li  Li4  1  0.250064  0.125086  0.374900  1
  Li  Li5  1  0.624601  0.249998  0.374600  1
  Li  Li6  1  0.374986  0.750000  0.624986  1
  Li  Li7  1  0.750006  0.874971  0.624981  1
  Li  Li8  1  0.375019  0.125081  0.750185  1
  Li  Li9  1  0.875019  0.625029  0.749994  1
  Li  Li10  1  0.125399  0.250002  0.875399  1
  Li  Li11  1  0.250008  0.625023  0.875031  1
  Sm  Sm12  1  0.250166  0.875357  0.125049  1
  Sm  Sm13  1  0.875024  0.125032  0.250058  1
  Sm  Sm14  1  0.374951  0.624643  0.249834  1
  Sm  Sm15  1  0.125000  0.750000  0.375000  1
  Sm  Sm16  1  0.749691  0.624642  0.374809  1
  Sm  Sm17  1  0.875000  0.250000  0.625000  1
  Sm  Sm18  1  0.249942  0.374969  0.624976  1
  Sm  Sm19  1  0.625026  0.374968  0.749992  1
  Sm  Sm20  1  0.125191  0.875357  0.750308  1
  Sm  Sm21  1  0.750007  0.125032  0.874973  1
  Sm  Sm22  1  0.625000  0.749999  0.875000  1
  Gd  Gd23  1  0.375001  0.249999  0.125001  1
  W  W24  1  0.000508  0.000505  0.000364  1
  W  W25  1  0.000074  0.500031  0.000027  1
  W  W26  1  0.499858  0.499493  0.000003  1
  W  W27  1  0.499998  0.000507  0.000141  1
  W  W28  1  0.499973  0.999970  0.499925  1
  W  W29  1  0.999956  0.500030  0.500004  1
  W  W30  1  0.999997  0.999971  0.500045  1
  W  W31  1  0.499636  0.499494  0.499491  1
  O  O32  1  0.327539  0.407358  0.025756  1
  O  O33  1  0.197818  0.616841  0.025051  1
  O  O34  1  0.697959  0.172878  0.081001  1
  O  O35  1  0.883399  0.908266  0.080947  1
  O  O36  1  0.616712  0.919388  0.092028  1
  O  O37  1  0.974921  0.172880  0.091878  1
  O  O38  1  0.591333  0.418417  0.116827  1
  O  O39  1  0.025084  0.697853  0.116893  1
  O  O40  1  0.198412  0.081584  0.172916  1
  O  O41  1  0.474244  0.092641  0.172461  1
  O  O42  1  0.116919  0.525032  0.197782  1
  O  O43  1  0.580813  0.672575  0.197665  1
  O  O44  1  0.327083  0.418417  0.301589  1
  O  O45  1  0.474949  0.883160  0.302183  1
  O  O46  1  0.908112  0.525030  0.327249  1
  O  O47  1  0.919040  0.802147  0.327231  1
  O  O48  1  0.579820  0.407360  0.381603  1
  O  O49  1  0.302218  0.974968  0.383081  1
  O  O50  1  0.827292  0.025034  0.408159  1
  O  O51  1  0.080904  0.383119  0.408138  1
  O  O52  1  0.827187  0.302157  0.419041  1
  O  O53  1  0.091863  0.116882  0.419096  1
  O  O54  1  0.591762  0.672575  0.474912  1
  O  O55  1  0.383107  0.802147  0.474915  1
  O  O56  1  0.616884  0.197843  0.525030  1
  O  O57  1  0.408121  0.327120  0.525079  1
  O  O58  1  0.172769  0.697853  0.580960  1
  O  O59  1  0.908211  0.883160  0.580977  1
  O  O60  1  0.919023  0.616840  0.591788  1
  O  O61  1  0.172751  0.974969  0.591888  1
  O  O62  1  0.697742  0.025035  0.616875  1
  O  O63  1  0.419053  0.591735  0.616602  1
  O  O64  1  0.080959  0.197843  0.672813  1
  O  O65  1  0.091841  0.474967  0.672709  1
  O  O66  1  0.525019  0.116882  0.697786  1
  O  O67  1  0.672640  0.580612  0.697324  1
  O  O68  1  0.418998  0.327121  0.802040  1
  O  O69  1  0.883125  0.474966  0.802257  1
  O  O70  1  0.802676  0.919388  0.827360  1
  O  O71  1  0.524865  0.908264  0.827317  1
  O  O72  1  0.974970  0.302157  0.883116  1
  O  O73  1  0.407971  0.580612  0.883288  1
  O  O74  1  0.383174  0.081583  0.908668  1
  O  O75  1  0.025089  0.827425  0.908238  1
  O  O76  1  0.118397  0.092640  0.920180  1
  O  O77  1  0.302335  0.827425  0.919186  1
  O  O78  1  0.802214  0.383118  0.974981  1
  O  O79  1  0.672682  0.591736  0.975133  1
