# generated using pymatgen
data_Ce3Ho7(Zn2Ru3)2
_symmetry_space_group_name_H-M   'P 1'
_cell_length_a   8.42699675
_cell_length_b   8.42699583
_cell_length_c   8.42699800
_cell_angle_alpha   110.22540565
_cell_angle_beta   110.22541784
_cell_angle_gamma   110.22541506
_symmetry_Int_Tables_number   1
_chemical_formula_structural   Ce3Ho7(Zn2Ru3)2
_chemical_formula_sum   'Ce3 Ho7 Zn4 Ru6'
_cell_volume   447.35167329
_cell_formula_units_Z   1
loop_
 _symmetry_equiv_pos_site_id
 _symmetry_equiv_pos_as_xyz
  1  'x, y, z'
loop_
 _atom_site_type_symbol
 _atom_site_label
 _atom_site_symmetry_multiplicity
 _atom_site_fract_x
 _atom_site_fract_y
 _atom_site_fract_z
 _atom_site_occupancy
  Ce  Ce0  1  0.252365  0.199680  0.942930  1
  Ce  Ce1  1  0.942930  0.252365  0.199680  1
  Ce  Ce2  1  0.199680  0.942930  0.252365  1
  Ho  Ho3  1  0.775874  0.775874  0.775874  1
  Ho  Ho4  1  0.316397  0.569168  0.753464  1
  Ho  Ho5  1  0.753464  0.316397  0.569168  1
  Ho  Ho6  1  0.569168  0.753464  0.316397  1
  Ho  Ho7  1  0.725733  0.505637  0.994088  1
  Ho  Ho8  1  0.994088  0.725733  0.505637  1
  Ho  Ho9  1  0.505637  0.994088  0.725733  1
  Zn  Zn10  1  0.420127  0.420127  0.420127  1
  Zn  Zn11  1  0.089603  0.497937  0.004185  1
  Zn  Zn12  1  0.004185  0.089603  0.497937  1
  Zn  Zn13  1  0.497937  0.004185  0.089603  1
  Ru  Ru14  1  0.896297  0.112341  0.752618  1
  Ru  Ru15  1  0.752618  0.896297  0.112341  1
  Ru  Ru16  1  0.112341  0.752618  0.896297  1
  Ru  Ru17  1  0.220547  0.595977  0.375029  1
  Ru  Ru18  1  0.375029  0.220547  0.595977  1
  Ru  Ru19  1  0.595977  0.375029  0.220547  1
