# generated using pymatgen
data_Ho3Er5Si12Ir3Pd
_symmetry_space_group_name_H-M   'P 1'
_cell_length_a   8.15489303
_cell_length_b   8.15488199
_cell_length_c   7.84588400
_cell_angle_alpha   89.99653314
_cell_angle_beta   90.00350190
_cell_angle_gamma   120.00928054
_symmetry_Int_Tables_number   1
_chemical_formula_structural   Ho3Er5Si12Ir3Pd
_chemical_formula_sum   'Ho3 Er5 Si12 Ir3 Pd1'
_cell_volume   451.82248719
_cell_formula_units_Z   1
loop_
 _symmetry_equiv_pos_site_id
 _symmetry_equiv_pos_as_xyz
  1  'x, y, z'
loop_
 _atom_site_type_symbol
 _atom_site_label
 _atom_site_symmetry_multiplicity
 _atom_site_fract_x
 _atom_site_fract_y
 _atom_site_fract_z
 _atom_site_occupancy
  Ho  Ho0  1  0.490358  0.509643  0.752139  1
  Ho  Ho1  1  0.999993  0.000007  0.251741  1
  Ho  Ho2  1  0.000005  0.999996  0.750746  1
  Er  Er3  1  0.512808  0.025624  0.246957  1
  Er  Er4  1  0.490473  0.980977  0.752258  1
  Er  Er5  1  0.974376  0.487191  0.246956  1
  Er  Er6  1  0.019022  0.509526  0.752258  1
  Er  Er7  1  0.512816  0.487183  0.246984  1
  Si  Si8  1  0.166653  0.333486  0.004146  1
  Si  Si9  1  0.833709  0.667291  0.997059  1
  Si  Si10  1  0.666514  0.833347  0.004146  1
  Si  Si11  1  0.832645  0.665167  0.501217  1
  Si  Si12  1  0.332710  0.166292  0.997059  1
  Si  Si13  1  0.164714  0.329591  0.500291  1
  Si  Si14  1  0.166765  0.833236  0.004059  1
  Si  Si15  1  0.334834  0.167355  0.501217  1
  Si  Si16  1  0.833648  0.166352  0.997032  1
  Si  Si17  1  0.670409  0.835286  0.500291  1
  Si  Si18  1  0.832581  0.167419  0.501238  1
  Si  Si19  1  0.164828  0.835172  0.500362  1
  Ir  Ir20  1  0.333274  0.666727  0.032188  1
  Ir  Ir21  1  0.666786  0.333215  0.962395  1
  Ir  Ir22  1  0.666796  0.333203  0.540622  1
  Pd  Pd23  1  0.333285  0.666715  0.456637  1
