# generated using pymatgen
data_DySc2Co(BIr2)2
_symmetry_space_group_name_H-M   'P 1'
_cell_length_a   3.10136800
_cell_length_b   9.56679934
_cell_length_c   9.56679934
_cell_angle_alpha   88.70984140
_cell_angle_beta   90.00000000
_cell_angle_gamma   90.00000000
_symmetry_Int_Tables_number   1
_chemical_formula_structural   DySc2Co(BIr2)2
_chemical_formula_sum   'Dy2 Sc4 Co2 B4 Ir8'
_cell_volume   283.77655986
_cell_formula_units_Z   2
loop_
 _symmetry_equiv_pos_site_id
 _symmetry_equiv_pos_as_xyz
  1  'x, y, z'
loop_
 _atom_site_type_symbol
 _atom_site_label
 _atom_site_symmetry_multiplicity
 _atom_site_fract_x
 _atom_site_fract_y
 _atom_site_fract_z
 _atom_site_occupancy
  Dy  Dy0  1  0.000000  0.178280  0.678280  1
  Dy  Dy1  1  0.000000  0.821720  0.321720  1
  Sc  Sc2  1  0.000000  0.325243  0.174757  1
  Sc  Sc3  1  0.000000  0.674757  0.825243  1
  Sc  Sc4  1  0.000000  0.000000  0.000000  1
  Sc  Sc5  1  0.000000  0.500000  0.500000  1
  Co  Co6  1  0.500000  0.000000  0.500000  1
  Co  Co7  1  0.500000  0.500000  0.000000  1
  B  B8  1  0.000000  0.608172  0.108172  1
  B  B9  1  0.000000  0.391828  0.891828  1
  B  B10  1  0.000000  0.887756  0.612244  1
  B  B11  1  0.000000  0.112244  0.387756  1
  Ir  Ir12  1  0.500000  0.071713  0.226603  1
  Ir  Ir13  1  0.500000  0.928287  0.773397  1
  Ir  Ir14  1  0.500000  0.766858  0.056927  1
  Ir  Ir15  1  0.500000  0.443073  0.733142  1
  Ir  Ir16  1  0.500000  0.233142  0.943073  1
  Ir  Ir17  1  0.500000  0.556927  0.266858  1
  Ir  Ir18  1  0.500000  0.726603  0.571713  1
  Ir  Ir19  1  0.500000  0.273397  0.428287  1
