# generated using pymatgen
data_Y4Al3(CoO4)5
_symmetry_space_group_name_H-M   'P 1'
_cell_length_a   5.64536300
_cell_length_b   7.23432111
_cell_length_c   8.36951606
_cell_angle_alpha   89.61706641
_cell_angle_beta   90.00000000
_cell_angle_gamma   90.00000000
_symmetry_Int_Tables_number   1
_chemical_formula_structural   Y4Al3(CoO4)5
_chemical_formula_sum   'Y4 Al3 Co5 O20'
_cell_volume   341.80648782
_cell_formula_units_Z   1
loop_
 _symmetry_equiv_pos_site_id
 _symmetry_equiv_pos_as_xyz
  1  'x, y, z'
loop_
 _atom_site_type_symbol
 _atom_site_label
 _atom_site_symmetry_multiplicity
 _atom_site_fract_x
 _atom_site_fract_y
 _atom_site_fract_z
 _atom_site_occupancy
  Y  Y0  1  0.500000  0.359249  0.329916  1
  Y  Y1  1  0.500000  0.641544  0.669739  1
  Y  Y2  1  0.500000  0.137099  0.829217  1
  Y  Y3  1  0.500000  0.868492  0.171640  1
  Al  Al4  1  0.000000  0.109229  0.141939  1
  Al  Al5  1  0.000000  0.893370  0.858473  1
  Al  Al6  1  0.000000  0.390699  0.643765  1
  Co  Co7  1  0.244069  0.999880  0.501355  1
  Co  Co8  1  0.755931  0.999880  0.501355  1
  Co  Co9  1  0.753858  0.500102  0.998462  1
  Co  Co10  1  0.246142  0.500102  0.998462  1
  Co  Co11  1  0.000000  0.587876  0.349810  1
  O  O12  1  0.220429  0.000947  0.000086  1
  O  O13  1  0.779571  0.000947  0.000086  1
  O  O14  1  0.778021  0.499458  0.502225  1
  O  O15  1  0.221979  0.499458  0.502225  1
  O  O16  1  0.000000  0.345621  0.067940  1
  O  O17  1  0.000000  0.656372  0.932944  1
  O  O18  1  0.000000  0.157732  0.569661  1
  O  O19  1  0.000000  0.849384  0.438359  1
  O  O20  1  0.248548  0.102651  0.290281  1
  O  O21  1  0.751023  0.898741  0.710134  1
  O  O22  1  0.248977  0.898741  0.710134  1
  O  O23  1  0.750254  0.399712  0.790562  1
  O  O24  1  0.751452  0.102651  0.290281  1
  O  O25  1  0.256158  0.600239  0.206034  1
  O  O26  1  0.743842  0.600239  0.206034  1
  O  O27  1  0.249746  0.399712  0.790562  1
  O  O28  1  0.500000  0.339928  0.052975  1
  O  O29  1  0.500000  0.661020  0.946083  1
  O  O30  1  0.500000  0.159816  0.553906  1
  O  O31  1  0.500000  0.839110  0.445357  1
