# generated using pymatgen
data_Hf2CoCuSi2
_symmetry_space_group_name_H-M   'P 1'
_cell_length_a   3.83460300
_cell_length_b   6.45887380
_cell_length_c   7.24650936
_cell_angle_alpha   90.86555753
_cell_angle_beta   90.00000000
_cell_angle_gamma   90.00000000
_symmetry_Int_Tables_number   1
_chemical_formula_structural   Hf2CoCuSi2
_chemical_formula_sum   'Hf4 Co2 Cu2 Si4'
_cell_volume   179.45538935
_cell_formula_units_Z   2
loop_
 _symmetry_equiv_pos_site_id
 _symmetry_equiv_pos_as_xyz
  1  'x, y, z'
loop_
 _atom_site_type_symbol
 _atom_site_label
 _atom_site_symmetry_multiplicity
 _atom_site_fract_x
 _atom_site_fract_y
 _atom_site_fract_z
 _atom_site_occupancy
  Hf  Hf0  1  0.250000  0.515161  0.679461  1
  Hf  Hf1  1  0.750000  0.484839  0.320539  1
  Hf  Hf2  1  0.250000  0.012604  0.804506  1
  Hf  Hf3  1  0.750000  0.987396  0.195494  1
  Co  Co4  1  0.750000  0.861921  0.562173  1
  Co  Co5  1  0.250000  0.138079  0.437827  1
  Cu  Cu6  1  0.750000  0.346431  0.934102  1
  Cu  Cu7  1  0.250000  0.653569  0.065898  1
  Si  Si8  1  0.250000  0.267716  0.122404  1
  Si  Si9  1  0.750000  0.732284  0.877596  1
  Si  Si10  1  0.250000  0.778205  0.398240  1
  Si  Si11  1  0.750000  0.221795  0.601760  1
