# generated using pymatgen
data_HoEr2(TmRu)2
_symmetry_space_group_name_H-M   'P 1'
_cell_length_a   6.26537190
_cell_length_b   7.24737733
_cell_length_c   8.37202246
_cell_angle_alpha   96.83175092
_cell_angle_beta   111.97397598
_cell_angle_gamma   90.00000262
_symmetry_Int_Tables_number   1
_chemical_formula_structural   HoEr2(TmRu)2
_chemical_formula_sum   'Ho2 Er4 Tm4 Ru4'
_cell_volume   349.62379297
_cell_formula_units_Z   2
loop_
 _symmetry_equiv_pos_site_id
 _symmetry_equiv_pos_as_xyz
  1  'x, y, z'
loop_
 _atom_site_type_symbol
 _atom_site_label
 _atom_site_symmetry_multiplicity
 _atom_site_fract_x
 _atom_site_fract_y
 _atom_site_fract_z
 _atom_site_occupancy
  Ho  Ho0  1  0.790748  0.083739  0.813182  1
  Ho  Ho1  1  0.977566  0.416261  0.186818  1
  Er  Er2  1  0.209091  0.915639  0.186483  1
  Er  Er3  1  0.022609  0.584361  0.813517  1
  Er  Er4  1  0.205595  0.184054  0.565312  1
  Er  Er5  1  0.640282  0.315946  0.434688  1
  Tm  Tm6  1  0.794094  0.815423  0.434460  1
  Tm  Tm7  1  0.359634  0.684577  0.565540  1
  Tm  Tm8  1  0.419253  0.250000  0.000000  1
  Tm  Tm9  1  0.580497  0.750000  0.000000  1
  Ru  Ru10  1  0.602228  0.424306  0.779624  1
  Ru  Ru11  1  0.822602  0.075694  0.220376  1
  Ru  Ru12  1  0.398028  0.576798  0.220256  1
  Ru  Ru13  1  0.177773  0.923202  0.779744  1
