# generated using pymatgen
data_HoThNi2Sn
_symmetry_space_group_name_H-M   'P 1'
_cell_length_a   7.39995263
_cell_length_b   7.39995263
_cell_length_c   3.77136400
_cell_angle_alpha   90.00000000
_cell_angle_beta   90.00000000
_cell_angle_gamma   93.04978481
_symmetry_Int_Tables_number   1
_chemical_formula_structural   HoThNi2Sn
_chemical_formula_sum   'Ho2 Th2 Ni4 Sn2'
_cell_volume   206.22475491
_cell_formula_units_Z   2
loop_
 _symmetry_equiv_pos_site_id
 _symmetry_equiv_pos_as_xyz
  1  'x, y, z'
loop_
 _atom_site_type_symbol
 _atom_site_label
 _atom_site_symmetry_multiplicity
 _atom_site_fract_x
 _atom_site_fract_y
 _atom_site_fract_z
 _atom_site_occupancy
  Ho  Ho0  1  0.173743  0.326257  0.500000  1
  Ho  Ho1  1  0.826257  0.673743  0.500000  1
  Th  Th2  1  0.677553  0.177553  0.500000  1
  Th  Th3  1  0.322447  0.822447  0.500000  1
  Ni  Ni4  1  0.876184  0.376184  0.000000  1
  Ni  Ni5  1  0.123816  0.623816  0.000000  1
  Ni  Ni6  1  0.377588  0.122412  0.000000  1
  Ni  Ni7  1  0.622412  0.877588  0.000000  1
  Sn  Sn8  1  0.500000  0.500000  0.000000  1
  Sn  Sn9  1  0.000000  0.000000  0.000000  1
