# generated using pymatgen
data_Tb3Dy13Cd2(HgIr2)2
_symmetry_space_group_name_H-M   'P 1'
_cell_length_a   9.62341378
_cell_length_b   9.62327408
_cell_length_c   9.63266526
_cell_angle_alpha   60.04228534
_cell_angle_beta   60.01615098
_cell_angle_gamma   60.00711900
_symmetry_Int_Tables_number   1
_chemical_formula_structural   Tb3Dy13Cd2(HgIr2)2
_chemical_formula_sum   'Tb3 Dy13 Cd2 Hg2 Ir4'
_cell_volume   631.10043406
_cell_formula_units_Z   1
loop_
 _symmetry_equiv_pos_site_id
 _symmetry_equiv_pos_as_xyz
  1  'x, y, z'
loop_
 _atom_site_type_symbol
 _atom_site_label
 _atom_site_symmetry_multiplicity
 _atom_site_fract_x
 _atom_site_fract_y
 _atom_site_fract_z
 _atom_site_occupancy
  Tb  Tb0  1  0.187667  0.810557  0.189390  1
  Tb  Tb1  1  0.811503  0.811602  0.189138  1
  Tb  Tb2  1  0.188135  0.188412  0.811286  1
  Dy  Dy3  1  0.599197  0.599082  0.598158  1
  Dy  Dy4  1  0.600492  0.600348  0.201343  1
  Dy  Dy5  1  0.601333  0.199365  0.600360  1
  Dy  Dy6  1  0.199475  0.601198  0.600354  1
  Dy  Dy7  1  0.059069  0.439045  0.440956  1
  Dy  Dy8  1  0.437889  0.060082  0.059977  1
  Dy  Dy9  1  0.439165  0.059106  0.440946  1
  Dy  Dy10  1  0.059947  0.437874  0.059999  1
  Dy  Dy11  1  0.439548  0.439423  0.059577  1
  Dy  Dy12  1  0.058971  0.059130  0.439877  1
  Dy  Dy13  1  0.188441  0.810815  0.811844  1
  Dy  Dy14  1  0.810416  0.187908  0.189458  1
  Dy  Dy15  1  0.810898  0.188480  0.812026  1
  Cd  Cd16  1  0.830260  0.506907  0.831294  1
  Cd  Cd17  1  0.507200  0.830212  0.831037  1
  Hg  Hg18  1  0.833907  0.833906  0.835593  1
  Hg  Hg19  1  0.834132  0.834398  0.495392  1
  Ir  Ir20  1  0.391910  0.391678  0.391797  1
  Ir  Ir21  1  0.392948  0.392900  0.824587  1
  Ir  Ir22  1  0.392473  0.825167  0.392815  1
  Ir  Ir23  1  0.825024  0.392408  0.392798  1
