# generated using pymatgen
data_HoErMn4Fe8P7
_symmetry_space_group_name_H-M   'P 1'
_cell_length_a   9.08410265
_cell_length_b   9.04593205
_cell_length_c   3.59950900
_cell_angle_alpha   90.00000000
_cell_angle_beta   90.00000000
_cell_angle_gamma   119.33816719
_symmetry_Int_Tables_number   1
_chemical_formula_structural   HoErMn4Fe8P7
_chemical_formula_sum   'Ho1 Er1 Mn4 Fe8 P7'
_cell_volume   257.84999462
_cell_formula_units_Z   1
loop_
 _symmetry_equiv_pos_site_id
 _symmetry_equiv_pos_as_xyz
  1  'x, y, z'
loop_
 _atom_site_type_symbol
 _atom_site_label
 _atom_site_symmetry_multiplicity
 _atom_site_fract_x
 _atom_site_fract_y
 _atom_site_fract_z
 _atom_site_occupancy
  Ho  Ho0  1  0.338721  0.670022  0.500000  1
  Er  Er1  1  0.660045  0.329571  0.000000  1
  Mn  Mn2  1  0.951741  0.562316  0.500000  1
  Mn  Mn3  1  0.107539  0.230984  0.500000  1
  Mn  Mn4  1  0.776515  0.879303  0.500000  1
  Mn  Mn5  1  0.122941  0.896056  0.500000  1
  Fe  Fe6  1  0.052586  0.429157  0.000000  1
  Fe  Fe7  1  0.573281  0.631061  0.000000  1
  Fe  Fe8  1  0.372310  0.945884  0.000000  1
  Fe  Fe9  1  0.271279  0.153359  0.000000  1
  Fe  Fe10  1  0.846521  0.118694  0.000000  1
  Fe  Fe11  1  0.880402  0.721312  0.000000  1
  Fe  Fe12  1  0.433789  0.383935  0.500000  1
  Fe  Fe13  1  0.613085  0.049202  0.500000  1
  P  P14  1  0.303258  0.413356  0.000000  1
  P  P15  1  0.589040  0.890299  0.000000  1
  P  P16  1  0.123467  0.710999  0.000000  1
  P  P17  1  0.405762  0.118191  0.500000  1
  P  P18  1  0.873090  0.277862  0.500000  1
  P  P19  1  0.704625  0.590843  0.500000  1
  P  P20  1  0.000003  0.997597  0.000000  1
