# generated using pymatgen
data_Tb16Cd4CoNi3
_symmetry_space_group_name_H-M   'P 1'
_cell_length_a   9.57542294
_cell_length_b   9.57542256
_cell_length_c   9.57542206
_cell_angle_alpha   60.04402013
_cell_angle_beta   60.04402394
_cell_angle_gamma   60.04401852
_symmetry_Int_Tables_number   1
_chemical_formula_structural   Tb16Cd4CoNi3
_chemical_formula_sum   'Tb16 Cd4 Co1 Ni3'
_cell_volume   621.42963229
_cell_formula_units_Z   1
loop_
 _symmetry_equiv_pos_site_id
 _symmetry_equiv_pos_as_xyz
  1  'x, y, z'
loop_
 _atom_site_type_symbol
 _atom_site_label
 _atom_site_symmetry_multiplicity
 _atom_site_fract_x
 _atom_site_fract_y
 _atom_site_fract_z
 _atom_site_occupancy
  Tb  Tb0  1  0.347126  0.347126  0.347126  1
  Tb  Tb1  1  0.347850  0.347850  0.954948  1
  Tb  Tb2  1  0.347850  0.954948  0.347850  1
  Tb  Tb3  1  0.954948  0.347850  0.347850  1
  Tb  Tb4  1  0.814960  0.188898  0.188898  1
  Tb  Tb5  1  0.187921  0.811459  0.811459  1
  Tb  Tb6  1  0.188898  0.814960  0.188898  1
  Tb  Tb7  1  0.811459  0.187921  0.811459  1
  Tb  Tb8  1  0.188898  0.188898  0.814960  1
  Tb  Tb9  1  0.811459  0.811459  0.187921  1
  Tb  Tb10  1  0.937064  0.563961  0.563961  1
  Tb  Tb11  1  0.560997  0.937211  0.937211  1
  Tb  Tb12  1  0.563961  0.937064  0.563961  1
  Tb  Tb13  1  0.937211  0.560997  0.937211  1
  Tb  Tb14  1  0.563961  0.563961  0.937064  1
  Tb  Tb15  1  0.937211  0.937211  0.560997  1
  Cd  Cd16  1  0.580182  0.580182  0.580182  1
  Cd  Cd17  1  0.580608  0.580608  0.256366  1
  Cd  Cd18  1  0.580608  0.256366  0.580608  1
  Cd  Cd19  1  0.256366  0.580608  0.580608  1
  Co  Co20  1  0.142855  0.142855  0.142855  1
  Ni  Ni21  1  0.141829  0.141829  0.573947  1
  Ni  Ni22  1  0.141829  0.573947  0.141829  1
  Ni  Ni23  1  0.573947  0.141829  0.141829  1
