# generated using pymatgen
data_Lu12In3Os2
_symmetry_space_group_name_H-M   'P 1'
_cell_length_a   8.34039641
_cell_length_b   8.34040048
_cell_length_c   8.34051191
_cell_angle_alpha   110.75092140
_cell_angle_beta   110.75036153
_cell_angle_gamma   106.94197891
_symmetry_Int_Tables_number   1
_chemical_formula_structural   Lu12In3Os2
_chemical_formula_sum   'Lu12 In3 Os2'
_cell_volume   445.97517508
_cell_formula_units_Z   1
loop_
 _symmetry_equiv_pos_site_id
 _symmetry_equiv_pos_as_xyz
  1  'x, y, z'
loop_
 _atom_site_type_symbol
 _atom_site_label
 _atom_site_symmetry_multiplicity
 _atom_site_fract_x
 _atom_site_fract_y
 _atom_site_fract_z
 _atom_site_occupancy
  Lu  Lu0  1  0.315581  0.315579  0.631165  1
  Lu  Lu1  1  0.684414  0.684416  0.368833  1
  Lu  Lu2  1  0.315578  0.684418  0.999999  1
  Lu  Lu3  1  0.684418  0.315576  0.999998  1
  Lu  Lu4  1  0.452929  0.201311  0.251626  1
  Lu  Lu5  1  0.547067  0.798686  0.748374  1
  Lu  Lu6  1  0.949681  0.201301  0.748373  1
  Lu  Lu7  1  0.201303  0.949686  0.748373  1
  Lu  Lu8  1  0.050313  0.798693  0.251627  1
  Lu  Lu9  1  0.798692  0.050313  0.251625  1
  Lu  Lu10  1  0.201311  0.452929  0.251627  1
  Lu  Lu11  1  0.798683  0.547064  0.748374  1
  In  In12  1  0.000010  0.000007  0.999999  1
  In  In13  1  0.500014  0.000014  0.500011  1
  In  In14  1  0.000012  0.500007  0.500002  1
  Os  Os15  1  0.345872  0.345875  0.000006  1
  Os  Os16  1  0.654122  0.654123  0.999988  1
