# generated using pymatgen
data_Sm5Ho(BiO7)2
_symmetry_space_group_name_H-M   'P 1'
_cell_length_a   6.65836563
_cell_length_b   6.66347119
_cell_length_c   7.83803723
_cell_angle_alpha   106.88220153
_cell_angle_beta   89.78341068
_cell_angle_gamma   98.66917290
_symmetry_Int_Tables_number   1
_chemical_formula_structural   Sm5Ho(BiO7)2
_chemical_formula_sum   'Sm5 Ho1 Bi2 O14'
_cell_volume   328.67374366
_cell_formula_units_Z   1
loop_
 _symmetry_equiv_pos_site_id
 _symmetry_equiv_pos_as_xyz
  1  'x, y, z'
loop_
 _atom_site_type_symbol
 _atom_site_label
 _atom_site_symmetry_multiplicity
 _atom_site_fract_x
 _atom_site_fract_y
 _atom_site_fract_z
 _atom_site_occupancy
  Sm  Sm0  1  0.538649  0.995117  0.747563  1
  Sm  Sm1  1  0.269715  0.539271  0.884151  1
  Sm  Sm2  1  0.729025  0.462892  0.118224  1
  Sm  Sm3  1  0.735937  0.475933  0.612414  1
  Sm  Sm4  1  0.263454  0.522271  0.384184  1
  Ho  Ho5  1  0.461675  0.005564  0.252566  1
  Bi  Bi6  1  0.000222  0.000081  0.498589  1
  Bi  Bi7  1  0.999825  0.999826  0.001706  1
  O  O8  1  0.445306  0.654397  0.169903  1
  O  O9  1  0.556731  0.354798  0.833914  1
  O  O10  1  0.301400  0.927384  0.957510  1
  O  O11  1  0.699343  0.071941  0.051870  1
  O  O12  1  0.297772  0.927755  0.508348  1
  O  O13  1  0.702643  0.071353  0.481795  1
  O  O14  1  0.543178  0.356250  0.342688  1
  O  O15  1  0.451665  0.636149  0.653490  1
  O  O16  1  0.926411  0.670063  0.957693  1
  O  O17  1  0.073096  0.329979  0.042456  1
  O  O18  1  0.068715  0.342950  0.618169  1
  O  O19  1  0.928199  0.655738  0.382809  1
  O  O20  1  0.882245  0.907962  0.726347  1
  O  O21  1  0.124796  0.092326  0.273610  1
