# generated using pymatgen
data_Y3Pu3Ni20P13
_symmetry_space_group_name_H-M   'P 1'
_cell_length_a   12.65725700
_cell_length_b   12.65725705
_cell_length_c   3.72811700
_cell_angle_alpha   90.00000000
_cell_angle_beta   90.00000000
_cell_angle_gamma   120.00000134
_symmetry_Int_Tables_number   1
_chemical_formula_structural   Y3Pu3Ni20P13
_chemical_formula_sum   'Y3 Pu3 Ni20 P13'
_cell_volume   517.24864053
_cell_formula_units_Z   1
loop_
 _symmetry_equiv_pos_site_id
 _symmetry_equiv_pos_as_xyz
  1  'x, y, z'
loop_
 _atom_site_type_symbol
 _atom_site_label
 _atom_site_symmetry_multiplicity
 _atom_site_fract_x
 _atom_site_fract_y
 _atom_site_fract_z
 _atom_site_occupancy
  Y  Y0  1  0.530898  0.811809  0.500000  1
  Y  Y1  1  0.280912  0.469102  0.500000  1
  Y  Y2  1  0.188191  0.719088  0.500000  1
  Pu  Pu3  1  0.473074  0.189740  0.000000  1
  Pu  Pu4  1  0.716666  0.526926  0.000000  1
  Pu  Pu5  1  0.810260  0.283334  0.000000  1
  Ni  Ni6  1  0.333333  0.666667  0.000000  1
  Ni  Ni7  1  0.666667  0.333333  0.500000  1
  Ni  Ni8  1  0.196379  0.091139  0.000000  1
  Ni  Ni9  1  0.894760  0.803621  0.000000  1
  Ni  Ni10  1  0.908861  0.105240  0.000000  1
  Ni  Ni11  1  0.850135  0.925304  0.500000  1
  Ni  Ni12  1  0.075169  0.149865  0.500000  1
  Ni  Ni13  1  0.074696  0.924831  0.500000  1
  Ni  Ni14  1  0.437668  0.416299  0.000000  1
  Ni  Ni15  1  0.978630  0.562332  0.000000  1
  Ni  Ni16  1  0.583701  0.021370  0.000000  1
  Ni  Ni17  1  0.563873  0.586626  0.500000  1
  Ni  Ni18  1  0.022753  0.436127  0.500000  1
  Ni  Ni19  1  0.413374  0.977247  0.500000  1
  Ni  Ni20  1  0.076741  0.319701  0.000000  1
  Ni  Ni21  1  0.242959  0.923259  0.000000  1
  Ni  Ni22  1  0.680299  0.757041  0.000000  1
  Ni  Ni23  1  0.932749  0.684471  0.500000  1
  Ni  Ni24  1  0.751722  0.067251  0.500000  1
  Ni  Ni25  1  0.315529  0.248278  0.500000  1
  P  P26  1  0.232511  0.281134  0.000000  1
  P  P27  1  0.048623  0.767489  0.000000  1
  P  P28  1  0.718866  0.951377  0.000000  1
  P  P29  1  0.767792  0.717394  0.500000  1
  P  P30  1  0.949601  0.232208  0.500000  1
  P  P31  1  0.282606  0.050399  0.500000  1
  P  P32  1  0.477354  0.614118  0.000000  1
  P  P33  1  0.136764  0.522646  0.000000  1
  P  P34  1  0.385882  0.863236  0.000000  1
  P  P35  1  0.521556  0.385175  0.500000  1
  P  P36  1  0.863619  0.478444  0.500000  1
  P  P37  1  0.614825  0.136381  0.500000  1
  P  P38  1  0.000000  0.000000  0.000000  1
