# generated using pymatgen
data_Ce5Mg3(Ni4P3)4
_symmetry_space_group_name_H-M   'P 1'
_cell_length_a   12.32700700
_cell_length_b   12.32700747
_cell_length_c   3.86433400
_cell_angle_alpha   90.00000000
_cell_angle_beta   90.00000000
_cell_angle_gamma   119.99691006
_symmetry_Int_Tables_number   1
_chemical_formula_structural   Ce5Mg3(Ni4P3)4
_chemical_formula_sum   'Ce5 Mg3 Ni16 P12'
_cell_volume   508.55052962
_cell_formula_units_Z   1
loop_
 _symmetry_equiv_pos_site_id
 _symmetry_equiv_pos_as_xyz
  1  'x, y, z'
loop_
 _atom_site_type_symbol
 _atom_site_label
 _atom_site_symmetry_multiplicity
 _atom_site_fract_x
 _atom_site_fract_y
 _atom_site_fract_z
 _atom_site_occupancy
  Ce  Ce0  1  0.666622  0.333290  0.000000  1
  Ce  Ce1  1  0.333291  0.666623  0.000000  1
  Ce  Ce2  1  0.188910  0.000092  0.500000  1
  Ce  Ce3  1  0.000092  0.188910  0.500000  1
  Ce  Ce4  1  0.811212  0.811212  0.500000  1
  Mg  Mg5  1  0.568074  0.000067  0.000000  1
  Mg  Mg6  1  0.431761  0.431761  0.000000  1
  Mg  Mg7  1  0.000067  0.568074  0.000000  1
  Ni  Ni8  1  0.000111  0.000111  0.000000  1
  Ni  Ni9  1  0.806020  0.185557  0.000000  1
  Ni  Ni10  1  0.379468  0.194002  0.000000  1
  Ni  Ni11  1  0.194002  0.379468  0.000000  1
  Ni  Ni12  1  0.814440  0.620325  0.000000  1
  Ni  Ni13  1  0.185557  0.806020  0.000000  1
  Ni  Ni14  1  0.620326  0.814441  0.000000  1
  Ni  Ni15  1  0.721270  0.000112  0.500000  1
  Ni  Ni16  1  0.485582  0.119844  0.500000  1
  Ni  Ni17  1  0.278663  0.278663  0.500000  1
  Ni  Ni18  1  0.880143  0.365693  0.500000  1
  Ni  Ni19  1  0.119844  0.485582  0.500000  1
  Ni  Ni20  1  0.634243  0.514309  0.500000  1
  Ni  Ni21  1  0.514309  0.634243  0.500000  1
  Ni  Ni22  1  0.000112  0.721270  0.500000  1
  Ni  Ni23  1  0.365693  0.880143  0.500000  1
  P  P24  1  0.364745  0.000031  0.000000  1
  P  P25  1  0.820075  0.000110  0.000000  1
  P  P26  1  0.180034  0.180034  0.000000  1
  P  P27  1  0.000031  0.364746  0.000000  1
  P  P28  1  0.635281  0.635281  0.000000  1
  P  P29  1  0.000110  0.820075  0.000000  1
  P  P30  1  0.699188  0.172981  0.500000  1
  P  P31  1  0.473684  0.300739  0.500000  1
  P  P32  1  0.300738  0.473684  0.500000  1
  P  P33  1  0.827127  0.526237  0.500000  1
  P  P34  1  0.172980  0.699188  0.500000  1
  P  P35  1  0.526237  0.827127  0.500000  1
