# generated using pymatgen
data_Tb3YbAl24PdPt8
_symmetry_space_group_name_H-M   'P 1'
_cell_length_a   7.53817101
_cell_length_b   7.55997415
_cell_length_c   13.20637415
_cell_angle_alpha   84.60919515
_cell_angle_beta   79.11898004
_cell_angle_gamma   59.91061467
_symmetry_Int_Tables_number   1
_chemical_formula_structural   Tb3YbAl24PdPt8
_chemical_formula_sum   'Tb3 Yb1 Al24 Pd1 Pt8'
_cell_volume   639.48360071
_cell_formula_units_Z   1
loop_
 _symmetry_equiv_pos_site_id
 _symmetry_equiv_pos_as_xyz
  1  'x, y, z'
loop_
 _atom_site_type_symbol
 _atom_site_label
 _atom_site_symmetry_multiplicity
 _atom_site_fract_x
 _atom_site_fract_y
 _atom_site_fract_z
 _atom_site_occupancy
  Tb  Tb0  1  0.605469  0.832376  0.191941  1
  Tb  Tb1  1  0.733793  0.498522  0.807879  1
  Tb  Tb2  1  0.266509  0.500871  0.192055  1
  Yb  Yb3  1  0.394123  0.168155  0.807265  1
  Al  Al4  1  0.684674  0.833748  0.944771  1
  Al  Al5  1  0.315011  0.166469  0.054862  1
  Al  Al6  1  0.146890  0.832345  0.561018  1
  Al  Al7  1  0.853143  0.167787  0.438404  1
  Al  Al8  1  0.479828  0.166727  0.558844  1
  Al  Al9  1  0.520281  0.833532  0.441074  1
  Al  Al10  1  0.217098  0.165233  0.330082  1
  Al  Al11  1  0.782530  0.835555  0.669737  1
  Al  Al12  1  0.437053  0.506162  0.669571  1
  Al  Al13  1  0.562952  0.492991  0.330289  1
  Al  Al14  1  0.110450  0.160145  0.668520  1
  Al  Al15  1  0.890263  0.839848  0.331391  1
  Al  Al16  1  0.352258  0.499486  0.944833  1
  Al  Al17  1  0.647426  0.500497  0.055642  1
  Al  Al18  1  0.015355  0.167832  0.954107  1
  Al  Al19  1  0.984563  0.831849  0.046526  1
  Al  Al20  1  0.186680  0.499109  0.440946  1
  Al  Al21  1  0.813670  0.500461  0.558592  1
  Al  Al22  1  0.734541  0.164560  0.183565  1
  Al  Al23  1  0.266141  0.833944  0.816718  1
  Al  Al24  1  0.060122  0.631672  0.815791  1
  Al  Al25  1  0.938368  0.369517  0.184565  1
  Al  Al26  1  0.856218  0.041850  0.816260  1
  Al  Al27  1  0.144890  0.958822  0.184064  1
  Pd  Pd28  1  0.999681  0.500272  0.000668  1
  Pt  Pt29  1  0.120250  0.492830  0.637681  1
  Pt  Pt30  1  0.879645  0.507798  0.361969  1
  Pt  Pt31  1  0.656987  0.171262  0.000412  1
  Pt  Pt32  1  0.342479  0.828519  0.000692  1
  Pt  Pt33  1  0.538183  0.166651  0.361647  1
  Pt  Pt34  1  0.461810  0.832953  0.638042  1
  Pt  Pt35  1  0.779769  0.174516  0.636742  1
  Pt  Pt36  1  0.220898  0.825136  0.362837  1
