# generated using pymatgen
data_SmDy2Tm(Mo2O7)2
_symmetry_space_group_name_H-M   'P 1'
_cell_length_a   7.33999723
_cell_length_b   7.33999716
_cell_length_c   7.43121284
_cell_angle_alpha   60.36346950
_cell_angle_beta   60.36347080
_cell_angle_gamma   59.71201661
_symmetry_Int_Tables_number   1
_chemical_formula_structural   SmDy2Tm(Mo2O7)2
_chemical_formula_sum   'Sm1 Dy2 Tm1 Mo4 O14'
_cell_volume   284.01181461
_cell_formula_units_Z   1
loop_
 _symmetry_equiv_pos_site_id
 _symmetry_equiv_pos_as_xyz
  1  'x, y, z'
loop_
 _atom_site_type_symbol
 _atom_site_label
 _atom_site_symmetry_multiplicity
 _atom_site_fract_x
 _atom_site_fract_y
 _atom_site_fract_z
 _atom_site_occupancy
  Sm  Sm0  1  0.125000  0.125000  0.625000  1
  Dy  Dy1  1  0.625000  0.125000  0.125000  1
  Dy  Dy2  1  0.125000  0.625000  0.125000  1
  Tm  Tm3  1  0.125000  0.125000  0.125000  1
  Mo  Mo4  1  0.125000  0.625000  0.625000  1
  Mo  Mo5  1  0.625000  0.125000  0.625000  1
  Mo  Mo6  1  0.625000  0.625000  0.125000  1
  Mo  Mo7  1  0.625000  0.625000  0.625000  1
  O  O8  1  0.718309  0.718309  0.284757  1
  O  O9  1  0.285526  0.285526  0.725391  1
  O  O10  1  0.708908  0.286364  0.716010  1
  O  O11  1  0.286667  0.711996  0.285170  1
  O  O12  1  0.286364  0.708908  0.716010  1
  O  O13  1  0.711996  0.286667  0.285170  1
  O  O14  1  0.531691  0.531691  0.965243  1
  O  O15  1  0.964474  0.964474  0.524609  1
  O  O16  1  0.541092  0.963636  0.533990  1
  O  O17  1  0.963333  0.538004  0.964830  1
  O  O18  1  0.963636  0.541092  0.533990  1
  O  O19  1  0.538004  0.963333  0.964830  1
  O  O20  1  0.248156  0.248156  0.246822  1
  O  O21  1  0.001844  0.001844  0.003178  1
