# generated using pymatgen
data_Zr10Ni2SnBi5
_symmetry_space_group_name_H-M   'P 1'
_cell_length_a   8.80280248
_cell_length_b   8.77818563
_cell_length_c   5.91384700
_cell_angle_alpha   90.00000000
_cell_angle_beta   90.00000000
_cell_angle_gamma   119.90754050
_symmetry_Int_Tables_number   1
_chemical_formula_structural   Zr10Ni2SnBi5
_chemical_formula_sum   'Zr10 Ni2 Sn1 Bi5'
_cell_volume   396.12322418
_cell_formula_units_Z   1
loop_
 _symmetry_equiv_pos_site_id
 _symmetry_equiv_pos_as_xyz
  1  'x, y, z'
loop_
 _atom_site_type_symbol
 _atom_site_label
 _atom_site_symmetry_multiplicity
 _atom_site_fract_x
 _atom_site_fract_y
 _atom_site_fract_z
 _atom_site_occupancy
  Zr  Zr0  1  0.669456  0.333547  0.501682  1
  Zr  Zr1  1  0.330544  0.664092  0.501682  1
  Zr  Zr2  1  0.330544  0.664092  0.998318  1
  Zr  Zr3  1  0.669456  0.333547  0.998318  1
  Zr  Zr4  1  0.749937  0.749002  0.250000  1
  Zr  Zr5  1  0.250063  0.999065  0.250000  1
  Zr  Zr6  1  0.000000  0.250778  0.250000  1
  Zr  Zr7  1  0.247822  0.254320  0.750000  1
  Zr  Zr8  1  0.752178  0.006499  0.750000  1
  Zr  Zr9  1  0.000000  0.745605  0.750000  1
  Ni  Ni10  1  0.000000  0.999669  0.501769  1
  Ni  Ni11  1  0.000000  0.999669  0.998231  1
  Sn  Sn12  1  0.000000  0.391170  0.750000  1
  Bi  Bi13  1  0.390455  0.389389  0.250000  1
  Bi  Bi14  1  0.609545  0.998933  0.250000  1
  Bi  Bi15  1  0.000000  0.607814  0.250000  1
  Bi  Bi16  1  0.611507  0.612159  0.750000  1
  Bi  Bi17  1  0.388493  0.000652  0.750000  1
