# generated using pymatgen
data_Yb4ErTm5Ru4
_symmetry_space_group_name_H-M   'P 1'
_cell_length_a   6.37794656
_cell_length_b   7.19864489
_cell_length_c   8.45718006
_cell_angle_alpha   97.42726659
_cell_angle_beta   112.15716075
_cell_angle_gamma   89.98584792
_symmetry_Int_Tables_number   1
_chemical_formula_structural   Yb4ErTm5Ru4
_chemical_formula_sum   'Yb4 Er1 Tm5 Ru4'
_cell_volume   356.10170226
_cell_formula_units_Z   1
loop_
 _symmetry_equiv_pos_site_id
 _symmetry_equiv_pos_as_xyz
  1  'x, y, z'
loop_
 _atom_site_type_symbol
 _atom_site_label
 _atom_site_symmetry_multiplicity
 _atom_site_fract_x
 _atom_site_fract_y
 _atom_site_fract_z
 _atom_site_occupancy
  Yb  Yb0  1  0.794640  0.078640  0.816216  1
  Yb  Yb1  1  0.978393  0.421371  0.183794  1
  Yb  Yb2  1  0.205436  0.921277  0.183789  1
  Yb  Yb3  1  0.021586  0.578723  0.816228  1
  Er  Er4  1  0.197817  0.184206  0.565620  1
  Tm  Tm5  1  0.632229  0.315913  0.434053  1
  Tm  Tm6  1  0.801891  0.815735  0.434175  1
  Tm  Tm7  1  0.367892  0.684127  0.565856  1
  Tm  Tm8  1  0.431848  0.250150  0.000180  1
  Tm  Tm9  1  0.568280  0.749919  0.000024  1
  Ru  Ru10  1  0.581678  0.424765  0.768160  1
  Ru  Ru11  1  0.813185  0.075252  0.231892  1
  Ru  Ru12  1  0.418549  0.575411  0.231974  1
  Ru  Ru13  1  0.186577  0.924511  0.768038  1
