# generated using pymatgen
data_Ho3Tm5Hg4
_symmetry_space_group_name_H-M   'P 1'
_cell_length_a   5.05212500
_cell_length_b   7.03622174
_cell_length_c   9.11752501
_cell_angle_alpha   89.96303773
_cell_angle_beta   90.00000000
_cell_angle_gamma   90.00000000
_symmetry_Int_Tables_number   1
_chemical_formula_structural   Ho3Tm5Hg4
_chemical_formula_sum   'Ho3 Tm5 Hg4'
_cell_volume   324.10854234
_cell_formula_units_Z   1
loop_
 _symmetry_equiv_pos_site_id
 _symmetry_equiv_pos_as_xyz
  1  'x, y, z'
loop_
 _atom_site_type_symbol
 _atom_site_label
 _atom_site_symmetry_multiplicity
 _atom_site_fract_x
 _atom_site_fract_y
 _atom_site_fract_z
 _atom_site_occupancy
  Ho  Ho0  1  0.250000  0.514983  0.191012  1
  Ho  Ho1  1  0.750000  0.985073  0.691222  1
  Ho  Ho2  1  0.750000  0.485433  0.808819  1
  Tm  Tm3  1  0.250000  0.165759  0.925471  1
  Tm  Tm4  1  0.250000  0.666308  0.573955  1
  Tm  Tm5  1  0.750000  0.834473  0.076096  1
  Tm  Tm6  1  0.750000  0.332868  0.424685  1
  Tm  Tm7  1  0.250000  0.014983  0.309243  1
  Hg  Hg8  1  0.250000  0.240760  0.601760  1
  Hg  Hg9  1  0.250000  0.741148  0.897247  1
  Hg  Hg10  1  0.750000  0.759406  0.398068  1
  Hg  Hg11  1  0.750000  0.258808  0.102421  1
