# generated using pymatgen
data_Th4ZnSi6Ru
_symmetry_space_group_name_H-M   'P 1'
_cell_length_a   8.25306300
_cell_length_b   8.25306343
_cell_length_c   8.47331200
_cell_angle_alpha   90.00000000
_cell_angle_beta   90.00000000
_cell_angle_gamma   119.99999428
_symmetry_Int_Tables_number   1
_chemical_formula_structural   Th4ZnSi6Ru
_chemical_formula_sum   'Th8 Zn2 Si12 Ru2'
_cell_volume   499.82065348
_cell_formula_units_Z   2
loop_
 _symmetry_equiv_pos_site_id
 _symmetry_equiv_pos_as_xyz
  1  'x, y, z'
loop_
 _atom_site_type_symbol
 _atom_site_label
 _atom_site_symmetry_multiplicity
 _atom_site_fract_x
 _atom_site_fract_y
 _atom_site_fract_z
 _atom_site_occupancy
  Th  Th0  1  0.499914  0.500086  0.742646  1
  Th  Th1  1  0.500086  0.499914  0.257354  1
  Th  Th2  1  0.000172  0.500086  0.742646  1
  Th  Th3  1  0.999828  0.499914  0.257354  1
  Th  Th4  1  0.499914  0.999828  0.742646  1
  Th  Th5  1  0.500086  0.000172  0.257354  1
  Th  Th6  1  0.000000  0.000000  0.750030  1
  Th  Th7  1  0.000000  0.000000  0.249970  1
  Zn  Zn8  1  0.666667  0.333333  0.999746  1
  Zn  Zn9  1  0.333333  0.666667  0.000254  1
  Si  Si10  1  0.833299  0.166701  0.999910  1
  Si  Si11  1  0.166701  0.833299  0.000090  1
  Si  Si12  1  0.333404  0.166701  0.999910  1
  Si  Si13  1  0.165726  0.834274  0.499866  1
  Si  Si14  1  0.666596  0.833299  0.000090  1
  Si  Si15  1  0.834274  0.165726  0.500134  1
  Si  Si16  1  0.833299  0.666596  0.999910  1
  Si  Si17  1  0.668546  0.834274  0.499866  1
  Si  Si18  1  0.166701  0.333404  0.000090  1
  Si  Si19  1  0.331454  0.165726  0.500134  1
  Si  Si20  1  0.165726  0.331454  0.499866  1
  Si  Si21  1  0.834274  0.668546  0.500134  1
  Ru  Ru22  1  0.333333  0.666667  0.499702  1
  Ru  Ru23  1  0.666667  0.333333  0.500298  1
