# generated using pymatgen
data_Pr3Th(FeB10)2
_symmetry_space_group_name_H-M   'P 1'
_cell_length_a   4.19913100
_cell_length_b   5.65752253
_cell_length_c   11.26133310
_cell_angle_alpha   90.12836590
_cell_angle_beta   90.00000000
_cell_angle_gamma   90.00000000
_symmetry_Int_Tables_number   1
_chemical_formula_structural   Pr3Th(FeB10)2
_chemical_formula_sum   'Pr3 Th1 Fe2 B20'
_cell_volume   267.53119569
_cell_formula_units_Z   1
loop_
 _symmetry_equiv_pos_site_id
 _symmetry_equiv_pos_as_xyz
  1  'x, y, z'
loop_
 _atom_site_type_symbol
 _atom_site_label
 _atom_site_symmetry_multiplicity
 _atom_site_fract_x
 _atom_site_fract_y
 _atom_site_fract_z
 _atom_site_occupancy
  Pr  Pr0  1  0.500000  0.291398  0.868288  1
  Pr  Pr1  1  0.500000  0.709859  0.130820  1
  Pr  Pr2  1  0.500000  0.790776  0.632790  1
  Th  Th3  1  0.500000  0.213290  0.369595  1
  Fe  Fe4  1  0.000000  0.496782  0.498568  1
  Fe  Fe5  1  0.000000  0.000233  0.000203  1
  B  B6  1  0.000000  0.126695  0.539755  1
  B  B7  1  0.000000  0.870636  0.460100  1
  B  B8  1  0.000000  0.628092  0.959998  1
  B  B9  1  0.000000  0.371424  0.040157  1
  B  B10  1  0.000000  0.151893  0.697124  1
  B  B11  1  0.000000  0.849892  0.303279  1
  B  B12  1  0.298271  0.203884  0.113879  1
  B  B13  1  0.297891  0.795682  0.887011  1
  B  B14  1  0.701622  0.704649  0.386528  1
  B  B15  1  0.702355  0.293994  0.612298  1
  B  B16  1  0.702109  0.795682  0.887011  1
  B  B17  1  0.701729  0.203884  0.113879  1
  B  B18  1  0.297645  0.293994  0.612298  1
  B  B19  1  0.298378  0.704649  0.386528  1
  B  B20  1  0.000000  0.038820  0.187896  1
  B  B21  1  0.000000  0.962418  0.813327  1
  B  B22  1  0.000000  0.539284  0.312388  1
  B  B23  1  0.000000  0.461826  0.686219  1
  B  B24  1  0.000000  0.348276  0.197414  1
  B  B25  1  0.000000  0.651989  0.802644  1
