# generated using pymatgen
data_TbPrZn5Ge
_symmetry_space_group_name_H-M   'P 1'
_cell_length_a   8.34016215
_cell_length_b   8.34016241
_cell_length_c   8.85471600
_cell_angle_alpha   90.00000000
_cell_angle_beta   90.00000000
_cell_angle_gamma   149.50689170
_symmetry_Int_Tables_number   1
_chemical_formula_structural   TbPrZn5Ge
_chemical_formula_sum   'Tb2 Pr2 Zn10 Ge2'
_cell_volume   312.53871176
_cell_formula_units_Z   2
loop_
 _symmetry_equiv_pos_site_id
 _symmetry_equiv_pos_as_xyz
  1  'x, y, z'
loop_
 _atom_site_type_symbol
 _atom_site_label
 _atom_site_symmetry_multiplicity
 _atom_site_fract_x
 _atom_site_fract_y
 _atom_site_fract_z
 _atom_site_occupancy
  Tb  Tb0  1  0.202010  0.797990  0.250000  1
  Tb  Tb1  1  0.797990  0.202010  0.750000  1
  Pr  Pr2  1  0.000000  0.000000  0.500000  1
  Pr  Pr3  1  0.000000  0.000000  0.000000  1
  Zn  Zn4  1  0.812658  0.187342  0.392124  1
  Zn  Zn5  1  0.187342  0.812658  0.607876  1
  Zn  Zn6  1  0.812658  0.187342  0.107876  1
  Zn  Zn7  1  0.187342  0.812658  0.892124  1
  Zn  Zn8  1  0.653654  0.346346  0.477332  1
  Zn  Zn9  1  0.346346  0.653654  0.522668  1
  Zn  Zn10  1  0.653654  0.346346  0.022668  1
  Zn  Zn11  1  0.346346  0.653654  0.977332  1
  Zn  Zn12  1  0.401052  0.598948  0.250000  1
  Zn  Zn13  1  0.598948  0.401052  0.750000  1
  Ge  Ge14  1  0.557398  0.442602  0.250000  1
  Ge  Ge15  1  0.442602  0.557398  0.750000  1
