# generated using pymatgen
data_Y3Er5In3Os
_symmetry_space_group_name_H-M   'P 1'
_cell_length_a   10.33715600
_cell_length_b   10.33715626
_cell_length_c   7.06879500
_cell_angle_alpha   90.00000000
_cell_angle_beta   90.00000000
_cell_angle_gamma   119.99999917
_symmetry_Int_Tables_number   1
_chemical_formula_structural   Y3Er5In3Os
_chemical_formula_sum   'Y6 Er10 In6 Os2'
_cell_volume   654.15124756
_cell_formula_units_Z   2
loop_
 _symmetry_equiv_pos_site_id
 _symmetry_equiv_pos_as_xyz
  1  'x, y, z'
loop_
 _atom_site_type_symbol
 _atom_site_label
 _atom_site_symmetry_multiplicity
 _atom_site_fract_x
 _atom_site_fract_y
 _atom_site_fract_z
 _atom_site_occupancy
  Y  Y0  1  0.532420  0.064838  0.793623  1
  Y  Y1  1  0.935162  0.467580  0.793623  1
  Y  Y2  1  0.532420  0.467580  0.793623  1
  Y  Y3  1  0.467580  0.935162  0.293623  1
  Y  Y4  1  0.064838  0.532420  0.293623  1
  Y  Y5  1  0.467580  0.532420  0.293623  1
  Er  Er6  1  0.822982  0.645964  0.499101  1
  Er  Er7  1  0.354036  0.177018  0.499101  1
  Er  Er8  1  0.822982  0.177018  0.499101  1
  Er  Er9  1  0.177018  0.354036  0.999101  1
  Er  Er10  1  0.645964  0.822982  0.999101  1
  Er  Er11  1  0.177018  0.822982  0.999101  1
  Er  Er12  1  0.666667  0.333333  0.170934  1
  Er  Er13  1  0.333333  0.666667  0.670934  1
  Er  Er14  1  0.000000  0.000000  0.778724  1
  Er  Er15  1  0.000000  0.000000  0.278724  1
  In  In16  1  0.836978  0.673958  0.041837  1
  In  In17  1  0.326042  0.163022  0.041837  1
  In  In18  1  0.836978  0.163022  0.041837  1
  In  In19  1  0.163022  0.326042  0.541837  1
  In  In20  1  0.673958  0.836978  0.541837  1
  In  In21  1  0.163022  0.836978  0.541837  1
  Os  Os22  1  0.666667  0.333333  0.564608  1
  Os  Os23  1  0.333333  0.666667  0.064608  1
