# generated using pymatgen
data_Ho8GaCuPt23
_symmetry_space_group_name_H-M   'P 1'
_cell_length_a   8.35879900
_cell_length_b   8.34411600
_cell_length_c   8.34411600
_cell_angle_alpha   90.00000000
_cell_angle_beta   90.00000000
_cell_angle_gamma   90.00000000
_symmetry_Int_Tables_number   1
_chemical_formula_structural   Ho8GaCuPt23
_chemical_formula_sum   'Ho8 Ga1 Cu1 Pt23'
_cell_volume   581.97529368
_cell_formula_units_Z   1
loop_
 _symmetry_equiv_pos_site_id
 _symmetry_equiv_pos_as_xyz
  1  'x, y, z'
loop_
 _atom_site_type_symbol
 _atom_site_label
 _atom_site_symmetry_multiplicity
 _atom_site_fract_x
 _atom_site_fract_y
 _atom_site_fract_z
 _atom_site_occupancy
  Ho  Ho0  1  0.253243  0.251481  0.748519  1
  Ho  Ho1  1  0.253243  0.748519  0.251481  1
  Ho  Ho2  1  0.750558  0.252113  0.252113  1
  Ho  Ho3  1  0.750558  0.747887  0.747887  1
  Ho  Ho4  1  0.750558  0.747887  0.252113  1
  Ho  Ho5  1  0.750558  0.252113  0.747887  1
  Ho  Ho6  1  0.253243  0.748519  0.748519  1
  Ho  Ho7  1  0.253243  0.251481  0.251481  1
  Ga  Ga8  1  0.977127  0.000000  0.000000  1
  Cu  Cu9  1  0.680330  0.000000  0.000000  1
  Pt  Pt10  1  0.501792  0.500000  0.747927  1
  Pt  Pt11  1  0.501792  0.252073  0.500000  1
  Pt  Pt12  1  0.255014  0.500000  0.500000  1
  Pt  Pt13  1  0.501792  0.500000  0.252073  1
  Pt  Pt14  1  0.501792  0.747927  0.500000  1
  Pt  Pt15  1  0.747998  0.500000  0.500000  1
  Pt  Pt16  1  0.001907  0.000000  0.708178  1
  Pt  Pt17  1  0.001907  0.291822  0.000000  1
  Pt  Pt18  1  0.281620  0.000000  0.000000  1
  Pt  Pt19  1  0.001907  0.000000  0.291822  1
  Pt  Pt20  1  0.001907  0.708178  0.000000  1
  Pt  Pt21  1  0.001549  0.500000  0.739602  1
  Pt  Pt22  1  0.503189  0.256781  0.000000  1
  Pt  Pt23  1  0.263573  0.000000  0.500000  1
  Pt  Pt24  1  0.001549  0.260398  0.500000  1
  Pt  Pt25  1  0.503189  0.000000  0.743219  1
  Pt  Pt26  1  0.263573  0.500000  0.000000  1
  Pt  Pt27  1  0.001549  0.500000  0.260398  1
  Pt  Pt28  1  0.503189  0.743219  0.000000  1
  Pt  Pt29  1  0.001549  0.739602  0.500000  1
  Pt  Pt30  1  0.503189  0.000000  0.256781  1
  Pt  Pt31  1  0.740909  0.000000  0.500000  1
  Pt  Pt32  1  0.740909  0.500000  0.000000  1
