# generated using pymatgen
data_Y12InFe4Pb
_symmetry_space_group_name_H-M   'P 1'
_cell_length_a   8.46861086
_cell_length_b   8.46861079
_cell_length_c   8.46861169
_cell_angle_alpha   111.21061248
_cell_angle_beta   110.11476667
_cell_angle_gamma   107.11562940
_symmetry_Int_Tables_number   1
_chemical_formula_structural   Y12InFe4Pb
_chemical_formula_sum   'Y12 In1 Fe4 Pb1'
_cell_volume   466.90131181
_cell_formula_units_Z   1
loop_
 _symmetry_equiv_pos_site_id
 _symmetry_equiv_pos_as_xyz
  1  'x, y, z'
loop_
 _atom_site_type_symbol
 _atom_site_label
 _atom_site_symmetry_multiplicity
 _atom_site_fract_x
 _atom_site_fract_y
 _atom_site_fract_z
 _atom_site_occupancy
  Y  Y0  1  0.442722  0.228875  0.213847  1
  Y  Y1  1  0.557278  0.771125  0.786153  1
  Y  Y2  1  0.015028  0.228875  0.786153  1
  Y  Y3  1  0.984972  0.771125  0.213847  1
  Y  Y4  1  0.186660  0.286736  0.473396  1
  Y  Y5  1  0.813340  0.713264  0.526604  1
  Y  Y6  1  0.186660  0.713264  0.899926  1
  Y  Y7  1  0.813340  0.286736  0.100074  1
  Y  Y8  1  0.311129  0.611085  0.299956  1
  Y  Y9  1  0.688871  0.388915  0.700044  1
  Y  Y10  1  0.311129  0.011174  0.700044  1
  Y  Y11  1  0.688871  0.988826  0.299956  1
  In  In12  1  0.000000  0.000000  0.000000  1
  Fe  Fe13  1  0.387456  0.000000  0.387456  1
  Fe  Fe14  1  0.612544  0.000000  0.612544  1
  Fe  Fe15  1  0.106597  0.606597  0.500000  1
  Fe  Fe16  1  0.893403  0.393403  0.500000  1
  Pb  Pb17  1  0.500000  0.500000  0.000000  1
