# generated using pymatgen
data_Tm20Cd6OsPd
_symmetry_space_group_name_H-M   'P 1'
_cell_length_a   9.44767700
_cell_length_b   9.44767787
_cell_length_c   9.74081100
_cell_angle_alpha   90.00000000
_cell_angle_beta   90.00000000
_cell_angle_gamma   120.00000047
_symmetry_Int_Tables_number   1
_chemical_formula_structural   Tm20Cd6OsPd
_chemical_formula_sum   'Tm20 Cd6 Os1 Pd1'
_cell_volume   752.96685694
_cell_formula_units_Z   1
loop_
 _symmetry_equiv_pos_site_id
 _symmetry_equiv_pos_as_xyz
  1  'x, y, z'
loop_
 _atom_site_type_symbol
 _atom_site_label
 _atom_site_symmetry_multiplicity
 _atom_site_fract_x
 _atom_site_fract_y
 _atom_site_fract_z
 _atom_site_occupancy
  Tm  Tm0  1  0.000000  0.000000  0.500318  1
  Tm  Tm1  1  0.000000  0.000000  0.999682  1
  Tm  Tm2  1  0.209704  0.790296  0.441505  1
  Tm  Tm3  1  0.209704  0.419409  0.441505  1
  Tm  Tm4  1  0.580591  0.790296  0.441505  1
  Tm  Tm5  1  0.791649  0.208351  0.556460  1
  Tm  Tm6  1  0.791649  0.583295  0.556460  1
  Tm  Tm7  1  0.416705  0.208351  0.556460  1
  Tm  Tm8  1  0.791649  0.208351  0.943540  1
  Tm  Tm9  1  0.791649  0.583295  0.943540  1
  Tm  Tm10  1  0.416705  0.208351  0.943540  1
  Tm  Tm11  1  0.209704  0.790296  0.058495  1
  Tm  Tm12  1  0.209704  0.419409  0.058495  1
  Tm  Tm13  1  0.580591  0.790296  0.058495  1
  Tm  Tm14  1  0.539632  0.460368  0.250000  1
  Tm  Tm15  1  0.539632  0.079264  0.250000  1
  Tm  Tm16  1  0.920736  0.460368  0.250000  1
  Tm  Tm17  1  0.457340  0.542660  0.750000  1
  Tm  Tm18  1  0.457340  0.914681  0.750000  1
  Tm  Tm19  1  0.085319  0.542660  0.750000  1
  Cd  Cd20  1  0.886046  0.113954  0.250000  1
  Cd  Cd21  1  0.886046  0.772094  0.250000  1
  Cd  Cd22  1  0.227906  0.113954  0.250000  1
  Cd  Cd23  1  0.113906  0.886094  0.750000  1
  Cd  Cd24  1  0.113906  0.227810  0.750000  1
  Cd  Cd25  1  0.772190  0.886094  0.750000  1
  Os  Os26  1  0.333333  0.666667  0.250000  1
  Pd  Pd27  1  0.666667  0.333333  0.750000  1
