# generated using pymatgen
data_LaHoMg(Si3Pd10)2
_symmetry_space_group_name_H-M   'P 1'
_cell_length_a   8.70792596
_cell_length_b   8.70793339
_cell_length_c   8.70794500
_cell_angle_alpha   60.00007233
_cell_angle_beta   59.99986716
_cell_angle_gamma   60.00009734
_symmetry_Int_Tables_number   1
_chemical_formula_structural   LaHoMg(Si3Pd10)2
_chemical_formula_sum   'La1 Ho1 Mg1 Si6 Pd20'
_cell_volume   466.90725929
_cell_formula_units_Z   1
loop_
 _symmetry_equiv_pos_site_id
 _symmetry_equiv_pos_as_xyz
  1  'x, y, z'
loop_
 _atom_site_type_symbol
 _atom_site_label
 _atom_site_symmetry_multiplicity
 _atom_site_fract_x
 _atom_site_fract_y
 _atom_site_fract_z
 _atom_site_occupancy
  La  La0  1  0.249997  0.250004  0.250001  1
  Ho  Ho1  1  0.750002  0.750000  0.749997  1
  Mg  Mg2  1  0.000002  0.999998  0.999999  1
  Si  Si3  1  0.733902  0.266096  0.266098  1
  Si  Si4  1  0.266098  0.733902  0.733901  1
  Si  Si5  1  0.266100  0.733900  0.266099  1
  Si  Si6  1  0.733901  0.266098  0.733902  1
  Si  Si7  1  0.266099  0.266098  0.733903  1
  Si  Si8  1  0.733902  0.733901  0.266098  1
  Pd  Pd9  1  0.385811  0.385815  0.385806  1
  Pd  Pd10  1  0.617295  0.617296  0.617296  1
  Pd  Pd11  1  0.385812  0.385810  0.842573  1
  Pd  Pd12  1  0.385805  0.842574  0.385810  1
  Pd  Pd13  1  0.617295  0.617297  0.148112  1
  Pd  Pd14  1  0.617298  0.148109  0.617298  1
  Pd  Pd15  1  0.842563  0.385811  0.385812  1
  Pd  Pd16  1  0.148110  0.617297  0.617296  1
  Pd  Pd17  1  0.345165  0.998632  0.998635  1
  Pd  Pd18  1  0.657569  0.998635  0.998632  1
  Pd  Pd19  1  0.998631  0.345167  0.657571  1
  Pd  Pd20  1  0.998637  0.657566  0.345164  1
  Pd  Pd21  1  0.998633  0.345163  0.998635  1
  Pd  Pd22  1  0.657569  0.998634  0.345162  1
  Pd  Pd23  1  0.998633  0.657568  0.998632  1
  Pd  Pd24  1  0.345167  0.998630  0.657570  1
  Pd  Pd25  1  0.998637  0.998634  0.345162  1
  Pd  Pd26  1  0.998635  0.998635  0.657567  1
  Pd  Pd27  1  0.657569  0.345163  0.998633  1
  Pd  Pd28  1  0.345164  0.657567  0.998636  1
