# generated using pymatgen
data_Y15Mg4ScSn16
_symmetry_space_group_name_H-M   'P 1'
_cell_length_a   7.68366270
_cell_length_b   8.23853460
_cell_length_c   15.35547400
_cell_angle_alpha   90.02132283
_cell_angle_beta   90.02439875
_cell_angle_gamma   90.05668489
_symmetry_Int_Tables_number   1
_chemical_formula_structural   Y15Mg4ScSn16
_chemical_formula_sum   'Y15 Mg4 Sc1 Sn16'
_cell_volume   972.03344200
_cell_formula_units_Z   1
loop_
 _symmetry_equiv_pos_site_id
 _symmetry_equiv_pos_as_xyz
  1  'x, y, z'
loop_
 _atom_site_type_symbol
 _atom_site_label
 _atom_site_symmetry_multiplicity
 _atom_site_fract_x
 _atom_site_fract_y
 _atom_site_fract_z
 _atom_site_occupancy
  Y  Y0  1  0.836570  0.670814  0.629032  1
  Y  Y1  1  0.662339  0.170470  0.371356  1
  Y  Y2  1  0.163085  0.330042  0.126473  1
  Y  Y3  1  0.660588  0.169698  0.128063  1
  Y  Y4  1  0.161948  0.328723  0.371286  1
  Y  Y5  1  0.339766  0.829617  0.629580  1
  Y  Y6  1  0.836923  0.670039  0.872048  1
  Y  Y7  1  0.501268  0.316736  0.908860  1
  Y  Y8  1  0.003040  0.183279  0.593029  1
  Y  Y9  1  0.499528  0.683715  0.408849  1
  Y  Y10  1  0.997383  0.815297  0.090897  1
  Y  Y11  1  0.497351  0.683913  0.089802  1
  Y  Y12  1  0.999136  0.816969  0.408354  1
  Y  Y13  1  0.500824  0.316366  0.592657  1
  Y  Y14  1  0.001813  0.184428  0.907319  1
  Mg  Mg15  1  0.162439  0.495517  0.750042  1
  Mg  Mg16  1  0.665118  0.004930  0.751562  1
  Mg  Mg17  1  0.836311  0.505142  0.249994  1
  Mg  Mg18  1  0.335768  0.993313  0.250528  1
  Sc  Sc19  1  0.338322  0.830551  0.871208  1
  Sn  Sn20  1  0.316624  0.033787  0.034179  1
  Sn  Sn21  1  0.818641  0.462800  0.462499  1
  Sn  Sn22  1  0.684129  0.963705  0.538112  1
  Sn  Sn23  1  0.185923  0.543149  0.959511  1
  Sn  Sn24  1  0.677101  0.962600  0.960507  1
  Sn  Sn25  1  0.182275  0.537376  0.537894  1
  Sn  Sn26  1  0.318026  0.037447  0.462974  1
  Sn  Sn27  1  0.817084  0.462381  0.037590  1
  Sn  Sn28  1  0.522257  0.595978  0.753015  1
  Sn  Sn29  1  0.031276  0.903840  0.752822  1
  Sn  Sn30  1  0.474058  0.408600  0.249766  1
  Sn  Sn31  1  0.974182  0.091345  0.249016  1
  Sn  Sn32  1  0.306280  0.148616  0.751959  1
  Sn  Sn33  1  0.803197  0.349530  0.750220  1
  Sn  Sn34  1  0.694665  0.847841  0.249438  1
  Sn  Sn35  1  0.194763  0.651446  0.249559  1
