# generated using pymatgen
data_Hf18VZnCoRe6Mo
_symmetry_space_group_name_H-M   'P 1'
_cell_length_a   8.66591100
_cell_length_b   8.66591069
_cell_length_c   8.50437300
_cell_angle_alpha   90.00000000
_cell_angle_beta   90.00000000
_cell_angle_gamma   119.99999738
_symmetry_Int_Tables_number   1
_chemical_formula_structural   Hf18VZnCoRe6Mo
_chemical_formula_sum   'Hf18 V1 Zn1 Co1 Re6 Mo1'
_cell_volume   553.09709365
_cell_formula_units_Z   1
loop_
 _symmetry_equiv_pos_site_id
 _symmetry_equiv_pos_as_xyz
  1  'x, y, z'
loop_
 _atom_site_type_symbol
 _atom_site_label
 _atom_site_symmetry_multiplicity
 _atom_site_fract_x
 _atom_site_fract_y
 _atom_site_fract_z
 _atom_site_occupancy
  Hf  Hf0  1  0.191789  0.808211  0.449808  1
  Hf  Hf1  1  0.191789  0.383579  0.449808  1
  Hf  Hf2  1  0.616421  0.808211  0.449808  1
  Hf  Hf3  1  0.800487  0.199513  0.557225  1
  Hf  Hf4  1  0.800487  0.600972  0.557225  1
  Hf  Hf5  1  0.399028  0.199513  0.557225  1
  Hf  Hf6  1  0.799047  0.200953  0.941673  1
  Hf  Hf7  1  0.799047  0.598092  0.941673  1
  Hf  Hf8  1  0.401908  0.200953  0.941673  1
  Hf  Hf9  1  0.193108  0.806892  0.050559  1
  Hf  Hf10  1  0.193108  0.386217  0.050559  1
  Hf  Hf11  1  0.613783  0.806892  0.050559  1
  Hf  Hf12  1  0.540847  0.459153  0.250017  1
  Hf  Hf13  1  0.540847  0.081695  0.250017  1
  Hf  Hf14  1  0.918305  0.459153  0.250017  1
  Hf  Hf15  1  0.459236  0.540764  0.750221  1
  Hf  Hf16  1  0.459236  0.918471  0.750221  1
  Hf  Hf17  1  0.081529  0.540764  0.750221  1
  V  V18  1  0.000000  0.000000  0.498856  1
  Zn  Zn19  1  0.333333  0.666667  0.250934  1
  Co  Co20  1  0.666667  0.333333  0.750350  1
  Re  Re21  1  0.889151  0.110849  0.252953  1
  Re  Re22  1  0.889151  0.778302  0.252953  1
  Re  Re23  1  0.221698  0.110849  0.252953  1
  Re  Re24  1  0.110253  0.889747  0.747086  1
  Re  Re25  1  0.110253  0.220504  0.747086  1
  Re  Re26  1  0.779496  0.889747  0.747086  1
  Mo  Mo27  1  0.000000  0.000000  0.001235  1
