# generated using pymatgen
data_TbDy5MgCo17P12
_symmetry_space_group_name_H-M   'P 1'
_cell_length_a   3.72001800
_cell_length_b   10.57747500
_cell_length_c   12.25057400
_cell_angle_alpha   90.00000000
_cell_angle_beta   90.00000000
_cell_angle_gamma   90.00000000
_symmetry_Int_Tables_number   1
_chemical_formula_structural   TbDy5MgCo17P12
_chemical_formula_sum   'Tb1 Dy5 Mg1 Co17 P12'
_cell_volume   482.04045406
_cell_formula_units_Z   1
loop_
 _symmetry_equiv_pos_site_id
 _symmetry_equiv_pos_as_xyz
  1  'x, y, z'
loop_
 _atom_site_type_symbol
 _atom_site_label
 _atom_site_symmetry_multiplicity
 _atom_site_fract_x
 _atom_site_fract_y
 _atom_site_fract_z
 _atom_site_occupancy
  Tb  Tb0  1  0.500000  0.000000  0.478286  1
  Dy  Dy1  1  0.000000  0.500000  0.525317  1
  Dy  Dy2  1  0.500000  0.821393  0.207278  1
  Dy  Dy3  1  0.500000  0.178607  0.207278  1
  Dy  Dy4  1  0.000000  0.682744  0.794540  1
  Dy  Dy5  1  0.000000  0.317256  0.794540  1
  Mg  Mg6  1  0.500000  0.500000  0.153259  1
  Co  Co7  1  0.000000  0.000000  0.838913  1
  Co  Co8  1  0.500000  0.500000  0.704347  1
  Co  Co9  1  0.000000  0.000000  0.295598  1
  Co  Co10  1  0.000000  0.500000  0.985924  1
  Co  Co11  1  0.500000  0.000000  0.012271  1
  Co  Co12  1  0.500000  0.329217  0.992962  1
  Co  Co13  1  0.500000  0.670783  0.992962  1
  Co  Co14  1  0.000000  0.163024  0.001635  1
  Co  Co15  1  0.000000  0.836976  0.001635  1
  Co  Co16  1  0.500000  0.296014  0.432929  1
  Co  Co17  1  0.500000  0.703986  0.432929  1
  Co  Co18  1  0.000000  0.202504  0.570670  1
  Co  Co19  1  0.000000  0.797496  0.570670  1
  Co  Co20  1  0.500000  0.880071  0.708987  1
  Co  Co21  1  0.500000  0.119929  0.708987  1
  Co  Co22  1  0.000000  0.622631  0.293381  1
  Co  Co23  1  0.000000  0.377369  0.293381  1
  P  P24  1  0.500000  0.500000  0.883323  1
  P  P25  1  0.000000  0.000000  0.115905  1
  P  P26  1  0.500000  0.500000  0.353873  1
  P  P27  1  0.000000  0.000000  0.655902  1
  P  P28  1  0.500000  0.309430  0.617185  1
  P  P29  1  0.500000  0.690570  0.617185  1
  P  P30  1  0.000000  0.189850  0.385747  1
  P  P31  1  0.000000  0.810150  0.385747  1
  P  P32  1  0.500000  0.849558  0.890263  1
  P  P33  1  0.500000  0.150442  0.890263  1
  P  P34  1  0.000000  0.662929  0.102966  1
  P  P35  1  0.000000  0.337071  0.102966  1
