# generated using pymatgen
data_Tb15Ni32
_symmetry_space_group_name_H-M   'P 1'
_cell_length_a   10.09239795
_cell_length_b   10.09239752
_cell_length_c   10.09239800
_cell_angle_alpha   59.99999844
_cell_angle_beta   59.99999985
_cell_angle_gamma   60.00000038
_symmetry_Int_Tables_number   1
_chemical_formula_structural   Tb15Ni32
_chemical_formula_sum   'Tb15 Ni32'
_cell_volume   726.88897506
_cell_formula_units_Z   1
loop_
 _symmetry_equiv_pos_site_id
 _symmetry_equiv_pos_as_xyz
  1  'x, y, z'
loop_
 _atom_site_type_symbol
 _atom_site_label
 _atom_site_symmetry_multiplicity
 _atom_site_fract_x
 _atom_site_fract_y
 _atom_site_fract_z
 _atom_site_occupancy
  Tb  Tb0  1  0.987880  0.987880  0.512120  1
  Tb  Tb1  1  0.512120  0.987880  0.987880  1
  Tb  Tb2  1  0.987880  0.512120  0.987880  1
  Tb  Tb3  1  0.512120  0.512120  0.987880  1
  Tb  Tb4  1  0.987880  0.512120  0.512120  1
  Tb  Tb5  1  0.512120  0.987880  0.512120  1
  Tb  Tb6  1  0.373152  0.373152  0.373152  1
  Tb  Tb7  1  0.373152  0.880545  0.373152  1
  Tb  Tb8  1  0.880545  0.373152  0.373152  1
  Tb  Tb9  1  0.373152  0.373152  0.880545  1
  Tb  Tb10  1  0.500000  0.500000  0.500000  1
  Tb  Tb11  1  0.899432  0.899432  0.899432  1
  Tb  Tb12  1  0.899432  0.301704  0.899432  1
  Tb  Tb13  1  0.301704  0.899432  0.899432  1
  Tb  Tb14  1  0.899432  0.899432  0.301704  1
  Ni  Ni15  1  0.192101  0.675518  0.192101  1
  Ni  Ni16  1  0.192101  0.192101  0.675518  1
  Ni  Ni17  1  0.675518  0.192101  0.192101  1
  Ni  Ni18  1  0.192101  0.940280  0.192101  1
  Ni  Ni19  1  0.675518  0.940280  0.192101  1
  Ni  Ni20  1  0.192101  0.940280  0.675518  1
  Ni  Ni21  1  0.940280  0.192101  0.675518  1
  Ni  Ni22  1  0.940280  0.675518  0.192101  1
  Ni  Ni23  1  0.940280  0.192101  0.192101  1
  Ni  Ni24  1  0.675518  0.192101  0.940280  1
  Ni  Ni25  1  0.192101  0.192101  0.940280  1
  Ni  Ni26  1  0.192101  0.675518  0.940280  1
  Ni  Ni27  1  0.687612  0.187412  0.687612  1
  Ni  Ni28  1  0.687612  0.687612  0.187412  1
  Ni  Ni29  1  0.187412  0.687612  0.687612  1
  Ni  Ni30  1  0.687612  0.437363  0.687612  1
  Ni  Ni31  1  0.187412  0.437363  0.687612  1
  Ni  Ni32  1  0.687612  0.437363  0.187412  1
  Ni  Ni33  1  0.437363  0.687612  0.187412  1
  Ni  Ni34  1  0.437363  0.187412  0.687612  1
  Ni  Ni35  1  0.437363  0.687612  0.687612  1
  Ni  Ni36  1  0.187412  0.687612  0.437363  1
  Ni  Ni37  1  0.687612  0.687612  0.437363  1
  Ni  Ni38  1  0.687612  0.187412  0.437363  1
  Ni  Ni39  1  0.688405  0.688405  0.688405  1
  Ni  Ni40  1  0.688405  0.934783  0.688405  1
  Ni  Ni41  1  0.934783  0.688405  0.688405  1
  Ni  Ni42  1  0.688405  0.688405  0.934783  1
  Ni  Ni43  1  0.188284  0.188284  0.188284  1
  Ni  Ni44  1  0.188284  0.435147  0.188284  1
  Ni  Ni45  1  0.435147  0.188284  0.188284  1
  Ni  Ni46  1  0.188284  0.188284  0.435147  1
