# generated using pymatgen
data_Ce3Y2Ru3
_symmetry_space_group_name_H-M   'P 1'
_cell_length_a   6.88809700
_cell_length_b   7.96543879
_cell_length_c   7.96543600
_cell_angle_alpha   120.00000501
_cell_angle_beta   90.00000000
_cell_angle_gamma   90.00000000
_symmetry_Int_Tables_number   1
_chemical_formula_structural   Ce3Y2Ru3
_chemical_formula_sum   'Ce6 Y4 Ru6'
_cell_volume   378.48539148
_cell_formula_units_Z   2
loop_
 _symmetry_equiv_pos_site_id
 _symmetry_equiv_pos_as_xyz
  1  'x, y, z'
loop_
 _atom_site_type_symbol
 _atom_site_label
 _atom_site_symmetry_multiplicity
 _atom_site_fract_x
 _atom_site_fract_y
 _atom_site_fract_z
 _atom_site_occupancy
  Ce  Ce0  1  0.750000  0.757873  0.757873  1
  Ce  Ce1  1  0.250000  0.242127  0.242127  1
  Ce  Ce2  1  0.750000  0.000000  0.242127  1
  Ce  Ce3  1  0.250000  0.000000  0.757873  1
  Ce  Ce4  1  0.750000  0.242127  0.000000  1
  Ce  Ce5  1  0.250000  0.757873  0.000000  1
  Y  Y6  1  0.000000  0.666667  0.333333  1
  Y  Y7  1  0.000000  0.333333  0.666667  1
  Y  Y8  1  0.500000  0.333333  0.666667  1
  Y  Y9  1  0.500000  0.666667  0.333333  1
  Ru  Ru10  1  0.750000  0.359876  0.359876  1
  Ru  Ru11  1  0.250000  0.640124  0.640124  1
  Ru  Ru12  1  0.750000  0.000000  0.640124  1
  Ru  Ru13  1  0.250000  0.000000  0.359876  1
  Ru  Ru14  1  0.750000  0.640124  0.000000  1
  Ru  Ru15  1  0.250000  0.359876  0.000000  1
