# generated using pymatgen
data_Dy2Mn9Nb3P7
_symmetry_space_group_name_H-M   'P 1'
_cell_length_a   3.61112400
_cell_length_b   9.61002098
_cell_length_c   9.61002100
_cell_angle_alpha   120.00000353
_cell_angle_beta   90.00000000
_cell_angle_gamma   90.00000000
_symmetry_Int_Tables_number   1
_chemical_formula_structural   Dy2Mn9Nb3P7
_chemical_formula_sum   'Dy2 Mn9 Nb3 P7'
_cell_volume   288.81629349
_cell_formula_units_Z   1
loop_
 _symmetry_equiv_pos_site_id
 _symmetry_equiv_pos_as_xyz
  1  'x, y, z'
loop_
 _atom_site_type_symbol
 _atom_site_label
 _atom_site_symmetry_multiplicity
 _atom_site_fract_x
 _atom_site_fract_y
 _atom_site_fract_z
 _atom_site_occupancy
  Dy  Dy0  1  0.000000  0.666667  0.333333  1
  Dy  Dy1  1  0.500000  0.333333  0.666667  1
  Mn  Mn2  1  0.000000  0.572041  0.951671  1
  Mn  Mn3  1  0.000000  0.379630  0.427959  1
  Mn  Mn4  1  0.000000  0.048329  0.620370  1
  Mn  Mn5  1  0.000000  0.878292  0.165028  1
  Mn  Mn6  1  0.000000  0.286737  0.121708  1
  Mn  Mn7  1  0.000000  0.834972  0.713263  1
  Mn  Mn8  1  0.500000  0.950917  0.387078  1
  Mn  Mn9  1  0.500000  0.436160  0.049083  1
  Mn  Mn10  1  0.500000  0.612922  0.563840  1
  Nb  Nb11  1  0.500000  0.776792  0.902841  1
  Nb  Nb12  1  0.500000  0.126049  0.223208  1
  Nb  Nb13  1  0.500000  0.097159  0.873951  1
  P  P14  1  0.000000  0.000000  0.000000  1
  P  P15  1  0.500000  0.708848  0.131523  1
  P  P16  1  0.500000  0.422676  0.291152  1
  P  P17  1  0.500000  0.868477  0.577324  1
  P  P18  1  0.000000  0.581350  0.701070  1
  P  P19  1  0.000000  0.119721  0.418650  1
  P  P20  1  0.000000  0.298930  0.880279  1
