# generated using pymatgen
data_LiEu3Pt2Pb3
_symmetry_space_group_name_H-M   'P 1'
_cell_length_a   8.07910300
_cell_length_b   8.07910237
_cell_length_c   4.05131900
_cell_angle_alpha   90.00000000
_cell_angle_beta   90.00000000
_cell_angle_gamma   119.99999848
_symmetry_Int_Tables_number   1
_chemical_formula_structural   LiEu3Pt2Pb3
_chemical_formula_sum   'Li1 Eu3 Pt2 Pb3'
_cell_volume   229.00941388
_cell_formula_units_Z   1
loop_
 _symmetry_equiv_pos_site_id
 _symmetry_equiv_pos_as_xyz
  1  'x, y, z'
loop_
 _atom_site_type_symbol
 _atom_site_label
 _atom_site_symmetry_multiplicity
 _atom_site_fract_x
 _atom_site_fract_y
 _atom_site_fract_z
 _atom_site_occupancy
  Li  Li0  1  0.000000  0.000000  0.000000  1
  Eu  Eu1  1  0.413094  0.000000  0.000000  1
  Eu  Eu2  1  0.000000  0.413094  0.000000  1
  Eu  Eu3  1  0.586906  0.586906  0.000000  1
  Pt  Pt4  1  0.666667  0.333334  0.500000  1
  Pt  Pt5  1  0.333333  0.666667  0.500000  1
  Pb  Pb6  1  0.743916  0.000000  0.500000  1
  Pb  Pb7  1  0.256084  0.256084  0.500000  1
  Pb  Pb8  1  0.000000  0.743915  0.500000  1
