# generated using pymatgen
data_Eu4Zr3VO14
_symmetry_space_group_name_H-M   'P 1'
_cell_length_a   7.53876839
_cell_length_b   7.52027930
_cell_length_c   7.52027900
_cell_angle_alpha   59.99999694
_cell_angle_beta   60.08109300
_cell_angle_gamma   60.08109425
_symmetry_Int_Tables_number   1
_chemical_formula_structural   Eu4Zr3VO14
_chemical_formula_sum   'Eu4 Zr3 V1 O14'
_cell_volume   301.84539749
_cell_formula_units_Z   1
loop_
 _symmetry_equiv_pos_site_id
 _symmetry_equiv_pos_as_xyz
  1  'x, y, z'
loop_
 _atom_site_type_symbol
 _atom_site_label
 _atom_site_symmetry_multiplicity
 _atom_site_fract_x
 _atom_site_fract_y
 _atom_site_fract_z
 _atom_site_occupancy
  Eu  Eu0  1  0.625000  0.125000  0.625000  1
  Eu  Eu1  1  0.625000  0.625000  0.125000  1
  Eu  Eu2  1  0.125000  0.625000  0.625000  1
  Eu  Eu3  1  0.625000  0.625000  0.625000  1
  Zr  Zr4  1  0.125000  0.125000  0.125000  1
  Zr  Zr5  1  0.125000  0.125000  0.625000  1
  Zr  Zr6  1  0.125000  0.625000  0.125000  1
  V  V7  1  0.625000  0.125000  0.125000  1
  O  O8  1  0.224178  0.785807  0.785807  1
  O  O9  1  0.792055  0.821766  0.193089  1
  O  O10  1  0.792055  0.193089  0.821766  1
  O  O11  1  0.224178  0.785807  0.204207  1
  O  O12  1  0.224178  0.204207  0.785807  1
  O  O13  1  0.792055  0.193089  0.193089  1
  O  O14  1  0.457945  0.056911  0.056911  1
  O  O15  1  0.025822  0.045793  0.464193  1
  O  O16  1  0.025822  0.464193  0.045793  1
  O  O17  1  0.457945  0.056911  0.428234  1
  O  O18  1  0.744184  0.751939  0.751939  1
  O  O19  1  0.457945  0.428234  0.056911  1
  O  O20  1  0.025822  0.464193  0.464193  1
  O  O21  1  0.505816  0.498061  0.498061  1
