# generated using pymatgen
data_LaY5Al19Si5Os8
_symmetry_space_group_name_H-M   'P 1'
_cell_length_a   8.72738155
_cell_length_b   8.70836134
_cell_length_c   9.62003200
_cell_angle_alpha   90.00000000
_cell_angle_beta   90.00000000
_cell_angle_gamma   120.04660679
_symmetry_Int_Tables_number   1
_chemical_formula_structural   LaY5Al19Si5Os8
_chemical_formula_sum   'La1 Y5 Al19 Si5 Os8'
_cell_volume   632.88295362
_cell_formula_units_Z   1
loop_
 _symmetry_equiv_pos_site_id
 _symmetry_equiv_pos_as_xyz
  1  'x, y, z'
loop_
 _atom_site_type_symbol
 _atom_site_label
 _atom_site_symmetry_multiplicity
 _atom_site_fract_x
 _atom_site_fract_y
 _atom_site_fract_z
 _atom_site_occupancy
  La  La0  1  0.194407  0.809390  0.250000  1
  Y  Y1  1  0.194625  0.388124  0.250000  1
  Y  Y2  1  0.805613  0.611478  0.750000  1
  Y  Y3  1  0.609504  0.806525  0.250000  1
  Y  Y4  1  0.389797  0.195306  0.750000  1
  Y  Y5  1  0.805716  0.194869  0.750000  1
  Al  Al6  1  0.164735  0.329412  0.577390  1
  Al  Al7  1  0.832332  0.667860  0.424177  1
  Al  Al8  1  0.669888  0.835315  0.576036  1
  Al  Al9  1  0.832332  0.667860  0.075823  1
  Al  Al10  1  0.330249  0.167647  0.424730  1
  Al  Al11  1  0.164735  0.329412  0.922610  1
  Al  Al12  1  0.165445  0.835434  0.578066  1
  Al  Al13  1  0.330249  0.167647  0.075270  1
  Al  Al14  1  0.836393  0.165465  0.423825  1
  Al  Al15  1  0.669888  0.835315  0.923964  1
  Al  Al16  1  0.836393  0.165465  0.076175  1
  Al  Al17  1  0.165445  0.835434  0.921934  1
  Al  Al18  1  0.437390  0.874128  0.750000  1
  Al  Al19  1  0.869982  0.430228  0.250000  1
  Al  Al20  1  0.127893  0.564302  0.750000  1
  Al  Al21  1  0.560229  0.433679  0.250000  1
  Al  Al22  1  0.436764  0.564621  0.750000  1
  Al  Al23  1  0.996424  0.002351  0.250000  1
  Al  Al24  1  0.000422  0.000799  0.750000  1
  Si  Si25  1  0.334347  0.663322  0.034758  1
  Si  Si26  1  0.667750  0.334371  0.960718  1
  Si  Si27  1  0.667750  0.334371  0.539282  1
  Si  Si28  1  0.334347  0.663322  0.465242  1
  Si  Si29  1  0.567445  0.130324  0.250000  1
  Os  Os30  1  0.502740  0.002757  0.004747  1
  Os  Os31  1  0.998272  0.497510  0.999429  1
  Os  Os32  1  0.502740  0.002757  0.495253  1
  Os  Os33  1  0.500510  0.498500  0.999257  1
  Os  Os34  1  0.998272  0.497510  0.500571  1
  Os  Os35  1  0.500510  0.498500  0.500743  1
  Os  Os36  1  0.999235  0.999344  0.999455  1
  Os  Os37  1  0.999235  0.999344  0.500545  1
