# generated using pymatgen
data_Cs2SiS4
_symmetry_space_group_name_H-M   'P 1'
_cell_length_a   8.32569520
_cell_length_b   8.32569410
_cell_length_c   10.01343065
_cell_angle_alpha   61.11083971
_cell_angle_beta   61.11084276
_cell_angle_gamma   53.73003152
_symmetry_Int_Tables_number   1
_chemical_formula_structural   Cs2SiS4
_chemical_formula_sum   'Cs4 Si2 S8'
_cell_volume   470.44282476
_cell_formula_units_Z   2
loop_
 _symmetry_equiv_pos_site_id
 _symmetry_equiv_pos_as_xyz
  1  'x, y, z'
loop_
 _atom_site_type_symbol
 _atom_site_label
 _atom_site_symmetry_multiplicity
 _atom_site_fract_x
 _atom_site_fract_y
 _atom_site_fract_z
 _atom_site_occupancy
  Cs  Cs0  1  0.411223  0.411223  0.853423  1
  Cs  Cs1  1  0.837796  0.837796  0.289827  1
  Cs  Cs2  1  0.588777  0.588777  0.146577  1
  Cs  Cs3  1  0.162204  0.162204  0.710173  1
  Si  Si4  1  0.152704  0.152704  0.301637  1
  Si  Si5  1  0.847296  0.847296  0.698363  1
  S  S6  1  0.695519  0.695519  0.733166  1
  S  S7  1  0.849756  0.313016  0.462218  1
  S  S8  1  0.304481  0.304481  0.266834  1
  S  S9  1  0.686984  0.150244  0.537782  1
  S  S10  1  0.124461  0.124461  0.120539  1
  S  S11  1  0.875539  0.875539  0.879461  1
  S  S12  1  0.150244  0.686984  0.537782  1
  S  S13  1  0.313016  0.849756  0.462218  1
