# generated using pymatgen
data_K4PtSeBr12
_symmetry_space_group_name_H-M   'P 1'
_cell_length_a   7.33020700
_cell_length_b   7.33020700
_cell_length_c   10.64750800
_cell_angle_alpha   90.00000000
_cell_angle_beta   90.00000000
_cell_angle_gamma   90.00000000
_symmetry_Int_Tables_number   1
_chemical_formula_structural   K4PtSeBr12
_chemical_formula_sum   'K4 Pt1 Se1 Br12'
_cell_volume   572.11120418
_cell_formula_units_Z   1
loop_
 _symmetry_equiv_pos_site_id
 _symmetry_equiv_pos_as_xyz
  1  'x, y, z'
loop_
 _atom_site_type_symbol
 _atom_site_label
 _atom_site_symmetry_multiplicity
 _atom_site_fract_x
 _atom_site_fract_y
 _atom_site_fract_z
 _atom_site_occupancy
  K  K0  1  0.500000  0.000000  0.761635  1
  K  K1  1  0.500000  0.000000  0.238365  1
  K  K2  1  0.000000  0.500000  0.238365  1
  K  K3  1  0.000000  0.500000  0.761635  1
  Pt  Pt4  1  0.000000  0.000000  0.000000  1
  Se  Se5  1  0.500000  0.500000  0.500000  1
  Br  Br6  1  0.772191  0.253290  0.000000  1
  Br  Br7  1  0.227809  0.746710  0.000000  1
  Br  Br8  1  0.500000  0.500000  0.255707  1
  Br  Br9  1  0.307783  0.201427  0.500000  1
  Br  Br10  1  0.253290  0.227809  0.000000  1
  Br  Br11  1  0.798573  0.307783  0.500000  1
  Br  Br12  1  0.000000  0.000000  0.235040  1
  Br  Br13  1  0.692217  0.798573  0.500000  1
  Br  Br14  1  0.201427  0.692217  0.500000  1
  Br  Br15  1  0.500000  0.500000  0.744293  1
  Br  Br16  1  0.746710  0.772191  0.000000  1
  Br  Br17  1  0.000000  0.000000  0.764960  1
