# generated using pymatgen
data_Sr4TeIr2WO16
_symmetry_space_group_name_H-M   'P 1'
_cell_length_a   5.17587208
_cell_length_b   5.59421491
_cell_length_c   13.04689600
_cell_angle_alpha   90.00000000
_cell_angle_beta   90.00000000
_cell_angle_gamma   90.15358427
_symmetry_Int_Tables_number   1
_chemical_formula_structural   Sr4TeIr2WO16
_chemical_formula_sum   'Sr4 Te1 Ir2 W1 O16'
_cell_volume   377.77074375
_cell_formula_units_Z   1
loop_
 _symmetry_equiv_pos_site_id
 _symmetry_equiv_pos_as_xyz
  1  'x, y, z'
loop_
 _atom_site_type_symbol
 _atom_site_label
 _atom_site_symmetry_multiplicity
 _atom_site_fract_x
 _atom_site_fract_y
 _atom_site_fract_z
 _atom_site_occupancy
  Sr  Sr0  1  0.750000  0.000000  0.662623  1
  Sr  Sr1  1  0.250000  0.500000  0.835547  1
  Sr  Sr2  1  0.250000  0.000000  0.342616  1
  Sr  Sr3  1  0.750000  0.500000  0.165023  1
  Te  Te4  1  0.750000  0.000000  0.928491  1
  Ir  Ir5  1  0.750000  0.500000  0.430856  1
  Ir  Ir6  1  0.250000  0.500000  0.566661  1
  W  W7  1  0.250000  0.000000  0.075325  1
  O  O8  1  0.129459  0.286793  0.666505  1
  O  O9  1  0.619923  0.210685  0.829226  1
  O  O10  1  0.880077  0.789315  0.829226  1
  O  O11  1  0.370541  0.713207  0.666505  1
  O  O12  1  0.870352  0.714215  0.329939  1
  O  O13  1  0.359399  0.782064  0.171153  1
  O  O14  1  0.140601  0.217936  0.171153  1
  O  O15  1  0.629648  0.285785  0.329939  1
  O  O16  1  0.565078  0.314682  0.542249  1
  O  O17  1  0.058988  0.191902  0.958284  1
  O  O18  1  0.441012  0.808098  0.958284  1
  O  O19  1  0.934922  0.685318  0.542249  1
  O  O20  1  0.435051  0.684525  0.454791  1
  O  O21  1  0.934849  0.812206  0.044283  1
  O  O22  1  0.565151  0.187794  0.044283  1
  O  O23  1  0.064949  0.315475  0.454791  1
