# generated using pymatgen
data_Rb(RhO2)4
_symmetry_space_group_name_H-M   'P 1'
_cell_length_a   7.35760740
_cell_length_b   7.35760645
_cell_length_c   7.35760688
_cell_angle_alpha   92.64322983
_cell_angle_beta   92.64323269
_cell_angle_gamma   155.19851726
_symmetry_Int_Tables_number   1
_chemical_formula_structural   Rb(RhO2)4
_chemical_formula_sum   'Rb1 Rh4 O8'
_cell_volume   163.17891055
_cell_formula_units_Z   1
loop_
 _symmetry_equiv_pos_site_id
 _symmetry_equiv_pos_as_xyz
  1  'x, y, z'
loop_
 _atom_site_type_symbol
 _atom_site_label
 _atom_site_symmetry_multiplicity
 _atom_site_fract_x
 _atom_site_fract_y
 _atom_site_fract_z
 _atom_site_occupancy
  Rb  Rb0  1  0.500000  0.500000  0.000000  1
  Rh  Rh1  1  0.350548  0.835018  0.185567  1
  Rh  Rh2  1  0.835018  0.649452  0.484470  1
  Rh  Rh3  1  0.164982  0.350548  0.515530  1
  Rh  Rh4  1  0.649452  0.164982  0.814433  1
  O  O5  1  0.160869  0.544444  0.705314  1
  O  O6  1  0.544444  0.839131  0.383576  1
  O  O7  1  0.455556  0.160869  0.616424  1
  O  O8  1  0.839131  0.455556  0.294686  1
  O  O9  1  0.847427  0.203472  0.050899  1
  O  O10  1  0.203472  0.152573  0.356045  1
  O  O11  1  0.152573  0.796528  0.949101  1
  O  O12  1  0.796528  0.847427  0.643955  1
