# generated using pymatgen
data_Ho3Lu2Ga2Sb
_symmetry_space_group_name_H-M   'P 1'
_cell_length_a   8.56441100
_cell_length_b   8.58647675
_cell_length_c   6.41941800
_cell_angle_alpha   90.00000000
_cell_angle_beta   90.00000000
_cell_angle_gamma   120.08527506
_symmetry_Int_Tables_number   1
_chemical_formula_structural   Ho3Lu2Ga2Sb
_chemical_formula_sum   'Ho6 Lu4 Ga4 Sb2'
_cell_volume   408.47450985
_cell_formula_units_Z   2
loop_
 _symmetry_equiv_pos_site_id
 _symmetry_equiv_pos_as_xyz
  1  'x, y, z'
loop_
 _atom_site_type_symbol
 _atom_site_label
 _atom_site_symmetry_multiplicity
 _atom_site_fract_x
 _atom_site_fract_y
 _atom_site_fract_z
 _atom_site_occupancy
  Ho  Ho0  1  0.986249  0.750440  0.750000  1
  Ho  Ho1  1  0.986249  0.235809  0.250000  1
  Ho  Ho2  1  0.765367  0.765459  0.250000  1
  Ho  Ho3  1  0.765367  0.999909  0.750000  1
  Ho  Ho4  1  0.236712  0.249983  0.750000  1
  Ho  Ho5  1  0.236712  0.986728  0.250000  1
  Lu  Lu6  1  0.331243  0.665622  0.500000  1
  Lu  Lu7  1  0.685451  0.342725  0.000000  1
  Lu  Lu8  1  0.685451  0.342725  0.500000  1
  Lu  Lu9  1  0.331243  0.665622  0.000000  1
  Ga  Ga10  1  0.002290  0.600228  0.250000  1
  Ga  Ga11  1  0.002290  0.402062  0.750000  1
  Ga  Ga12  1  0.596689  0.600788  0.750000  1
  Ga  Ga13  1  0.596689  0.995900  0.250000  1
  Sb  Sb14  1  0.395998  0.004726  0.750000  1
  Sb  Sb15  1  0.395998  0.391272  0.250000  1
