# generated using pymatgen
data_TiTcP
_symmetry_space_group_name_H-M   'P 1'
_cell_length_a   6.55579700
_cell_length_b   6.55579697
_cell_length_c   3.39293600
_cell_angle_alpha   90.00000000
_cell_angle_beta   90.00000000
_cell_angle_gamma   119.99999510
_symmetry_Int_Tables_number   1
_chemical_formula_structural   TiTcP
_chemical_formula_sum   'Ti3 Tc3 P3'
_cell_volume   126.28661235
_cell_formula_units_Z   3
loop_
 _symmetry_equiv_pos_site_id
 _symmetry_equiv_pos_as_xyz
  1  'x, y, z'
loop_
 _atom_site_type_symbol
 _atom_site_label
 _atom_site_symmetry_multiplicity
 _atom_site_fract_x
 _atom_site_fract_y
 _atom_site_fract_z
 _atom_site_occupancy
  Ti  Ti0  1  0.405276  0.405276  0.500000  1
  Ti  Ti1  1  0.594724  0.000000  0.500000  1
  Ti  Ti2  1  0.000000  0.594724  0.500000  1
  Tc  Tc3  1  0.000000  0.252055  0.000000  1
  Tc  Tc4  1  0.252055  0.000000  0.000000  1
  Tc  Tc5  1  0.747945  0.747945  0.000000  1
  P  P6  1  0.666667  0.333333  0.000000  1
  P  P7  1  0.333333  0.666667  0.000000  1
  P  P8  1  0.000000  0.000000  0.500000  1
