# generated using pymatgen
data_Hf4ScReTc23
_symmetry_space_group_name_H-M   'P 1'
_cell_length_a   8.41006009
_cell_length_b   8.41288690
_cell_length_c   8.41003202
_cell_angle_alpha   109.41947349
_cell_angle_beta   109.45609606
_cell_angle_gamma   109.41770116
_symmetry_Int_Tables_number   1
_chemical_formula_structural   Hf4ScReTc23
_chemical_formula_sum   'Hf4 Sc1 Re1 Tc23'
_cell_volume   458.73666951
_cell_formula_units_Z   1
loop_
 _symmetry_equiv_pos_site_id
 _symmetry_equiv_pos_as_xyz
  1  'x, y, z'
loop_
 _atom_site_type_symbol
 _atom_site_label
 _atom_site_symmetry_multiplicity
 _atom_site_fract_x
 _atom_site_fract_y
 _atom_site_fract_z
 _atom_site_occupancy
  Hf  Hf0  1  0.624759  0.000430  0.000895  1
  Hf  Hf1  1  0.999949  0.624705  0.999981  1
  Hf  Hf2  1  0.000911  0.000385  0.624742  1
  Hf  Hf3  1  0.374878  0.374531  0.374861  1
  Sc  Sc4  1  0.999889  0.000149  0.999891  1
  Re  Re5  1  0.624965  0.818591  0.624952  1
  Tc  Tc6  1  0.393479  0.673171  0.999456  1
  Tc  Tc7  1  0.718536  0.326050  0.326142  1
  Tc  Tc8  1  0.394782  0.999641  0.673561  1
  Tc  Tc9  1  0.673118  0.393751  0.999142  1
  Tc  Tc10  1  0.999138  0.393738  0.673069  1
  Tc  Tc11  1  0.323585  0.717070  0.323587  1
  Tc  Tc12  1  0.326150  0.326038  0.718531  1
  Tc  Tc13  1  0.999415  0.673155  0.393458  1
  Tc  Tc14  1  0.673531  0.999641  0.394775  1
  Tc  Tc15  1  0.607148  0.606754  0.281153  1
  Tc  Tc16  1  0.281125  0.606772  0.607140  1
  Tc  Tc17  1  0.606988  0.281830  0.607007  1
  Tc  Tc18  1  0.373723  0.193756  0.999494  1
  Tc  Tc19  1  0.181049  0.807232  0.806959  1
  Tc  Tc20  1  0.373764  0.999483  0.194015  1
  Tc  Tc21  1  0.194183  0.373457  0.999264  1
  Tc  Tc22  1  0.999261  0.373461  0.194174  1
  Tc  Tc23  1  0.807426  0.181563  0.807433  1
  Tc  Tc24  1  0.806940  0.807199  0.181027  1
  Tc  Tc25  1  0.999489  0.193722  0.373708  1
  Tc  Tc26  1  0.194031  0.999495  0.373775  1
  Tc  Tc27  1  0.626650  0.627113  0.821164  1
  Tc  Tc28  1  0.821137  0.627117  0.626643  1
