# generated using pymatgen
data_Y3Zr(Al3Ir)6
_symmetry_space_group_name_H-M   'P 1'
_cell_length_a   7.54713333
_cell_length_b   7.53731631
_cell_length_c   9.43448100
_cell_angle_alpha   90.00000000
_cell_angle_beta   90.00000000
_cell_angle_gamma   119.63158287
_symmetry_Int_Tables_number   1
_chemical_formula_structural   Y3Zr(Al3Ir)6
_chemical_formula_sum   'Y3 Zr1 Al18 Ir6'
_cell_volume   466.49581222
_cell_formula_units_Z   1
loop_
 _symmetry_equiv_pos_site_id
 _symmetry_equiv_pos_as_xyz
  1  'x, y, z'
loop_
 _atom_site_type_symbol
 _atom_site_label
 _atom_site_symmetry_multiplicity
 _atom_site_fract_x
 _atom_site_fract_y
 _atom_site_fract_z
 _atom_site_occupancy
  Y  Y0  1  0.005617  0.327915  0.750000  1
  Y  Y1  1  0.670710  0.995313  0.250000  1
  Y  Y2  1  0.329495  0.006400  0.750000  1
  Zr  Zr3  1  0.996454  0.671858  0.250000  1
  Al  Al4  1  0.125940  0.122966  0.250000  1
  Al  Al5  1  0.871032  0.869802  0.750000  1
  Al  Al6  1  0.000388  0.337791  0.078133  1
  Al  Al7  1  0.999327  0.665158  0.930195  1
  Al  Al8  1  0.999327  0.665158  0.569805  1
  Al  Al9  1  0.332136  0.998076  0.421754  1
  Al  Al10  1  0.000388  0.337791  0.421867  1
  Al  Al11  1  0.664797  0.998340  0.574009  1
  Al  Al12  1  0.664797  0.998340  0.925991  1
  Al  Al13  1  0.332136  0.998076  0.078246  1
  Al  Al14  1  0.333823  0.333894  0.550356  1
  Al  Al15  1  0.668858  0.666782  0.444332  1
  Al  Al16  1  0.668858  0.666782  0.055668  1
  Al  Al17  1  0.333823  0.333894  0.949644  1
  Al  Al18  1  0.335466  0.549069  0.250000  1
  Al  Al19  1  0.660965  0.452631  0.750000  1
  Al  Al20  1  0.554770  0.344419  0.250000  1
  Al  Al21  1  0.451389  0.659866  0.750000  1
  Ir  Ir22  1  0.672176  0.328259  0.000702  1
  Ir  Ir23  1  0.328018  0.672052  0.001406  1
  Ir  Ir24  1  0.328018  0.672052  0.498594  1
  Ir  Ir25  1  0.672176  0.328259  0.499298  1
  Ir  Ir26  1  0.999558  0.999527  0.000721  1
  Ir  Ir27  1  0.999558  0.999527  0.499279  1
