# generated using pymatgen
data_Ba5AlPt2O11
_symmetry_space_group_name_H-M   'P 1'
_cell_length_a   5.83672500
_cell_length_b   11.25660700
_cell_length_c   18.97110600
_cell_angle_alpha   90.00000000
_cell_angle_beta   90.00000000
_cell_angle_gamma   90.00000000
_symmetry_Int_Tables_number   1
_chemical_formula_structural   Ba5AlPt2O11
_chemical_formula_sum   'Ba20 Al4 Pt8 O44'
_cell_volume   1246.43428487
_cell_formula_units_Z   4
loop_
 _symmetry_equiv_pos_site_id
 _symmetry_equiv_pos_as_xyz
  1  'x, y, z'
loop_
 _atom_site_type_symbol
 _atom_site_label
 _atom_site_symmetry_multiplicity
 _atom_site_fract_x
 _atom_site_fract_y
 _atom_site_fract_z
 _atom_site_occupancy
  Ba  Ba0  1  0.750000  0.603380  0.027190  1
  Ba  Ba1  1  0.250000  0.876121  0.251552  1
  Ba  Ba2  1  0.750000  0.048021  0.324956  1
  Ba  Ba3  1  0.750000  0.896620  0.527190  1
  Ba  Ba4  1  0.250000  0.474482  0.426790  1
  Ba  Ba5  1  0.750000  0.451979  0.824956  1
  Ba  Ba6  1  0.250000  0.396620  0.972810  1
  Ba  Ba7  1  0.750000  0.123879  0.748448  1
  Ba  Ba8  1  0.250000  0.623879  0.751552  1
  Ba  Ba9  1  0.750000  0.974482  0.073210  1
  Ba  Ba10  1  0.250000  0.103380  0.472810  1
  Ba  Ba11  1  0.750000  0.692971  0.360828  1
  Ba  Ba12  1  0.750000  0.807029  0.860828  1
  Ba  Ba13  1  0.250000  0.192971  0.139172  1
  Ba  Ba14  1  0.750000  0.376121  0.248448  1
  Ba  Ba15  1  0.750000  0.525518  0.573210  1
  Ba  Ba16  1  0.250000  0.548021  0.175044  1
  Ba  Ba17  1  0.250000  0.307029  0.639172  1
  Ba  Ba18  1  0.250000  0.951979  0.675044  1
  Ba  Ba19  1  0.250000  0.025518  0.926790  1
  Al  Al20  1  0.750000  0.740517  0.189816  1
  Al  Al21  1  0.250000  0.240517  0.310184  1
  Al  Al22  1  0.750000  0.759483  0.689816  1
  Al  Al23  1  0.250000  0.259483  0.810184  1
  Pt  Pt24  1  0.750000  0.291116  0.067691  1
  Pt  Pt25  1  0.250000  0.796327  0.068265  1
  Pt  Pt26  1  0.250000  0.791116  0.432309  1
  Pt  Pt27  1  0.750000  0.203673  0.931735  1
  Pt  Pt28  1  0.750000  0.296327  0.431735  1
  Pt  Pt29  1  0.250000  0.708884  0.932309  1
  Pt  Pt30  1  0.750000  0.208884  0.567691  1
  Pt  Pt31  1  0.250000  0.703673  0.568265  1
  O  O32  1  0.250000  0.876466  0.528666  1
  O  O33  1  0.502136  0.249902  0.361832  1
  O  O34  1  0.750000  0.600609  0.230015  1
  O  O35  1  0.522751  0.321385  0.512063  1
  O  O36  1  0.250000  0.360451  0.252188  1
  O  O37  1  0.497864  0.749902  0.138168  1
  O  O38  1  0.002136  0.750098  0.638168  1
  O  O39  1  0.510531  0.100148  0.603091  1
  O  O40  1  0.477249  0.821385  0.987937  1
  O  O41  1  0.022751  0.678615  0.487937  1
  O  O42  1  0.750000  0.899391  0.730015  1
  O  O43  1  0.250000  0.399391  0.769985  1
  O  O44  1  0.750000  0.123534  0.471334  1
  O  O45  1  0.250000  0.533987  0.600451  1
  O  O46  1  0.477249  0.678615  0.487937  1
  O  O47  1  0.250000  0.623534  0.028666  1
  O  O48  1  0.002136  0.749902  0.138168  1
  O  O49  1  0.489469  0.600148  0.896909  1
  O  O50  1  0.989469  0.399852  0.103091  1
  O  O51  1  0.010531  0.899852  0.396909  1
  O  O52  1  0.250000  0.139549  0.752188  1
  O  O53  1  0.750000  0.466013  0.399549  1
  O  O54  1  0.750000  0.314331  0.653805  1
  O  O55  1  0.010531  0.600148  0.896909  1
  O  O56  1  0.522751  0.178615  0.012063  1
  O  O57  1  0.250000  0.966013  0.100451  1
  O  O58  1  0.750000  0.376466  0.971334  1
  O  O59  1  0.750000  0.033987  0.899549  1
  O  O60  1  0.750000  0.185669  0.153805  1
  O  O61  1  0.977249  0.178615  0.012063  1
  O  O62  1  0.250000  0.685669  0.346195  1
  O  O63  1  0.250000  0.814331  0.846195  1
  O  O64  1  0.989469  0.100148  0.603091  1
  O  O65  1  0.997864  0.249902  0.361832  1
  O  O66  1  0.750000  0.639549  0.747812  1
  O  O67  1  0.502136  0.250098  0.861832  1
  O  O68  1  0.250000  0.100609  0.269985  1
  O  O69  1  0.977249  0.321385  0.512063  1
  O  O70  1  0.750000  0.860451  0.247812  1
  O  O71  1  0.489469  0.899852  0.396909  1
  O  O72  1  0.022751  0.821385  0.987937  1
  O  O73  1  0.510531  0.399852  0.103091  1
  O  O74  1  0.497864  0.750098  0.638168  1
  O  O75  1  0.997864  0.250098  0.861832  1
