# generated using pymatgen
data_Cs4Th6PCl18
_symmetry_space_group_name_H-M   'P 1'
_cell_length_a   10.93651078
_cell_length_b   11.09824113
_cell_length_c   11.26841900
_cell_angle_alpha   117.78532646
_cell_angle_beta   100.43667702
_cell_angle_gamma   105.18094505
_symmetry_Int_Tables_number   1
_chemical_formula_structural   Cs4Th6PCl18
_chemical_formula_sum   'Cs4 Th6 P1 Cl18'
_cell_volume   1091.67248621
_cell_formula_units_Z   1
loop_
 _symmetry_equiv_pos_site_id
 _symmetry_equiv_pos_as_xyz
  1  'x, y, z'
loop_
 _atom_site_type_symbol
 _atom_site_label
 _atom_site_symmetry_multiplicity
 _atom_site_fract_x
 _atom_site_fract_y
 _atom_site_fract_z
 _atom_site_occupancy
  Cs  Cs0  1  0.663240  0.539832  0.230865  1
  Cs  Cs1  1  0.336760  0.460168  0.769135  1
  Cs  Cs2  1  0.698782  0.231899  0.568643  1
  Cs  Cs3  1  0.301218  0.768101  0.431357  1
  Th  Th4  1  0.165706  0.062535  0.249113  1
  Th  Th5  1  0.834294  0.937465  0.750887  1
  Th  Th6  1  0.850401  0.133152  0.140586  1
  Th  Th7  1  0.149599  0.866848  0.859414  1
  Th  Th8  1  0.160701  0.261057  0.048465  1
  Th  Th9  1  0.839299  0.738943  0.951535  1
  P  P10  1  0.000000  0.000000  0.000000  1
  Cl  Cl11  1  0.013227  0.412885  0.196469  1
  Cl  Cl12  1  0.986773  0.587115  0.803531  1
  Cl  Cl13  1  0.337401  0.342009  0.313516  1
  Cl  Cl14  1  0.662599  0.657991  0.686484  1
  Cl  Cl15  1  0.337751  0.530135  0.106234  1
  Cl  Cl16  1  0.662249  0.469865  0.893766  1
  Cl  Cl17  1  0.003333  0.791870  0.210640  1
  Cl  Cl18  1  0.996667  0.208130  0.789360  1
  Cl  Cl19  1  0.706030  0.275922  0.289283  1
  Cl  Cl20  1  0.293970  0.724078  0.710717  1
  Cl  Cl21  1  0.322010  0.135686  0.904553  1
  Cl  Cl22  1  0.677990  0.864314  0.095447  1
  Cl  Cl23  1  0.018704  0.204363  0.408314  1
  Cl  Cl24  1  0.981296  0.795637  0.591686  1
  Cl  Cl25  1  0.322437  0.921480  0.112422  1
  Cl  Cl26  1  0.677563  0.078520  0.887578  1
  Cl  Cl27  1  0.343828  0.124752  0.502266  1
  Cl  Cl28  1  0.656172  0.875248  0.497734  1
