# generated using pymatgen
data_LuHf(Co5As3)2
_symmetry_space_group_name_H-M   'P 1'
_cell_length_a   3.73938900
_cell_length_b   12.12231956
_cell_length_c   10.62970722
_cell_angle_alpha   90.07424867
_cell_angle_beta   90.00000000
_cell_angle_gamma   90.00000000
_symmetry_Int_Tables_number   1
_chemical_formula_structural   LuHf(Co5As3)2
_chemical_formula_sum   'Lu2 Hf2 Co20 As12'
_cell_volume   481.84495086
_cell_formula_units_Z   2
loop_
 _symmetry_equiv_pos_site_id
 _symmetry_equiv_pos_as_xyz
  1  'x, y, z'
loop_
 _atom_site_type_symbol
 _atom_site_label
 _atom_site_symmetry_multiplicity
 _atom_site_fract_x
 _atom_site_fract_y
 _atom_site_fract_z
 _atom_site_occupancy
  Lu  Lu0  1  0.750000  0.701932  0.081208  1
  Lu  Lu1  1  0.250000  0.298068  0.918792  1
  Hf  Hf2  1  0.250000  0.799616  0.577889  1
  Hf  Hf3  1  0.750000  0.200384  0.422111  1
  Co  Co4  1  0.750000  0.699294  0.389889  1
  Co  Co5  1  0.250000  0.300706  0.610111  1
  Co  Co6  1  0.250000  0.802467  0.883581  1
  Co  Co7  1  0.750000  0.197533  0.116419  1
  Co  Co8  1  0.750000  0.993192  0.217584  1
  Co  Co9  1  0.250000  0.006808  0.782416  1
  Co  Co10  1  0.250000  0.504807  0.716134  1
  Co  Co11  1  0.750000  0.495193  0.283866  1
  Co  Co12  1  0.750000  0.679624  0.781869  1
  Co  Co13  1  0.250000  0.320376  0.218131  1
  Co  Co14  1  0.250000  0.821541  0.285673  1
  Co  Co15  1  0.750000  0.178459  0.714327  1
  Co  Co16  1  0.750000  0.931100  0.968158  1
  Co  Co17  1  0.250000  0.068900  0.031842  1
  Co  Co18  1  0.250000  0.570433  0.471428  1
  Co  Co19  1  0.750000  0.429567  0.528572  1
  Co  Co20  1  0.750000  0.984609  0.590159  1
  Co  Co21  1  0.250000  0.015391  0.409841  1
  Co  Co22  1  0.250000  0.513137  0.092400  1
  Co  Co23  1  0.750000  0.486862  0.907600  1
  As  As24  1  0.750000  0.615046  0.586686  1
  As  As25  1  0.250000  0.384954  0.413314  1
  As  As26  1  0.250000  0.885520  0.085619  1
  As  As27  1  0.750000  0.114480  0.914381  1
  As  As28  1  0.750000  0.889117  0.401322  1
  As  As29  1  0.250000  0.110883  0.598678  1
  As  As30  1  0.250000  0.610478  0.900441  1
  As  As31  1  0.750000  0.389522  0.099559  1
  As  As32  1  0.750000  0.869962  0.765133  1
  As  As33  1  0.250000  0.130038  0.234867  1
  As  As34  1  0.250000  0.629537  0.268615  1
  As  As35  1  0.750000  0.370463  0.731385  1
