# generated using pymatgen
data_Y2Er3IrRu
_symmetry_space_group_name_H-M   'P 1'
_cell_length_a   6.37197318
_cell_length_b   7.26715831
_cell_length_c   8.46344300
_cell_angle_alpha   96.97212888
_cell_angle_beta   112.11339420
_cell_angle_gamma   89.99999910
_symmetry_Int_Tables_number   1
_chemical_formula_structural   Y2Er3IrRu
_chemical_formula_sum   'Y4 Er6 Ir2 Ru2'
_cell_volume   359.95068593
_cell_formula_units_Z   2
loop_
 _symmetry_equiv_pos_site_id
 _symmetry_equiv_pos_as_xyz
  1  'x, y, z'
loop_
 _atom_site_type_symbol
 _atom_site_label
 _atom_site_symmetry_multiplicity
 _atom_site_fract_x
 _atom_site_fract_y
 _atom_site_fract_z
 _atom_site_occupancy
  Y  Y0  1  0.789325  0.581942  0.811736  1
  Y  Y1  1  0.977589  0.918058  0.188264  1
  Y  Y2  1  0.212803  0.415685  0.187721  1
  Y  Y3  1  0.025083  0.084315  0.812279  1
  Er  Er4  1  0.205919  0.683584  0.564721  1
  Er  Er5  1  0.641197  0.816416  0.435279  1
  Er  Er6  1  0.793479  0.314327  0.436558  1
  Er  Er7  1  0.356922  0.185673  0.563442  1
  Er  Er8  1  0.423062  0.750000  0.000000  1
  Er  Er9  1  0.576397  0.250000  0.000000  1
  Ir  Ir10  1  0.597533  0.924541  0.777211  1
  Ir  Ir11  1  0.820322  0.575459  0.222789  1
  Ru  Ru12  1  0.400946  0.074292  0.221524  1
  Ru  Ru13  1  0.179422  0.425708  0.778476  1
