# generated using pymatgen
data_Tb14HoLu5Sn16
_symmetry_space_group_name_H-M   'P 1'
_cell_length_a   8.00345660
_cell_length_b   8.16357745
_cell_length_c   15.45611010
_cell_angle_alpha   90.04078017
_cell_angle_beta   89.95182923
_cell_angle_gamma   90.03320290
_symmetry_Int_Tables_number   1
_chemical_formula_structural   Tb14HoLu5Sn16
_chemical_formula_sum   'Tb14 Ho1 Lu5 Sn16'
_cell_volume   1009.85257754
_cell_formula_units_Z   1
loop_
 _symmetry_equiv_pos_site_id
 _symmetry_equiv_pos_as_xyz
  1  'x, y, z'
loop_
 _atom_site_type_symbol
 _atom_site_label
 _atom_site_symmetry_multiplicity
 _atom_site_fract_x
 _atom_site_fract_y
 _atom_site_fract_z
 _atom_site_occupancy
  Tb  Tb0  1  0.635762  0.162188  0.377738  1
  Tb  Tb1  1  0.136667  0.337547  0.121131  1
  Tb  Tb2  1  0.635828  0.163059  0.122985  1
  Tb  Tb3  1  0.135474  0.337185  0.377360  1
  Tb  Tb4  1  0.364970  0.837614  0.623031  1
  Tb  Tb5  1  0.864944  0.662297  0.877918  1
  Tb  Tb6  1  0.517893  0.320435  0.903628  1
  Tb  Tb7  1  0.018681  0.179209  0.597058  1
  Tb  Tb8  1  0.481725  0.679569  0.403880  1
  Tb  Tb9  1  0.981564  0.820376  0.096101  1
  Tb  Tb10  1  0.482504  0.680246  0.094907  1
  Tb  Tb11  1  0.982046  0.820270  0.404007  1
  Tb  Tb12  1  0.518308  0.321380  0.597346  1
  Tb  Tb13  1  0.017529  0.178193  0.903123  1
  Ho  Ho14  1  0.863694  0.662332  0.623805  1
  Lu  Lu15  1  0.363094  0.838385  0.875325  1
  Lu  Lu16  1  0.195993  0.503780  0.750674  1
  Lu  Lu17  1  0.695072  0.996542  0.750296  1
  Lu  Lu18  1  0.804809  0.496789  0.250268  1
  Lu  Lu19  1  0.304876  0.002560  0.249350  1
  Sn  Sn20  1  0.296588  0.035520  0.040008  1
  Sn  Sn21  1  0.795527  0.463703  0.458447  1
  Sn  Sn22  1  0.706182  0.962293  0.543152  1
  Sn  Sn23  1  0.207404  0.540870  0.956717  1
  Sn  Sn24  1  0.698828  0.961811  0.957165  1
  Sn  Sn25  1  0.202845  0.537100  0.543141  1
  Sn  Sn26  1  0.294974  0.036644  0.457442  1
  Sn  Sn27  1  0.795314  0.463190  0.042797  1
  Sn  Sn28  1  0.560375  0.618573  0.750541  1
  Sn  Sn29  1  0.060976  0.882132  0.750766  1
  Sn  Sn30  1  0.439261  0.382866  0.250139  1
  Sn  Sn31  1  0.940216  0.116522  0.249412  1
  Sn  Sn32  1  0.327463  0.149602  0.750653  1
  Sn  Sn33  1  0.827765  0.349890  0.750270  1
  Sn  Sn34  1  0.672383  0.849330  0.249780  1
  Sn  Sn35  1  0.172465  0.649997  0.249637  1
