# generated using pymatgen
data_Er2Pd5Pt3Se
_symmetry_space_group_name_H-M   'P 1'
_cell_length_a   4.12935700
_cell_length_b   4.12935700
_cell_length_c   11.27506000
_cell_angle_alpha   90.00000000
_cell_angle_beta   90.00000000
_cell_angle_gamma   90.00000000
_symmetry_Int_Tables_number   1
_chemical_formula_structural   Er2Pd5Pt3Se
_chemical_formula_sum   'Er2 Pd5 Pt3 Se1'
_cell_volume   192.25769170
_cell_formula_units_Z   1
loop_
 _symmetry_equiv_pos_site_id
 _symmetry_equiv_pos_as_xyz
  1  'x, y, z'
loop_
 _atom_site_type_symbol
 _atom_site_label
 _atom_site_symmetry_multiplicity
 _atom_site_fract_x
 _atom_site_fract_y
 _atom_site_fract_z
 _atom_site_occupancy
  Er  Er0  1  0.500000  0.500000  0.821769  1
  Er  Er1  1  0.500000  0.500000  0.177742  1
  Pd  Pd2  1  0.500000  0.000000  0.638501  1
  Pd  Pd3  1  0.000000  0.500000  0.638501  1
  Pd  Pd4  1  0.500000  0.000000  0.361866  1
  Pd  Pd5  1  0.000000  0.500000  0.361866  1
  Pd  Pd6  1  0.000000  0.000000  0.181026  1
  Pt  Pt7  1  0.500000  0.000000  0.999859  1
  Pt  Pt8  1  0.000000  0.500000  0.999859  1
  Pt  Pt9  1  0.000000  0.000000  0.818688  1
  Se  Se10  1  0.000000  0.000000  0.500321  1
