# generated using pymatgen
data_Nd10SnBi3Pt2
_symmetry_space_group_name_H-M   'P 1'
_cell_length_a   8.29798937
_cell_length_b   9.29087707
_cell_length_c   12.75813600
_cell_angle_alpha   90.03557060
_cell_angle_beta   89.98280020
_cell_angle_gamma   90.04818023
_symmetry_Int_Tables_number   1
_chemical_formula_structural   Nd10SnBi3Pt2
_chemical_formula_sum   'Nd20 Sn2 Bi6 Pt4'
_cell_volume   983.59555854
_cell_formula_units_Z   2
loop_
 _symmetry_equiv_pos_site_id
 _symmetry_equiv_pos_as_xyz
  1  'x, y, z'
loop_
 _atom_site_type_symbol
 _atom_site_label
 _atom_site_symmetry_multiplicity
 _atom_site_fract_x
 _atom_site_fract_y
 _atom_site_fract_z
 _atom_site_occupancy
  Nd  Nd0  1  0.835547  0.746908  0.789688  1
  Nd  Nd1  1  0.164453  0.253092  0.210312  1
  Nd  Nd2  1  0.340344  0.252982  0.713175  1
  Nd  Nd3  1  0.659656  0.747018  0.286825  1
  Nd  Nd4  1  0.373036  0.746460  0.701978  1
  Nd  Nd5  1  0.626964  0.253540  0.298022  1
  Nd  Nd6  1  0.864598  0.253252  0.799767  1
  Nd  Nd7  1  0.135402  0.746748  0.200233  1
  Nd  Nd8  1  0.951554  0.750637  0.500047  1
  Nd  Nd9  1  0.048446  0.249363  0.499953  1
  Nd  Nd10  1  0.453459  0.257259  0.998856  1
  Nd  Nd11  1  0.546541  0.742741  0.001144  1
  Nd  Nd12  1  0.683857  0.044871  0.566704  1
  Nd  Nd13  1  0.316143  0.955129  0.433296  1
  Nd  Nd14  1  0.183559  0.957062  0.933368  1
  Nd  Nd15  1  0.318784  0.544156  0.428742  1
  Nd  Nd16  1  0.816441  0.042938  0.066632  1
  Nd  Nd17  1  0.681216  0.455844  0.571258  1
  Nd  Nd18  1  0.812394  0.457709  0.064967  1
  Nd  Nd19  1  0.187606  0.542291  0.935033  1
  Sn  Sn20  1  0.569143  0.491845  0.826793  1
  Sn  Sn21  1  0.430857  0.508155  0.173207  1
  Bi  Bi22  1  0.069960  0.509473  0.672917  1
  Bi  Bi23  1  0.430042  0.991491  0.172154  1
  Bi  Bi24  1  0.930040  0.490527  0.327083  1
  Bi  Bi25  1  0.569958  0.008509  0.827846  1
  Bi  Bi26  1  0.929640  0.009270  0.325756  1
  Bi  Bi27  1  0.070360  0.990730  0.674244  1
  Pt  Pt28  1  0.576536  0.750419  0.510982  1
  Pt  Pt29  1  0.423464  0.249581  0.489018  1
  Pt  Pt30  1  0.074001  0.249859  0.988080  1
  Pt  Pt31  1  0.925999  0.750141  0.011920  1
