# generated using pymatgen
data_UInBr6
_symmetry_space_group_name_H-M   'P 1'
_cell_length_a   8.00989540
_cell_length_b   8.00989564
_cell_length_c   7.39296894
_cell_angle_alpha   79.54236370
_cell_angle_beta   79.54235939
_cell_angle_gamma   119.53954307
_symmetry_Int_Tables_number   1
_chemical_formula_structural   UInBr6
_chemical_formula_sum   'U1 In1 Br6'
_cell_volume   384.91712991
_cell_formula_units_Z   1
loop_
 _symmetry_equiv_pos_site_id
 _symmetry_equiv_pos_as_xyz
  1  'x, y, z'
loop_
 _atom_site_type_symbol
 _atom_site_label
 _atom_site_symmetry_multiplicity
 _atom_site_fract_x
 _atom_site_fract_y
 _atom_site_fract_z
 _atom_site_occupancy
  U  U0  1  0.166900  0.833100  0.000000  1
  In  In1  1  0.832973  0.167027  0.000000  1
  Br  Br2  1  0.228855  0.177070  0.773753  1
  Br  Br3  1  0.082826  0.477254  0.225493  1
  Br  Br4  1  0.822930  0.771145  0.226247  1
  Br  Br5  1  0.969301  0.626530  0.776484  1
  Br  Br6  1  0.373470  0.030699  0.223516  1
  Br  Br7  1  0.522746  0.917174  0.774507  1
