# generated using pymatgen
data_LaPr15Cd4Ir3Pd
_symmetry_space_group_name_H-M   'P 1'
_cell_length_a   10.04591722
_cell_length_b   10.04591616
_cell_length_c   10.04591647
_cell_angle_alpha   60.17072985
_cell_angle_beta   60.17074132
_cell_angle_gamma   60.17073222
_symmetry_Int_Tables_number   1
_chemical_formula_structural   LaPr15Cd4Ir3Pd
_chemical_formula_sum   'La1 Pr15 Cd4 Ir3 Pd1'
_cell_volume   719.66402946
_cell_formula_units_Z   1
loop_
 _symmetry_equiv_pos_site_id
 _symmetry_equiv_pos_as_xyz
  1  'x, y, z'
loop_
 _atom_site_type_symbol
 _atom_site_label
 _atom_site_symmetry_multiplicity
 _atom_site_fract_x
 _atom_site_fract_y
 _atom_site_fract_z
 _atom_site_occupancy
  La  La0  1  0.345789  0.345789  0.345789  1
  Pr  Pr1  1  0.352155  0.352155  0.950084  1
  Pr  Pr2  1  0.352155  0.950084  0.352155  1
  Pr  Pr3  1  0.950084  0.352155  0.352155  1
  Pr  Pr4  1  0.804971  0.190608  0.190608  1
  Pr  Pr5  1  0.189177  0.809636  0.809636  1
  Pr  Pr6  1  0.190608  0.804971  0.190608  1
  Pr  Pr7  1  0.809636  0.189177  0.809636  1
  Pr  Pr8  1  0.190608  0.190608  0.804971  1
  Pr  Pr9  1  0.809636  0.809636  0.189177  1
  Pr  Pr10  1  0.939456  0.562515  0.562515  1
  Pr  Pr11  1  0.563001  0.938322  0.938322  1
  Pr  Pr12  1  0.562515  0.939456  0.562515  1
  Pr  Pr13  1  0.938322  0.563001  0.938322  1
  Pr  Pr14  1  0.562515  0.562515  0.939456  1
  Pr  Pr15  1  0.938322  0.938322  0.563001  1
  Cd  Cd16  1  0.580079  0.580079  0.580079  1
  Cd  Cd17  1  0.580121  0.580121  0.260150  1
  Cd  Cd18  1  0.580121  0.260150  0.580121  1
  Cd  Cd19  1  0.260150  0.580121  0.580121  1
  Ir  Ir20  1  0.142365  0.142365  0.573145  1
  Ir  Ir21  1  0.142365  0.573145  0.142365  1
  Ir  Ir22  1  0.573145  0.142365  0.142365  1
  Pd  Pd23  1  0.142701  0.142701  0.142701  1
