# generated using pymatgen
data_Li3Mn(VRh3)2
_symmetry_space_group_name_H-M   'P 1'
_cell_length_a   4.19842803
_cell_length_b   5.91816900
_cell_length_c   12.57366509
_cell_angle_alpha   90.00000000
_cell_angle_beta   90.01392731
_cell_angle_gamma   90.00000000
_symmetry_Int_Tables_number   1
_chemical_formula_structural   Li3Mn(VRh3)2
_chemical_formula_sum   'Li6 Mn2 V4 Rh12'
_cell_volume   312.41793059
_cell_formula_units_Z   2
loop_
 _symmetry_equiv_pos_site_id
 _symmetry_equiv_pos_as_xyz
  1  'x, y, z'
loop_
 _atom_site_type_symbol
 _atom_site_label
 _atom_site_symmetry_multiplicity
 _atom_site_fract_x
 _atom_site_fract_y
 _atom_site_fract_z
 _atom_site_occupancy
  Li  Li0  1  0.000050  0.000000  0.001564  1
  Li  Li1  1  0.499469  0.500000  0.165032  1
  Li  Li2  1  0.999480  0.000000  0.332378  1
  Li  Li3  1  0.500017  0.500000  0.500460  1
  Li  Li4  1  0.000528  0.000000  0.666244  1
  Li  Li5  1  0.500566  0.500000  0.834296  1
  Mn  Mn6  1  0.000019  0.500000  0.999720  1
  Mn  Mn7  1  0.499349  0.000000  0.166981  1
  V  V8  1  0.999546  0.500000  0.329677  1
  V  V9  1  0.500013  0.000000  0.499396  1
  V  V10  1  0.000446  0.500000  0.667226  1
  V  V11  1  0.500483  0.000000  0.837002  1
  Rh  Rh12  1  0.500056  0.247292  0.996800  1
  Rh  Rh13  1  0.500056  0.752706  0.996800  1
  Rh  Rh14  1  0.999533  0.252641  0.169867  1
  Rh  Rh15  1  0.999533  0.747359  0.169867  1
  Rh  Rh16  1  0.499553  0.251872  0.336221  1
  Rh  Rh17  1  0.499553  0.748128  0.336221  1
  Rh  Rh18  1  0.999997  0.250039  0.500362  1
  Rh  Rh19  1  0.999997  0.749959  0.500362  1
  Rh  Rh20  1  0.500380  0.250013  0.666342  1
  Rh  Rh21  1  0.500380  0.749987  0.666342  1
  Rh  Rh22  1  0.000499  0.248103  0.830419  1
  Rh  Rh23  1  0.000499  0.751897  0.830419  1
