# generated using pymatgen
data_LiMn2Pd3
_symmetry_space_group_name_H-M   'P 1'
_cell_length_a   4.37825300
_cell_length_b   4.37825297
_cell_length_c   10.66907100
_cell_angle_alpha   90.00000000
_cell_angle_beta   90.00000000
_cell_angle_gamma   120.00000777
_symmetry_Int_Tables_number   1
_chemical_formula_structural   LiMn2Pd3
_chemical_formula_sum   'Li2 Mn4 Pd6'
_cell_volume   177.11645366
_cell_formula_units_Z   2
loop_
 _symmetry_equiv_pos_site_id
 _symmetry_equiv_pos_as_xyz
  1  'x, y, z'
loop_
 _atom_site_type_symbol
 _atom_site_label
 _atom_site_symmetry_multiplicity
 _atom_site_fract_x
 _atom_site_fract_y
 _atom_site_fract_z
 _atom_site_occupancy
  Li  Li0  1  0.333333  0.666667  0.665842  1
  Li  Li1  1  0.666667  0.333333  0.334158  1
  Mn  Mn2  1  0.000000  0.000000  0.500000  1
  Mn  Mn3  1  0.333333  0.666667  0.170248  1
  Mn  Mn4  1  0.666667  0.333333  0.829752  1
  Mn  Mn5  1  0.000000  0.000000  0.000000  1
  Pd  Pd6  1  0.333333  0.666667  0.418119  1
  Pd  Pd7  1  0.666667  0.333333  0.083766  1
  Pd  Pd8  1  0.000000  0.000000  0.748749  1
  Pd  Pd9  1  0.000000  0.000000  0.251251  1
  Pd  Pd10  1  0.333333  0.666667  0.916234  1
  Pd  Pd11  1  0.666667  0.333333  0.581881  1
