# generated using pymatgen
data_Tm5P12IrRu18
_symmetry_space_group_name_H-M   'P 1'
_cell_length_a   12.50263800
_cell_length_b   12.50263826
_cell_length_c   3.96477900
_cell_angle_alpha   90.00000000
_cell_angle_beta   90.00000000
_cell_angle_gamma   119.99999402
_symmetry_Int_Tables_number   1
_chemical_formula_structural   Tm5P12IrRu18
_chemical_formula_sum   'Tm5 P12 Ir1 Ru18'
_cell_volume   536.72640928
_cell_formula_units_Z   1
loop_
 _symmetry_equiv_pos_site_id
 _symmetry_equiv_pos_as_xyz
  1  'x, y, z'
loop_
 _atom_site_type_symbol
 _atom_site_label
 _atom_site_symmetry_multiplicity
 _atom_site_fract_x
 _atom_site_fract_y
 _atom_site_fract_z
 _atom_site_occupancy
  Tm  Tm0  1  0.333333  0.666667  0.500000  1
  Tm  Tm1  1  0.666667  0.333333  0.500000  1
  Tm  Tm2  1  0.186196  0.186196  0.000000  1
  Tm  Tm3  1  0.813804  0.000000  0.000000  1
  Tm  Tm4  1  0.000000  0.813804  0.000000  1
  P  P5  1  0.307009  0.829081  0.000000  1
  P  P6  1  0.170919  0.477928  0.000000  1
  P  P7  1  0.522072  0.692991  0.000000  1
  P  P8  1  0.829081  0.307009  0.000000  1
  P  P9  1  0.477928  0.170919  0.000000  1
  P  P10  1  0.692991  0.522072  0.000000  1
  P  P11  1  0.372495  0.372495  0.500000  1
  P  P12  1  0.627505  0.000000  0.500000  1
  P  P13  1  0.000000  0.627505  0.500000  1
  P  P14  1  0.815192  0.815192  0.500000  1
  P  P15  1  0.184808  0.000000  0.500000  1
  P  P16  1  0.000000  0.184808  0.500000  1
  Ir  Ir17  1  0.000000  0.000000  0.500000  1
  Ru  Ru18  1  0.191696  0.815005  0.500000  1
  Ru  Ru19  1  0.184995  0.376691  0.500000  1
  Ru  Ru20  1  0.623309  0.808304  0.500000  1
  Ru  Ru21  1  0.815005  0.191696  0.500000  1
  Ru  Ru22  1  0.376691  0.184995  0.500000  1
  Ru  Ru23  1  0.808304  0.623309  0.500000  1
  Ru  Ru24  1  0.126816  0.634841  0.000000  1
  Ru  Ru25  1  0.365159  0.491974  0.000000  1
  Ru  Ru26  1  0.508026  0.873184  0.000000  1
  Ru  Ru27  1  0.634841  0.126816  0.000000  1
  Ru  Ru28  1  0.491974  0.365159  0.000000  1
  Ru  Ru29  1  0.873184  0.508026  0.000000  1
  Ru  Ru30  1  0.554774  0.554774  0.500000  1
  Ru  Ru31  1  0.445226  0.000000  0.500000  1
  Ru  Ru32  1  0.000000  0.445226  0.500000  1
  Ru  Ru33  1  0.718777  0.718777  0.000000  1
  Ru  Ru34  1  0.281223  0.000000  0.000000  1
  Ru  Ru35  1  0.000000  0.281223  0.000000  1
