# generated using pymatgen
data_Li8Ho2Tm6Sn5Sb3
_symmetry_space_group_name_H-M   'P 1'
_cell_length_a   9.35094300
_cell_length_b   9.35094309
_cell_length_c   7.10813400
_cell_angle_alpha   90.00000000
_cell_angle_beta   90.00000000
_cell_angle_gamma   120.00000323
_symmetry_Int_Tables_number   1
_chemical_formula_structural   Li8Ho2Tm6Sn5Sb3
_chemical_formula_sum   'Li8 Ho2 Tm6 Sn5 Sb3'
_cell_volume   538.26612307
_cell_formula_units_Z   1
loop_
 _symmetry_equiv_pos_site_id
 _symmetry_equiv_pos_as_xyz
  1  'x, y, z'
loop_
 _atom_site_type_symbol
 _atom_site_label
 _atom_site_symmetry_multiplicity
 _atom_site_fract_x
 _atom_site_fract_y
 _atom_site_fract_z
 _atom_site_occupancy
  Li  Li0  1  0.166572  0.333146  0.283955  1
  Li  Li1  1  0.166572  0.833428  0.283955  1
  Li  Li2  1  0.666854  0.833428  0.283955  1
  Li  Li3  1  0.833075  0.666148  0.785867  1
  Li  Li4  1  0.833075  0.166925  0.785867  1
  Li  Li5  1  0.333852  0.166925  0.785867  1
  Li  Li6  1  0.333333  0.666667  0.676130  1
  Li  Li7  1  0.666667  0.333333  0.179698  1
  Ho  Ho8  1  0.000000  0.000000  0.497750  1
  Ho  Ho9  1  0.000000  0.000000  0.004081  1
  Tm  Tm10  1  0.512535  0.025070  0.490520  1
  Tm  Tm11  1  0.512535  0.487465  0.490520  1
  Tm  Tm12  1  0.974930  0.487465  0.490520  1
  Tm  Tm13  1  0.489528  0.979057  0.996320  1
  Tm  Tm14  1  0.489528  0.510472  0.996320  1
  Tm  Tm15  1  0.020943  0.510472  0.996320  1
  Sn  Sn16  1  0.832720  0.665439  0.232118  1
  Sn  Sn17  1  0.832720  0.167280  0.232118  1
  Sn  Sn18  1  0.334561  0.167280  0.232118  1
  Sn  Sn19  1  0.333333  0.666667  0.259016  1
  Sn  Sn20  1  0.666667  0.333333  0.759042  1
  Sb  Sb21  1  0.167224  0.334449  0.733305  1
  Sb  Sb22  1  0.167224  0.832776  0.733305  1
  Sb  Sb23  1  0.665551  0.832776  0.733305  1
