# generated using pymatgen
data_K(CrTe)3
_symmetry_space_group_name_H-M   'P 1'
_cell_length_a   9.75469300
_cell_length_b   9.75469193
_cell_length_c   4.28232700
_cell_angle_alpha   90.00000000
_cell_angle_beta   90.00000000
_cell_angle_gamma   119.99999436
_symmetry_Int_Tables_number   1
_chemical_formula_structural   K(CrTe)3
_chemical_formula_sum   'K2 Cr6 Te6'
_cell_volume   352.88861529
_cell_formula_units_Z   2
loop_
 _symmetry_equiv_pos_site_id
 _symmetry_equiv_pos_as_xyz
  1  'x, y, z'
loop_
 _atom_site_type_symbol
 _atom_site_label
 _atom_site_symmetry_multiplicity
 _atom_site_fract_x
 _atom_site_fract_y
 _atom_site_fract_z
 _atom_site_occupancy
  K  K0  1  0.333333  0.666667  0.250000  1
  K  K1  1  0.666667  0.333333  0.750000  1
  Cr  Cr2  1  0.847393  0.977229  0.250000  1
  Cr  Cr3  1  0.129835  0.152607  0.250000  1
  Cr  Cr4  1  0.022771  0.870165  0.250000  1
  Cr  Cr5  1  0.152607  0.022771  0.750000  1
  Cr  Cr6  1  0.977229  0.129835  0.750000  1
  Cr  Cr7  1  0.870165  0.847393  0.750000  1
  Te  Te8  1  0.341624  0.049059  0.250000  1
  Te  Te9  1  0.950941  0.292566  0.250000  1
  Te  Te10  1  0.707434  0.658376  0.250000  1
  Te  Te11  1  0.658376  0.950941  0.750000  1
  Te  Te12  1  0.292566  0.341624  0.750000  1
  Te  Te13  1  0.049059  0.707434  0.750000  1
