# generated using pymatgen
data_Dy3Ho5Re(TcB8)3
_symmetry_space_group_name_H-M   'P 1'
_cell_length_a   3.67881800
_cell_length_b   9.15724024
_cell_length_c   11.54247500
_cell_angle_alpha   90.02997160
_cell_angle_beta   90.00000000
_cell_angle_gamma   90.00000000
_symmetry_Int_Tables_number   1
_chemical_formula_structural   Dy3Ho5Re(TcB8)3
_chemical_formula_sum   'Dy3 Ho5 Re1 Tc3 B24'
_cell_volume   388.84076952
_cell_formula_units_Z   1
loop_
 _symmetry_equiv_pos_site_id
 _symmetry_equiv_pos_as_xyz
  1  'x, y, z'
loop_
 _atom_site_type_symbol
 _atom_site_label
 _atom_site_symmetry_multiplicity
 _atom_site_fract_x
 _atom_site_fract_y
 _atom_site_fract_z
 _atom_site_occupancy
  Dy  Dy0  1  0.000000  0.324048  0.414051  1
  Dy  Dy1  1  0.000000  0.676119  0.585965  1
  Dy  Dy2  1  0.000000  0.823934  0.086073  1
  Ho  Ho3  1  0.000000  0.176316  0.914175  1
  Ho  Ho4  1  0.000000  0.942780  0.369067  1
  Ho  Ho5  1  0.000000  0.057820  0.630099  1
  Ho  Ho6  1  0.000000  0.442743  0.130853  1
  Ho  Ho7  1  0.000000  0.556138  0.869573  1
  Re  Re8  1  0.000000  0.861337  0.820621  1
  Tc  Tc9  1  0.000000  0.638923  0.320519  1
  Tc  Tc10  1  0.000000  0.361029  0.679540  1
  Tc  Tc11  1  0.000000  0.138972  0.179451  1
  B  B12  1  0.500000  0.553618  0.432809  1
  B  B13  1  0.500000  0.446442  0.567252  1
  B  B14  1  0.500000  0.053676  0.067147  1
  B  B15  1  0.500000  0.946769  0.933040  1
  B  B16  1  0.500000  0.749175  0.418517  1
  B  B17  1  0.500000  0.251070  0.581494  1
  B  B18  1  0.500000  0.249064  0.081308  1
  B  B19  1  0.500000  0.750545  0.918642  1
  B  B20  1  0.500000  0.792058  0.265449  1
  B  B21  1  0.500000  0.207875  0.734575  1
  B  B22  1  0.500000  0.292044  0.234569  1
  B  B23  1  0.500000  0.707601  0.765515  1
  B  B24  1  0.500000  0.630886  0.185750  1
  B  B25  1  0.500000  0.368800  0.814353  1
  B  B26  1  0.500000  0.130949  0.314295  1
  B  B27  1  0.500000  0.869283  0.685556  1
  B  B28  1  0.500000  0.982617  0.211752  1
  B  B29  1  0.500000  0.017950  0.788101  1
  B  B30  1  0.500000  0.482567  0.288183  1
  B  B31  1  0.500000  0.517305  0.711914  1
  B  B32  1  0.500000  0.599948  0.028027  1
  B  B33  1  0.500000  0.399415  0.972101  1
  B  B34  1  0.500000  0.100101  0.471816  1
  B  B35  1  0.500000  0.900082  0.527847  1
