# generated using pymatgen
data_Ba5Al2Si7
_symmetry_space_group_name_H-M   'P 1'
_cell_length_a   6.71976890
_cell_length_b   6.71976849
_cell_length_c   18.33844166
_cell_angle_alpha   98.37566875
_cell_angle_beta   98.37566728
_cell_angle_gamma   100.99713584
_symmetry_Int_Tables_number   1
_chemical_formula_structural   Ba5Al2Si7
_chemical_formula_sum   'Ba10 Al4 Si14'
_cell_volume   791.27158280
_cell_formula_units_Z   2
loop_
 _symmetry_equiv_pos_site_id
 _symmetry_equiv_pos_as_xyz
  1  'x, y, z'
loop_
 _atom_site_type_symbol
 _atom_site_label
 _atom_site_symmetry_multiplicity
 _atom_site_fract_x
 _atom_site_fract_y
 _atom_site_fract_z
 _atom_site_occupancy
  Ba  Ba0  1  0.750136  0.249863  0.000000  1
  Ba  Ba1  1  0.249863  0.750136  0.000000  1
  Ba  Ba2  1  0.572485  0.120057  0.211827  1
  Ba  Ba3  1  0.120057  0.572485  0.211827  1
  Ba  Ba4  1  0.761656  0.761656  0.355939  1
  Ba  Ba5  1  0.708991  0.291010  0.500000  1
  Ba  Ba6  1  0.291010  0.708991  0.500000  1
  Ba  Ba7  1  0.238345  0.238345  0.644061  1
  Ba  Ba8  1  0.879943  0.427516  0.788173  1
  Ba  Ba9  1  0.427516  0.879943  0.788173  1
  Al  Al10  1  0.776148  0.776148  0.069703  1
  Al  Al11  1  0.074157  0.074157  0.263197  1
  Al  Al12  1  0.925842  0.925842  0.736803  1
  Al  Al13  1  0.223853  0.223853  0.930297  1
  Si  Si14  1  0.297298  0.297298  0.069666  1
  Si  Si15  1  0.066968  0.066968  0.129139  1
  Si  Si16  1  0.575792  0.575792  0.148968  1
  Si  Si17  1  0.351725  0.351725  0.358054  1
  Si  Si18  1  0.975136  0.329503  0.358688  1
  Si  Si19  1  0.329503  0.975136  0.358688  1
  Si  Si20  1  0.181182  0.181182  0.449157  1
  Si  Si21  1  0.818817  0.818817  0.550842  1
  Si  Si22  1  0.670498  0.024865  0.641312  1
  Si  Si23  1  0.024865  0.670498  0.641312  1
  Si  Si24  1  0.648275  0.648275  0.641946  1
  Si  Si25  1  0.424207  0.424207  0.851032  1
  Si  Si26  1  0.933031  0.933031  0.870862  1
  Si  Si27  1  0.702703  0.702703  0.930334  1
