# generated using pymatgen
data_Ta4CrP4Ru2Rh
_symmetry_space_group_name_H-M   'P 1'
_cell_length_a   3.68513700
_cell_length_b   6.32955413
_cell_length_c   7.25039104
_cell_angle_alpha   89.76201602
_cell_angle_beta   90.00000000
_cell_angle_gamma   90.00000000
_symmetry_Int_Tables_number   1
_chemical_formula_structural   Ta4CrP4Ru2Rh
_chemical_formula_sum   'Ta4 Cr1 P4 Ru2 Rh1'
_cell_volume   169.11589971
_cell_formula_units_Z   1
loop_
 _symmetry_equiv_pos_site_id
 _symmetry_equiv_pos_as_xyz
  1  'x, y, z'
loop_
 _atom_site_type_symbol
 _atom_site_label
 _atom_site_symmetry_multiplicity
 _atom_site_fract_x
 _atom_site_fract_y
 _atom_site_fract_z
 _atom_site_occupancy
  Ta  Ta0  1  0.250000  0.035343  0.833154  1
  Ta  Ta1  1  0.250000  0.519267  0.674818  1
  Ta  Ta2  1  0.750000  0.977766  0.166702  1
  Ta  Ta3  1  0.750000  0.471214  0.326209  1
  Cr  Cr4  1  0.750000  0.354137  0.937195  1
  P  P5  1  0.250000  0.766065  0.370393  1
  P  P6  1  0.250000  0.270128  0.124379  1
  P  P7  1  0.750000  0.236451  0.630681  1
  P  P8  1  0.750000  0.729236  0.874515  1
  Ru  Ru9  1  0.250000  0.145348  0.437117  1
  Ru  Ru10  1  0.250000  0.645129  0.059366  1
  Rh  Rh11  1  0.750000  0.849916  0.565471  1
