# generated using pymatgen
data_Y7Ho9Cd2(HgIr2)2
_symmetry_space_group_name_H-M   'P 1'
_cell_length_a   9.60944194
_cell_length_b   9.60944148
_cell_length_c   9.61511500
_cell_angle_alpha   59.98046398
_cell_angle_beta   59.98046557
_cell_angle_gamma   60.11739546
_symmetry_Int_Tables_number   1
_chemical_formula_structural   Y7Ho9Cd2(HgIr2)2
_chemical_formula_sum   'Y7 Ho9 Cd2 Hg2 Ir4'
_cell_volume   628.19012157
_cell_formula_units_Z   1
loop_
 _symmetry_equiv_pos_site_id
 _symmetry_equiv_pos_as_xyz
  1  'x, y, z'
loop_
 _atom_site_type_symbol
 _atom_site_label
 _atom_site_symmetry_multiplicity
 _atom_site_fract_x
 _atom_site_fract_y
 _atom_site_fract_z
 _atom_site_occupancy
  Y  Y0  1  0.809018  0.809018  0.190982  1
  Y  Y1  1  0.938734  0.560249  0.562190  1
  Y  Y2  1  0.560249  0.938734  0.938827  1
  Y  Y3  1  0.560249  0.938734  0.562190  1
  Y  Y4  1  0.938734  0.560249  0.938827  1
  Y  Y5  1  0.560703  0.560703  0.939297  1
  Y  Y6  1  0.938779  0.938779  0.561221  1
  Ho  Ho7  1  0.349325  0.349325  0.348303  1
  Ho  Ho8  1  0.349325  0.349325  0.953047  1
  Ho  Ho9  1  0.350678  0.950471  0.349425  1
  Ho  Ho10  1  0.950471  0.350678  0.349425  1
  Ho  Ho11  1  0.809428  0.188702  0.191206  1
  Ho  Ho12  1  0.188702  0.809428  0.810664  1
  Ho  Ho13  1  0.188702  0.809428  0.191206  1
  Ho  Ho14  1  0.809428  0.188702  0.810664  1
  Ho  Ho15  1  0.188975  0.188975  0.811025  1
  Cd  Cd16  1  0.580072  0.258585  0.580672  1
  Cd  Cd17  1  0.258585  0.580072  0.580672  1
  Hg  Hg18  1  0.583681  0.583681  0.585539  1
  Hg  Hg19  1  0.583681  0.583681  0.247101  1
  Ir  Ir20  1  0.141886  0.141886  0.141172  1
  Ir  Ir21  1  0.141886  0.141886  0.575055  1
  Ir  Ir22  1  0.144303  0.574406  0.140645  1
  Ir  Ir23  1  0.574406  0.144303  0.140645  1
