# generated using pymatgen
data_LiLa8Ho11Sn16
_symmetry_space_group_name_H-M   'P 1'
_cell_length_a   8.07649900
_cell_length_b   8.43053374
_cell_length_c   16.00810200
_cell_angle_alpha   90.00000000
_cell_angle_beta   90.00000000
_cell_angle_gamma   90.10342496
_symmetry_Int_Tables_number   1
_chemical_formula_structural   LiLa8Ho11Sn16
_chemical_formula_sum   'Li1 La8 Ho11 Sn16'
_cell_volume   1089.97703937
_cell_formula_units_Z   1
loop_
 _symmetry_equiv_pos_site_id
 _symmetry_equiv_pos_as_xyz
  1  'x, y, z'
loop_
 _atom_site_type_symbol
 _atom_site_label
 _atom_site_symmetry_multiplicity
 _atom_site_fract_x
 _atom_site_fract_y
 _atom_site_fract_z
 _atom_site_occupancy
  Li  Li0  1  0.659720  0.998964  0.250000  1
  La  La1  1  0.990158  0.823773  0.097694  1
  La  La2  1  0.495642  0.684667  0.400761  1
  La  La3  1  0.504794  0.324850  0.903285  1
  La  La4  1  0.005109  0.176854  0.597085  1
  La  La5  1  0.005109  0.176854  0.902915  1
  La  La6  1  0.504794  0.324850  0.596715  1
  La  La7  1  0.495642  0.684667  0.099239  1
  La  La8  1  0.990158  0.823773  0.402306  1
  Ho  Ho9  1  0.159934  0.500011  0.250000  1
  Ho  Ho10  1  0.838446  0.500067  0.750000  1
  Ho  Ho11  1  0.340059  0.998347  0.750000  1
  Ho  Ho12  1  0.673870  0.832257  0.874045  1
  Ho  Ho13  1  0.173172  0.664310  0.624697  1
  Ho  Ho14  1  0.826771  0.328670  0.125642  1
  Ho  Ho15  1  0.333359  0.163984  0.373863  1
  Ho  Ho16  1  0.333359  0.163984  0.126137  1
  Ho  Ho17  1  0.826771  0.328670  0.374358  1
  Ho  Ho18  1  0.173172  0.664310  0.875303  1
  Ho  Ho19  1  0.673870  0.832257  0.625955  1
  Sn  Sn20  1  0.794668  0.636152  0.250000  1
  Sn  Sn21  1  0.288896  0.861354  0.250000  1
  Sn  Sn22  1  0.702663  0.143033  0.750000  1
  Sn  Sn23  1  0.202471  0.356352  0.750000  1
  Sn  Sn24  1  0.021588  0.120970  0.250000  1
  Sn  Sn25  1  0.523975  0.383024  0.250000  1
  Sn  Sn26  1  0.477363  0.626791  0.750000  1
  Sn  Sn27  1  0.979025  0.871053  0.750000  1
  Sn  Sn28  1  0.830344  0.537897  0.958818  1
  Sn  Sn29  1  0.330940  0.960616  0.541691  1
  Sn  Sn30  1  0.669682  0.042247  0.037684  1
  Sn  Sn31  1  0.171758  0.461814  0.456411  1
  Sn  Sn32  1  0.171758  0.461814  0.043589  1
  Sn  Sn33  1  0.669682  0.042247  0.462316  1
  Sn  Sn34  1  0.330940  0.960616  0.958309  1
  Sn  Sn35  1  0.830344  0.537897  0.541182  1
