# generated using pymatgen
data_Pr3CdAg2Pd3
_symmetry_space_group_name_H-M   'P 1'
_cell_length_a   7.75100152
_cell_length_b   7.69325862
_cell_length_c   4.04601300
_cell_angle_alpha   90.00000000
_cell_angle_beta   90.00000000
_cell_angle_gamma   119.75387215
_symmetry_Int_Tables_number   1
_chemical_formula_structural   Pr3CdAg2Pd3
_chemical_formula_sum   'Pr3 Cd1 Ag2 Pd3'
_cell_volume   209.45842800
_cell_formula_units_Z   1
loop_
 _symmetry_equiv_pos_site_id
 _symmetry_equiv_pos_as_xyz
  1  'x, y, z'
loop_
 _atom_site_type_symbol
 _atom_site_label
 _atom_site_symmetry_multiplicity
 _atom_site_fract_x
 _atom_site_fract_y
 _atom_site_fract_z
 _atom_site_occupancy
  Pr  Pr0  1  0.408039  0.401682  0.500000  1
  Pr  Pr1  1  0.000000  0.609277  0.500000  1
  Pr  Pr2  1  0.591961  0.993643  0.500000  1
  Cd  Cd3  1  0.000000  0.253305  0.000000  1
  Ag  Ag4  1  0.745675  0.746063  0.000000  1
  Ag  Ag5  1  0.254325  0.000388  0.000000  1
  Pd  Pd6  1  0.669036  0.329961  0.000000  1
  Pd  Pd7  1  0.000000  0.004755  0.500000  1
  Pd  Pd8  1  0.330964  0.660926  0.000000  1
