# generated using pymatgen
data_ZrZn6Sn5Rh12
_symmetry_space_group_name_H-M   'P 1'
_cell_length_a   4.37416900
_cell_length_b   6.48650500
_cell_length_c   13.16144800
_cell_angle_alpha   90.00010959
_cell_angle_beta   89.99869207
_cell_angle_gamma   89.99943800
_symmetry_Int_Tables_number   1
_chemical_formula_structural   ZrZn6Sn5Rh12
_chemical_formula_sum   'Zr1 Zn6 Sn5 Rh12'
_cell_volume   373.43067336
_cell_formula_units_Z   1
loop_
 _symmetry_equiv_pos_site_id
 _symmetry_equiv_pos_as_xyz
  1  'x, y, z'
loop_
 _atom_site_type_symbol
 _atom_site_label
 _atom_site_symmetry_multiplicity
 _atom_site_fract_x
 _atom_site_fract_y
 _atom_site_fract_z
 _atom_site_occupancy
  Zr  Zr0  1  0.000000  0.500000  0.000000  1
  Zn  Zn1  1  0.000000  0.000000  0.000000  1
  Zn  Zn2  1  0.500004  0.500000  0.160889  1
  Zn  Zn3  1  0.999976  0.000000  0.335380  1
  Zn  Zn4  1  0.500000  0.500000  0.500000  1
  Zn  Zn5  1  0.000025  0.000000  0.664620  1
  Zn  Zn6  1  0.499997  0.500000  0.839111  1
  Sn  Sn7  1  0.499992  0.000001  0.168116  1
  Sn  Sn8  1  0.000018  0.500000  0.332976  1
  Sn  Sn9  1  0.500000  0.000000  0.500000  1
  Sn  Sn10  1  0.999982  0.500000  0.667023  1
  Sn  Sn11  1  0.500009  0.999999  0.831884  1
  Rh  Rh12  1  0.499994  0.241056  0.999999  1
  Rh  Rh13  1  0.500006  0.758944  0.000001  1
  Rh  Rh14  1  0.999996  0.248742  0.168587  1
  Rh  Rh15  1  0.999997  0.751254  0.168586  1
  Rh  Rh16  1  0.500007  0.250473  0.333493  1
  Rh  Rh17  1  0.500003  0.749525  0.333492  1
  Rh  Rh18  1  0.000000  0.250614  0.500000  1
  Rh  Rh19  1  0.000000  0.749385  0.500000  1
  Rh  Rh20  1  0.499998  0.250474  0.666508  1
  Rh  Rh21  1  0.499994  0.749526  0.666507  1
  Rh  Rh22  1  0.000003  0.248745  0.831414  1
  Rh  Rh23  1  0.000004  0.751257  0.831413  1
