# generated using pymatgen
data_TmSc3(SiRh2)8
_symmetry_space_group_name_H-M   'P 1'
_cell_length_a   4.08020900
_cell_length_b   8.99781950
_cell_length_c   11.15419548
_cell_angle_alpha   90.50130634
_cell_angle_beta   90.00000000
_cell_angle_gamma   90.00000000
_symmetry_Int_Tables_number   1
_chemical_formula_structural   TmSc3(SiRh2)8
_chemical_formula_sum   'Tm1 Sc3 Si8 Rh16'
_cell_volume   409.48812723
_cell_formula_units_Z   1
loop_
 _symmetry_equiv_pos_site_id
 _symmetry_equiv_pos_as_xyz
  1  'x, y, z'
loop_
 _atom_site_type_symbol
 _atom_site_label
 _atom_site_symmetry_multiplicity
 _atom_site_fract_x
 _atom_site_fract_y
 _atom_site_fract_z
 _atom_site_occupancy
  Tm  Tm0  1  0.250000  0.145581  0.825582  1
  Sc  Sc1  1  0.250000  0.357510  0.324992  1
  Sc  Sc2  1  0.750000  0.854750  0.175484  1
  Sc  Sc3  1  0.750000  0.644933  0.673531  1
  Si  Si4  1  0.250000  0.415604  0.636158  1
  Si  Si5  1  0.250000  0.086524  0.138963  1
  Si  Si6  1  0.750000  0.587751  0.361282  1
  Si  Si7  1  0.750000  0.908713  0.863119  1
  Si  Si8  1  0.250000  0.616938  0.060030  1
  Si  Si9  1  0.250000  0.882371  0.559523  1
  Si  Si10  1  0.750000  0.379466  0.940834  1
  Si  Si11  1  0.750000  0.116667  0.441109  1
  Rh  Rh12  1  0.250000  0.617223  0.501987  1
  Rh  Rh13  1  0.250000  0.880692  0.003493  1
  Rh  Rh14  1  0.750000  0.383555  0.492644  1
  Rh  Rh15  1  0.750000  0.110946  0.004449  1
  Rh  Rh16  1  0.250000  0.696610  0.266852  1
  Rh  Rh17  1  0.250000  0.801730  0.766159  1
  Rh  Rh18  1  0.750000  0.315606  0.727913  1
  Rh  Rh19  1  0.750000  0.199608  0.236336  1
  Rh  Rh20  1  0.250000  0.172717  0.558630  1
  Rh  Rh21  1  0.250000  0.327692  0.062437  1
  Rh  Rh22  1  0.750000  0.829187  0.437816  1
  Rh  Rh23  1  0.750000  0.669594  0.940520  1
  Rh  Rh24  1  0.250000  0.007664  0.340828  1
  Rh  Rh25  1  0.250000  0.491942  0.843658  1
  Rh  Rh26  1  0.750000  0.989900  0.657788  1
  Rh  Rh27  1  0.750000  0.508524  0.157883  1
