# generated using pymatgen
data_NaScP7(IrRu5)2
_symmetry_space_group_name_H-M   'P 1'
_cell_length_a   9.36914358
_cell_length_b   9.44669567
_cell_length_c   3.94666900
_cell_angle_alpha   90.00000000
_cell_angle_beta   90.00000000
_cell_angle_gamma   120.33345382
_symmetry_Int_Tables_number   1
_chemical_formula_structural   NaScP7(IrRu5)2
_chemical_formula_sum   'Na1 Sc1 P7 Ir2 Ru10'
_cell_volume   301.48940374
_cell_formula_units_Z   1
loop_
 _symmetry_equiv_pos_site_id
 _symmetry_equiv_pos_as_xyz
  1  'x, y, z'
loop_
 _atom_site_type_symbol
 _atom_site_label
 _atom_site_symmetry_multiplicity
 _atom_site_fract_x
 _atom_site_fract_y
 _atom_site_fract_z
 _atom_site_occupancy
  Na  Na0  1  0.330607  0.665640  0.000000  1
  Sc  Sc1  1  0.667808  0.334557  0.500000  1
  P  P2  1  0.599700  0.720368  0.500000  1
  P  P3  1  0.998743  0.999883  0.000000  1
  P  P4  1  0.275741  0.877923  0.500000  1
  P  P5  1  0.115562  0.399522  0.500000  1
  P  P6  1  0.885293  0.570290  0.000000  1
  P  P7  1  0.430103  0.310005  0.000000  1
  P  P8  1  0.692170  0.118556  0.000000  1
  Ir  Ir9  1  0.556097  0.955901  0.500000  1
  Ir  Ir10  1  0.397529  0.443168  0.500000  1
  Ru  Ru11  1  0.917447  0.121773  0.500000  1
  Ru  Ru12  1  0.210058  0.085082  0.500000  1
  Ru  Ru13  1  0.876513  0.795503  0.500000  1
  Ru  Ru14  1  0.723699  0.889960  0.000000  1
  Ru  Ru15  1  0.108452  0.838032  0.000000  1
  Ru  Ru16  1  0.166615  0.271743  0.000000  1
  Ru  Ru17  1  0.428457  0.071261  0.000000  1
  Ru  Ru18  1  0.933861  0.355920  0.000000  1
  Ru  Ru19  1  0.645330  0.573266  0.000000  1
  Ru  Ru20  1  0.040217  0.601644  0.500000  1
