# generated using pymatgen
data_Tm4InPd
_symmetry_space_group_name_H-M   'P 1'
_cell_length_a   9.59883392
_cell_length_b   9.59883479
_cell_length_c   9.59883500
_cell_angle_alpha   60.00000272
_cell_angle_beta   59.99999973
_cell_angle_gamma   60.00000082
_symmetry_Int_Tables_number   1
_chemical_formula_structural   Tm4InPd
_chemical_formula_sum   'Tm16 In4 Pd4'
_cell_volume   625.37502561
_cell_formula_units_Z   4
loop_
 _symmetry_equiv_pos_site_id
 _symmetry_equiv_pos_as_xyz
  1  'x, y, z'
loop_
 _atom_site_type_symbol
 _atom_site_label
 _atom_site_symmetry_multiplicity
 _atom_site_fract_x
 _atom_site_fract_y
 _atom_site_fract_z
 _atom_site_occupancy
  Tm  Tm0  1  0.353232  0.353232  0.353232  1
  Tm  Tm1  1  0.353232  0.353232  0.940304  1
  Tm  Tm2  1  0.353232  0.940304  0.353232  1
  Tm  Tm3  1  0.940304  0.353232  0.353232  1
  Tm  Tm4  1  0.810320  0.189680  0.189680  1
  Tm  Tm5  1  0.189680  0.810320  0.810320  1
  Tm  Tm6  1  0.189680  0.810320  0.189680  1
  Tm  Tm7  1  0.810320  0.189680  0.810320  1
  Tm  Tm8  1  0.189680  0.189680  0.810320  1
  Tm  Tm9  1  0.810320  0.810320  0.189680  1
  Tm  Tm10  1  0.935847  0.564153  0.564153  1
  Tm  Tm11  1  0.564153  0.935847  0.935847  1
  Tm  Tm12  1  0.564153  0.935847  0.564153  1
  Tm  Tm13  1  0.935847  0.564153  0.935847  1
  Tm  Tm14  1  0.564153  0.564153  0.935847  1
  Tm  Tm15  1  0.935847  0.935847  0.564153  1
  In  In16  1  0.583864  0.583864  0.583864  1
  In  In17  1  0.583864  0.583864  0.248407  1
  In  In18  1  0.583864  0.248407  0.583864  1
  In  In19  1  0.248407  0.583864  0.583864  1
  Pd  Pd20  1  0.144369  0.144369  0.144369  1
  Pd  Pd21  1  0.144369  0.144369  0.566891  1
  Pd  Pd22  1  0.144369  0.566891  0.144369  1
  Pd  Pd23  1  0.566891  0.144369  0.144369  1
