# generated using pymatgen
data_Ce4Y11Ho(CdIr)4
_symmetry_space_group_name_H-M   'P 1'
_cell_length_a   9.68361201
_cell_length_b   9.69748892
_cell_length_c   9.69748951
_cell_angle_alpha   60.00971378
_cell_angle_beta   60.04732627
_cell_angle_gamma   60.04732604
_symmetry_Int_Tables_number   1
_chemical_formula_structural   Ce4Y11Ho(CdIr)4
_chemical_formula_sum   'Ce4 Y11 Ho1 Cd4 Ir4'
_cell_volume   644.44106416
_cell_formula_units_Z   1
loop_
 _symmetry_equiv_pos_site_id
 _symmetry_equiv_pos_as_xyz
  1  'x, y, z'
loop_
 _atom_site_type_symbol
 _atom_site_label
 _atom_site_symmetry_multiplicity
 _atom_site_fract_x
 _atom_site_fract_y
 _atom_site_fract_z
 _atom_site_occupancy
  Ce  Ce0  1  0.348758  0.348836  0.348836  1
  Ce  Ce1  1  0.349099  0.349280  0.952521  1
  Ce  Ce2  1  0.349099  0.952521  0.349280  1
  Ce  Ce3  1  0.953569  0.348836  0.348836  1
  Y  Y4  1  0.188728  0.811272  0.811272  1
  Y  Y5  1  0.188826  0.811206  0.188561  1
  Y  Y6  1  0.811408  0.188561  0.811206  1
  Y  Y7  1  0.188826  0.188561  0.811206  1
  Y  Y8  1  0.811408  0.811206  0.188561  1
  Y  Y9  1  0.937658  0.562342  0.562342  1
  Y  Y10  1  0.561725  0.938275  0.938275  1
  Y  Y11  1  0.562143  0.939022  0.561522  1
  Y  Y12  1  0.937312  0.561522  0.939022  1
  Y  Y13  1  0.562143  0.561522  0.939022  1
  Y  Y14  1  0.937312  0.939022  0.561522  1
  Ho  Ho15  1  0.811107  0.188893  0.188893  1
  Cd  Cd16  1  0.581912  0.581082  0.581082  1
  Cd  Cd17  1  0.581813  0.581215  0.255160  1
  Cd  Cd18  1  0.581813  0.255160  0.581215  1
  Cd  Cd19  1  0.255924  0.581082  0.581082  1
  Ir  Ir20  1  0.141829  0.144470  0.144470  1
  Ir  Ir21  1  0.144179  0.143816  0.567827  1
  Ir  Ir22  1  0.144179  0.567827  0.143816  1
  Ir  Ir23  1  0.569230  0.144470  0.144470  1
