# generated using pymatgen
data_Tb2Co6Si7Ru6
_symmetry_space_group_name_H-M   'P 1'
_cell_length_a   9.35671500
_cell_length_b   9.35671708
_cell_length_c   3.79383400
_cell_angle_alpha   90.00000000
_cell_angle_beta   90.00000000
_cell_angle_gamma   119.99999618
_symmetry_Int_Tables_number   1
_chemical_formula_structural   Tb2Co6Si7Ru6
_chemical_formula_sum   'Tb2 Co6 Si7 Ru6'
_cell_volume   287.64436595
_cell_formula_units_Z   1
loop_
 _symmetry_equiv_pos_site_id
 _symmetry_equiv_pos_as_xyz
  1  'x, y, z'
loop_
 _atom_site_type_symbol
 _atom_site_label
 _atom_site_symmetry_multiplicity
 _atom_site_fract_x
 _atom_site_fract_y
 _atom_site_fract_z
 _atom_site_occupancy
  Tb  Tb0  1  0.666667  0.333333  0.000000  1
  Tb  Tb1  1  0.333333  0.666667  0.500000  1
  Co  Co2  1  0.057514  0.632531  0.000000  1
  Co  Co3  1  0.575016  0.942486  0.000000  1
  Co  Co4  1  0.367469  0.424984  0.000000  1
  Co  Co5  1  0.274857  0.125219  0.000000  1
  Co  Co6  1  0.850362  0.725143  0.000000  1
  Co  Co7  1  0.874781  0.149638  0.000000  1
  Si  Si8  1  0.293888  0.889350  0.000000  1
  Si  Si9  1  0.595463  0.706112  0.000000  1
  Si  Si10  1  0.110650  0.404537  0.000000  1
  Si  Si11  1  0.391212  0.284367  0.500000  1
  Si  Si12  1  0.893155  0.608788  0.500000  1
  Si  Si13  1  0.715633  0.106845  0.500000  1
  Si  Si14  1  0.000000  0.000000  0.000000  1
  Ru  Ru15  1  0.439613  0.052377  0.500000  1
  Ru  Ru16  1  0.612764  0.560387  0.500000  1
  Ru  Ru17  1  0.947623  0.387236  0.500000  1
  Ru  Ru18  1  0.099616  0.889781  0.500000  1
  Ru  Ru19  1  0.790165  0.900384  0.500000  1
  Ru  Ru20  1  0.110219  0.209835  0.500000  1
