# generated using pymatgen
data_CaCe9(Si3H)2
_symmetry_space_group_name_H-M   'P 1'
_cell_length_a   8.59024085
_cell_length_b   8.59024023
_cell_length_c   8.59024071
_cell_angle_alpha   126.23655763
_cell_angle_beta   126.23656086
_cell_angle_gamma   79.49969248
_symmetry_Int_Tables_number   1
_chemical_formula_structural   CaCe9(Si3H)2
_chemical_formula_sum   'Ca1 Ce9 Si6 H2'
_cell_volume   398.54681355
_cell_formula_units_Z   1
loop_
 _symmetry_equiv_pos_site_id
 _symmetry_equiv_pos_as_xyz
  1  'x, y, z'
loop_
 _atom_site_type_symbol
 _atom_site_label
 _atom_site_symmetry_multiplicity
 _atom_site_fract_x
 _atom_site_fract_y
 _atom_site_fract_z
 _atom_site_occupancy
  Ca  Ca0  1  0.500000  0.500000  0.000000  1
  Ce  Ce1  1  0.000000  0.000000  0.000000  1
  Ce  Ce2  1  0.528311  0.021607  0.858032  1
  Ce  Ce3  1  0.163575  0.670280  0.141968  1
  Ce  Ce4  1  0.021607  0.163575  0.493296  1
  Ce  Ce5  1  0.670280  0.528311  0.506704  1
  Ce  Ce6  1  0.471689  0.978393  0.141968  1
  Ce  Ce7  1  0.836425  0.329720  0.858032  1
  Ce  Ce8  1  0.978393  0.836425  0.506704  1
  Ce  Ce9  1  0.329720  0.471689  0.493296  1
  Si  Si10  1  0.250498  0.250498  0.000000  1
  Si  Si11  1  0.749502  0.749502  0.000000  1
  Si  Si12  1  0.889631  0.385699  0.275331  1
  Si  Si13  1  0.110369  0.614301  0.724669  1
  Si  Si14  1  0.385699  0.110369  0.496068  1
  Si  Si15  1  0.614301  0.889631  0.503932  1
  H  H16  1  0.250000  0.750000  0.500000  1
  H  H17  1  0.750000  0.250000  0.500000  1
