# generated using pymatgen
data_DyHo15Cd4Ru3Pt
_symmetry_space_group_name_H-M   'P 1'
_cell_length_a   9.60357670
_cell_length_b   9.64381619
_cell_length_c   9.64170309
_cell_angle_alpha   59.62734753
_cell_angle_beta   59.47605140
_cell_angle_gamma   59.46547066
_symmetry_Int_Tables_number   1
_chemical_formula_structural   DyHo15Cd4Ru3Pt
_chemical_formula_sum   'Dy1 Ho15 Cd4 Ru3 Pt1'
_cell_volume   624.57074062
_cell_formula_units_Z   1
loop_
 _symmetry_equiv_pos_site_id
 _symmetry_equiv_pos_as_xyz
  1  'x, y, z'
loop_
 _atom_site_type_symbol
 _atom_site_label
 _atom_site_symmetry_multiplicity
 _atom_site_fract_x
 _atom_site_fract_y
 _atom_site_fract_z
 _atom_site_occupancy
  Dy  Dy0  1  0.936942  0.938693  0.561640  1
  Ho  Ho1  1  0.345754  0.350750  0.350820  1
  Ho  Ho2  1  0.346317  0.350931  0.954774  1
  Ho  Ho3  1  0.346336  0.954917  0.350819  1
  Ho  Ho4  1  0.963545  0.345705  0.345580  1
  Ho  Ho5  1  0.814600  0.189460  0.189102  1
  Ho  Ho6  1  0.185901  0.811055  0.811107  1
  Ho  Ho7  1  0.187885  0.810842  0.188664  1
  Ho  Ho8  1  0.814094  0.189516  0.805256  1
  Ho  Ho9  1  0.187831  0.188815  0.810882  1
  Ho  Ho10  1  0.814053  0.805195  0.189399  1
  Ho  Ho11  1  0.936497  0.561940  0.562225  1
  Ho  Ho12  1  0.557527  0.937902  0.938173  1
  Ho  Ho13  1  0.557670  0.938220  0.565863  1
  Ho  Ho14  1  0.936929  0.561467  0.938896  1
  Ho  Ho15  1  0.557987  0.565837  0.938278  1
  Cd  Cd16  1  0.580465  0.580137  0.580156  1
  Cd  Cd17  1  0.580739  0.580056  0.258224  1
  Cd  Cd18  1  0.580425  0.258535  0.580049  1
  Cd  Cd19  1  0.256040  0.580840  0.581053  1
  Ru  Ru20  1  0.145311  0.138226  0.137974  1
  Ru  Ru21  1  0.145767  0.140039  0.578328  1
  Ru  Ru22  1  0.145666  0.578224  0.140017  1
  Pt  Pt23  1  0.575726  0.142693  0.142716  1
