# generated using pymatgen
data_Rb4Hf5ZrFeBr18
_symmetry_space_group_name_H-M   'P 1'
_cell_length_a   10.65878894
_cell_length_b   10.88295949
_cell_length_c   10.98604520
_cell_angle_alpha   118.45832381
_cell_angle_beta   100.35598435
_cell_angle_gamma   103.93559798
_symmetry_Int_Tables_number   1
_chemical_formula_structural   Rb4Hf5ZrFeBr18
_chemical_formula_sum   'Rb4 Hf5 Zr1 Fe1 Br18'
_cell_volume   1020.57647969
_cell_formula_units_Z   1
loop_
 _symmetry_equiv_pos_site_id
 _symmetry_equiv_pos_as_xyz
  1  'x, y, z'
loop_
 _atom_site_type_symbol
 _atom_site_label
 _atom_site_symmetry_multiplicity
 _atom_site_fract_x
 _atom_site_fract_y
 _atom_site_fract_z
 _atom_site_occupancy
  Rb  Rb0  1  0.656151  0.538041  0.228398  1
  Rb  Rb1  1  0.344276  0.462381  0.771735  1
  Rb  Rb2  1  0.690529  0.227426  0.565108  1
  Rb  Rb3  1  0.309581  0.773177  0.435142  1
  Hf  Hf4  1  0.151442  0.056142  0.229660  1
  Hf  Hf5  1  0.848663  0.944032  0.770407  1
  Hf  Hf6  1  0.861409  0.125398  0.131606  1
  Hf  Hf7  1  0.138596  0.874639  0.868418  1
  Hf  Hf8  1  0.144943  0.236312  0.044775  1
  Zr  Zr9  1  0.852882  0.760082  0.954546  1
  Fe  Fe10  1  0.998980  0.998323  0.999687  1
  Br  Br11  1  0.008745  0.403631  0.193776  1
  Br  Br12  1  0.994579  0.595767  0.804244  1
  Br  Br13  1  0.327266  0.329849  0.307851  1
  Br  Br14  1  0.671354  0.670710  0.688482  1
  Br  Br15  1  0.317762  0.511948  0.098915  1
  Br  Br16  1  0.677714  0.481188  0.899681  1
  Br  Br17  1  0.007683  0.800874  0.210401  1
  Br  Br18  1  0.995741  0.201583  0.793630  1
  Br  Br19  1  0.707966  0.270265  0.282126  1
  Br  Br20  1  0.293106  0.731497  0.718178  1
  Br  Br21  1  0.313966  0.126316  0.904742  1
  Br  Br22  1  0.684784  0.877444  0.097982  1
  Br  Br23  1  0.016142  0.201851  0.402198  1
  Br  Br24  1  0.984395  0.798944  0.598049  1
  Br  Br25  1  0.318628  0.924149  0.109343  1
  Br  Br26  1  0.681872  0.076576  0.890830  1
  Br  Br27  1  0.330526  0.120565  0.493609  1
  Br  Br28  1  0.670318  0.880889  0.506478  1
