# generated using pymatgen
data_Ta12Ga5Pt3N4
_symmetry_space_group_name_H-M   'P 1'
_cell_length_a   7.02817977
_cell_length_b   7.02818003
_cell_length_c   7.02817951
_cell_angle_alpha   90.34508070
_cell_angle_beta   90.34508380
_cell_angle_gamma   90.34507456
_symmetry_Int_Tables_number   1
_chemical_formula_structural   Ta12Ga5Pt3N4
_chemical_formula_sum   'Ta12 Ga5 Pt3 N4'
_cell_volume   347.14015957
_cell_formula_units_Z   1
loop_
 _symmetry_equiv_pos_site_id
 _symmetry_equiv_pos_as_xyz
  1  'x, y, z'
loop_
 _atom_site_type_symbol
 _atom_site_label
 _atom_site_symmetry_multiplicity
 _atom_site_fract_x
 _atom_site_fract_y
 _atom_site_fract_z
 _atom_site_occupancy
  Ta  Ta0  1  0.788880  0.955841  0.381125  1
  Ta  Ta1  1  0.710015  0.044594  0.875200  1
  Ta  Ta2  1  0.210067  0.454142  0.122045  1
  Ta  Ta3  1  0.289888  0.545414  0.620881  1
  Ta  Ta4  1  0.955841  0.381125  0.788880  1
  Ta  Ta5  1  0.044594  0.875200  0.710015  1
  Ta  Ta6  1  0.454142  0.122045  0.210067  1
  Ta  Ta7  1  0.545414  0.620881  0.289888  1
  Ta  Ta8  1  0.381125  0.788880  0.955841  1
  Ta  Ta9  1  0.875200  0.710015  0.044594  1
  Ta  Ta10  1  0.122045  0.210067  0.454142  1
  Ta  Ta11  1  0.620881  0.289888  0.545414  1
  Ga  Ga12  1  0.678499  0.678499  0.678499  1
  Ga  Ga13  1  0.569562  0.427171  0.931982  1
  Ga  Ga14  1  0.427171  0.931982  0.569562  1
  Ga  Ga15  1  0.931982  0.569562  0.427171  1
  Ga  Ga16  1  0.070392  0.070392  0.070392  1
  Pt  Pt17  1  0.179314  0.821192  0.317038  1
  Pt  Pt18  1  0.317038  0.179314  0.821192  1
  Pt  Pt19  1  0.821192  0.317038  0.179314  1
  N  N20  1  0.877918  0.128475  0.626816  1
  N  N21  1  0.626816  0.877918  0.128475  1
  N  N22  1  0.128475  0.626816  0.877918  1
  N  N23  1  0.373550  0.373550  0.373550  1
