# generated using pymatgen
data_Tb19YCo3TcBi8
_symmetry_space_group_name_H-M   'P 1'
_cell_length_a   8.03243019
_cell_length_b   8.93939500
_cell_length_c   12.46793210
_cell_angle_alpha   90.00001282
_cell_angle_beta   90.19080448
_cell_angle_gamma   89.99998714
_symmetry_Int_Tables_number   1
_chemical_formula_structural   Tb19YCo3TcBi8
_chemical_formula_sum   'Tb19 Y1 Co3 Tc1 Bi8'
_cell_volume   895.25572644
_cell_formula_units_Z   1
loop_
 _symmetry_equiv_pos_site_id
 _symmetry_equiv_pos_as_xyz
  1  'x, y, z'
loop_
 _atom_site_type_symbol
 _atom_site_label
 _atom_site_symmetry_multiplicity
 _atom_site_fract_x
 _atom_site_fract_y
 _atom_site_fract_z
 _atom_site_occupancy
  Tb  Tb0  1  0.150766  0.250000  0.198868  1
  Tb  Tb1  1  0.347858  0.250000  0.699971  1
  Tb  Tb2  1  0.651859  0.750000  0.294479  1
  Tb  Tb3  1  0.380857  0.750000  0.694042  1
  Tb  Tb4  1  0.618517  0.249999  0.308613  1
  Tb  Tb5  1  0.881091  0.250000  0.809846  1
  Tb  Tb6  1  0.117254  0.749999  0.188266  1
  Tb  Tb7  1  0.948348  0.750000  0.503714  1
  Tb  Tb8  1  0.050101  0.250000  0.496163  1
  Tb  Tb9  1  0.452048  0.250000  0.997138  1
  Tb  Tb10  1  0.548926  0.750000  0.003230  1
  Tb  Tb11  1  0.678895  0.043330  0.565044  1
  Tb  Tb12  1  0.324307  0.966609  0.437889  1
  Tb  Tb13  1  0.176014  0.965365  0.936813  1
  Tb  Tb14  1  0.324307  0.533391  0.437889  1
  Tb  Tb15  1  0.822658  0.036598  0.062951  1
  Tb  Tb16  1  0.678894  0.456670  0.565044  1
  Tb  Tb17  1  0.822657  0.463403  0.062951  1
  Tb  Tb18  1  0.176014  0.534636  0.936813  1
  Y  Y19  1  0.846324  0.750001  0.797668  1
  Co  Co20  1  0.428960  0.249999  0.489238  1
  Co  Co21  1  0.060543  0.250000  0.991437  1
  Co  Co22  1  0.937141  0.750000  0.007677  1
  Tc  Tc23  1  0.576343  0.750000  0.512691  1
  Bi  Bi24  1  0.572575  0.492182  0.827218  1
  Bi  Bi25  1  0.425825  0.507447  0.173180  1
  Bi  Bi26  1  0.073512  0.508072  0.674029  1
  Bi  Bi27  1  0.425824  0.992553  0.173180  1
  Bi  Bi28  1  0.927747  0.492358  0.326352  1
  Bi  Bi29  1  0.572575  0.007818  0.827219  1
  Bi  Bi30  1  0.927747  0.007642  0.326352  1
  Bi  Bi31  1  0.073511  0.991929  0.674029  1
