# generated using pymatgen
data_TbDy2Th(NiB10)2
_symmetry_space_group_name_H-M   'P 1'
_cell_length_a   4.15217200
_cell_length_b   5.57369231
_cell_length_c   11.12638603
_cell_angle_alpha   90.12559437
_cell_angle_beta   90.00000000
_cell_angle_gamma   90.00000000
_symmetry_Int_Tables_number   1
_chemical_formula_structural   TbDy2Th(NiB10)2
_chemical_formula_sum   'Tb1 Dy2 Th1 Ni2 B20'
_cell_volume   257.49654512
_cell_formula_units_Z   1
loop_
 _symmetry_equiv_pos_site_id
 _symmetry_equiv_pos_as_xyz
  1  'x, y, z'
loop_
 _atom_site_type_symbol
 _atom_site_label
 _atom_site_symmetry_multiplicity
 _atom_site_fract_x
 _atom_site_fract_y
 _atom_site_fract_z
 _atom_site_occupancy
  Tb  Tb0  1  0.500000  0.313471  0.863188  1
  Dy  Dy1  1  0.500000  0.688944  0.134512  1
  Dy  Dy2  1  0.500000  0.812412  0.639601  1
  Th  Th3  1  0.500000  0.187862  0.362570  1
  Ni  Ni4  1  0.000000  0.499991  0.501081  1
  Ni  Ni5  1  0.000000  0.999798  0.999862  1
  B  B6  1  0.000000  0.124598  0.542248  1
  B  B7  1  0.000000  0.873102  0.459812  1
  B  B8  1  0.000000  0.625794  0.958763  1
  B  B9  1  0.000000  0.374696  0.039841  1
  B  B10  1  0.000000  0.158375  0.699560  1
  B  B11  1  0.000000  0.843976  0.302287  1
  B  B12  1  0.301125  0.202303  0.112762  1
  B  B13  1  0.301319  0.798504  0.885398  1
  B  B14  1  0.698786  0.698715  0.385115  1
  B  B15  1  0.698339  0.297012  0.615423  1
  B  B16  1  0.698681  0.798504  0.885398  1
  B  B17  1  0.698875  0.202303  0.112762  1
  B  B18  1  0.301661  0.297012  0.615423  1
  B  B19  1  0.301214  0.698715  0.385115  1
  B  B20  1  0.000000  0.031556  0.186663  1
  B  B21  1  0.000000  0.969659  0.813724  1
  B  B22  1  0.000000  0.531529  0.312677  1
  B  B23  1  0.000000  0.469442  0.687479  1
  B  B24  1  0.000000  0.343705  0.196678  1
  B  B25  1  0.000000  0.658021  0.802053  1
