# generated using pymatgen
data_TmZnCdNiPt2
_symmetry_space_group_name_H-M   'P 1'
_cell_length_a   5.03576696
_cell_length_b   5.27904190
_cell_length_c   5.27904148
_cell_angle_alpha   62.76369781
_cell_angle_beta   60.14786289
_cell_angle_gamma   60.14786170
_symmetry_Int_Tables_number   1
_chemical_formula_structural   TmZnCdNiPt2
_chemical_formula_sum   'Tm1 Zn1 Cd1 Ni1 Pt2'
_cell_volume   101.37403432
_cell_formula_units_Z   1
loop_
 _symmetry_equiv_pos_site_id
 _symmetry_equiv_pos_as_xyz
  1  'x, y, z'
loop_
 _atom_site_type_symbol
 _atom_site_label
 _atom_site_symmetry_multiplicity
 _atom_site_fract_x
 _atom_site_fract_y
 _atom_site_fract_z
 _atom_site_occupancy
  Tm  Tm0  1  0.258478  0.246359  0.246359  1
  Zn  Zn1  1  0.119962  0.628385  0.628385  1
  Cd  Cd2  1  0.007289  0.992836  0.992836  1
  Ni  Ni3  1  0.620772  0.628533  0.628533  1
  Pt  Pt4  1  0.621750  0.626673  0.127215  1
  Pt  Pt5  1  0.621750  0.127215  0.626673  1
