# generated using pymatgen
data_Tb4Er(In2Pt)2
_symmetry_space_group_name_H-M   'P 1'
_cell_length_a   3.65587500
_cell_length_b   8.16208200
_cell_length_c   18.28033800
_cell_angle_alpha   90.00218581
_cell_angle_beta   90.00000000
_cell_angle_gamma   90.00000000
_symmetry_Int_Tables_number   1
_chemical_formula_structural   Tb4Er(In2Pt)2
_chemical_formula_sum   'Tb8 Er2 In8 Pt4'
_cell_volume   545.47708757
_cell_formula_units_Z   2
loop_
 _symmetry_equiv_pos_site_id
 _symmetry_equiv_pos_as_xyz
  1  'x, y, z'
loop_
 _atom_site_type_symbol
 _atom_site_label
 _atom_site_symmetry_multiplicity
 _atom_site_fract_x
 _atom_site_fract_y
 _atom_site_fract_z
 _atom_site_occupancy
  Tb  Tb0  1  0.000000  0.384938  0.915159  1
  Tb  Tb1  1  0.000000  0.615067  0.084855  1
  Tb  Tb2  1  0.000000  0.243284  0.219385  1
  Tb  Tb3  1  0.000000  0.756707  0.780618  1
  Tb  Tb4  1  0.000000  0.256638  0.718940  1
  Tb  Tb5  1  0.000000  0.743359  0.281066  1
  Tb  Tb6  1  0.000000  0.000000  0.000009  1
  Tb  Tb7  1  0.000000  0.499999  0.500001  1
  Er  Er8  1  0.000000  0.114547  0.414375  1
  Er  Er9  1  0.000000  0.885458  0.585559  1
  In  In10  1  0.500000  0.422510  0.351875  1
  In  In11  1  0.500000  0.577501  0.648135  1
  In  In12  1  0.500000  0.075547  0.851455  1
  In  In13  1  0.500000  0.924465  0.148532  1
  In  In14  1  0.500000  0.291576  0.066899  1
  In  In15  1  0.500000  0.708418  0.933113  1
  In  In16  1  0.500000  0.206255  0.566009  1
  In  In17  1  0.500000  0.793747  0.433999  1
  Pt  Pt18  1  0.500000  0.027216  0.303810  1
  Pt  Pt19  1  0.500000  0.972776  0.696195  1
  Pt  Pt20  1  0.500000  0.473506  0.802486  1
  Pt  Pt21  1  0.500000  0.526486  0.197525  1
