# generated using pymatgen
data_Sr6Li17Ge6
_symmetry_space_group_name_H-M   'P 1'
_cell_length_a   9.62795100
_cell_length_b   9.62795119
_cell_length_c   9.62795100
_cell_angle_alpha   120.00000279
_cell_angle_beta   90.00000000
_cell_angle_gamma   120.00000279
_symmetry_Int_Tables_number   1
_chemical_formula_structural   Sr6Li17Ge6
_chemical_formula_sum   'Sr6 Li17 Ge6'
_cell_volume   631.08315497
_cell_formula_units_Z   1
loop_
 _symmetry_equiv_pos_site_id
 _symmetry_equiv_pos_as_xyz
  1  'x, y, z'
loop_
 _atom_site_type_symbol
 _atom_site_label
 _atom_site_symmetry_multiplicity
 _atom_site_fract_x
 _atom_site_fract_y
 _atom_site_fract_z
 _atom_site_occupancy
  Sr  Sr0  1  0.780610  0.000000  0.219389  1
  Sr  Sr1  1  0.219390  0.438781  0.219390  1
  Sr  Sr2  1  0.219390  0.000000  0.219390  1
  Sr  Sr3  1  0.780610  0.000000  0.780610  1
  Sr  Sr4  1  0.219389  0.000000  0.780610  1
  Sr  Sr5  1  0.780610  0.561220  0.780610  1
  Li  Li6  1  0.367011  0.734019  0.101031  1
  Li  Li7  1  0.828637  0.657273  0.171364  1
  Li  Li8  1  0.514091  0.342728  0.171364  1
  Li  Li9  1  0.828637  0.342728  0.171364  1
  Li  Li10  1  0.101031  0.734019  0.367011  1
  Li  Li11  1  0.632989  0.734019  0.367011  1
  Li  Li12  1  0.632989  0.265980  0.367011  1
  Li  Li13  1  0.828637  0.657273  0.485909  1
  Li  Li14  1  0.500000  0.000000  0.500000  1
  Li  Li15  1  0.171364  0.342728  0.514091  1
  Li  Li16  1  0.367011  0.734019  0.632989  1
  Li  Li17  1  0.367011  0.265980  0.632989  1
  Li  Li18  1  0.898969  0.265980  0.632989  1
  Li  Li19  1  0.171364  0.657273  0.828637  1
  Li  Li20  1  0.485909  0.657273  0.828637  1
  Li  Li21  1  0.171364  0.342728  0.828637  1
  Li  Li22  1  0.632989  0.265980  0.898969  1
  Ge  Ge23  1  0.500000  0.000000  0.000000  1
  Ge  Ge24  1  0.000000  0.500000  0.000000  1
  Ge  Ge25  1  0.500000  0.500000  0.000000  1
  Ge  Ge26  1  0.000000  0.000000  0.500000  1
  Ge  Ge27  1  0.000000  0.500000  0.500000  1
  Ge  Ge28  1  0.500000  0.500000  0.500000  1
