# generated using pymatgen
data_Cs2KErBr6
_symmetry_space_group_name_H-M   'P 1'
_cell_length_a   8.25367264
_cell_length_b   8.25367272
_cell_length_c   8.53708778
_cell_angle_alpha   119.26276503
_cell_angle_beta   119.26276597
_cell_angle_gamma   59.95622004
_symmetry_Int_Tables_number   1
_chemical_formula_structural   Cs2KErBr6
_chemical_formula_sum   'Cs2 K1 Er1 Br6'
_cell_volume   415.61658272
_cell_formula_units_Z   1
loop_
 _symmetry_equiv_pos_site_id
 _symmetry_equiv_pos_as_xyz
  1  'x, y, z'
loop_
 _atom_site_type_symbol
 _atom_site_label
 _atom_site_symmetry_multiplicity
 _atom_site_fract_x
 _atom_site_fract_y
 _atom_site_fract_z
 _atom_site_occupancy
  Cs  Cs0  1  0.744999  0.744999  0.236707  1
  Cs  Cs1  1  0.255001  0.255001  0.763295  1
  K  K2  1  0.500000  0.500000  0.500001  1
  Er  Er3  1  0.000000  0.000000  0.000000  1
  Br  Br4  1  0.717892  0.193115  0.181673  1
  Br  Br5  1  0.193115  0.717892  0.181673  1
  Br  Br6  1  0.227441  0.227441  0.302303  1
  Br  Br7  1  0.772559  0.772559  0.697697  1
  Br  Br8  1  0.806885  0.282109  0.818326  1
  Br  Br9  1  0.282109  0.806885  0.818326  1
