# generated using pymatgen
data_Tb2Al9Ni2Rh
_symmetry_space_group_name_H-M   'P 1'
_cell_length_a   7.46172990
_cell_length_b   7.46172962
_cell_length_c   9.34715800
_cell_angle_alpha   90.00000000
_cell_angle_beta   90.00000000
_cell_angle_gamma   119.18110714
_symmetry_Int_Tables_number   1
_chemical_formula_structural   Tb2Al9Ni2Rh
_chemical_formula_sum   'Tb4 Al18 Ni4 Rh2'
_cell_volume   454.37465385
_cell_formula_units_Z   2
loop_
 _symmetry_equiv_pos_site_id
 _symmetry_equiv_pos_as_xyz
  1  'x, y, z'
loop_
 _atom_site_type_symbol
 _atom_site_label
 _atom_site_symmetry_multiplicity
 _atom_site_fract_x
 _atom_site_fract_y
 _atom_site_fract_z
 _atom_site_occupancy
  Tb  Tb0  1  0.994256  0.670681  0.250000  1
  Tb  Tb1  1  0.005744  0.329319  0.750000  1
  Tb  Tb2  1  0.670681  0.994256  0.250000  1
  Tb  Tb3  1  0.329319  0.005744  0.750000  1
  Al  Al4  1  0.131483  0.131483  0.250000  1
  Al  Al5  1  0.868517  0.868517  0.750000  1
  Al  Al6  1  0.998506  0.337347  0.073088  1
  Al  Al7  1  0.001494  0.662653  0.926912  1
  Al  Al8  1  0.001494  0.662653  0.573088  1
  Al  Al9  1  0.337347  0.998506  0.426912  1
  Al  Al10  1  0.998506  0.337347  0.426912  1
  Al  Al11  1  0.662653  0.001494  0.573088  1
  Al  Al12  1  0.662653  0.001494  0.926912  1
  Al  Al13  1  0.337347  0.998506  0.073088  1
  Al  Al14  1  0.335384  0.335384  0.549789  1
  Al  Al15  1  0.664616  0.664616  0.450211  1
  Al  Al16  1  0.664616  0.664616  0.049789  1
  Al  Al17  1  0.335384  0.335384  0.950211  1
  Al  Al18  1  0.340374  0.553823  0.250000  1
  Al  Al19  1  0.659626  0.446177  0.750000  1
  Al  Al20  1  0.553823  0.340374  0.250000  1
  Al  Al21  1  0.446177  0.659626  0.750000  1
  Ni  Ni22  1  0.670948  0.329052  0.000000  1
  Ni  Ni23  1  0.329052  0.670948  0.000000  1
  Ni  Ni24  1  0.329052  0.670948  0.500000  1
  Ni  Ni25  1  0.670948  0.329052  0.500000  1
  Rh  Rh26  1  0.000000  0.000000  0.000000  1
  Rh  Rh27  1  0.000000  0.000000  0.500000  1
