# generated using pymatgen
data_Tm6GaNiOs
_symmetry_space_group_name_H-M   'P 1'
_cell_length_a   8.25428860
_cell_length_b   8.25428981
_cell_length_c   8.25429000
_cell_angle_alpha   112.96212815
_cell_angle_beta   111.00006335
_cell_angle_gamma   104.56678201
_symmetry_Int_Tables_number   1
_chemical_formula_structural   Tm6GaNiOs
_chemical_formula_sum   'Tm12 Ga2 Ni2 Os2'
_cell_volume   430.43891735
_cell_formula_units_Z   2
loop_
 _symmetry_equiv_pos_site_id
 _symmetry_equiv_pos_as_xyz
  1  'x, y, z'
loop_
 _atom_site_type_symbol
 _atom_site_label
 _atom_site_symmetry_multiplicity
 _atom_site_fract_x
 _atom_site_fract_y
 _atom_site_fract_z
 _atom_site_occupancy
  Tm  Tm0  1  0.434956  0.242534  0.192438  1
  Tm  Tm1  1  0.565044  0.757466  0.807562  1
  Tm  Tm2  1  0.050096  0.242534  0.807578  1
  Tm  Tm3  1  0.949904  0.757466  0.192422  1
  Tm  Tm4  1  0.180347  0.279039  0.459404  1
  Tm  Tm5  1  0.819653  0.720961  0.540596  1
  Tm  Tm6  1  0.180366  0.720961  0.901308  1
  Tm  Tm7  1  0.819634  0.279039  0.098692  1
  Tm  Tm8  1  0.330702  0.643348  0.312648  1
  Tm  Tm9  1  0.669298  0.356652  0.687352  1
  Tm  Tm10  1  0.330669  0.017974  0.687306  1
  Tm  Tm11  1  0.669331  0.982026  0.312694  1
  Ga  Ga12  1  0.500000  0.500000  0.000000  1
  Ga  Ga13  1  0.000000  0.000000  0.000000  1
  Ni  Ni14  1  0.118036  0.617818  0.499782  1
  Ni  Ni15  1  0.881964  0.382182  0.500218  1
  Os  Os16  1  0.327791  0.000000  0.327791  1
  Os  Os17  1  0.672209  0.000000  0.672209  1
