# generated using pymatgen
data_Na4Zr6SiCl18
_symmetry_space_group_name_H-M   'P 1'
_cell_length_a   9.88245451
_cell_length_b   9.81807260
_cell_length_c   9.85882200
_cell_angle_alpha   118.60696328
_cell_angle_beta   100.37042104
_cell_angle_gamma   102.36787409
_symmetry_Int_Tables_number   1
_chemical_formula_structural   Na4Zr6SiCl18
_chemical_formula_sum   'Na4 Zr6 Si1 Cl18'
_cell_volume   774.49578540
_cell_formula_units_Z   1
loop_
 _symmetry_equiv_pos_site_id
 _symmetry_equiv_pos_as_xyz
  1  'x, y, z'
loop_
 _atom_site_type_symbol
 _atom_site_label
 _atom_site_symmetry_multiplicity
 _atom_site_fract_x
 _atom_site_fract_y
 _atom_site_fract_z
 _atom_site_occupancy
  Na  Na0  1  0.623003  0.525187  0.214074  1
  Na  Na1  1  0.376997  0.474813  0.785926  1
  Na  Na2  1  0.650638  0.215174  0.546757  1
  Na  Na3  1  0.349362  0.784826  0.453243  1
  Zr  Zr4  1  0.166379  0.058156  0.253843  1
  Zr  Zr5  1  0.833621  0.941844  0.746157  1
  Zr  Zr6  1  0.854395  0.149675  0.155163  1
  Zr  Zr7  1  0.145605  0.850325  0.844837  1
  Zr  Zr8  1  0.156853  0.258550  0.044620  1
  Zr  Zr9  1  0.843147  0.741450  0.955380  1
  Si  Si10  1  0.000000  0.000000  0.000000  1
  Cl  Cl11  1  0.013538  0.429588  0.208837  1
  Cl  Cl12  1  0.986462  0.570412  0.791163  1
  Cl  Cl13  1  0.337346  0.337691  0.318123  1
  Cl  Cl14  1  0.662654  0.662309  0.681877  1
  Cl  Cl15  1  0.339638  0.532298  0.098178  1
  Cl  Cl16  1  0.660362  0.467702  0.901822  1
  Cl  Cl17  1  0.010116  0.789612  0.220546  1
  Cl  Cl18  1  0.989884  0.210388  0.779454  1
  Cl  Cl19  1  0.701807  0.308731  0.318546  1
  Cl  Cl20  1  0.298193  0.691269  0.681454  1
  Cl  Cl21  1  0.317603  0.116970  0.886171  1
  Cl  Cl22  1  0.682397  0.883030  0.113829  1
  Cl  Cl23  1  0.022874  0.216732  0.430535  1
  Cl  Cl24  1  0.977126  0.783268  0.569465  1
  Cl  Cl25  1  0.327392  0.907376  0.105838  1
  Cl  Cl26  1  0.672608  0.092624  0.894162  1
  Cl  Cl27  1  0.353125  0.119636  0.522555  1
  Cl  Cl28  1  0.646875  0.880364  0.477445  1
