# generated using pymatgen
data_LaLu4(FeB3)2
_symmetry_space_group_name_H-M   'P 1'
_cell_length_a   5.37826810
_cell_length_b   5.37826737
_cell_length_c   8.11215278
_cell_angle_alpha   70.64048960
_cell_angle_beta   70.64049222
_cell_angle_gamma   60.00000230
_symmetry_Int_Tables_number   1
_chemical_formula_structural   LaLu4(FeB3)2
_chemical_formula_sum   'La1 Lu4 Fe2 B6'
_cell_volume   187.73651532
_cell_formula_units_Z   1
loop_
 _symmetry_equiv_pos_site_id
 _symmetry_equiv_pos_as_xyz
  1  'x, y, z'
loop_
 _atom_site_type_symbol
 _atom_site_label
 _atom_site_symmetry_multiplicity
 _atom_site_fract_x
 _atom_site_fract_y
 _atom_site_fract_z
 _atom_site_occupancy
  La  La0  1  0.000000  0.000000  0.000000  1
  Lu  Lu1  1  0.750593  0.750593  0.748222  1
  Lu  Lu2  1  0.249407  0.249407  0.251778  1
  Lu  Lu3  1  0.582179  0.582179  0.253463  1
  Lu  Lu4  1  0.417821  0.417821  0.746537  1
  Fe  Fe5  1  0.886083  0.886083  0.341751  1
  Fe  Fe6  1  0.113917  0.113917  0.658249  1
  B  B7  1  0.500000  0.168335  0.500000  1
  B  B8  1  0.831665  0.500000  0.500000  1
  B  B9  1  0.168335  0.831665  0.500000  1
  B  B10  1  0.168335  0.500000  0.500000  1
  B  B11  1  0.831665  0.168335  0.500000  1
  B  B12  1  0.500000  0.831665  0.500000  1
