# generated using pymatgen
data_Eu6SnO12
_symmetry_space_group_name_H-M   'P 1'
_cell_length_a   6.64700531
_cell_length_b   6.64700417
_cell_length_c   6.64700485
_cell_angle_alpha   99.08205528
_cell_angle_beta   99.08205716
_cell_angle_gamma   99.08204503
_symmetry_Int_Tables_number   1
_chemical_formula_structural   Eu6SnO12
_chemical_formula_sum   'Eu6 Sn1 O12'
_cell_volume   281.28972252
_cell_formula_units_Z   1
loop_
 _symmetry_equiv_pos_site_id
 _symmetry_equiv_pos_as_xyz
  1  'x, y, z'
loop_
 _atom_site_type_symbol
 _atom_site_label
 _atom_site_symmetry_multiplicity
 _atom_site_fract_x
 _atom_site_fract_y
 _atom_site_fract_z
 _atom_site_occupancy
  Eu  Eu0  1  0.136444  0.296601  0.602505  1
  Eu  Eu1  1  0.397495  0.863556  0.703399  1
  Eu  Eu2  1  0.703399  0.397495  0.863556  1
  Eu  Eu3  1  0.296601  0.602505  0.136444  1
  Eu  Eu4  1  0.602505  0.136444  0.296601  1
  Eu  Eu5  1  0.863556  0.703399  0.397495  1
  Sn  Sn6  1  0.000000  0.000000  0.000000  1
  O  O7  1  0.066151  0.307534  0.951790  1
  O  O8  1  0.048210  0.933849  0.692466  1
  O  O9  1  0.409567  0.564877  0.823062  1
  O  O10  1  0.176938  0.590433  0.435123  1
  O  O11  1  0.692466  0.048210  0.933849  1
  O  O12  1  0.435123  0.176938  0.590433  1
  O  O13  1  0.564877  0.823062  0.409567  1
  O  O14  1  0.307534  0.951790  0.066151  1
  O  O15  1  0.823062  0.409567  0.564877  1
  O  O16  1  0.590433  0.435123  0.176938  1
  O  O17  1  0.951790  0.066151  0.307534  1
  O  O18  1  0.933849  0.692466  0.048210  1
