# generated using pymatgen
data_Mn2Nb12Fe3Si7N4
_symmetry_space_group_name_H-M   'P 1'
_cell_length_a   8.03320924
_cell_length_b   8.03320937
_cell_length_c   8.01838838
_cell_angle_alpha   60.46755757
_cell_angle_beta   60.46755245
_cell_angle_gamma   60.49101746
_symmetry_Int_Tables_number   1
_chemical_formula_structural   Mn2Nb12Fe3Si7N4
_chemical_formula_sum   'Mn2 Nb12 Fe3 Si7 N4'
_cell_volume   369.82126685
_cell_formula_units_Z   1
loop_
 _symmetry_equiv_pos_site_id
 _symmetry_equiv_pos_as_xyz
  1  'x, y, z'
loop_
 _atom_site_type_symbol
 _atom_site_label
 _atom_site_symmetry_multiplicity
 _atom_site_fract_x
 _atom_site_fract_y
 _atom_site_fract_z
 _atom_site_occupancy
  Mn  Mn0  1  0.133157  0.620773  0.619921  1
  Mn  Mn1  1  0.620773  0.133157  0.619921  1
  Nb  Nb2  1  0.802938  0.802938  0.196065  1
  Nb  Nb3  1  0.196871  0.196871  0.803440  1
  Nb  Nb4  1  0.803020  0.197101  0.802850  1
  Nb  Nb5  1  0.195881  0.804323  0.196025  1
  Nb  Nb6  1  0.197101  0.803020  0.802850  1
  Nb  Nb7  1  0.804323  0.195881  0.196025  1
  Nb  Nb8  1  0.445429  0.445429  0.054703  1
  Nb  Nb9  1  0.053169  0.053169  0.448062  1
  Nb  Nb10  1  0.446675  0.054373  0.446439  1
  Nb  Nb11  1  0.052609  0.448256  0.052711  1
  Nb  Nb12  1  0.054373  0.446675  0.446439  1
  Nb  Nb13  1  0.448256  0.052609  0.052711  1
  Fe  Fe14  1  0.619072  0.619072  0.137144  1
  Fe  Fe15  1  0.623750  0.623750  0.623427  1
  Fe  Fe16  1  0.827540  0.827540  0.826057  1
  Si  Si17  1  0.750370  0.416710  0.415693  1
  Si  Si18  1  0.416710  0.750370  0.415693  1
  Si  Si19  1  0.416426  0.416426  0.750590  1
  Si  Si20  1  0.417288  0.417288  0.414856  1
  Si  Si21  1  0.508496  0.832316  0.836080  1
  Si  Si22  1  0.832316  0.508496  0.836080  1
  Si  Si23  1  0.833964  0.833964  0.506859  1
  N  N24  1  0.628303  0.122664  0.123225  1
  N  N25  1  0.122664  0.628303  0.123225  1
  N  N26  1  0.123359  0.123359  0.628188  1
  N  N27  1  0.125167  0.125167  0.124723  1
