# generated using pymatgen
data_Li2DyPaPt2
_symmetry_space_group_name_H-M   'P 1'
_cell_length_a   3.99716100
_cell_length_b   7.05538100
_cell_length_c   8.38171600
_cell_angle_alpha   90.00000000
_cell_angle_beta   90.00000000
_cell_angle_gamma   90.00000000
_symmetry_Int_Tables_number   1
_chemical_formula_structural   Li2DyPaPt2
_chemical_formula_sum   'Li4 Dy2 Pa2 Pt4'
_cell_volume   236.37691158
_cell_formula_units_Z   2
loop_
 _symmetry_equiv_pos_site_id
 _symmetry_equiv_pos_as_xyz
  1  'x, y, z'
loop_
 _atom_site_type_symbol
 _atom_site_label
 _atom_site_symmetry_multiplicity
 _atom_site_fract_x
 _atom_site_fract_y
 _atom_site_fract_z
 _atom_site_occupancy
  Li  Li0  1  0.250000  0.374363  0.560171  1
  Li  Li1  1  0.250000  0.874363  0.939829  1
  Li  Li2  1  0.750000  0.620845  0.446062  1
  Li  Li3  1  0.750000  0.120845  0.053938  1
  Dy  Dy4  1  0.750000  0.054581  0.687813  1
  Dy  Dy5  1  0.750000  0.554581  0.812187  1
  Pa  Pa6  1  0.250000  0.950230  0.313839  1
  Pa  Pa7  1  0.250000  0.450230  0.186161  1
  Pt  Pt8  1  0.250000  0.265509  0.888509  1
  Pt  Pt9  1  0.250000  0.765509  0.611491  1
  Pt  Pt10  1  0.750000  0.734472  0.137073  1
  Pt  Pt11  1  0.750000  0.234472  0.362927  1
