# generated using pymatgen
data_Dy7Er13(FeBi5)2
_symmetry_space_group_name_H-M   'P 1'
_cell_length_a   8.04635625
_cell_length_b   9.36608400
_cell_length_c   12.09006000
_cell_angle_alpha   90.00000000
_cell_angle_beta   90.03195775
_cell_angle_gamma   90.00000000
_symmetry_Int_Tables_number   1
_chemical_formula_structural   Dy7Er13(FeBi5)2
_chemical_formula_sum   'Dy7 Er13 Fe2 Bi10'
_cell_volume   911.14121897
_cell_formula_units_Z   1
loop_
 _symmetry_equiv_pos_site_id
 _symmetry_equiv_pos_as_xyz
  1  'x, y, z'
loop_
 _atom_site_type_symbol
 _atom_site_label
 _atom_site_symmetry_multiplicity
 _atom_site_fract_x
 _atom_site_fract_y
 _atom_site_fract_z
 _atom_site_occupancy
  Dy  Dy0  1  0.574624  0.500000  0.772157  1
  Dy  Dy1  1  0.425276  0.500000  0.272239  1
  Dy  Dy2  1  0.906135  0.000000  0.201463  1
  Dy  Dy3  1  0.256710  0.500000  0.993643  1
  Dy  Dy4  1  0.743500  0.500000  0.494159  1
  Dy  Dy5  1  0.089964  0.500000  0.718811  1
  Dy  Dy6  1  0.909849  0.500000  0.219064  1
  Er  Er7  1  0.431282  0.177475  0.563156  1
  Er  Er8  1  0.568237  0.822400  0.062712  1
  Er  Er9  1  0.075113  0.732102  0.436775  1
  Er  Er10  1  0.924950  0.268239  0.936365  1
  Er  Er11  1  0.075113  0.267898  0.436775  1
  Er  Er12  1  0.924950  0.731761  0.936365  1
  Er  Er13  1  0.431282  0.822525  0.563156  1
  Er  Er14  1  0.568237  0.177600  0.062712  1
  Er  Er15  1  0.094377  0.000000  0.700899  1
  Er  Er16  1  0.193860  0.000000  0.994275  1
  Er  Er17  1  0.806463  0.000000  0.494879  1
  Er  Er18  1  0.367433  0.000000  0.309898  1
  Er  Er19  1  0.633223  0.000000  0.809963  1
  Fe  Fe20  1  0.176139  0.000000  0.488945  1
  Fe  Fe21  1  0.824060  0.000000  0.988980  1
  Bi  Bi22  1  0.815767  0.742972  0.671241  1
  Bi  Bi23  1  0.184563  0.257347  0.171010  1
  Bi  Bi24  1  0.678317  0.241084  0.325861  1
  Bi  Bi25  1  0.320887  0.759343  0.825437  1
  Bi  Bi26  1  0.678317  0.758916  0.325861  1
  Bi  Bi27  1  0.320887  0.240657  0.825437  1
  Bi  Bi28  1  0.815767  0.257028  0.671241  1
  Bi  Bi29  1  0.184563  0.742653  0.171010  1
  Bi  Bi30  1  0.347173  0.500000  0.527792  1
  Bi  Bi31  1  0.652979  0.500000  0.027721  1
