# generated using pymatgen
data_Hf6Co16Si11Tc2P
_symmetry_space_group_name_H-M   'P 1'
_cell_length_a   12.10283201
_cell_length_b   12.06402029
_cell_length_c   3.67562100
_cell_angle_alpha   90.00000000
_cell_angle_beta   90.00000000
_cell_angle_gamma   119.89398397
_symmetry_Int_Tables_number   1
_chemical_formula_structural   Hf6Co16Si11Tc2P
_chemical_formula_sum   'Hf6 Co16 Si11 Tc2 P1'
_cell_volume   465.26821079
_cell_formula_units_Z   1
loop_
 _symmetry_equiv_pos_site_id
 _symmetry_equiv_pos_as_xyz
  1  'x, y, z'
loop_
 _atom_site_type_symbol
 _atom_site_label
 _atom_site_symmetry_multiplicity
 _atom_site_fract_x
 _atom_site_fract_y
 _atom_site_fract_z
 _atom_site_occupancy
  Hf  Hf0  1  0.809807  0.811962  0.500000  1
  Hf  Hf1  1  0.000000  0.177549  0.500000  1
  Hf  Hf2  1  0.338005  0.668421  0.000000  1
  Hf  Hf3  1  0.661995  0.330415  0.000000  1
  Hf  Hf4  1  0.000000  0.558696  0.000000  1
  Hf  Hf5  1  0.190193  0.002155  0.500000  1
  Co  Co6  1  0.624994  0.821999  0.000000  1
  Co  Co7  1  0.375006  0.197005  0.000000  1
  Co  Co8  1  0.000000  0.726636  0.500000  1
  Co  Co9  1  0.277814  0.276256  0.500000  1
  Co  Co10  1  0.875112  0.353946  0.500000  1
  Co  Co11  1  0.722186  0.998441  0.500000  1
  Co  Co12  1  0.820138  0.629458  0.000000  1
  Co  Co13  1  0.179862  0.809320  0.000000  1
  Co  Co14  1  0.358281  0.882200  0.500000  1
  Co  Co15  1  0.124888  0.478835  0.500000  1
  Co  Co16  1  0.641719  0.523919  0.500000  1
  Co  Co17  1  0.000000  0.994308  0.000000  1
  Co  Co18  1  0.517978  0.647188  0.500000  1
  Co  Co19  1  0.482022  0.129211  0.500000  1
  Co  Co20  1  0.196932  0.371139  0.000000  1
  Co  Co21  1  0.803068  0.174207  0.000000  1
  Si  Si22  1  0.000000  0.345751  0.000000  1
  Si  Si23  1  0.821226  0.514861  0.500000  1
  Si  Si24  1  0.685374  0.166365  0.500000  1
  Si  Si25  1  0.178085  0.175380  0.000000  1
  Si  Si26  1  0.635353  0.639392  0.000000  1
  Si  Si27  1  0.821915  0.997295  0.000000  1
  Si  Si28  1  0.518348  0.836684  0.500000  1
  Si  Si29  1  0.178774  0.693633  0.500000  1
  Si  Si30  1  0.364647  0.004039  0.000000  1
  Si  Si31  1  0.481652  0.318336  0.500000  1
  Si  Si32  1  0.314626  0.480990  0.500000  1
  Tc  Tc33  1  0.439496  0.441500  0.000000  1
  Tc  Tc34  1  0.560504  0.002005  0.000000  1
  P  P35  1  0.000000  0.820504  0.000000  1
