# generated using pymatgen
data_Sm7YTiPd24
_symmetry_space_group_name_H-M   'P 1'
_cell_length_a   8.43750506
_cell_length_b   8.43750506
_cell_length_c   8.43750506
_cell_angle_alpha   89.99041126
_cell_angle_beta   89.99041126
_cell_angle_gamma   89.99041126
_symmetry_Int_Tables_number   1
_chemical_formula_structural   Sm7YTiPd24
_chemical_formula_sum   'Sm7 Y1 Ti1 Pd24'
_cell_volume   600.67854549
_cell_formula_units_Z   1
loop_
 _symmetry_equiv_pos_site_id
 _symmetry_equiv_pos_as_xyz
  1  'x, y, z'
loop_
 _atom_site_type_symbol
 _atom_site_label
 _atom_site_symmetry_multiplicity
 _atom_site_fract_x
 _atom_site_fract_y
 _atom_site_fract_z
 _atom_site_occupancy
  Sm  Sm0  1  0.747379  0.747379  0.747379  1
  Sm  Sm1  1  0.747271  0.747271  0.252730  1
  Sm  Sm2  1  0.747271  0.252730  0.747271  1
  Sm  Sm3  1  0.252625  0.252625  0.747347  1
  Sm  Sm4  1  0.252625  0.747347  0.252625  1
  Sm  Sm5  1  0.252730  0.747271  0.747271  1
  Sm  Sm6  1  0.747347  0.252625  0.252625  1
  Y  Y7  1  0.252715  0.252715  0.252715  1
  Ti  Ti8  1  0.000352  0.000352  0.000352  1
  Pd  Pd9  1  0.262440  0.499357  0.000771  1
  Pd  Pd10  1  0.737539  0.499924  0.000022  1
  Pd  Pd11  1  0.000771  0.262440  0.499357  1
  Pd  Pd12  1  0.499357  0.262440  0.000771  1
  Pd  Pd13  1  0.000022  0.737539  0.499924  1
  Pd  Pd14  1  0.499924  0.737539  0.000022  1
  Pd  Pd15  1  0.499357  0.000771  0.262440  1
  Pd  Pd16  1  0.262440  0.000771  0.499357  1
  Pd  Pd17  1  0.499924  0.000022  0.737539  1
  Pd  Pd18  1  0.737539  0.000022  0.499924  1
  Pd  Pd19  1  0.000771  0.499357  0.262440  1
  Pd  Pd20  1  0.000022  0.499924  0.737539  1
  Pd  Pd21  1  0.253436  0.499226  0.499226  1
  Pd  Pd22  1  0.746534  0.499947  0.499947  1
  Pd  Pd23  1  0.499226  0.253436  0.499226  1
  Pd  Pd24  1  0.499947  0.746534  0.499947  1
  Pd  Pd25  1  0.499226  0.499226  0.253436  1
  Pd  Pd26  1  0.499947  0.499947  0.746534  1
  Pd  Pd27  1  0.296481  0.000691  0.000691  1
  Pd  Pd28  1  0.703385  0.000006  0.000006  1
  Pd  Pd29  1  0.000691  0.296481  0.000691  1
  Pd  Pd30  1  0.000006  0.703385  0.000006  1
  Pd  Pd31  1  0.000691  0.000691  0.296481  1
  Pd  Pd32  1  0.000006  0.000006  0.703385  1
