# generated using pymatgen
data_Y8Nb11Si16Pd
_symmetry_space_group_name_H-M   'P 1'
_cell_length_a   7.07079587
_cell_length_b   7.07079656
_cell_length_c   13.03005600
_cell_angle_alpha   89.77021004
_cell_angle_beta   90.22978998
_cell_angle_gamma   89.70283179
_symmetry_Int_Tables_number   1
_chemical_formula_structural   Y8Nb11Si16Pd
_chemical_formula_sum   'Y8 Nb11 Si16 Pd1'
_cell_volume   651.43345777
_cell_formula_units_Z   1
loop_
 _symmetry_equiv_pos_site_id
 _symmetry_equiv_pos_as_xyz
  1  'x, y, z'
loop_
 _atom_site_type_symbol
 _atom_site_label
 _atom_site_symmetry_multiplicity
 _atom_site_fract_x
 _atom_site_fract_y
 _atom_site_fract_z
 _atom_site_occupancy
  Y  Y0  1  0.998431  0.341148  0.215921  1
  Y  Y1  1  0.003905  0.658578  0.717946  1
  Y  Y2  1  0.159240  0.498589  0.467027  1
  Y  Y3  1  0.498477  0.842873  0.032407  1
  Y  Y4  1  0.842873  0.498477  0.967593  1
  Y  Y5  1  0.498589  0.159240  0.532973  1
  Y  Y6  1  0.341148  0.998431  0.784079  1
  Y  Y7  1  0.658578  0.003905  0.282054  1
  Nb  Nb8  1  0.829376  0.829376  0.500000  1
  Nb  Nb9  1  0.326566  0.673156  0.248182  1
  Nb  Nb10  1  0.673156  0.326566  0.751818  1
  Nb  Nb11  1  0.152160  0.995357  0.375711  1
  Nb  Nb12  1  0.844271  0.004823  0.877381  1
  Nb  Nb13  1  0.508461  0.652581  0.626249  1
  Nb  Nb14  1  0.348628  0.493411  0.875477  1
  Nb  Nb15  1  0.493411  0.348628  0.124523  1
  Nb  Nb16  1  0.652581  0.508461  0.373751  1
  Nb  Nb17  1  0.995357  0.152160  0.624289  1
  Nb  Nb18  1  0.004823  0.844271  0.122619  1
  Si  Si19  1  0.291285  0.048144  0.186608  1
  Si  Si20  1  0.707083  0.955091  0.687590  1
  Si  Si21  1  0.454437  0.794724  0.436258  1
  Si  Si22  1  0.210445  0.550878  0.061819  1
  Si  Si23  1  0.550878  0.210445  0.938181  1
  Si  Si24  1  0.794724  0.454437  0.563742  1
  Si  Si25  1  0.048144  0.291285  0.813392  1
  Si  Si26  1  0.955091  0.707083  0.312410  1
  Si  Si27  1  0.365317  0.297414  0.316275  1
  Si  Si28  1  0.633277  0.703980  0.817514  1
  Si  Si29  1  0.206257  0.866133  0.567807  1
  Si  Si30  1  0.128273  0.787725  0.931253  1
  Si  Si31  1  0.787725  0.128273  0.068747  1
  Si  Si32  1  0.866133  0.206257  0.432193  1
  Si  Si33  1  0.297414  0.365317  0.683725  1
  Si  Si34  1  0.703980  0.633277  0.182486  1
  Pd  Pd35  1  0.169507  0.169507  0.000000  1
