# generated using pymatgen
data_Ac3LaRu4F28
_symmetry_space_group_name_H-M   'P 1'
_cell_length_a   5.88496967
_cell_length_b   9.54924716
_cell_length_c   12.62735753
_cell_angle_alpha   62.52959379
_cell_angle_beta   90.02112704
_cell_angle_gamma   89.93573205
_symmetry_Int_Tables_number   1
_chemical_formula_structural   Ac3LaRu4F28
_chemical_formula_sum   'Ac3 La1 Ru4 F28'
_cell_volume   629.60906542
_cell_formula_units_Z   1
loop_
 _symmetry_equiv_pos_site_id
 _symmetry_equiv_pos_as_xyz
  1  'x, y, z'
loop_
 _atom_site_type_symbol
 _atom_site_label
 _atom_site_symmetry_multiplicity
 _atom_site_fract_x
 _atom_site_fract_y
 _atom_site_fract_z
 _atom_site_occupancy
  Ac  Ac0  1  0.757862  0.804000  0.269121  1
  Ac  Ac1  1  0.257550  0.194701  0.231173  1
  Ac  Ac2  1  0.242101  0.190990  0.732054  1
  La  La3  1  0.741171  0.804641  0.769074  1
  Ru  Ru4  1  0.244985  0.726935  0.547255  1
  Ru  Ru5  1  0.745506  0.276342  0.954478  1
  Ru  Ru6  1  0.753447  0.271599  0.457234  1
  Ru  Ru7  1  0.254115  0.727286  0.040999  1
  F  F8  1  0.972288  0.713269  0.461079  1
  F  F9  1  0.470254  0.288436  0.039319  1
  F  F10  1  0.029293  0.285549  0.541385  1
  F  F11  1  0.529848  0.715299  0.954902  1
  F  F12  1  0.056051  0.709940  0.921766  1
  F  F13  1  0.559495  0.291215  0.576704  1
  F  F14  1  0.939299  0.293219  0.075113  1
  F  F15  1  0.440249  0.708634  0.427577  1
  F  F16  1  0.740484  0.502055  0.863235  1
  F  F17  1  0.240740  0.501335  0.637830  1
  F  F18  1  0.260745  0.502085  0.132976  1
  F  F19  1  0.758915  0.497374  0.365354  1
  F  F20  1  0.742358  0.051841  0.043873  1
  F  F21  1  0.241476  0.951427  0.456802  1
  F  F22  1  0.256944  0.952390  0.953397  1
  F  F23  1  0.757842  0.047617  0.546055  1
  F  F24  1  0.046960  0.746436  0.666902  1
  F  F25  1  0.553213  0.257791  0.833387  1
  F  F26  1  0.945174  0.255539  0.335202  1
  F  F27  1  0.447436  0.743991  0.162652  1
  F  F28  1  0.017147  0.267510  0.866409  1
  F  F29  1  0.516688  0.735021  0.636750  1
  F  F30  1  0.984272  0.733186  0.131037  1
  F  F31  1  0.481520  0.266897  0.368189  1
  F  F32  1  0.088074  0.968370  0.231002  1
  F  F33  1  0.588680  0.030466  0.269344  1
  F  F34  1  0.911789  0.020890  0.767996  1
  F  F35  1  0.426030  0.965725  0.732375  1
