# generated using pymatgen
data_Li4Ca3PrSi7Ge
_symmetry_space_group_name_H-M   'P 1'
_cell_length_a   3.83483900
_cell_length_b   7.90712457
_cell_length_c   10.62107254
_cell_angle_alpha   89.91618407
_cell_angle_beta   90.00000000
_cell_angle_gamma   90.00000000
_symmetry_Int_Tables_number   1
_chemical_formula_structural   Li4Ca3PrSi7Ge
_chemical_formula_sum   'Li4 Ca3 Pr1 Si7 Ge1'
_cell_volume   322.05765527
_cell_formula_units_Z   1
loop_
 _symmetry_equiv_pos_site_id
 _symmetry_equiv_pos_as_xyz
  1  'x, y, z'
loop_
 _atom_site_type_symbol
 _atom_site_label
 _atom_site_symmetry_multiplicity
 _atom_site_fract_x
 _atom_site_fract_y
 _atom_site_fract_z
 _atom_site_occupancy
  Li  Li0  1  0.250000  0.998073  0.388328  1
  Li  Li1  1  0.750000  0.001039  0.609656  1
  Li  Li2  1  0.250000  0.496953  0.112513  1
  Li  Li3  1  0.750000  0.503179  0.887669  1
  Ca  Ca4  1  0.750000  0.867434  0.136363  1
  Ca  Ca5  1  0.250000  0.634844  0.635314  1
  Ca  Ca6  1  0.750000  0.365895  0.364994  1
  Pr  Pr7  1  0.250000  0.133112  0.864933  1
  Si  Si8  1  0.750000  0.270018  0.068386  1
  Si  Si9  1  0.750000  0.767902  0.431802  1
  Si  Si10  1  0.250000  0.229852  0.568686  1
  Si  Si11  1  0.750000  0.836591  0.820682  1
  Si  Si12  1  0.250000  0.165678  0.174249  1
  Si  Si13  1  0.750000  0.333887  0.675496  1
  Si  Si14  1  0.250000  0.666052  0.325186  1
  Ge  Ge15  1  0.250000  0.729491  0.935743  1
