# generated using pymatgen
data_Sm4IrWO12
_symmetry_space_group_name_H-M   'P 1'
_cell_length_a   5.35687100
_cell_length_b   9.25110034
_cell_length_c   10.04787500
_cell_angle_alpha   90.00000000
_cell_angle_beta   90.00000000
_cell_angle_gamma   90.19272663
_symmetry_Int_Tables_number   1
_chemical_formula_structural   Sm4IrWO12
_chemical_formula_sum   'Sm8 Ir2 W2 O24'
_cell_volume   497.93923312
_cell_formula_units_Z   2
loop_
 _symmetry_equiv_pos_site_id
 _symmetry_equiv_pos_as_xyz
  1  'x, y, z'
loop_
 _atom_site_type_symbol
 _atom_site_label
 _atom_site_symmetry_multiplicity
 _atom_site_fract_x
 _atom_site_fract_y
 _atom_site_fract_z
 _atom_site_occupancy
  Sm  Sm0  1  0.035503  0.218932  0.132296  1
  Sm  Sm1  1  0.464497  0.781068  0.632296  1
  Sm  Sm2  1  0.964478  0.719667  0.369332  1
  Sm  Sm3  1  0.535522  0.280333  0.869332  1
  Sm  Sm4  1  0.025793  0.105585  0.538134  1
  Sm  Sm5  1  0.474207  0.894415  0.038134  1
  Sm  Sm6  1  0.976001  0.601187  0.963529  1
  Sm  Sm7  1  0.523999  0.398813  0.463529  1
  Ir  Ir8  1  0.455806  0.503060  0.144979  1
  Ir  Ir9  1  0.044194  0.496940  0.644979  1
  W  W10  1  0.542415  0.004735  0.352807  1
  W  W11  1  0.957585  0.995265  0.852807  1
  O  O12  1  0.427596  0.154644  0.475763  1
  O  O13  1  0.072404  0.845356  0.975763  1
  O  O14  1  0.568714  0.650402  0.019716  1
  O  O15  1  0.931286  0.349598  0.519716  1
  O  O16  1  0.728466  0.386232  0.065886  1
  O  O17  1  0.771534  0.613768  0.565886  1
  O  O18  1  0.273874  0.887930  0.436692  1
  O  O19  1  0.226126  0.112070  0.936692  1
  O  O20  1  0.246286  0.409802  0.004336  1
  O  O21  1  0.253714  0.590198  0.504336  1
  O  O22  1  0.751473  0.911566  0.494713  1
  O  O23  1  0.748527  0.088434  0.994713  1
  O  O24  1  0.181406  0.635327  0.181079  1
  O  O25  1  0.318594  0.364673  0.681079  1
  O  O26  1  0.816576  0.138087  0.322012  1
  O  O27  1  0.683424  0.861913  0.822012  1
  O  O28  1  0.325188  0.047925  0.209791  1
  O  O29  1  0.174812  0.952075  0.709791  1
  O  O30  1  0.666999  0.555886  0.289513  1
  O  O31  1  0.833001  0.444114  0.789513  1
  O  O32  1  0.317827  0.357563  0.261285  1
  O  O33  1  0.182173  0.642437  0.761285  1
  O  O34  1  0.689091  0.861302  0.238137  1
  O  O35  1  0.810909  0.138698  0.738137  1
