# generated using pymatgen
data_Dy9Tm11(Bi2Ru)4
_symmetry_space_group_name_H-M   'P 1'
_cell_length_a   7.90951926
_cell_length_b   8.98166500
_cell_length_c   12.41488895
_cell_angle_alpha   90.00000000
_cell_angle_beta   89.93556524
_cell_angle_gamma   90.00000000
_symmetry_Int_Tables_number   1
_chemical_formula_structural   Dy9Tm11(Bi2Ru)4
_chemical_formula_sum   'Dy9 Tm11 Bi8 Ru4'
_cell_volume   881.96125141
_cell_formula_units_Z   1
loop_
 _symmetry_equiv_pos_site_id
 _symmetry_equiv_pos_as_xyz
  1  'x, y, z'
loop_
 _atom_site_type_symbol
 _atom_site_label
 _atom_site_symmetry_multiplicity
 _atom_site_fract_x
 _atom_site_fract_y
 _atom_site_fract_z
 _atom_site_occupancy
  Dy  Dy0  1  0.657045  0.750000  0.292675  1
  Dy  Dy1  1  0.376462  0.750000  0.691473  1
  Dy  Dy2  1  0.623695  0.250000  0.308438  1
  Dy  Dy3  1  0.876565  0.250000  0.808519  1
  Dy  Dy4  1  0.123968  0.750000  0.191465  1
  Dy  Dy5  1  0.946482  0.750000  0.504763  1
  Dy  Dy6  1  0.054648  0.250000  0.495762  1
  Dy  Dy7  1  0.445128  0.250000  0.995575  1
  Dy  Dy8  1  0.554399  0.750000  0.004062  1
  Tm  Tm9  1  0.843412  0.750000  0.793744  1
  Tm  Tm10  1  0.156517  0.250000  0.206195  1
  Tm  Tm11  1  0.343268  0.250000  0.706369  1
  Tm  Tm12  1  0.672822  0.042785  0.564473  1
  Tm  Tm13  1  0.326607  0.957980  0.436003  1
  Tm  Tm14  1  0.172763  0.957465  0.935714  1
  Tm  Tm15  1  0.326607  0.542020  0.436003  1
  Tm  Tm16  1  0.827388  0.042696  0.064167  1
  Tm  Tm17  1  0.672822  0.457215  0.564473  1
  Tm  Tm18  1  0.827388  0.457304  0.064167  1
  Tm  Tm19  1  0.172763  0.542535  0.935714  1
  Bi  Bi20  1  0.568468  0.493122  0.826636  1
  Bi  Bi21  1  0.430747  0.506014  0.172921  1
  Bi  Bi22  1  0.068326  0.506889  0.673263  1
  Bi  Bi23  1  0.430747  0.993986  0.172921  1
  Bi  Bi24  1  0.932439  0.492368  0.326853  1
  Bi  Bi25  1  0.568468  0.006878  0.826636  1
  Bi  Bi26  1  0.932439  0.007632  0.326853  1
  Bi  Bi27  1  0.068326  0.993111  0.673263  1
  Ru  Ru28  1  0.572007  0.750000  0.510250  1
  Ru  Ru29  1  0.427292  0.250000  0.490749  1
  Ru  Ru30  1  0.072546  0.250000  0.990713  1
  Ru  Ru31  1  0.927446  0.750000  0.009187  1
