# generated using pymatgen
data_Pr2NdHoAu2
_symmetry_space_group_name_H-M   'P 1'
_cell_length_a   5.04891400
_cell_length_b   7.35501807
_cell_length_c   9.25481511
_cell_angle_alpha   89.94840328
_cell_angle_beta   90.00000000
_cell_angle_gamma   90.00000000
_symmetry_Int_Tables_number   1
_chemical_formula_structural   Pr2NdHoAu2
_chemical_formula_sum   'Pr4 Nd2 Ho2 Au4'
_cell_volume   343.67606549
_cell_formula_units_Z   2
loop_
 _symmetry_equiv_pos_site_id
 _symmetry_equiv_pos_as_xyz
  1  'x, y, z'
loop_
 _atom_site_type_symbol
 _atom_site_label
 _atom_site_symmetry_multiplicity
 _atom_site_fract_x
 _atom_site_fract_y
 _atom_site_fract_z
 _atom_site_occupancy
  Pr  Pr0  1  0.250000  0.489360  0.175607  1
  Pr  Pr1  1  0.750000  0.510640  0.824393  1
  Pr  Pr2  1  0.250000  0.990759  0.322964  1
  Pr  Pr3  1  0.750000  0.009241  0.677036  1
  Nd  Nd4  1  0.750000  0.650603  0.412623  1
  Nd  Nd5  1  0.250000  0.349397  0.587377  1
  Ho  Ho6  1  0.750000  0.148758  0.078295  1
  Ho  Ho7  1  0.250000  0.851242  0.921705  1
  Au  Au8  1  0.250000  0.243794  0.909539  1
  Au  Au9  1  0.750000  0.756206  0.090461  1
  Au  Au10  1  0.250000  0.757797  0.607985  1
  Au  Au11  1  0.750000  0.242203  0.392015  1
