# generated using pymatgen
data_Sc8Ta3Ti8Si16Mo
_symmetry_space_group_name_H-M   'P 1'
_cell_length_a   6.68378452
_cell_length_b   6.82541765
_cell_length_c   13.00631900
_cell_angle_alpha   90.00000000
_cell_angle_beta   90.00000000
_cell_angle_gamma   90.03224406
_symmetry_Int_Tables_number   1
_chemical_formula_structural   Sc8Ta3Ti8Si16Mo
_chemical_formula_sum   'Sc8 Ta3 Ti8 Si16 Mo1'
_cell_volume   593.34324662
_cell_formula_units_Z   1
loop_
 _symmetry_equiv_pos_site_id
 _symmetry_equiv_pos_as_xyz
  1  'x, y, z'
loop_
 _atom_site_type_symbol
 _atom_site_label
 _atom_site_symmetry_multiplicity
 _atom_site_fract_x
 _atom_site_fract_y
 _atom_site_fract_z
 _atom_site_occupancy
  Sc  Sc0  1  0.502683  0.325553  0.096361  1
  Sc  Sc1  1  0.002980  0.175118  0.403462  1
  Sc  Sc2  1  0.496400  0.674330  0.595570  1
  Sc  Sc3  1  0.996421  0.824665  0.904408  1
  Sc  Sc4  1  0.496400  0.674330  0.904430  1
  Sc  Sc5  1  0.996421  0.824665  0.595592  1
  Sc  Sc6  1  0.502683  0.325553  0.403639  1
  Sc  Sc7  1  0.002980  0.175118  0.096538  1
  Ta  Ta8  1  0.660914  0.007510  0.750000  1
  Ta  Ta9  1  0.160654  0.493059  0.750000  1
  Ta  Ta10  1  0.339195  0.991956  0.250000  1
  Ti  Ti11  1  0.834023  0.325920  0.625595  1
  Ti  Ti12  1  0.334841  0.174450  0.874158  1
  Ti  Ti13  1  0.165530  0.673349  0.126746  1
  Ti  Ti14  1  0.666298  0.825817  0.373629  1
  Ti  Ti15  1  0.165530  0.673349  0.373254  1
  Ti  Ti16  1  0.666298  0.825817  0.126371  1
  Ti  Ti17  1  0.834023  0.325920  0.874405  1
  Ti  Ti18  1  0.334841  0.174450  0.625842  1
  Si  Si19  1  0.664339  0.034114  0.539963  1
  Si  Si20  1  0.164757  0.465355  0.960327  1
  Si  Si21  1  0.335342  0.965552  0.040114  1
  Si  Si22  1  0.835823  0.534356  0.458387  1
  Si  Si23  1  0.335342  0.965552  0.459886  1
  Si  Si24  1  0.835823  0.534356  0.041613  1
  Si  Si25  1  0.664339  0.034114  0.960037  1
  Si  Si26  1  0.164757  0.465355  0.539673  1
  Si  Si27  1  0.537182  0.384691  0.750000  1
  Si  Si28  1  0.037412  0.116161  0.750000  1
  Si  Si29  1  0.466052  0.613406  0.250000  1
  Si  Si30  1  0.962076  0.883814  0.250000  1
  Si  Si31  1  0.792370  0.635957  0.750000  1
  Si  Si32  1  0.292234  0.864401  0.750000  1
  Si  Si33  1  0.204856  0.364552  0.250000  1
  Si  Si34  1  0.707936  0.138638  0.250000  1
  Mo  Mo35  1  0.840242  0.508700  0.250000  1
