# generated using pymatgen
data_Ho2Co9Si7Mo3
_symmetry_space_group_name_H-M   'P 1'
_cell_length_a   3.69707300
_cell_length_b   9.31054965
_cell_length_c   9.31054900
_cell_angle_alpha   119.99999413
_cell_angle_beta   90.00000000
_cell_angle_gamma   90.00000000
_symmetry_Int_Tables_number   1
_chemical_formula_structural   Ho2Co9Si7Mo3
_chemical_formula_sum   'Ho2 Co9 Si7 Mo3'
_cell_volume   277.54876165
_cell_formula_units_Z   1
loop_
 _symmetry_equiv_pos_site_id
 _symmetry_equiv_pos_as_xyz
  1  'x, y, z'
loop_
 _atom_site_type_symbol
 _atom_site_label
 _atom_site_symmetry_multiplicity
 _atom_site_fract_x
 _atom_site_fract_y
 _atom_site_fract_z
 _atom_site_occupancy
  Ho  Ho0  1  0.000000  0.666667  0.333333  1
  Ho  Ho1  1  0.500000  0.333333  0.666667  1
  Co  Co2  1  0.000000  0.571853  0.945833  1
  Co  Co3  1  0.000000  0.373981  0.428147  1
  Co  Co4  1  0.000000  0.054167  0.626019  1
  Co  Co5  1  0.000000  0.876546  0.157330  1
  Co  Co6  1  0.000000  0.280784  0.123454  1
  Co  Co7  1  0.000000  0.842670  0.719216  1
  Co  Co8  1  0.500000  0.949302  0.384669  1
  Co  Co9  1  0.500000  0.435366  0.050698  1
  Co  Co10  1  0.500000  0.615331  0.564634  1
  Si  Si11  1  0.000000  0.000000  0.000000  1
  Si  Si12  1  0.500000  0.708921  0.118435  1
  Si  Si13  1  0.500000  0.409515  0.291079  1
  Si  Si14  1  0.500000  0.881565  0.590485  1
  Si  Si15  1  0.000000  0.585417  0.696452  1
  Si  Si16  1  0.000000  0.111036  0.414583  1
  Si  Si17  1  0.000000  0.303548  0.888964  1
  Mo  Mo18  1  0.500000  0.780616  0.893829  1
  Mo  Mo19  1  0.500000  0.113213  0.219384  1
  Mo  Mo20  1  0.500000  0.106171  0.886787  1
