# generated using pymatgen
data_Tb2ScAs7Rh11
_symmetry_space_group_name_H-M   'P 1'
_cell_length_a   3.96045446
_cell_length_b   9.96645464
_cell_length_c   9.97559379
_cell_angle_alpha   119.36278833
_cell_angle_beta   90.00094329
_cell_angle_gamma   89.98991324
_symmetry_Int_Tables_number   1
_chemical_formula_structural   Tb2ScAs7Rh11
_chemical_formula_sum   'Tb2 Sc1 As7 Rh11'
_cell_volume   343.16898436
_cell_formula_units_Z   1
loop_
 _symmetry_equiv_pos_site_id
 _symmetry_equiv_pos_as_xyz
  1  'x, y, z'
loop_
 _atom_site_type_symbol
 _atom_site_label
 _atom_site_symmetry_multiplicity
 _atom_site_fract_x
 _atom_site_fract_y
 _atom_site_fract_z
 _atom_site_occupancy
  Tb  Tb0  1  0.261690  0.662655  0.327308  1
  Tb  Tb1  1  0.761910  0.333009  0.663889  1
  Sc  Sc2  1  0.762315  0.100262  0.882040  1
  As  As3  1  0.262557  0.986749  0.998462  1
  As  As4  1  0.761248  0.872102  0.581889  1
  As  As5  1  0.761832  0.407951  0.288149  1
  As  As6  1  0.762173  0.711172  0.112707  1
  As  As7  1  0.261755  0.117630  0.410712  1
  As  As8  1  0.261657  0.587227  0.703634  1
  As  As9  1  0.262071  0.299272  0.879835  1
  Rh  Rh10  1  0.761831  0.145261  0.251192  1
  Rh  Rh11  1  0.762171  0.798518  0.915183  1
  Rh  Rh12  1  0.262114  0.880678  0.164383  1
  Rh  Rh13  1  0.261017  0.836409  0.715122  1
  Rh  Rh14  1  0.262092  0.268193  0.115411  1
  Rh  Rh15  1  0.761418  0.607458  0.555877  1
  Rh  Rh16  1  0.762060  0.442229  0.057767  1
  Rh  Rh17  1  0.762038  0.941430  0.382351  1
  Rh  Rh18  1  0.261635  0.372834  0.436969  1
  Rh  Rh19  1  0.262142  0.562058  0.929867  1
  Rh  Rh20  1  0.262273  0.066904  0.627254  1
