# generated using pymatgen
data_Ta3Co2SiN
_symmetry_space_group_name_H-M   'P 1'
_cell_length_a   7.96503038
_cell_length_b   7.96502662
_cell_length_c   7.96505001
_cell_angle_alpha   60.00029231
_cell_angle_beta   60.00024249
_cell_angle_gamma   60.00022271
_symmetry_Int_Tables_number   1
_chemical_formula_structural   Ta3Co2SiN
_chemical_formula_sum   'Ta12 Co8 Si4 N4'
_cell_volume   357.31451872
_cell_formula_units_Z   4
loop_
 _symmetry_equiv_pos_site_id
 _symmetry_equiv_pos_as_xyz
  1  'x, y, z'
loop_
 _atom_site_type_symbol
 _atom_site_label
 _atom_site_symmetry_multiplicity
 _atom_site_fract_x
 _atom_site_fract_y
 _atom_site_fract_z
 _atom_site_occupancy
  Ta  Ta0  1  0.800139  0.800128  0.199864  1
  Ta  Ta1  1  0.199861  0.199860  0.800140  1
  Ta  Ta2  1  0.800136  0.199860  0.800138  1
  Ta  Ta3  1  0.199865  0.800128  0.199866  1
  Ta  Ta4  1  0.199859  0.800131  0.800145  1
  Ta  Ta5  1  0.800132  0.199866  0.199869  1
  Ta  Ta6  1  0.449861  0.449872  0.050136  1
  Ta  Ta7  1  0.050139  0.050140  0.449860  1
  Ta  Ta8  1  0.449864  0.050140  0.449862  1
  Ta  Ta9  1  0.050135  0.449872  0.050134  1
  Ta  Ta10  1  0.050141  0.449869  0.449855  1
  Ta  Ta11  1  0.449868  0.050134  0.050131  1
  Co  Co12  1  0.742461  0.419172  0.419179  1
  Co  Co13  1  0.419192  0.742434  0.419181  1
  Co  Co14  1  0.419186  0.419168  0.742460  1
  Co  Co15  1  0.419187  0.419170  0.419179  1
  Co  Co16  1  0.507539  0.830828  0.830821  1
  Co  Co17  1  0.830808  0.507566  0.830819  1
  Co  Co18  1  0.830814  0.830832  0.507540  1
  Co  Co19  1  0.830813  0.830830  0.830821  1
  Si  Si20  1  0.125000  0.625000  0.625000  1
  Si  Si21  1  0.625000  0.125000  0.625000  1
  Si  Si22  1  0.625000  0.625000  0.125000  1
  Si  Si23  1  0.625000  0.625000  0.625000  1
  N  N24  1  0.625000  0.125000  0.125000  1
  N  N25  1  0.125000  0.625000  0.125000  1
  N  N26  1  0.125000  0.125000  0.625000  1
  N  N27  1  0.125000  0.125000  0.125000  1
