# generated using pymatgen
data_Yb2PrPt9
_symmetry_space_group_name_H-M   'P 1'
_cell_length_a   9.39524609
_cell_length_b   9.39524655
_cell_length_c   9.39524590
_cell_angle_alpha   33.58559296
_cell_angle_beta   33.58559125
_cell_angle_gamma   33.58558947
_symmetry_Int_Tables_number   1
_chemical_formula_structural   Yb2PrPt9
_chemical_formula_sum   'Yb2 Pr1 Pt9'
_cell_volume   226.06004911
_cell_formula_units_Z   1
loop_
 _symmetry_equiv_pos_site_id
 _symmetry_equiv_pos_as_xyz
  1  'x, y, z'
loop_
 _atom_site_type_symbol
 _atom_site_label
 _atom_site_symmetry_multiplicity
 _atom_site_fract_x
 _atom_site_fract_y
 _atom_site_fract_z
 _atom_site_occupancy
  Yb  Yb0  1  0.142152  0.142152  0.142152  1
  Yb  Yb1  1  0.857848  0.857848  0.857848  1
  Pr  Pr2  1  0.000000  0.000000  0.000000  1
  Pt  Pt3  1  0.586754  0.586754  0.082192  1
  Pt  Pt4  1  0.332490  0.332490  0.332490  1
  Pt  Pt5  1  0.917809  0.413245  0.413246  1
  Pt  Pt6  1  0.413245  0.917809  0.413246  1
  Pt  Pt7  1  0.500000  0.500000  0.500000  1
  Pt  Pt8  1  0.586755  0.082191  0.586754  1
  Pt  Pt9  1  0.082191  0.586755  0.586754  1
  Pt  Pt10  1  0.667510  0.667510  0.667510  1
  Pt  Pt11  1  0.413246  0.413246  0.917809  1
