# generated using pymatgen
data_Tb2Yb2ReOs7
_symmetry_space_group_name_H-M   'P 1'
_cell_length_a   5.43032400
_cell_length_b   5.26298277
_cell_length_c   8.87285748
_cell_angle_alpha   90.01752531
_cell_angle_beta   90.00000000
_cell_angle_gamma   121.05748113
_symmetry_Int_Tables_number   1
_chemical_formula_structural   Tb2Yb2ReOs7
_chemical_formula_sum   'Tb2 Yb2 Re1 Os7'
_cell_volume   217.23243570
_cell_formula_units_Z   1
loop_
 _symmetry_equiv_pos_site_id
 _symmetry_equiv_pos_as_xyz
  1  'x, y, z'
loop_
 _atom_site_type_symbol
 _atom_site_label
 _atom_site_symmetry_multiplicity
 _atom_site_fract_x
 _atom_site_fract_y
 _atom_site_fract_z
 _atom_site_occupancy
  Tb  Tb0  1  0.665365  0.330729  0.429434  1
  Tb  Tb1  1  0.330525  0.661051  0.568264  1
  Yb  Yb2  1  0.331114  0.662228  0.940873  1
  Yb  Yb3  1  0.664732  0.329464  0.061761  1
  Re  Re4  1  0.834863  0.669724  0.751823  1
  Os  Os5  1  0.991192  0.982383  0.499142  1
  Os  Os6  1  0.993136  0.986272  0.000355  1
  Os  Os7  1  0.662562  0.832712  0.248587  1
  Os  Os8  1  0.170150  0.832712  0.248587  1
  Os  Os9  1  0.177453  0.354906  0.250065  1
  Os  Os10  1  0.349822  0.178909  0.750555  1
  Os  Os11  1  0.829088  0.178909  0.750555  1
