# generated using pymatgen
data_BeV(BMo2)2
_symmetry_space_group_name_H-M   'P 1'
_cell_length_a   6.86866013
_cell_length_b   6.86866018
_cell_length_c   6.86865970
_cell_angle_alpha   129.19237991
_cell_angle_beta   129.19237138
_cell_angle_gamma   74.70123723
_symmetry_Int_Tables_number   1
_chemical_formula_structural   BeV(BMo2)2
_chemical_formula_sum   'Be2 V2 B4 Mo8'
_cell_volume   189.63309732
_cell_formula_units_Z   2
loop_
 _symmetry_equiv_pos_site_id
 _symmetry_equiv_pos_as_xyz
  1  'x, y, z'
loop_
 _atom_site_type_symbol
 _atom_site_label
 _atom_site_symmetry_multiplicity
 _atom_site_fract_x
 _atom_site_fract_y
 _atom_site_fract_z
 _atom_site_occupancy
  Be  Be0  1  0.750000  0.750000  0.000000  1
  Be  Be1  1  0.250000  0.250000  0.000000  1
  V  V2  1  0.000000  0.000000  0.000000  1
  V  V3  1  0.500000  0.500000  0.000000  1
  B  B4  1  0.379977  0.879977  0.259954  1
  B  B5  1  0.879977  0.620023  0.500000  1
  B  B6  1  0.620023  0.120023  0.740046  1
  B  B7  1  0.120023  0.379977  0.500000  1
  Mo  Mo8  1  0.810813  0.973182  0.500000  1
  Mo  Mo9  1  0.310813  0.810813  0.837631  1
  Mo  Mo10  1  0.189187  0.026818  0.500000  1
  Mo  Mo11  1  0.526818  0.689187  0.500000  1
  Mo  Mo12  1  0.026818  0.526818  0.837631  1
  Mo  Mo13  1  0.689187  0.189187  0.162369  1
  Mo  Mo14  1  0.973182  0.473182  0.162369  1
  Mo  Mo15  1  0.473182  0.310813  0.500000  1
