# generated using pymatgen
data_Pu3NbF20
_symmetry_space_group_name_H-M   'P 1'
_cell_length_a   9.41506448
_cell_length_b   9.41506623
_cell_length_c   5.54139430
_cell_angle_alpha   86.19236193
_cell_angle_beta   86.19236826
_cell_angle_gamma   112.76966018
_symmetry_Int_Tables_number   1
_chemical_formula_structural   Pu3NbF20
_chemical_formula_sum   'Pu3 Nb1 F20'
_cell_volume   449.65732627
_cell_formula_units_Z   1
loop_
 _symmetry_equiv_pos_site_id
 _symmetry_equiv_pos_as_xyz
  1  'x, y, z'
loop_
 _atom_site_type_symbol
 _atom_site_label
 _atom_site_symmetry_multiplicity
 _atom_site_fract_x
 _atom_site_fract_y
 _atom_site_fract_z
 _atom_site_occupancy
  Pu  Pu0  1  0.742929  0.752029  0.757536  1
  Pu  Pu1  1  0.247971  0.257071  0.242464  1
  Pu  Pu2  1  0.201380  0.798620  0.000000  1
  Nb  Nb3  1  0.798408  0.201592  0.000000  1
  F  F4  1  0.409411  0.836944  0.122532  1
  F  F5  1  0.163056  0.590589  0.877468  1
  F  F6  1  0.606829  0.167271  0.885225  1
  F  F7  1  0.832729  0.393171  0.114775  1
  F  F8  1  0.144634  0.146884  0.569704  1
  F  F9  1  0.853116  0.855366  0.430296  1
  F  F10  1  0.349318  0.356852  0.911319  1
  F  F11  1  0.643148  0.650682  0.088681  1
  F  F12  1  0.266339  0.463291  0.349009  1
  F  F13  1  0.536709  0.733661  0.650991  1
  F  F14  1  0.729589  0.545031  0.655700  1
  F  F15  1  0.454969  0.270411  0.344300  1
  F  F16  1  0.013491  0.216113  0.115253  1
  F  F17  1  0.783887  0.986509  0.884747  1
  F  F18  1  0.974160  0.786579  0.880324  1
  F  F19  1  0.213421  0.025840  0.119676  1
  F  F20  1  0.918657  0.278777  0.696430  1
  F  F21  1  0.721223  0.081343  0.303570  1
  F  F22  1  0.090930  0.696305  0.325411  1
  F  F23  1  0.303695  0.909070  0.674589  1
