# generated using pymatgen
data_Y2ReTcC3
_symmetry_space_group_name_H-M   'P 1'
_cell_length_a   6.07377319
_cell_length_b   6.07377412
_cell_length_c   5.69430703
_cell_angle_alpha   67.11712917
_cell_angle_beta   67.11712421
_cell_angle_gamma   31.81353053
_symmetry_Int_Tables_number   1
_chemical_formula_structural   Y2ReTcC3
_chemical_formula_sum   'Y2 Re1 Tc1 C3'
_cell_volume   101.28261798
_cell_formula_units_Z   1
loop_
 _symmetry_equiv_pos_site_id
 _symmetry_equiv_pos_as_xyz
  1  'x, y, z'
loop_
 _atom_site_type_symbol
 _atom_site_label
 _atom_site_symmetry_multiplicity
 _atom_site_fract_x
 _atom_site_fract_y
 _atom_site_fract_z
 _atom_site_occupancy
  Y  Y0  1  0.608576  0.608576  0.182465  1
  Y  Y1  1  0.391157  0.391157  0.822362  1
  Re  Re2  1  0.158186  0.158186  0.677868  1
  Tc  Tc3  1  0.842975  0.842975  0.318625  1
  C  C4  1  0.751638  0.751638  0.729274  1
  C  C5  1  0.246764  0.246764  0.272300  1
  C  C6  1  0.000704  0.000704  0.997107  1
