# generated using pymatgen
data_Th4ScNb5Si8
_symmetry_space_group_name_H-M   'P 1'
_cell_length_a   7.24311404
_cell_length_b   7.23606704
_cell_length_c   13.44047900
_cell_angle_alpha   90.00000000
_cell_angle_beta   90.00000000
_cell_angle_gamma   89.98858768
_symmetry_Int_Tables_number   1
_chemical_formula_structural   Th4ScNb5Si8
_chemical_formula_sum   'Th8 Sc2 Nb10 Si16'
_cell_volume   704.43778431
_cell_formula_units_Z   2
loop_
 _symmetry_equiv_pos_site_id
 _symmetry_equiv_pos_as_xyz
  1  'x, y, z'
loop_
 _atom_site_type_symbol
 _atom_site_label
 _atom_site_symmetry_multiplicity
 _atom_site_fract_x
 _atom_site_fract_y
 _atom_site_fract_z
 _atom_site_occupancy
  Th  Th0  1  0.001542  0.339745  0.217238  1
  Th  Th1  1  0.998458  0.660255  0.717238  1
  Th  Th2  1  0.161008  0.501293  0.467519  1
  Th  Th3  1  0.501131  0.838545  0.033347  1
  Th  Th4  1  0.838992  0.498707  0.967519  1
  Th  Th5  1  0.498869  0.161455  0.533347  1
  Th  Th6  1  0.337946  0.998286  0.782168  1
  Th  Th7  1  0.662054  0.001714  0.282168  1
  Sc  Sc8  1  0.159323  0.995640  0.374852  1
  Sc  Sc9  1  0.840677  0.004360  0.874852  1
  Nb  Nb10  1  0.172163  0.170493  0.000770  1
  Nb  Nb11  1  0.827837  0.829507  0.500770  1
  Nb  Nb12  1  0.333205  0.666871  0.247222  1
  Nb  Nb13  1  0.666795  0.333129  0.747222  1
  Nb  Nb14  1  0.505878  0.655318  0.624546  1
  Nb  Nb15  1  0.341049  0.494821  0.876085  1
  Nb  Nb16  1  0.494122  0.344682  0.124546  1
  Nb  Nb17  1  0.658951  0.505179  0.376085  1
  Nb  Nb18  1  0.992832  0.157993  0.626139  1
  Nb  Nb19  1  0.007168  0.842007  0.126139  1
  Si  Si20  1  0.290498  0.042913  0.183460  1
  Si  Si21  1  0.709502  0.957087  0.683460  1
  Si  Si22  1  0.462719  0.787612  0.435967  1
  Si  Si23  1  0.211656  0.540018  0.063102  1
  Si  Si24  1  0.537281  0.212388  0.935967  1
  Si  Si25  1  0.788344  0.459982  0.563102  1
  Si  Si26  1  0.045997  0.290973  0.814076  1
  Si  Si27  1  0.954003  0.709027  0.314076  1
  Si  Si28  1  0.375315  0.305362  0.313283  1
  Si  Si29  1  0.624685  0.694638  0.813283  1
  Si  Si30  1  0.203003  0.873801  0.567838  1
  Si  Si31  1  0.129368  0.793802  0.936822  1
  Si  Si32  1  0.796997  0.126199  0.067838  1
  Si  Si33  1  0.870632  0.206198  0.436822  1
  Si  Si34  1  0.296318  0.374888  0.685566  1
  Si  Si35  1  0.703682  0.625112  0.185566  1
