# generated using pymatgen
data_Zr2MnCo2Ir
_symmetry_space_group_name_H-M   'P 1'
_cell_length_a   4.93753309
_cell_length_b   5.05021251
_cell_length_c   8.44452500
_cell_angle_alpha   90.00000000
_cell_angle_beta   90.00000000
_cell_angle_gamma   120.75784426
_symmetry_Int_Tables_number   1
_chemical_formula_structural   Zr2MnCo2Ir
_chemical_formula_sum   'Zr4 Mn2 Co4 Ir2'
_cell_volume   180.94980004
_cell_formula_units_Z   2
loop_
 _symmetry_equiv_pos_site_id
 _symmetry_equiv_pos_as_xyz
  1  'x, y, z'
loop_
 _atom_site_type_symbol
 _atom_site_label
 _atom_site_symmetry_multiplicity
 _atom_site_fract_x
 _atom_site_fract_y
 _atom_site_fract_z
 _atom_site_occupancy
  Zr  Zr0  1  0.333422  0.666711  0.068318  1
  Zr  Zr1  1  0.666578  0.333289  0.568318  1
  Zr  Zr2  1  0.666578  0.333289  0.931682  1
  Zr  Zr3  1  0.333422  0.666711  0.431682  1
  Mn  Mn4  1  0.666654  0.833327  0.750000  1
  Mn  Mn5  1  0.333346  0.166673  0.250000  1
  Co  Co6  1  0.178641  0.344433  0.750000  1
  Co  Co7  1  0.821359  0.165793  0.250000  1
  Co  Co8  1  0.821359  0.655567  0.250000  1
  Co  Co9  1  0.178641  0.834207  0.750000  1
  Ir  Ir10  1  0.000000  0.000000  0.500000  1
  Ir  Ir11  1  0.000000  0.000000  0.000000  1
