# generated using pymatgen
data_Ac2La(PdPb)3
_symmetry_space_group_name_H-M   'P 1'
_cell_length_a   8.05542000
_cell_length_b   8.00518436
_cell_length_c   4.28951600
_cell_angle_alpha   90.00000000
_cell_angle_beta   90.00000000
_cell_angle_gamma   119.79392816
_symmetry_Int_Tables_number   1
_chemical_formula_structural   Ac2La(PdPb)3
_chemical_formula_sum   'Ac2 La1 Pd3 Pb3'
_cell_volume   240.04713700
_cell_formula_units_Z   1
loop_
 _symmetry_equiv_pos_site_id
 _symmetry_equiv_pos_as_xyz
  1  'x, y, z'
loop_
 _atom_site_type_symbol
 _atom_site_label
 _atom_site_symmetry_multiplicity
 _atom_site_fract_x
 _atom_site_fract_y
 _atom_site_fract_z
 _atom_site_occupancy
  Ac  Ac0  1  0.411060  0.412133  0.500000  1
  Ac  Ac1  1  0.588940  0.001073  0.500000  1
  La  La2  1  0.000000  0.590839  0.500000  1
  Pd  Pd3  1  0.670193  0.335011  0.000000  1
  Pd  Pd4  1  0.329807  0.664819  0.000000  1
  Pd  Pd5  1  0.000000  0.998337  0.500000  1
  Pb  Pb6  1  0.754914  0.748760  0.000000  1
  Pb  Pb7  1  0.245086  0.993846  0.000000  1
  Pb  Pb8  1  0.000000  0.255182  0.000000  1
