# generated using pymatgen
data_Li6Pu2MgN6
_symmetry_space_group_name_H-M   'P 1'
_cell_length_a   5.83388900
_cell_length_b   5.83388918
_cell_length_c   5.45145400
_cell_angle_alpha   90.00000000
_cell_angle_beta   90.00000000
_cell_angle_gamma   120.00000463
_symmetry_Int_Tables_number   1
_chemical_formula_structural   Li6Pu2MgN6
_chemical_formula_sum   'Li6 Pu2 Mg1 N6'
_cell_volume   160.67906659
_cell_formula_units_Z   1
loop_
 _symmetry_equiv_pos_site_id
 _symmetry_equiv_pos_as_xyz
  1  'x, y, z'
loop_
 _atom_site_type_symbol
 _atom_site_label
 _atom_site_symmetry_multiplicity
 _atom_site_fract_x
 _atom_site_fract_y
 _atom_site_fract_z
 _atom_site_occupancy
  Li  Li0  1  0.000408  0.664001  0.615786  1
  Li  Li1  1  0.335999  0.336407  0.615786  1
  Li  Li2  1  0.663593  0.999592  0.615786  1
  Li  Li3  1  0.013048  0.343830  0.383212  1
  Li  Li4  1  0.656170  0.669218  0.383212  1
  Li  Li5  1  0.330782  0.986952  0.383212  1
  Pu  Pu6  1  0.000000  0.000000  0.000417  1
  Pu  Pu7  1  0.666667  0.333333  0.002410  1
  Mg  Mg8  1  0.333333  0.666667  0.992893  1
  N  N9  1  0.984224  0.666677  0.225274  1
  N  N10  1  0.333323  0.317546  0.225274  1
  N  N11  1  0.682454  0.015776  0.225274  1
  N  N12  1  0.986666  0.320097  0.777155  1
  N  N13  1  0.679903  0.666569  0.777155  1
  N  N14  1  0.333431  0.013334  0.777155  1
