# generated using pymatgen
data_Pr4Ga3(CoO4)5
_symmetry_space_group_name_H-M   'P 1'
_cell_length_a   5.82705600
_cell_length_b   7.55026289
_cell_length_c   8.65208400
_cell_angle_alpha   89.67847015
_cell_angle_beta   90.00000000
_cell_angle_gamma   90.00000000
_symmetry_Int_Tables_number   1
_chemical_formula_structural   Pr4Ga3(CoO4)5
_chemical_formula_sum   'Pr4 Ga3 Co5 O20'
_cell_volume   380.64940371
_cell_formula_units_Z   1
loop_
 _symmetry_equiv_pos_site_id
 _symmetry_equiv_pos_as_xyz
  1  'x, y, z'
loop_
 _atom_site_type_symbol
 _atom_site_label
 _atom_site_symmetry_multiplicity
 _atom_site_fract_x
 _atom_site_fract_y
 _atom_site_fract_z
 _atom_site_occupancy
  Pr  Pr0  1  0.000000  0.141889  0.169568  1
  Pr  Pr1  1  0.000000  0.857781  0.828333  1
  Pr  Pr2  1  0.000000  0.639943  0.327620  1
  Pr  Pr3  1  0.000000  0.363277  0.673955  1
  Ga  Ga4  1  0.500000  0.391013  0.356196  1
  Ga  Ga5  1  0.500000  0.611816  0.644838  1
  Ga  Ga6  1  0.500000  0.888494  0.145487  1
  Co  Co7  1  0.255138  0.001311  0.499759  1
  Co  Co8  1  0.742959  0.498701  0.001517  1
  Co  Co9  1  0.744862  0.001311  0.499759  1
  Co  Co10  1  0.257041  0.498701  0.001517  1
  Co  Co11  1  0.500000  0.088397  0.846787  1
  O  O12  1  0.282551  0.001937  0.996436  1
  O  O13  1  0.721562  0.501569  0.500415  1
  O  O14  1  0.717449  0.001937  0.996436  1
  O  O15  1  0.278438  0.501569  0.500415  1
  O  O16  1  0.000000  0.153161  0.449958  1
  O  O17  1  0.000000  0.850203  0.550186  1
  O  O18  1  0.000000  0.651209  0.050265  1
  O  O19  1  0.000000  0.347065  0.949477  1
  O  O20  1  0.500000  0.149620  0.435974  1
  O  O21  1  0.500000  0.852343  0.565487  1
  O  O22  1  0.500000  0.650853  0.066977  1
  O  O23  1  0.500000  0.351668  0.942398  1
  O  O24  1  0.249288  0.402578  0.205413  1
  O  O25  1  0.250734  0.596932  0.796114  1
  O  O26  1  0.751063  0.905378  0.294892  1
  O  O27  1  0.749178  0.097227  0.703703  1
  O  O28  1  0.749266  0.596932  0.796114  1
  O  O29  1  0.750712  0.402578  0.205413  1
  O  O30  1  0.250822  0.097227  0.703703  1
  O  O31  1  0.248937  0.905378  0.294892  1
