# generated using pymatgen
data_Nd9Y(Si2Hg)2
_symmetry_space_group_name_H-M   'P 1'
_cell_length_a   7.78450621
_cell_length_b   7.78450410
_cell_length_c   9.30325600
_cell_angle_alpha   114.75086362
_cell_angle_beta   114.75086455
_cell_angle_gamma   90.08774707
_symmetry_Int_Tables_number   1
_chemical_formula_structural   Nd9Y(Si2Hg)2
_chemical_formula_sum   'Nd9 Y1 Si4 Hg2'
_cell_volume   454.13100298
_cell_formula_units_Z   1
loop_
 _symmetry_equiv_pos_site_id
 _symmetry_equiv_pos_as_xyz
  1  'x, y, z'
loop_
 _atom_site_type_symbol
 _atom_site_label
 _atom_site_symmetry_multiplicity
 _atom_site_fract_x
 _atom_site_fract_y
 _atom_site_fract_z
 _atom_site_occupancy
  Nd  Nd0  1  0.499379  0.500847  0.999390  1
  Nd  Nd1  1  0.000847  0.999379  0.999390  1
  Nd  Nd2  1  0.963977  0.813986  0.277157  1
  Nd  Nd3  1  0.313986  0.463977  0.277157  1
  Nd  Nd4  1  0.815679  0.315679  0.277737  1
  Nd  Nd5  1  0.463431  0.963431  0.278120  1
  Nd  Nd6  1  0.037879  0.183110  0.721710  1
  Nd  Nd7  1  0.683110  0.537879  0.721710  1
  Nd  Nd8  1  0.186416  0.686416  0.721885  1
  Y  Y9  1  0.538848  0.038848  0.729828  1
  Si  Si10  1  0.615957  0.884253  0.996832  1
  Si  Si11  1  0.384253  0.115957  0.996832  1
  Si  Si12  1  0.880425  0.380425  0.996199  1
  Si  Si13  1  0.114735  0.614735  0.998691  1
  Hg  Hg14  1  0.746820  0.754259  0.503680  1
  Hg  Hg15  1  0.254259  0.246820  0.503680  1
