# generated using pymatgen
data_HfGa3(CuPt3)3
_symmetry_space_group_name_H-M   'P 1'
_cell_length_a   4.01128600
_cell_length_b   4.01128600
_cell_length_c   14.81136200
_cell_angle_alpha   90.00000000
_cell_angle_beta   90.00000000
_cell_angle_gamma   90.00000000
_symmetry_Int_Tables_number   1
_chemical_formula_structural   HfGa3(CuPt3)3
_chemical_formula_sum   'Hf1 Ga3 Cu3 Pt9'
_cell_volume   238.32096683
_cell_formula_units_Z   1
loop_
 _symmetry_equiv_pos_site_id
 _symmetry_equiv_pos_as_xyz
  1  'x, y, z'
loop_
 _atom_site_type_symbol
 _atom_site_label
 _atom_site_symmetry_multiplicity
 _atom_site_fract_x
 _atom_site_fract_y
 _atom_site_fract_z
 _atom_site_occupancy
  Hf  Hf0  1  0.000000  0.000000  0.000000  1
  Ga  Ga1  1  0.000000  0.000000  0.258853  1
  Ga  Ga2  1  0.000000  0.000000  0.500000  1
  Ga  Ga3  1  0.000000  0.000000  0.741147  1
  Cu  Cu4  1  0.500000  0.500000  0.258144  1
  Cu  Cu5  1  0.500000  0.500000  0.500000  1
  Cu  Cu6  1  0.500000  0.500000  0.741856  1
  Pt  Pt7  1  0.500000  0.500000  0.000000  1
  Pt  Pt8  1  0.500000  0.000000  0.136770  1
  Pt  Pt9  1  0.500000  0.000000  0.379614  1
  Pt  Pt10  1  0.500000  0.000000  0.620386  1
  Pt  Pt11  1  0.500000  0.000000  0.863230  1
  Pt  Pt12  1  0.000000  0.500000  0.136770  1
  Pt  Pt13  1  0.000000  0.500000  0.379614  1
  Pt  Pt14  1  0.000000  0.500000  0.620386  1
  Pt  Pt15  1  0.000000  0.500000  0.863230  1
