# generated using pymatgen
data_Pr8Co2CuSi12Pd
_symmetry_space_group_name_H-M   'P 1'
_cell_length_a   8.17040700
_cell_length_b   8.17040860
_cell_length_c   8.57166800
_cell_angle_alpha   90.00000000
_cell_angle_beta   90.00000000
_cell_angle_gamma   120.00000568
_symmetry_Int_Tables_number   1
_chemical_formula_structural   Pr8Co2CuSi12Pd
_chemical_formula_sum   'Pr8 Co2 Cu1 Si12 Pd1'
_cell_volume   495.54536139
_cell_formula_units_Z   1
loop_
 _symmetry_equiv_pos_site_id
 _symmetry_equiv_pos_as_xyz
  1  'x, y, z'
loop_
 _atom_site_type_symbol
 _atom_site_label
 _atom_site_symmetry_multiplicity
 _atom_site_fract_x
 _atom_site_fract_y
 _atom_site_fract_z
 _atom_site_occupancy
  Pr  Pr0  1  0.495572  0.504428  0.749757  1
  Pr  Pr1  1  0.496131  0.503869  0.250313  1
  Pr  Pr2  1  0.008854  0.504428  0.749757  1
  Pr  Pr3  1  0.007738  0.503869  0.250313  1
  Pr  Pr4  1  0.495572  0.991146  0.749757  1
  Pr  Pr5  1  0.496131  0.992262  0.250313  1
  Pr  Pr6  1  0.000000  0.000000  0.750718  1
  Pr  Pr7  1  0.000000  0.000000  0.249328  1
  Co  Co8  1  0.333333  0.666667  0.002216  1
  Co  Co9  1  0.333333  0.666667  0.497556  1
  Cu  Cu10  1  0.666667  0.333333  0.997766  1
  Si  Si11  1  0.832871  0.167129  0.000106  1
  Si  Si12  1  0.172157  0.827843  0.999791  1
  Si  Si13  1  0.334258  0.167129  0.000106  1
  Si  Si14  1  0.172449  0.827551  0.500313  1
  Si  Si15  1  0.655685  0.827843  0.999791  1
  Si  Si16  1  0.835299  0.164701  0.499689  1
  Si  Si17  1  0.832871  0.665742  0.000106  1
  Si  Si18  1  0.655103  0.827551  0.500313  1
  Si  Si19  1  0.172157  0.344315  0.999791  1
  Si  Si20  1  0.329403  0.164701  0.499689  1
  Si  Si21  1  0.172449  0.344897  0.500313  1
  Si  Si22  1  0.835299  0.670597  0.499689  1
  Pd  Pd23  1  0.666667  0.333333  0.502514  1
