# generated using pymatgen
data_DyHo5Al24Os7Ru
_symmetry_space_group_name_H-M   'P 1'
_cell_length_a   8.81791414
_cell_length_b   8.82059582
_cell_length_c   9.55473600
_cell_angle_alpha   90.00000032
_cell_angle_beta   90.00045527
_cell_angle_gamma   120.01006556
_symmetry_Int_Tables_number   1
_chemical_formula_structural   DyHo5Al24Os7Ru
_chemical_formula_sum   'Dy1 Ho5 Al24 Os7 Ru1'
_cell_volume   643.53037828
_cell_formula_units_Z   1
loop_
 _symmetry_equiv_pos_site_id
 _symmetry_equiv_pos_as_xyz
  1  'x, y, z'
loop_
 _atom_site_type_symbol
 _atom_site_label
 _atom_site_symmetry_multiplicity
 _atom_site_fract_x
 _atom_site_fract_y
 _atom_site_fract_z
 _atom_site_occupancy
  Dy  Dy0  1  0.386801  0.193401  0.750549  1
  Ho  Ho1  1  0.193495  0.806531  0.249378  1
  Ho  Ho2  1  0.193495  0.386964  0.249378  1
  Ho  Ho3  1  0.613062  0.806531  0.249356  1
  Ho  Ho4  1  0.806505  0.193542  0.750608  1
  Ho  Ho5  1  0.806505  0.612963  0.750608  1
  Al  Al6  1  0.560616  0.439412  0.249799  1
  Al  Al7  1  0.560616  0.121205  0.249799  1
  Al  Al8  1  0.878791  0.439396  0.249796  1
  Al  Al9  1  0.439419  0.560823  0.750208  1
  Al  Al10  1  0.439419  0.878596  0.750208  1
  Al  Al11  1  0.121214  0.560606  0.750213  1
  Al  Al12  1  0.324600  0.162300  0.423546  1
  Al  Al13  1  0.837716  0.162303  0.423647  1
  Al  Al14  1  0.837716  0.675412  0.423647  1
  Al  Al15  1  0.675375  0.837688  0.576335  1
  Al  Al16  1  0.162238  0.837588  0.576321  1
  Al  Al17  1  0.162238  0.324651  0.576321  1
  Al  Al18  1  0.675324  0.837662  0.923746  1
  Al  Al19  1  0.162256  0.837561  0.923759  1
  Al  Al20  1  0.162256  0.324695  0.923759  1
  Al  Al21  1  0.324642  0.162321  0.076396  1
  Al  Al22  1  0.837698  0.162329  0.076295  1
  Al  Al23  1  0.837698  0.675369  0.076295  1
  Al  Al24  1  0.666802  0.333401  0.516007  1
  Al  Al25  1  0.333349  0.666675  0.483980  1
  Al  Al26  1  0.333347  0.666674  0.015970  1
  Al  Al27  1  0.666810  0.333404  0.984065  1
  Al  Al28  1  0.000008  0.000004  0.248245  1
  Al  Al29  1  0.999825  0.999913  0.751763  1
  Os  Os30  1  0.000012  0.000006  0.499995  1
  Os  Os31  1  0.500017  0.500078  0.499944  1
  Os  Os32  1  0.500017  0.999938  0.499944  1
  Os  Os33  1  0.000034  0.500017  0.499980  1
  Os  Os34  1  0.500015  0.500061  0.000045  1
  Os  Os35  1  0.500015  0.999954  0.000045  1
  Os  Os36  1  0.000036  0.500018  0.000019  1
  Ru  Ru37  1  0.000015  0.000008  0.000033  1
