# generated using pymatgen
data_CrCu6GeS8
_symmetry_space_group_name_H-M   'P 1'
_cell_length_a   7.50981300
_cell_length_b   7.50981376
_cell_length_c   12.36601900
_cell_angle_alpha   90.00000000
_cell_angle_beta   90.00000000
_cell_angle_gamma   119.99999225
_symmetry_Int_Tables_number   1
_chemical_formula_structural   CrCu6GeS8
_chemical_formula_sum   'Cr2 Cu12 Ge2 S16'
_cell_volume   603.97486394
_cell_formula_units_Z   2
loop_
 _symmetry_equiv_pos_site_id
 _symmetry_equiv_pos_as_xyz
  1  'x, y, z'
loop_
 _atom_site_type_symbol
 _atom_site_label
 _atom_site_symmetry_multiplicity
 _atom_site_fract_x
 _atom_site_fract_y
 _atom_site_fract_z
 _atom_site_occupancy
  Cr  Cr0  1  0.333333  0.666667  0.481382  1
  Cr  Cr1  1  0.666667  0.333333  0.981382  1
  Cu  Cu2  1  0.836136  0.672272  0.103075  1
  Cu  Cu3  1  0.501058  0.498942  0.355627  1
  Cu  Cu4  1  0.002116  0.501058  0.855627  1
  Cu  Cu5  1  0.836136  0.163864  0.103075  1
  Cu  Cu6  1  0.498942  0.501058  0.855627  1
  Cu  Cu7  1  0.163864  0.327728  0.603075  1
  Cu  Cu8  1  0.501058  0.002116  0.355627  1
  Cu  Cu9  1  0.997884  0.498942  0.355627  1
  Cu  Cu10  1  0.163864  0.836136  0.603075  1
  Cu  Cu11  1  0.498942  0.997884  0.855627  1
  Cu  Cu12  1  0.672272  0.836136  0.603075  1
  Cu  Cu13  1  0.327728  0.163864  0.103075  1
  Ge  Ge14  1  0.000000  0.000000  0.851591  1
  Ge  Ge15  1  0.000000  0.000000  0.351591  1
  S  S16  1  0.000000  0.000000  0.035080  1
  S  S17  1  0.331184  0.165592  0.289722  1
  S  S18  1  0.834408  0.165592  0.289722  1
  S  S19  1  0.017278  0.508639  0.539048  1
  S  S20  1  0.834408  0.668816  0.289722  1
  S  S21  1  0.666667  0.333333  0.805534  1
  S  S22  1  0.165592  0.331184  0.789722  1
  S  S23  1  0.491361  0.508639  0.539048  1
  S  S24  1  0.000000  0.000000  0.535080  1
  S  S25  1  0.333333  0.666667  0.305534  1
  S  S26  1  0.982722  0.491361  0.039048  1
  S  S27  1  0.491361  0.982722  0.539048  1
  S  S28  1  0.165592  0.834408  0.789722  1
  S  S29  1  0.668816  0.834408  0.789722  1
  S  S30  1  0.508639  0.017278  0.039048  1
  S  S31  1  0.508639  0.491361  0.039048  1
