# generated using pymatgen
data_NpBi(P2O7)2
_symmetry_space_group_name_H-M   'P 1'
_cell_length_a   8.89328286
_cell_length_b   5.28975862
_cell_length_c   7.44248800
_cell_angle_alpha   70.93810495
_cell_angle_beta   90.95713643
_cell_angle_gamma   90.09409283
_symmetry_Int_Tables_number   1
_chemical_formula_structural   NpBi(P2O7)2
_chemical_formula_sum   'Np1 Bi1 P4 O14'
_cell_volume   330.87214475
_cell_formula_units_Z   1
loop_
 _symmetry_equiv_pos_site_id
 _symmetry_equiv_pos_as_xyz
  1  'x, y, z'
loop_
 _atom_site_type_symbol
 _atom_site_label
 _atom_site_symmetry_multiplicity
 _atom_site_fract_x
 _atom_site_fract_y
 _atom_site_fract_z
 _atom_site_occupancy
  Np  Np0  1  0.048523  0.200789  0.287663  1
  Bi  Bi1  1  0.547814  0.793873  0.726950  1
  P  P2  1  0.265787  0.771641  0.090975  1
  P  P3  1  0.782442  0.223905  0.907298  1
  P  P4  1  0.377746  0.413674  0.460848  1
  P  P5  1  0.867130  0.597211  0.535150  1
  O  O6  1  0.370364  0.588988  0.585338  1
  O  O7  1  0.644580  0.382570  0.922719  1
  O  O8  1  0.132258  0.576746  0.097973  1
  O  O9  1  0.219719  0.271176  0.463097  1
  O  O10  1  0.883172  0.160373  0.093811  1
  O  O11  1  0.209018  0.995380  0.164853  1
  O  O12  1  0.338663  0.874530  0.900882  1
  O  O13  1  0.991541  0.813711  0.493422  1
  O  O14  1  0.392258  0.602939  0.240313  1
  O  O15  1  0.893073  0.416443  0.411488  1
  O  O16  1  0.504023  0.212096  0.496638  1
  O  O17  1  0.755783  0.972384  0.857531  1
  O  O18  1  0.710132  0.714619  0.510240  1
  O  O19  1  0.897700  0.416954  0.752810  1
