# generated using pymatgen
data_Ho6Cr3Co(P6Ir7)2
_symmetry_space_group_name_H-M   'P 1'
_cell_length_a   3.90483500
_cell_length_b   11.18712600
_cell_length_c   12.70251200
_cell_angle_alpha   90.00000000
_cell_angle_beta   90.00000000
_cell_angle_gamma   90.00000000
_symmetry_Int_Tables_number   1
_chemical_formula_structural   Ho6Cr3Co(P6Ir7)2
_chemical_formula_sum   'Ho6 Cr3 Co1 P12 Ir14'
_cell_volume   554.89502457
_cell_formula_units_Z   1
loop_
 _symmetry_equiv_pos_site_id
 _symmetry_equiv_pos_as_xyz
  1  'x, y, z'
loop_
 _atom_site_type_symbol
 _atom_site_label
 _atom_site_symmetry_multiplicity
 _atom_site_fract_x
 _atom_site_fract_y
 _atom_site_fract_z
 _atom_site_occupancy
  Ho  Ho0  1  0.000000  0.500000  0.518316  1
  Ho  Ho1  1  0.500000  0.000000  0.481974  1
  Ho  Ho2  1  0.500000  0.817180  0.200968  1
  Ho  Ho3  1  0.500000  0.182820  0.200968  1
  Ho  Ho4  1  0.000000  0.682202  0.798294  1
  Ho  Ho5  1  0.000000  0.317798  0.798294  1
  Cr  Cr6  1  0.000000  0.500000  0.989001  1
  Cr  Cr7  1  0.500000  0.500000  0.162155  1
  Cr  Cr8  1  0.000000  0.000000  0.839366  1
  Co  Co9  1  0.500000  0.000000  0.010115  1
  P  P10  1  0.500000  0.313681  0.619626  1
  P  P11  1  0.500000  0.686319  0.619626  1
  P  P12  1  0.000000  0.185068  0.381135  1
  P  P13  1  0.000000  0.814932  0.381135  1
  P  P14  1  0.500000  0.500000  0.879880  1
  P  P15  1  0.000000  0.000000  0.119325  1
  P  P16  1  0.500000  0.851882  0.894874  1
  P  P17  1  0.500000  0.148118  0.894874  1
  P  P18  1  0.000000  0.649970  0.105546  1
  P  P19  1  0.000000  0.350030  0.105546  1
  P  P20  1  0.500000  0.500000  0.343898  1
  P  P21  1  0.000000  0.000000  0.656267  1
  Ir  Ir22  1  0.500000  0.292655  0.429606  1
  Ir  Ir23  1  0.500000  0.707345  0.429606  1
  Ir  Ir24  1  0.000000  0.207443  0.571205  1
  Ir  Ir25  1  0.000000  0.792557  0.571205  1
  Ir  Ir26  1  0.500000  0.873695  0.715713  1
  Ir  Ir27  1  0.500000  0.126305  0.715713  1
  Ir  Ir28  1  0.000000  0.627491  0.285127  1
  Ir  Ir29  1  0.000000  0.372509  0.285127  1
  Ir  Ir30  1  0.500000  0.332347  0.989582  1
  Ir  Ir31  1  0.500000  0.667653  0.989582  1
  Ir  Ir32  1  0.000000  0.161964  0.009485  1
  Ir  Ir33  1  0.000000  0.838036  0.009485  1
  Ir  Ir34  1  0.500000  0.500000  0.697829  1
  Ir  Ir35  1  0.000000  0.000000  0.299549  1
