# generated using pymatgen
data_Tm4As6Ru3Rh4
_symmetry_space_group_name_H-M   'P 1'
_cell_length_a   7.20541933
_cell_length_b   7.21222490
_cell_length_c   7.21222585
_cell_angle_alpha   109.36928318
_cell_angle_beta   109.54140720
_cell_angle_gamma   109.54140098
_symmetry_Int_Tables_number   1
_chemical_formula_structural   Tm4As6Ru3Rh4
_chemical_formula_sum   'Tm4 As6 Ru3 Rh4'
_cell_volume   288.38244862
_cell_formula_units_Z   1
loop_
 _symmetry_equiv_pos_site_id
 _symmetry_equiv_pos_as_xyz
  1  'x, y, z'
loop_
 _atom_site_type_symbol
 _atom_site_label
 _atom_site_symmetry_multiplicity
 _atom_site_fract_x
 _atom_site_fract_y
 _atom_site_fract_z
 _atom_site_occupancy
  Tm  Tm0  1  0.001031  0.000516  0.500516  1
  Tm  Tm1  1  0.499380  0.998370  0.998370  1
  Tm  Tm2  1  0.001031  0.500516  0.000516  1
  Tm  Tm3  1  0.499380  0.501011  0.501011  1
  As  As4  1  0.314235  0.998463  0.315772  1
  As  As5  1  0.004572  0.319699  0.319699  1
  As  As6  1  0.004572  0.684873  0.684873  1
  As  As7  1  0.314235  0.315772  0.998463  1
  As  As8  1  0.682002  0.684095  0.997907  1
  As  As9  1  0.682002  0.997907  0.684095  1
  Ru  Ru10  1  0.251241  0.750968  0.500273  1
  Ru  Ru11  1  0.251241  0.500273  0.750968  1
  Ru  Ru12  1  0.999542  0.999771  0.999771  1
  Rh  Rh13  1  0.749793  0.500858  0.248935  1
  Rh  Rh14  1  0.497975  0.748988  0.248988  1
  Rh  Rh15  1  0.497975  0.248988  0.748988  1
  Rh  Rh16  1  0.749793  0.248935  0.500858  1
