# generated using pymatgen
data_LaNd9Sn20(PdRh)4
_symmetry_space_group_name_H-M   'P 1'
_cell_length_a   14.27486002
_cell_length_b   14.26791602
_cell_length_c   4.65320900
_cell_angle_alpha   90.00000000
_cell_angle_beta   90.00000000
_cell_angle_gamma   90.00641147
_symmetry_Int_Tables_number   1
_chemical_formula_structural   LaNd9Sn20(PdRh)4
_chemical_formula_sum   'La1 Nd9 Sn20 Pd4 Rh4'
_cell_volume   947.73072287
_cell_formula_units_Z   1
loop_
 _symmetry_equiv_pos_site_id
 _symmetry_equiv_pos_as_xyz
  1  'x, y, z'
loop_
 _atom_site_type_symbol
 _atom_site_label
 _atom_site_symmetry_multiplicity
 _atom_site_fract_x
 _atom_site_fract_y
 _atom_site_fract_z
 _atom_site_occupancy
  La  La0  1  0.607824  0.890461  0.500000  1
  Nd  Nd1  1  0.499929  0.499949  0.000000  1
  Nd  Nd2  1  0.000132  0.000099  0.000000  1
  Nd  Nd3  1  0.677935  0.180253  0.500000  1
  Nd  Nd4  1  0.321862  0.819913  0.500000  1
  Nd  Nd5  1  0.178010  0.319875  0.500000  1
  Nd  Nd6  1  0.822218  0.679918  0.500000  1
  Nd  Nd7  1  0.892496  0.390598  0.500000  1
  Nd  Nd8  1  0.107530  0.609402  0.500000  1
  Nd  Nd9  1  0.392360  0.109529  0.500000  1
  Sn  Sn10  1  0.566569  0.072000  0.000000  1
  Sn  Sn11  1  0.432487  0.928787  0.000000  1
  Sn  Sn12  1  0.066842  0.428536  0.000000  1
  Sn  Sn13  1  0.933168  0.571472  0.000000  1
  Sn  Sn14  1  0.652220  0.702267  0.000000  1
  Sn  Sn15  1  0.347899  0.297107  0.000000  1
  Sn  Sn16  1  0.152053  0.797072  0.000000  1
  Sn  Sn17  1  0.848057  0.202951  0.000000  1
  Sn  Sn18  1  0.301004  0.652964  0.000000  1
  Sn  Sn19  1  0.698902  0.346970  0.000000  1
  Sn  Sn20  1  0.198841  0.153069  0.000000  1
  Sn  Sn21  1  0.801592  0.846755  0.000000  1
  Sn  Sn22  1  0.662756  0.502748  0.500000  1
  Sn  Sn23  1  0.337222  0.497263  0.500000  1
  Sn  Sn24  1  0.162726  0.997273  0.500000  1
  Sn  Sn25  1  0.837583  0.002886  0.500000  1
  Sn  Sn26  1  0.496169  0.663110  0.500000  1
  Sn  Sn27  1  0.503572  0.336543  0.500000  1
  Sn  Sn28  1  0.003623  0.163466  0.500000  1
  Sn  Sn29  1  0.996392  0.836550  0.500000  1
  Pd  Pd30  1  0.746426  0.531196  0.000000  1
  Pd  Pd31  1  0.253592  0.468757  0.000000  1
  Pd  Pd32  1  0.246205  0.968798  0.000000  1
  Pd  Pd33  1  0.753811  0.031463  0.000000  1
  Rh  Rh34  1  0.468741  0.742918  0.000000  1
  Rh  Rh35  1  0.531103  0.257061  0.000000  1
  Rh  Rh36  1  0.031178  0.243191  0.000000  1
  Rh  Rh37  1  0.968965  0.756827  0.000000  1
