# generated using pymatgen
data_Dy8Be3Si13W12
_symmetry_space_group_name_H-M   'P 1'
_cell_length_a   6.72337906
_cell_length_b   6.84896208
_cell_length_c   12.92132800
_cell_angle_alpha   90.00000000
_cell_angle_beta   90.00000000
_cell_angle_gamma   89.85257874
_symmetry_Int_Tables_number   1
_chemical_formula_structural   Dy8Be3Si13W12
_chemical_formula_sum   'Dy8 Be3 Si13 W12'
_cell_volume   595.00151597
_cell_formula_units_Z   1
loop_
 _symmetry_equiv_pos_site_id
 _symmetry_equiv_pos_as_xyz
  1  'x, y, z'
loop_
 _atom_site_type_symbol
 _atom_site_label
 _atom_site_symmetry_multiplicity
 _atom_site_fract_x
 _atom_site_fract_y
 _atom_site_fract_z
 _atom_site_occupancy
  Dy  Dy0  1  0.501909  0.666602  0.596401  1
  Dy  Dy1  1  0.000827  0.833907  0.904022  1
  Dy  Dy2  1  0.501447  0.335459  0.093451  1
  Dy  Dy3  1  0.001384  0.168610  0.405824  1
  Dy  Dy4  1  0.501447  0.335459  0.406549  1
  Dy  Dy5  1  0.001384  0.168610  0.094176  1
  Dy  Dy6  1  0.501909  0.666602  0.903599  1
  Dy  Dy7  1  0.000827  0.833907  0.595978  1
  Be  Be8  1  0.456716  0.371549  0.750000  1
  Be  Be9  1  0.956206  0.128825  0.750000  1
  Be  Be10  1  0.542610  0.628683  0.250000  1
  Si  Si11  1  0.662460  0.957581  0.457100  1
  Si  Si12  1  0.162015  0.542405  0.042649  1
  Si  Si13  1  0.338212  0.043488  0.956512  1
  Si  Si14  1  0.838520  0.455107  0.544705  1
  Si  Si15  1  0.338212  0.043488  0.543488  1
  Si  Si16  1  0.838520  0.455107  0.955295  1
  Si  Si17  1  0.662460  0.957581  0.042900  1
  Si  Si18  1  0.162015  0.542405  0.457351  1
  Si  Si19  1  0.037148  0.872599  0.250000  1
  Si  Si20  1  0.706728  0.877690  0.750000  1
  Si  Si21  1  0.206630  0.621441  0.750000  1
  Si  Si22  1  0.301332  0.134294  0.250000  1
  Si  Si23  1  0.792098  0.375828  0.250000  1
  W  W24  1  0.660955  0.170773  0.628949  1
  W  W25  1  0.161651  0.328167  0.870874  1
  W  W26  1  0.338867  0.830297  0.127481  1
  W  W27  1  0.833142  0.664575  0.374373  1
  W  W28  1  0.338867  0.830297  0.372519  1
  W  W29  1  0.833142  0.664575  0.125627  1
  W  W30  1  0.660955  0.170773  0.871051  1
  W  W31  1  0.161651  0.328167  0.629126  1
  W  W32  1  0.836986  0.483916  0.750000  1
  W  W33  1  0.336249  0.016083  0.750000  1
  W  W34  1  0.163343  0.507882  0.250000  1
  W  W35  1  0.661173  0.987274  0.250000  1
