# generated using pymatgen
data_Hf18TaCoW7S
_symmetry_space_group_name_H-M   'P 1'
_cell_length_a   8.71157690
_cell_length_b   8.71157791
_cell_length_c   8.57500500
_cell_angle_alpha   90.00000000
_cell_angle_beta   90.00000000
_cell_angle_gamma   120.17274025
_symmetry_Int_Tables_number   1
_chemical_formula_structural   Hf18TaCoW7S
_chemical_formula_sum   'Hf18 Ta1 Co1 W7 S1'
_cell_volume   562.60038572
_cell_formula_units_Z   1
loop_
 _symmetry_equiv_pos_site_id
 _symmetry_equiv_pos_as_xyz
  1  'x, y, z'
loop_
 _atom_site_type_symbol
 _atom_site_label
 _atom_site_symmetry_multiplicity
 _atom_site_fract_x
 _atom_site_fract_y
 _atom_site_fract_z
 _atom_site_occupancy
  Hf  Hf0  1  0.196213  0.803787  0.448648  1
  Hf  Hf1  1  0.197628  0.393861  0.449695  1
  Hf  Hf2  1  0.606139  0.802372  0.449695  1
  Hf  Hf3  1  0.798456  0.201544  0.561252  1
  Hf  Hf4  1  0.798877  0.597666  0.559666  1
  Hf  Hf5  1  0.402334  0.201123  0.559666  1
  Hf  Hf6  1  0.798456  0.201544  0.938748  1
  Hf  Hf7  1  0.798877  0.597666  0.940334  1
  Hf  Hf8  1  0.402334  0.201123  0.940334  1
  Hf  Hf9  1  0.196213  0.803787  0.051352  1
  Hf  Hf10  1  0.197628  0.393861  0.050305  1
  Hf  Hf11  1  0.606139  0.802372  0.050305  1
  Hf  Hf12  1  0.546439  0.453561  0.250000  1
  Hf  Hf13  1  0.544740  0.092734  0.250000  1
  Hf  Hf14  1  0.907266  0.455260  0.250000  1
  Hf  Hf15  1  0.458080  0.541920  0.750000  1
  Hf  Hf16  1  0.457694  0.915561  0.750000  1
  Hf  Hf17  1  0.084439  0.542306  0.750000  1
  Ta  Ta18  1  0.888525  0.111475  0.250000  1
  Co  Co19  1  0.666373  0.333627  0.750000  1
  W  W20  1  0.889847  0.777482  0.250000  1
  W  W21  1  0.222518  0.110153  0.250000  1
  W  W22  1  0.111975  0.888025  0.750000  1
  W  W23  1  0.112303  0.223700  0.750000  1
  W  W24  1  0.776300  0.887697  0.750000  1
  W  W25  1  0.000619  0.999381  0.502193  1
  W  W26  1  0.000619  0.999381  0.997807  1
  S  S27  1  0.332966  0.667034  0.250000  1
