# generated using pymatgen
data_Pr3Er4Tm(CdIr)2
_symmetry_space_group_name_H-M   'P 1'
_cell_length_a   9.72978644
_cell_length_b   9.72978622
_cell_length_c   9.72941900
_cell_angle_alpha   60.00124509
_cell_angle_beta   60.00124582
_cell_angle_gamma   59.99750718
_symmetry_Int_Tables_number   1
_chemical_formula_structural   Pr3Er4Tm(CdIr)2
_chemical_formula_sum   'Pr6 Er8 Tm2 Cd4 Ir4'
_cell_volume   651.29614490
_cell_formula_units_Z   2
loop_
 _symmetry_equiv_pos_site_id
 _symmetry_equiv_pos_as_xyz
  1  'x, y, z'
loop_
 _atom_site_type_symbol
 _atom_site_label
 _atom_site_symmetry_multiplicity
 _atom_site_fract_x
 _atom_site_fract_y
 _atom_site_fract_z
 _atom_site_occupancy
  Pr  Pr0  1  0.941529  0.558471  0.558471  1
  Pr  Pr1  1  0.558471  0.941529  0.941529  1
  Pr  Pr2  1  0.558471  0.941529  0.558471  1
  Pr  Pr3  1  0.941529  0.558471  0.941529  1
  Pr  Pr4  1  0.558489  0.558489  0.941511  1
  Pr  Pr5  1  0.941511  0.941511  0.558489  1
  Er  Er6  1  0.346497  0.346497  0.346655  1
  Er  Er7  1  0.346497  0.346497  0.960351  1
  Er  Er8  1  0.346655  0.960351  0.346497  1
  Er  Er9  1  0.960351  0.346655  0.346497  1
  Er  Er10  1  0.813535  0.186465  0.186465  1
  Er  Er11  1  0.186465  0.813535  0.813535  1
  Er  Er12  1  0.186465  0.813535  0.186465  1
  Er  Er13  1  0.813535  0.186465  0.813535  1
  Tm  Tm14  1  0.186543  0.186543  0.813457  1
  Tm  Tm15  1  0.813457  0.813457  0.186543  1
  Cd  Cd16  1  0.579068  0.579068  0.579008  1
  Cd  Cd17  1  0.579068  0.579068  0.262855  1
  Cd  Cd18  1  0.579008  0.262855  0.579068  1
  Cd  Cd19  1  0.262855  0.579008  0.579068  1
  Ir  Ir20  1  0.141130  0.141130  0.140837  1
  Ir  Ir21  1  0.141130  0.141130  0.576902  1
  Ir  Ir22  1  0.140837  0.576902  0.141130  1
  Ir  Ir23  1  0.576902  0.140837  0.141130  1
