# generated using pymatgen
data_Er3Tm2Co19P12
_symmetry_space_group_name_H-M   'P 1'
_cell_length_a   11.94922200
_cell_length_b   11.94591843
_cell_length_c   3.65490200
_cell_angle_alpha   90.00000000
_cell_angle_beta   90.00000000
_cell_angle_gamma   120.00914841
_symmetry_Int_Tables_number   1
_chemical_formula_structural   Er3Tm2Co19P12
_chemical_formula_sum   'Er3 Tm2 Co19 P12'
_cell_volume   451.77843855
_cell_formula_units_Z   1
loop_
 _symmetry_equiv_pos_site_id
 _symmetry_equiv_pos_as_xyz
  1  'x, y, z'
loop_
 _atom_site_type_symbol
 _atom_site_label
 _atom_site_symmetry_multiplicity
 _atom_site_fract_x
 _atom_site_fract_y
 _atom_site_fract_z
 _atom_site_occupancy
  Er  Er0  1  0.333463  0.666717  0.000000  1
  Er  Er1  1  0.666747  0.333283  0.000000  1
  Er  Er2  1  0.186766  0.000000  0.500000  1
  Tm  Tm3  1  0.999895  0.186800  0.500000  1
  Tm  Tm4  1  0.813095  0.813200  0.500000  1
  Co  Co5  1  0.622818  0.822036  0.000000  1
  Co  Co6  1  0.177945  0.800535  0.000000  1
  Co  Co7  1  0.199228  0.377218  0.000000  1
  Co  Co8  1  0.377410  0.199465  0.000000  1
  Co  Co9  1  0.822010  0.622782  0.000000  1
  Co  Co10  1  0.800782  0.177964  0.000000  1
  Co  Co11  1  0.999985  0.552061  0.000000  1
  Co  Co12  1  0.447924  0.447939  0.000000  1
  Co  Co13  1  0.552146  0.000000  0.000000  1
  Co  Co14  1  0.516399  0.642036  0.500000  1
  Co  Co15  1  0.358031  0.874314  0.500000  1
  Co  Co16  1  0.125571  0.483584  0.500000  1
  Co  Co17  1  0.483717  0.125686  0.500000  1
  Co  Co18  1  0.641987  0.516416  0.500000  1
  Co  Co19  1  0.874363  0.357964  0.500000  1
  Co  Co20  1  0.999905  0.715195  0.500000  1
  Co  Co21  1  0.284710  0.284805  0.500000  1
  Co  Co22  1  0.715348  0.000000  0.500000  1
  Co  Co23  1  0.999732  0.000000  0.000000  1
  P  P24  1  0.999976  0.367138  0.000000  1
  P  P25  1  0.632838  0.632862  0.000000  1
  P  P26  1  0.367399  0.000000  0.000000  1
  P  P27  1  0.519602  0.834175  0.500000  1
  P  P28  1  0.165858  0.685444  0.500000  1
  P  P29  1  0.314648  0.480501  0.500000  1
  P  P30  1  0.480415  0.314556  0.500000  1
  P  P31  1  0.834147  0.519499  0.500000  1
  P  P32  1  0.685428  0.165825  0.500000  1
  P  P33  1  0.999749  0.820146  0.000000  1
  P  P34  1  0.179603  0.179854  0.000000  1
  P  P35  1  0.820360  0.000000  0.000000  1
