# generated using pymatgen
data_Ho3ErSi4IrRu3
_symmetry_space_group_name_H-M   'P 1'
_cell_length_a   4.30017800
_cell_length_b   6.94394057
_cell_length_c   7.17634432
_cell_angle_alpha   89.80281427
_cell_angle_beta   90.00000000
_cell_angle_gamma   90.00000000
_symmetry_Int_Tables_number   1
_chemical_formula_structural   Ho3ErSi4IrRu3
_chemical_formula_sum   'Ho3 Er1 Si4 Ir1 Ru3'
_cell_volume   214.28566740
_cell_formula_units_Z   1
loop_
 _symmetry_equiv_pos_site_id
 _symmetry_equiv_pos_as_xyz
  1  'x, y, z'
loop_
 _atom_site_type_symbol
 _atom_site_label
 _atom_site_symmetry_multiplicity
 _atom_site_fract_x
 _atom_site_fract_y
 _atom_site_fract_z
 _atom_site_occupancy
  Ho  Ho0  1  0.250000  0.988244  0.814781  1
  Ho  Ho1  1  0.750000  0.013933  0.186552  1
  Ho  Ho2  1  0.250000  0.489442  0.686625  1
  Er  Er3  1  0.750000  0.508804  0.312375  1
  Si  Si4  1  0.250000  0.303333  0.107231  1
  Si  Si5  1  0.750000  0.698262  0.894878  1
  Si  Si6  1  0.250000  0.801679  0.388756  1
  Si  Si7  1  0.750000  0.198214  0.608053  1
  Ir  Ir8  1  0.750000  0.843579  0.566452  1
  Ru  Ru9  1  0.250000  0.153075  0.434849  1
  Ru  Ru10  1  0.750000  0.346535  0.933677  1
  Ru  Ru11  1  0.250000  0.654901  0.065771  1
