# generated using pymatgen
data_La2Cu6NiPd3
_symmetry_space_group_name_H-M   'P 1'
_cell_length_a   4.07296200
_cell_length_b   5.16335774
_cell_length_c   9.34497297
_cell_angle_alpha   87.55275089
_cell_angle_beta   90.00000000
_cell_angle_gamma   90.00000000
_symmetry_Int_Tables_number   1
_chemical_formula_structural   La2Cu6NiPd3
_chemical_formula_sum   'La2 Cu6 Ni1 Pd3'
_cell_volume   196.34703525
_cell_formula_units_Z   1
loop_
 _symmetry_equiv_pos_site_id
 _symmetry_equiv_pos_as_xyz
  1  'x, y, z'
loop_
 _atom_site_type_symbol
 _atom_site_label
 _atom_site_symmetry_multiplicity
 _atom_site_fract_x
 _atom_site_fract_y
 _atom_site_fract_z
 _atom_site_occupancy
  La  La0  1  0.000000  0.239010  0.750176  1
  La  La1  1  0.000000  0.760990  0.249824  1
  Cu  Cu2  1  0.000000  0.272431  0.078685  1
  Cu  Cu3  1  0.000000  0.742083  0.566977  1
  Cu  Cu4  1  0.000000  0.727569  0.921315  1
  Cu  Cu5  1  0.000000  0.257917  0.433023  1
  Cu  Cu6  1  0.500000  0.500000  0.000000  1
  Cu  Cu7  1  0.500000  0.000000  0.500000  1
  Ni  Ni8  1  0.500000  0.500000  0.500000  1
  Pd  Pd9  1  0.500000  0.733307  0.743997  1
  Pd  Pd10  1  0.500000  0.266693  0.256003  1
  Pd  Pd11  1  0.500000  0.000000  0.000000  1
