# generated using pymatgen
data_RbHS6
_symmetry_space_group_name_H-M   'P 1'
_cell_length_a   7.15976269
_cell_length_b   11.80936335
_cell_length_c   11.03801274
_cell_angle_alpha   75.70976419
_cell_angle_beta   87.70343591
_cell_angle_gamma   82.68839755
_symmetry_Int_Tables_number   1
_chemical_formula_structural   RbHS6
_chemical_formula_sum   'Rb4 H4 S24'
_cell_volume   897.02025702
_cell_formula_units_Z   4
loop_
 _symmetry_equiv_pos_site_id
 _symmetry_equiv_pos_as_xyz
  1  'x, y, z'
loop_
 _atom_site_type_symbol
 _atom_site_label
 _atom_site_symmetry_multiplicity
 _atom_site_fract_x
 _atom_site_fract_y
 _atom_site_fract_z
 _atom_site_occupancy
  Rb  Rb0  1  0.834854  0.696517  0.606069  1
  Rb  Rb1  1  0.165146  0.303483  0.393931  1
  Rb  Rb2  1  0.684037  0.347701  0.948572  1
  Rb  Rb3  1  0.315963  0.652299  0.051428  1
  H  H4  1  0.662764  0.398691  0.424535  1
  H  H5  1  0.337236  0.601309  0.575465  1
  H  H6  1  0.176604  0.408505  0.866512  1
  H  H7  1  0.823396  0.591495  0.133488  1
  S  S8  1  0.399711  0.620605  0.739594  1
  S  S9  1  0.600289  0.379395  0.260406  1
  S  S10  1  0.226042  0.774781  0.730183  1
  S  S11  1  0.773958  0.225219  0.269817  1
  S  S12  1  0.330427  0.907011  0.596320  1
  S  S13  1  0.669573  0.092989  0.403680  1
  S  S14  1  0.217991  0.903073  0.424268  1
  S  S15  1  0.782009  0.096927  0.575732  1
  S  S16  1  0.379974  0.768312  0.367073  1
  S  S17  1  0.620026  0.231688  0.632927  1
  S  S18  1  0.732307  0.384955  0.550026  1
  S  S19  1  0.267693  0.615045  0.449974  1
  S  S20  1  0.218099  0.394727  0.743024  1
  S  S21  1  0.781901  0.605273  0.256976  1
  S  S22  1  0.098130  0.239051  0.761519  1
  S  S23  1  0.901870  0.760949  0.238481  1
  S  S24  1  0.267157  0.104405  0.876911  1
  S  S25  1  0.732843  0.895595  0.123089  1
  S  S26  1  0.171676  0.101830  0.059229  1
  S  S27  1  0.828324  0.898170  0.940771  1
  S  S28  1  0.699638  0.774891  0.882416  1
  S  S29  1  0.300362  0.225109  0.117584  1
  S  S30  1  0.857086  0.613148  0.941167  1
  S  S31  1  0.142914  0.386852  0.058833  1
