# generated using pymatgen
data_Pr16Sm4Si15P
_symmetry_space_group_name_H-M   'P 1'
_cell_length_a   7.89513855
_cell_length_b   7.89865033
_cell_length_c   15.35671600
_cell_angle_alpha   89.87648827
_cell_angle_beta   89.86612823
_cell_angle_gamma   90.12531192
_symmetry_Int_Tables_number   1
_chemical_formula_structural   Pr16Sm4Si15P
_chemical_formula_sum   'Pr16 Sm4 Si15 P1'
_cell_volume   957.65208535
_cell_formula_units_Z   1
loop_
 _symmetry_equiv_pos_site_id
 _symmetry_equiv_pos_as_xyz
  1  'x, y, z'
loop_
 _atom_site_type_symbol
 _atom_site_label
 _atom_site_symmetry_multiplicity
 _atom_site_fract_x
 _atom_site_fract_y
 _atom_site_fract_z
 _atom_site_occupancy
  Pr  Pr0  1  0.381637  0.009044  0.443007  1
  Pr  Pr1  1  0.486704  0.879754  0.696018  1
  Pr  Pr2  1  0.512333  0.120430  0.194849  1
  Pr  Pr3  1  0.878811  0.487009  0.304206  1
  Pr  Pr4  1  0.122902  0.509970  0.803990  1
  Pr  Pr5  1  0.621947  0.988158  0.944750  1
  Pr  Pr6  1  0.010561  0.377704  0.555714  1
  Pr  Pr7  1  0.988718  0.619956  0.054413  1
  Pr  Pr8  1  0.127888  0.982035  0.875868  1
  Pr  Pr9  1  0.522184  0.626173  0.126843  1
  Pr  Pr10  1  0.473018  0.369326  0.629006  1
  Pr  Pr11  1  0.626543  0.522034  0.872017  1
  Pr  Pr12  1  0.372335  0.476159  0.373643  1
  Pr  Pr13  1  0.875808  0.022072  0.378172  1
  Pr  Pr14  1  0.978630  0.125574  0.122136  1
  Pr  Pr15  1  0.025568  0.880657  0.623249  1
  Sm  Sm16  1  0.310708  0.309697  0.999761  1
  Sm  Sm17  1  0.190126  0.807576  0.249826  1
  Sm  Sm18  1  0.807087  0.191378  0.750177  1
  Sm  Sm19  1  0.690044  0.689530  0.499899  1
  Si  Si20  1  0.328434  0.691923  0.955359  1
  Si  Si21  1  0.671074  0.309066  0.457573  1
  Si  Si22  1  0.692418  0.329805  0.043715  1
  Si  Si23  1  0.308048  0.670727  0.544861  1
  Si  Si24  1  0.809585  0.828716  0.206613  1
  Si  Si25  1  0.172014  0.190039  0.292685  1
  Si  Si26  1  0.831011  0.809329  0.792846  1
  Si  Si27  1  0.286851  0.920864  0.060906  1
  Si  Si28  1  0.579439  0.785321  0.311302  1
  Si  Si29  1  0.425282  0.212838  0.813937  1
  Si  Si30  1  0.787385  0.580247  0.687352  1
  Si  Si31  1  0.212992  0.421674  0.188342  1
  Si  Si32  1  0.709784  0.077000  0.562005  1
  Si  Si33  1  0.922777  0.287957  0.938226  1
  Si  Si34  1  0.078434  0.711970  0.439317  1
  P  P35  1  0.180919  0.178287  0.707415  1
