# generated using pymatgen
data_Sm5Th5(Pb3Cl)2
_symmetry_space_group_name_H-M   'P 1'
_cell_length_a   9.51151800
_cell_length_b   9.51212007
_cell_length_c   6.66749800
_cell_angle_alpha   90.00000000
_cell_angle_beta   90.00000000
_cell_angle_gamma   119.99789928
_symmetry_Int_Tables_number   1
_chemical_formula_structural   Sm5Th5(Pb3Cl)2
_chemical_formula_sum   'Sm5 Th5 Pb6 Cl2'
_cell_volume   522.43212763
_cell_formula_units_Z   1
loop_
 _symmetry_equiv_pos_site_id
 _symmetry_equiv_pos_as_xyz
  1  'x, y, z'
loop_
 _atom_site_type_symbol
 _atom_site_label
 _atom_site_symmetry_multiplicity
 _atom_site_fract_x
 _atom_site_fract_y
 _atom_site_fract_z
 _atom_site_occupancy
  Sm  Sm0  1  0.734418  0.000000  0.750000  1
  Sm  Sm1  1  0.000575  0.265390  0.250000  1
  Sm  Sm2  1  0.999313  0.734604  0.750000  1
  Sm  Sm3  1  0.735185  0.734610  0.250000  1
  Sm  Sm4  1  0.264709  0.265396  0.750000  1
  Th  Th5  1  0.332900  0.668599  0.005619  1
  Th  Th6  1  0.664302  0.331401  0.005619  1
  Th  Th7  1  0.664302  0.331401  0.494381  1
  Th  Th8  1  0.332900  0.668599  0.494381  1
  Th  Th9  1  0.269141  0.000000  0.250000  1
  Pb  Pb10  1  0.620895  0.000000  0.250000  1
  Pb  Pb11  1  0.385493  0.000000  0.750000  1
  Pb  Pb12  1  0.997384  0.613486  0.250000  1
  Pb  Pb13  1  0.999440  0.386363  0.750000  1
  Pb  Pb14  1  0.383898  0.386514  0.250000  1
  Pb  Pb15  1  0.613077  0.613637  0.750000  1
  Cl  Cl16  1  0.001034  0.000000  0.999864  1
  Cl  Cl17  1  0.001034  0.000000  0.500136  1
