# generated using pymatgen
data_Tb(Nd4Rh3)2
_symmetry_space_group_name_H-M   'P 1'
_cell_length_a   7.61474199
_cell_length_b   7.61474218
_cell_length_c   7.61474185
_cell_angle_alpha   71.36395438
_cell_angle_beta   71.36395127
_cell_angle_gamma   71.36394872
_symmetry_Int_Tables_number   1
_chemical_formula_structural   Tb(Nd4Rh3)2
_chemical_formula_sum   'Tb1 Nd8 Rh6'
_cell_volume   384.64709182
_cell_formula_units_Z   1
loop_
 _symmetry_equiv_pos_site_id
 _symmetry_equiv_pos_as_xyz
  1  'x, y, z'
loop_
 _atom_site_type_symbol
 _atom_site_label
 _atom_site_symmetry_multiplicity
 _atom_site_fract_x
 _atom_site_fract_y
 _atom_site_fract_z
 _atom_site_occupancy
  Tb  Tb0  1  0.000000  0.000000  0.000000  1
  Nd  Nd1  1  0.798068  0.798068  0.798068  1
  Nd  Nd2  1  0.201932  0.201932  0.201932  1
  Nd  Nd3  1  0.162904  0.390345  0.666701  1
  Nd  Nd4  1  0.666701  0.162904  0.390345  1
  Nd  Nd5  1  0.390345  0.666701  0.162904  1
  Nd  Nd6  1  0.837096  0.609655  0.333299  1
  Nd  Nd7  1  0.333299  0.837096  0.609655  1
  Nd  Nd8  1  0.609655  0.333299  0.837096  1
  Rh  Rh9  1  0.958077  0.160486  0.595087  1
  Rh  Rh10  1  0.595087  0.958077  0.160486  1
  Rh  Rh11  1  0.160486  0.595087  0.958077  1
  Rh  Rh12  1  0.041923  0.839514  0.404913  1
  Rh  Rh13  1  0.404913  0.041923  0.839514  1
  Rh  Rh14  1  0.839514  0.404913  0.041923  1
