# generated using pymatgen
data_CeYHo3(FeB3)2
_symmetry_space_group_name_H-M   'P 1'
_cell_length_a   5.41633431
_cell_length_b   5.41633376
_cell_length_c   7.98240668
_cell_angle_alpha   70.16778066
_cell_angle_beta   70.16777505
_cell_angle_gamma   60.00000102
_symmetry_Int_Tables_number   1
_chemical_formula_structural   CeYHo3(FeB3)2
_chemical_formula_sum   'Ce1 Y1 Ho3 Fe2 B6'
_cell_volume   186.59357301
_cell_formula_units_Z   1
loop_
 _symmetry_equiv_pos_site_id
 _symmetry_equiv_pos_as_xyz
  1  'x, y, z'
loop_
 _atom_site_type_symbol
 _atom_site_label
 _atom_site_symmetry_multiplicity
 _atom_site_fract_x
 _atom_site_fract_y
 _atom_site_fract_z
 _atom_site_occupancy
  Ce  Ce0  1  0.999417  0.999417  0.001748  1
  Y  Y1  1  0.413853  0.413853  0.758438  1
  Ho  Ho2  1  0.747441  0.747441  0.757680  1
  Ho  Ho3  1  0.252719  0.252719  0.241840  1
  Ho  Ho4  1  0.585726  0.585726  0.242823  1
  Fe  Fe5  1  0.890086  0.890086  0.329740  1
  Fe  Fe6  1  0.110037  0.110037  0.669889  1
  B  B7  1  0.500091  0.167103  0.499640  1
  B  B8  1  0.833166  0.500091  0.499640  1
  B  B9  1  0.167103  0.833166  0.499640  1
  B  B10  1  0.167103  0.500091  0.499640  1
  B  B11  1  0.833166  0.167103  0.499640  1
  B  B12  1  0.500091  0.833166  0.499640  1
