# generated using pymatgen
data_Tb5YCoPd
_symmetry_space_group_name_H-M   'P 1'
_cell_length_a   6.37679320
_cell_length_b   7.08928928
_cell_length_c   9.52844700
_cell_angle_alpha   90.00000000
_cell_angle_beta   90.00000000
_cell_angle_gamma   90.46783365
_symmetry_Int_Tables_number   1
_chemical_formula_structural   Tb5YCoPd
_chemical_formula_sum   'Tb10 Y2 Co2 Pd2'
_cell_volume   430.73749340
_cell_formula_units_Z   2
loop_
 _symmetry_equiv_pos_site_id
 _symmetry_equiv_pos_as_xyz
  1  'x, y, z'
loop_
 _atom_site_type_symbol
 _atom_site_label
 _atom_site_symmetry_multiplicity
 _atom_site_fract_x
 _atom_site_fract_y
 _atom_site_fract_z
 _atom_site_occupancy
  Tb  Tb0  1  0.620604  0.046993  0.250000  1
  Tb  Tb1  1  0.379396  0.953007  0.750000  1
  Tb  Tb2  1  0.178832  0.187896  0.061823  1
  Tb  Tb3  1  0.821168  0.812104  0.938177  1
  Tb  Tb4  1  0.670846  0.329838  0.934345  1
  Tb  Tb5  1  0.821168  0.812104  0.561823  1
  Tb  Tb6  1  0.329154  0.670162  0.065655  1
  Tb  Tb7  1  0.178832  0.187896  0.438177  1
  Tb  Tb8  1  0.329154  0.670162  0.434345  1
  Tb  Tb9  1  0.670846  0.329838  0.565655  1
  Y  Y10  1  0.145616  0.481739  0.750000  1
  Y  Y11  1  0.854384  0.518261  0.250000  1
  Co  Co12  1  0.438739  0.383984  0.250000  1
  Co  Co13  1  0.561261  0.616016  0.750000  1
  Pd  Pd14  1  0.948831  0.107619  0.750000  1
  Pd  Pd15  1  0.051169  0.892381  0.250000  1
