# generated using pymatgen
data_NdTm2Co8ReP6
_symmetry_space_group_name_H-M   'P 1'
_cell_length_a   3.73211300
_cell_length_b   10.54426200
_cell_length_c   12.26723000
_cell_angle_alpha   90.00000000
_cell_angle_beta   90.00000000
_cell_angle_gamma   90.00000000
_symmetry_Int_Tables_number   1
_chemical_formula_structural   NdTm2Co8ReP6
_chemical_formula_sum   'Nd2 Tm4 Co16 Re2 P12'
_cell_volume   482.74466321
_cell_formula_units_Z   2
loop_
 _symmetry_equiv_pos_site_id
 _symmetry_equiv_pos_as_xyz
  1  'x, y, z'
loop_
 _atom_site_type_symbol
 _atom_site_label
 _atom_site_symmetry_multiplicity
 _atom_site_fract_x
 _atom_site_fract_y
 _atom_site_fract_z
 _atom_site_occupancy
  Nd  Nd0  1  0.000000  0.500000  0.525039  1
  Nd  Nd1  1  0.500000  0.000000  0.474961  1
  Tm  Tm2  1  0.500000  0.818084  0.204194  1
  Tm  Tm3  1  0.500000  0.181916  0.204194  1
  Tm  Tm4  1  0.000000  0.681916  0.795806  1
  Tm  Tm5  1  0.000000  0.318084  0.795806  1
  Co  Co6  1  0.500000  0.500000  0.705915  1
  Co  Co7  1  0.000000  0.000000  0.294085  1
  Co  Co8  1  0.000000  0.500000  0.987528  1
  Co  Co9  1  0.500000  0.000000  0.012472  1
  Co  Co10  1  0.500000  0.332140  0.989590  1
  Co  Co11  1  0.500000  0.667860  0.989590  1
  Co  Co12  1  0.000000  0.167860  0.010410  1
  Co  Co13  1  0.000000  0.832140  0.010410  1
  Co  Co14  1  0.500000  0.296070  0.429211  1
  Co  Co15  1  0.500000  0.703930  0.429211  1
  Co  Co16  1  0.000000  0.203930  0.570789  1
  Co  Co17  1  0.000000  0.796070  0.570789  1
  Co  Co18  1  0.500000  0.879032  0.711387  1
  Co  Co19  1  0.500000  0.120968  0.711387  1
  Co  Co20  1  0.000000  0.620968  0.288613  1
  Co  Co21  1  0.000000  0.379032  0.288613  1
  Re  Re22  1  0.500000  0.500000  0.154226  1
  Re  Re23  1  0.000000  0.000000  0.845774  1
  P  P24  1  0.500000  0.500000  0.880875  1
  P  P25  1  0.000000  0.000000  0.119125  1
  P  P26  1  0.500000  0.500000  0.345529  1
  P  P27  1  0.000000  0.000000  0.654471  1
  P  P28  1  0.500000  0.308877  0.618723  1
  P  P29  1  0.500000  0.691123  0.618723  1
  P  P30  1  0.000000  0.191123  0.381277  1
  P  P31  1  0.000000  0.808877  0.381277  1
  P  P32  1  0.500000  0.845051  0.892800  1
  P  P33  1  0.500000  0.154949  0.892800  1
  P  P34  1  0.000000  0.654949  0.107200  1
  P  P35  1  0.000000  0.345051  0.107200  1
