# generated using pymatgen
data_Tb3Mg2CdSi2Au
_symmetry_space_group_name_H-M   'P 1'
_cell_length_a   7.28640200
_cell_length_b   7.23215908
_cell_length_c   4.35191000
_cell_angle_alpha   90.00000000
_cell_angle_beta   90.00000000
_cell_angle_gamma   120.24840842
_symmetry_Int_Tables_number   1
_chemical_formula_structural   Tb3Mg2CdSi2Au
_chemical_formula_sum   'Tb3 Mg2 Cd1 Si2 Au1'
_cell_volume   198.10666626
_cell_formula_units_Z   1
loop_
 _symmetry_equiv_pos_site_id
 _symmetry_equiv_pos_as_xyz
  1  'x, y, z'
loop_
 _atom_site_type_symbol
 _atom_site_label
 _atom_site_symmetry_multiplicity
 _atom_site_fract_x
 _atom_site_fract_y
 _atom_site_fract_z
 _atom_site_occupancy
  Tb  Tb0  1  0.578928  0.000000  0.000000  1
  Tb  Tb1  1  0.001369  0.583065  0.000000  1
  Tb  Tb2  1  0.418304  0.416935  0.000000  1
  Mg  Mg3  1  0.001179  0.243987  0.500000  1
  Mg  Mg4  1  0.757192  0.756013  0.500000  1
  Cd  Cd5  1  0.251782  0.000000  0.500000  1
  Si  Si6  1  0.333802  0.663139  0.500000  1
  Si  Si7  1  0.670664  0.336861  0.500000  1
  Au  Au8  1  0.986780  0.000000  0.000000  1
