# generated using pymatgen
data_Pr3TiTcC6
_symmetry_space_group_name_H-M   'P 1'
_cell_length_a   8.66710700
_cell_length_b   8.66710689
_cell_length_c   5.23320400
_cell_angle_alpha   90.00000000
_cell_angle_beta   90.00000000
_cell_angle_gamma   119.99999661
_symmetry_Int_Tables_number   1
_chemical_formula_structural   Pr3TiTcC6
_chemical_formula_sum   'Pr6 Ti2 Tc2 C12'
_cell_volume   340.44473490
_cell_formula_units_Z   2
loop_
 _symmetry_equiv_pos_site_id
 _symmetry_equiv_pos_as_xyz
  1  'x, y, z'
loop_
 _atom_site_type_symbol
 _atom_site_label
 _atom_site_symmetry_multiplicity
 _atom_site_fract_x
 _atom_site_fract_y
 _atom_site_fract_z
 _atom_site_occupancy
  Pr  Pr0  1  0.616536  0.686883  0.750000  1
  Pr  Pr1  1  0.929654  0.616536  0.250000  1
  Pr  Pr2  1  0.686883  0.070346  0.250000  1
  Pr  Pr3  1  0.313117  0.929654  0.750000  1
  Pr  Pr4  1  0.070346  0.383464  0.750000  1
  Pr  Pr5  1  0.383464  0.313117  0.250000  1
  Ti  Ti6  1  0.000000  0.000000  0.500000  1
  Ti  Ti7  1  0.000000  0.000000  0.000000  1
  Tc  Tc8  1  0.666667  0.333333  0.750000  1
  Tc  Tc9  1  0.333333  0.666667  0.250000  1
  C  C10  1  0.953175  0.764964  0.750000  1
  C  C11  1  0.188211  0.953175  0.250000  1
  C  C12  1  0.764964  0.811789  0.250000  1
  C  C13  1  0.235036  0.188211  0.750000  1
  C  C14  1  0.811789  0.046825  0.750000  1
  C  C15  1  0.046825  0.235036  0.250000  1
  C  C16  1  0.858046  0.582388  0.750000  1
  C  C17  1  0.275657  0.858046  0.250000  1
  C  C18  1  0.582388  0.724343  0.250000  1
  C  C19  1  0.417612  0.275657  0.750000  1
  C  C20  1  0.141954  0.417612  0.250000  1
  C  C21  1  0.724343  0.141954  0.750000  1
