# generated using pymatgen
data_Ho12SiTc2Ni2Sn
_symmetry_space_group_name_H-M   'P 1'
_cell_length_a   8.36447295
_cell_length_b   8.36447361
_cell_length_c   8.36447369
_cell_angle_alpha   113.33354516
_cell_angle_beta   111.26324419
_cell_angle_gamma   103.96112304
_symmetry_Int_Tables_number   1
_chemical_formula_structural   Ho12SiTc2Ni2Sn
_chemical_formula_sum   'Ho12 Si1 Tc2 Ni2 Sn1'
_cell_volume   447.25241644
_cell_formula_units_Z   1
loop_
 _symmetry_equiv_pos_site_id
 _symmetry_equiv_pos_as_xyz
  1  'x, y, z'
loop_
 _atom_site_type_symbol
 _atom_site_label
 _atom_site_symmetry_multiplicity
 _atom_site_fract_x
 _atom_site_fract_y
 _atom_site_fract_z
 _atom_site_occupancy
  Ho  Ho0  1  0.430961  0.237282  0.193678  1
  Ho  Ho1  1  0.569039  0.762718  0.806322  1
  Ho  Ho2  1  0.043603  0.237282  0.806322  1
  Ho  Ho3  1  0.956397  0.762718  0.193678  1
  Ho  Ho4  1  0.178497  0.280287  0.458784  1
  Ho  Ho5  1  0.821503  0.719713  0.541216  1
  Ho  Ho6  1  0.178497  0.719713  0.898211  1
  Ho  Ho7  1  0.821503  0.280287  0.101789  1
  Ho  Ho8  1  0.332020  0.648479  0.316459  1
  Ho  Ho9  1  0.667980  0.351521  0.683541  1
  Ho  Ho10  1  0.332020  0.015561  0.683541  1
  Ho  Ho11  1  0.667980  0.984439  0.316459  1
  Si  Si12  1  0.000000  0.000000  0.000000  1
  Tc  Tc13  1  0.321707  0.000000  0.321707  1
  Tc  Tc14  1  0.678293  0.000000  0.678293  1
  Ni  Ni15  1  0.118449  0.618449  0.500000  1
  Ni  Ni16  1  0.881551  0.381551  0.500000  1
  Sn  Sn17  1  0.500000  0.500000  0.000000  1
