# generated using pymatgen
data_Zn5Ni(Mo3N)2
_symmetry_space_group_name_H-M   'P 1'
_cell_length_a   7.99409093
_cell_length_b   7.99409175
_cell_length_c   8.00113800
_cell_angle_alpha   59.96934494
_cell_angle_beta   59.96934464
_cell_angle_gamma   59.92295257
_symmetry_Int_Tables_number   1
_chemical_formula_structural   Zn5Ni(Mo3N)2
_chemical_formula_sum   'Zn10 Ni2 Mo12 N4'
_cell_volume   361.17717829
_cell_formula_units_Z   2
loop_
 _symmetry_equiv_pos_site_id
 _symmetry_equiv_pos_as_xyz
  1  'x, y, z'
loop_
 _atom_site_type_symbol
 _atom_site_label
 _atom_site_symmetry_multiplicity
 _atom_site_fract_x
 _atom_site_fract_y
 _atom_site_fract_z
 _atom_site_occupancy
  Zn  Zn0  1  0.748259  0.415788  0.417970  1
  Zn  Zn1  1  0.415788  0.748260  0.417970  1
  Zn  Zn2  1  0.834319  0.834319  0.498628  1
  Zn  Zn3  1  0.834322  0.834322  0.832732  1
  Zn  Zn4  1  0.497738  0.834757  0.833748  1
  Zn  Zn5  1  0.834757  0.497738  0.833748  1
  Zn  Zn6  1  0.621250  0.621250  0.128870  1
  Zn  Zn7  1  0.621246  0.621246  0.628635  1
  Zn  Zn8  1  0.134434  0.615546  0.625012  1
  Zn  Zn9  1  0.615546  0.134434  0.625012  1
  Ni  Ni10  1  0.415045  0.415045  0.756747  1
  Ni  Ni11  1  0.415138  0.415138  0.413156  1
  Mo  Mo12  1  0.808575  0.191249  0.191392  1
  Mo  Mo13  1  0.191249  0.808575  0.191392  1
  Mo  Mo14  1  0.811121  0.811121  0.188877  1
  Mo  Mo15  1  0.191247  0.808584  0.808776  1
  Mo  Mo16  1  0.808585  0.191247  0.808776  1
  Mo  Mo17  1  0.192740  0.192740  0.807253  1
  Mo  Mo18  1  0.439004  0.065376  0.059091  1
  Mo  Mo19  1  0.065376  0.439004  0.059092  1
  Mo  Mo20  1  0.436834  0.436834  0.063147  1
  Mo  Mo21  1  0.065364  0.439007  0.436520  1
  Mo  Mo22  1  0.439007  0.065364  0.436520  1
  Mo  Mo23  1  0.061939  0.061939  0.438056  1
  N  N24  1  0.124312  0.124312  0.628114  1
  N  N25  1  0.124309  0.124309  0.123259  1
  N  N26  1  0.628207  0.124289  0.123753  1
  N  N27  1  0.124289  0.628206  0.123753  1
