# generated using pymatgen
data_Dy7Tm3Si5P
_symmetry_space_group_name_H-M   'P 1'
_cell_length_a   8.37827302
_cell_length_b   8.38369151
_cell_length_c   6.25559510
_cell_angle_alpha   89.98791054
_cell_angle_beta   89.99154687
_cell_angle_gamma   119.98026689
_symmetry_Int_Tables_number   1
_chemical_formula_structural   Dy7Tm3Si5P
_chemical_formula_sum   'Dy7 Tm3 Si5 P1'
_cell_volume   380.60575850
_cell_formula_units_Z   1
loop_
 _symmetry_equiv_pos_site_id
 _symmetry_equiv_pos_as_xyz
  1  'x, y, z'
loop_
 _atom_site_type_symbol
 _atom_site_label
 _atom_site_symmetry_multiplicity
 _atom_site_fract_x
 _atom_site_fract_y
 _atom_site_fract_z
 _atom_site_occupancy
  Dy  Dy0  1  0.000919  0.756187  0.750262  1
  Dy  Dy1  1  0.001297  0.245066  0.249647  1
  Dy  Dy2  1  0.755971  0.755159  0.249688  1
  Dy  Dy3  1  0.753981  0.999828  0.750301  1
  Dy  Dy4  1  0.244608  0.244033  0.750395  1
  Dy  Dy5  1  0.244466  0.999803  0.249721  1
  Dy  Dy6  1  0.666104  0.332280  0.500469  1
  Tm  Tm7  1  0.666301  0.332501  0.999799  1
  Tm  Tm8  1  0.333779  0.667386  0.499867  1
  Tm  Tm9  1  0.333807  0.667522  0.000035  1
  Si  Si10  1  0.394507  0.394749  0.249031  1
  Si  Si11  1  0.001523  0.606201  0.249121  1
  Si  Si12  1  0.001013  0.394584  0.750876  1
  Si  Si13  1  0.605638  0.606441  0.750898  1
  Si  Si14  1  0.606141  0.999073  0.249102  1
  P  P15  1  0.389945  0.999186  0.750787  1
