# generated using pymatgen
data_Er6Sc2V7Si16W5
_symmetry_space_group_name_H-M   'P 1'
_cell_length_a   6.76713500
_cell_length_b   6.77041128
_cell_length_c   12.59490110
_cell_angle_alpha   90.00330659
_cell_angle_beta   90.00341858
_cell_angle_gamma   90.11334525
_symmetry_Int_Tables_number   1
_chemical_formula_structural   Er6Sc2V7Si16W5
_chemical_formula_sum   'Er6 Sc2 V7 Si16 W5'
_cell_volume   577.05047467
_cell_formula_units_Z   1
loop_
 _symmetry_equiv_pos_site_id
 _symmetry_equiv_pos_as_xyz
  1  'x, y, z'
loop_
 _atom_site_type_symbol
 _atom_site_label
 _atom_site_symmetry_multiplicity
 _atom_site_fract_x
 _atom_site_fract_y
 _atom_site_fract_z
 _atom_site_occupancy
  Er  Er0  1  0.000806  0.664421  0.029886  1
  Er  Er1  1  0.836571  0.499269  0.281221  1
  Er  Er2  1  0.164074  0.500222  0.780303  1
  Er  Er3  1  0.500411  0.836813  0.719683  1
  Er  Er4  1  0.500243  0.163423  0.219775  1
  Er  Er5  1  0.998978  0.335756  0.530353  1
  Sc  Sc6  1  0.663151  0.005696  0.968844  1
  Sc  Sc7  1  0.338062  0.993949  0.469491  1
  V  V8  1  0.336946  0.507293  0.375017  1
  V  V9  1  0.661466  0.491388  0.875292  1
  V  V10  1  0.505076  0.338661  0.624031  1
  V  V11  1  0.495809  0.661334  0.124804  1
  V  V12  1  0.990960  0.842456  0.625122  1
  V  V13  1  0.163194  0.006451  0.875530  1
  V  V14  1  0.837650  0.995181  0.373526  1
  Si  Si15  1  0.299832  0.958377  0.061975  1
  Si  Si16  1  0.537274  0.791608  0.316142  1
  Si  Si17  1  0.461832  0.208046  0.814822  1
  Si  Si18  1  0.789210  0.539922  0.686480  1
  Si  Si19  1  0.212892  0.462834  0.187084  1
  Si  Si20  1  0.704568  0.039280  0.562169  1
  Si  Si21  1  0.958391  0.288083  0.933916  1
  Si  Si22  1  0.040039  0.714576  0.436935  1
  Si  Si23  1  0.701994  0.375451  0.065523  1
  Si  Si24  1  0.127868  0.200934  0.321728  1
  Si  Si25  1  0.874131  0.800444  0.819331  1
  Si  Si26  1  0.204021  0.122467  0.681545  1
  Si  Si27  1  0.792792  0.871852  0.182154  1
  Si  Si28  1  0.295946  0.626895  0.566126  1
  Si  Si29  1  0.382283  0.704880  0.932722  1
  Si  Si30  1  0.617924  0.294509  0.433133  1
  W  W31  1  0.333974  0.331836  0.999779  1
  W  W32  1  0.168553  0.832818  0.250581  1
  W  W33  1  0.830973  0.166824  0.749379  1
  W  W34  1  0.666127  0.668173  0.500435  1
  W  W35  1  0.005981  0.157878  0.125158  1
