# generated using pymatgen
data_Y3Cd2InGa2Cu
_symmetry_space_group_name_H-M   'P 1'
_cell_length_a   7.24959231
_cell_length_b   7.23980639
_cell_length_c   4.36007500
_cell_angle_alpha   90.00000000
_cell_angle_beta   90.00000000
_cell_angle_gamma   119.95534469
_symmetry_Int_Tables_number   1
_chemical_formula_structural   Y3Cd2InGa2Cu
_chemical_formula_sum   'Y3 Cd2 In1 Ga2 Cu1'
_cell_volume   198.27153752
_cell_formula_units_Z   1
loop_
 _symmetry_equiv_pos_site_id
 _symmetry_equiv_pos_as_xyz
  1  'x, y, z'
loop_
 _atom_site_type_symbol
 _atom_site_label
 _atom_site_symmetry_multiplicity
 _atom_site_fract_x
 _atom_site_fract_y
 _atom_site_fract_z
 _atom_site_occupancy
  Y  Y0  1  0.000000  0.586299  0.500000  1
  Y  Y1  1  0.413795  0.413746  0.500000  1
  Y  Y2  1  0.586205  0.999951  0.500000  1
  Cd  Cd3  1  0.755502  0.754179  0.000000  1
  Cd  Cd4  1  0.244498  0.998679  0.000000  1
  In  In5  1  0.000000  0.241668  0.000000  1
  Ga  Ga6  1  0.333779  0.668193  0.000000  1
  Ga  Ga7  1  0.666221  0.334414  0.000000  1
  Cu  Cu8  1  0.000000  0.002871  0.500000  1
