# generated using pymatgen
data_Ho6Al18Fe7Si6Tc
_symmetry_space_group_name_H-M   'P 1'
_cell_length_a   8.50976000
_cell_length_b   8.52225753
_cell_length_c   9.36607778
_cell_angle_alpha   90.29112473
_cell_angle_beta   90.00000000
_cell_angle_gamma   119.95150959
_symmetry_Int_Tables_number   1
_chemical_formula_structural   Ho6Al18Fe7Si6Tc
_chemical_formula_sum   'Ho6 Al18 Fe7 Si6 Tc1'
_cell_volume   588.52496175
_cell_formula_units_Z   1
loop_
 _symmetry_equiv_pos_site_id
 _symmetry_equiv_pos_as_xyz
  1  'x, y, z'
loop_
 _atom_site_type_symbol
 _atom_site_label
 _atom_site_symmetry_multiplicity
 _atom_site_fract_x
 _atom_site_fract_y
 _atom_site_fract_z
 _atom_site_occupancy
  Ho  Ho0  1  0.193525  0.387050  0.248000  1
  Ho  Ho1  1  0.806475  0.612950  0.752000  1
  Ho  Ho2  1  0.606977  0.806724  0.249287  1
  Ho  Ho3  1  0.393023  0.193276  0.750713  1
  Ho  Ho4  1  0.199745  0.806724  0.249287  1
  Ho  Ho5  1  0.800255  0.193276  0.750713  1
  Al  Al6  1  0.163721  0.327443  0.575632  1
  Al  Al7  1  0.836279  0.672557  0.424368  1
  Al  Al8  1  0.673890  0.832086  0.574836  1
  Al  Al9  1  0.836225  0.672450  0.075095  1
  Al  Al10  1  0.326110  0.167914  0.425164  1
  Al  Al11  1  0.163775  0.327550  0.924905  1
  Al  Al12  1  0.158194  0.832086  0.574836  1
  Al  Al13  1  0.328171  0.165576  0.073527  1
  Al  Al14  1  0.841806  0.167914  0.425164  1
  Al  Al15  1  0.671829  0.834424  0.926473  1
  Al  Al16  1  0.837405  0.165576  0.073527  1
  Al  Al17  1  0.162595  0.834424  0.926473  1
  Al  Al18  1  0.876616  0.435684  0.249061  1
  Al  Al19  1  0.123384  0.564316  0.750939  1
  Al  Al20  1  0.559068  0.435684  0.249061  1
  Al  Al21  1  0.440932  0.564316  0.750939  1
  Al  Al22  1  0.999502  0.999003  0.249635  1
  Al  Al23  1  0.000498  0.000997  0.750365  1
  Fe  Fe24  1  0.500000  0.000000  0.000000  1
  Fe  Fe25  1  0.000000  0.500000  0.000000  1
  Fe  Fe26  1  0.500000  0.500000  0.000000  1
  Fe  Fe27  1  0.000000  0.500000  0.500000  1
  Fe  Fe28  1  0.500000  0.500000  0.500000  1
  Fe  Fe29  1  0.000000  0.000000  0.000000  1
  Fe  Fe30  1  0.000000  0.000000  0.500000  1
  Si  Si31  1  0.331131  0.662261  0.031501  1
  Si  Si32  1  0.668869  0.337739  0.968499  1
  Si  Si33  1  0.671626  0.343253  0.532571  1
  Si  Si34  1  0.328374  0.656747  0.467429  1
  Si  Si35  1  0.562067  0.124134  0.243513  1
  Si  Si36  1  0.437933  0.875866  0.756487  1
  Tc  Tc37  1  0.500000  0.000000  0.500000  1
