# generated using pymatgen
data_Pu4AlCr3B16
_symmetry_space_group_name_H-M   'P 1'
_cell_length_a   3.47718300
_cell_length_b   5.91423501
_cell_length_c   11.44317349
_cell_angle_alpha   89.90202130
_cell_angle_beta   90.00000000
_cell_angle_gamma   90.00000000
_symmetry_Int_Tables_number   1
_chemical_formula_structural   Pu4AlCr3B16
_chemical_formula_sum   'Pu4 Al1 Cr3 B16'
_cell_volume   235.32711615
_cell_formula_units_Z   1
loop_
 _symmetry_equiv_pos_site_id
 _symmetry_equiv_pos_as_xyz
  1  'x, y, z'
loop_
 _atom_site_type_symbol
 _atom_site_label
 _atom_site_symmetry_multiplicity
 _atom_site_fract_x
 _atom_site_fract_y
 _atom_site_fract_z
 _atom_site_occupancy
  Pu  Pu0  1  0.000000  0.624735  0.348926  1
  Pu  Pu1  1  0.000000  0.374230  0.651074  1
  Pu  Pu2  1  0.000000  0.128115  0.152147  1
  Pu  Pu3  1  0.000000  0.875009  0.849384  1
  Al  Al4  1  0.000000  0.635279  0.089382  1
  Cr  Cr5  1  0.000000  0.369837  0.915291  1
  Cr  Cr6  1  0.000000  0.126209  0.416765  1
  Cr  Cr7  1  0.000000  0.874416  0.581727  1
  B  B8  1  0.500000  0.792565  0.187477  1
  B  B9  1  0.500000  0.216158  0.814872  1
  B  B10  1  0.500000  0.280291  0.313626  1
  B  B11  1  0.500000  0.717623  0.684266  1
  B  B12  1  0.500000  0.869600  0.032260  1
  B  B13  1  0.500000  0.134922  0.967792  1
  B  B14  1  0.500000  0.362393  0.466427  1
  B  B15  1  0.500000  0.636460  0.532676  1
  B  B16  1  0.500000  0.885539  0.453067  1
  B  B17  1  0.500000  0.113453  0.546302  1
  B  B18  1  0.500000  0.380628  0.045625  1
  B  B19  1  0.500000  0.611928  0.951119  1
  B  B20  1  0.500000  0.976868  0.307248  1
  B  B21  1  0.500000  0.023634  0.691018  1
  B  B22  1  0.500000  0.465882  0.193498  1
  B  B23  1  0.500000  0.524228  0.808033  1
