# generated using pymatgen
data_SmTm7(Si3Pt)4
_symmetry_space_group_name_H-M   'P 1'
_cell_length_a   8.14548700
_cell_length_b   8.16807732
_cell_length_c   7.80940100
_cell_angle_alpha   90.00000000
_cell_angle_beta   90.00000000
_cell_angle_gamma   119.90854995
_symmetry_Int_Tables_number   1
_chemical_formula_structural   SmTm7(Si3Pt)4
_chemical_formula_sum   'Sm1 Tm7 Si12 Pt4'
_cell_volume   450.38583250
_cell_formula_units_Z   1
loop_
 _symmetry_equiv_pos_site_id
 _symmetry_equiv_pos_as_xyz
  1  'x, y, z'
loop_
 _atom_site_type_symbol
 _atom_site_label
 _atom_site_symmetry_multiplicity
 _atom_site_fract_x
 _atom_site_fract_y
 _atom_site_fract_z
 _atom_site_occupancy
  Sm  Sm0  1  0.512788  0.025574  0.250000  1
  Tm  Tm1  1  0.487959  0.975919  0.750000  1
  Tm  Tm2  1  0.976262  0.489370  0.250000  1
  Tm  Tm3  1  0.025722  0.511893  0.750000  1
  Tm  Tm4  1  0.513110  0.489370  0.250000  1
  Tm  Tm5  1  0.486171  0.511893  0.750000  1
  Tm  Tm6  1  0.000012  0.000024  0.250000  1
  Tm  Tm7  1  0.000059  0.000117  0.750000  1
  Si  Si8  1  0.164543  0.329086  0.001771  1
  Si  Si9  1  0.834814  0.669628  0.997706  1
  Si  Si10  1  0.669496  0.834694  0.001523  1
  Si  Si11  1  0.834814  0.669628  0.502294  1
  Si  Si12  1  0.330474  0.165711  0.994822  1
  Si  Si13  1  0.164543  0.329086  0.498229  1
  Si  Si14  1  0.165199  0.834694  0.001523  1
  Si  Si15  1  0.330474  0.165711  0.505178  1
  Si  Si16  1  0.835236  0.165711  0.994822  1
  Si  Si17  1  0.669496  0.834694  0.498477  1
  Si  Si18  1  0.835236  0.165711  0.505178  1
  Si  Si19  1  0.165199  0.834694  0.498477  1
  Pt  Pt20  1  0.331135  0.662271  0.037793  1
  Pt  Pt21  1  0.668063  0.336125  0.953620  1
  Pt  Pt22  1  0.668063  0.336125  0.546380  1
  Pt  Pt23  1  0.331135  0.662271  0.462207  1
