# generated using pymatgen
data_Y10Cd3Cu
_symmetry_space_group_name_H-M   'P 1'
_cell_length_a   9.70145901
_cell_length_b   9.70152239
_cell_length_c   9.86734100
_cell_angle_alpha   90.00000000
_cell_angle_beta   90.00000000
_cell_angle_gamma   119.99350749
_symmetry_Int_Tables_number   1
_chemical_formula_structural   Y10Cd3Cu
_chemical_formula_sum   'Y20 Cd6 Cu2'
_cell_volume   804.33343399
_cell_formula_units_Z   2
loop_
 _symmetry_equiv_pos_site_id
 _symmetry_equiv_pos_as_xyz
  1  'x, y, z'
loop_
 _atom_site_type_symbol
 _atom_site_label
 _atom_site_symmetry_multiplicity
 _atom_site_fract_x
 _atom_site_fract_y
 _atom_site_fract_z
 _atom_site_occupancy
  Y  Y0  1  0.000000  0.000000  0.500000  1
  Y  Y1  1  0.000000  0.000000  0.000000  1
  Y  Y2  1  0.544293  0.455705  0.250000  1
  Y  Y3  1  0.544293  0.088640  0.250000  1
  Y  Y4  1  0.911362  0.455707  0.250000  1
  Y  Y5  1  0.455707  0.544295  0.750000  1
  Y  Y6  1  0.455707  0.911360  0.750000  1
  Y  Y7  1  0.088638  0.544293  0.750000  1
  Y  Y8  1  0.208955  0.791045  0.440677  1
  Y  Y9  1  0.208946  0.417894  0.440692  1
  Y  Y10  1  0.582102  0.791051  0.440689  1
  Y  Y11  1  0.791045  0.208955  0.559323  1
  Y  Y12  1  0.791054  0.582106  0.559308  1
  Y  Y13  1  0.417898  0.208949  0.559311  1
  Y  Y14  1  0.791045  0.208955  0.940677  1
  Y  Y15  1  0.791054  0.582106  0.940692  1
  Y  Y16  1  0.417898  0.208949  0.940689  1
  Y  Y17  1  0.208955  0.791045  0.059323  1
  Y  Y18  1  0.208946  0.417894  0.059308  1
  Y  Y19  1  0.582102  0.791051  0.059311  1
  Cd  Cd20  1  0.884581  0.115419  0.250000  1
  Cd  Cd21  1  0.884549  0.769122  0.250000  1
  Cd  Cd22  1  0.230878  0.115453  0.250000  1
  Cd  Cd23  1  0.115419  0.884581  0.750000  1
  Cd  Cd24  1  0.115451  0.230878  0.750000  1
  Cd  Cd25  1  0.769122  0.884547  0.750000  1
  Cu  Cu26  1  0.333260  0.666687  0.250000  1
  Cu  Cu27  1  0.666740  0.333313  0.750000  1
