# generated using pymatgen
data_Li3Ti10Al9Ir8
_symmetry_space_group_name_H-M   'P 1'
_cell_length_a   8.65730443
_cell_length_b   8.65730484
_cell_length_c   8.65730492
_cell_angle_alpha   59.90646852
_cell_angle_beta   59.90647868
_cell_angle_gamma   59.90647206
_symmetry_Int_Tables_number   1
_chemical_formula_structural   Li3Ti10Al9Ir8
_chemical_formula_sum   'Li3 Ti10 Al9 Ir8'
_cell_volume   457.83678190
_cell_formula_units_Z   1
loop_
 _symmetry_equiv_pos_site_id
 _symmetry_equiv_pos_as_xyz
  1  'x, y, z'
loop_
 _atom_site_type_symbol
 _atom_site_label
 _atom_site_symmetry_multiplicity
 _atom_site_fract_x
 _atom_site_fract_y
 _atom_site_fract_z
 _atom_site_occupancy
  Li  Li0  1  0.247828  0.247828  0.758648  1
  Li  Li1  1  0.758648  0.247828  0.247828  1
  Li  Li2  1  0.247828  0.758648  0.247828  1
  Ti  Ti3  1  0.783839  0.783839  0.178297  1
  Ti  Ti4  1  0.178297  0.783839  0.783839  1
  Ti  Ti5  1  0.783839  0.178297  0.783839  1
  Ti  Ti6  1  0.377732  0.377732  0.377732  1
  Ti  Ti7  1  0.375804  0.881641  0.375804  1
  Ti  Ti8  1  0.881641  0.375804  0.375804  1
  Ti  Ti9  1  0.375804  0.375804  0.881641  1
  Ti  Ti10  1  0.873830  0.392172  0.873830  1
  Ti  Ti11  1  0.392172  0.873830  0.873830  1
  Ti  Ti12  1  0.873830  0.873830  0.392172  1
  Al  Al13  1  0.130210  0.130210  0.130210  1
  Al  Al14  1  0.150505  0.587326  0.150505  1
  Al  Al15  1  0.587326  0.150505  0.150505  1
  Al  Al16  1  0.150505  0.150505  0.587326  1
  Al  Al17  1  0.626631  0.626631  0.626631  1
  Al  Al18  1  0.614190  0.141380  0.614190  1
  Al  Al19  1  0.141380  0.614190  0.614190  1
  Al  Al20  1  0.614190  0.614190  0.141380  1
  Al  Al21  1  0.810533  0.810533  0.810533  1
  Ir  Ir22  1  0.002119  0.002119  0.508637  1
  Ir  Ir23  1  0.508637  0.002119  0.002119  1
  Ir  Ir24  1  0.002119  0.508637  0.002119  1
  Ir  Ir25  1  0.504514  0.504514  0.999459  1
  Ir  Ir26  1  0.999459  0.504514  0.504514  1
  Ir  Ir27  1  0.504514  0.999459  0.504514  1
  Ir  Ir28  1  0.503918  0.503918  0.503918  1
  Ir  Ir29  1  0.998155  0.998155  0.998155  1
