# generated using pymatgen
data_Ho5Th15(Ir2Os)4
_symmetry_space_group_name_H-M   'P 1'
_cell_length_a   11.27745952
_cell_length_b   11.25437668
_cell_length_c   6.37816110
_cell_angle_alpha   89.60020061
_cell_angle_beta   90.06897299
_cell_angle_gamma   90.03231413
_symmetry_Int_Tables_number   1
_chemical_formula_structural   Ho5Th15(Ir2Os)4
_chemical_formula_sum   'Ho5 Th15 Ir8 Os4'
_cell_volume   809.50074586
_cell_formula_units_Z   1
loop_
 _symmetry_equiv_pos_site_id
 _symmetry_equiv_pos_as_xyz
  1  'x, y, z'
loop_
 _atom_site_type_symbol
 _atom_site_label
 _atom_site_symmetry_multiplicity
 _atom_site_fract_x
 _atom_site_fract_y
 _atom_site_fract_z
 _atom_site_occupancy
  Ho  Ho0  1  0.088311  0.290460  0.118296  1
  Ho  Ho1  1  0.999260  0.999770  0.500713  1
  Ho  Ho2  1  0.001600  0.005532  0.001389  1
  Ho  Ho3  1  0.501797  0.498960  0.002918  1
  Ho  Ho4  1  0.498668  0.499386  0.503044  1
  Th  Th5  1  0.288886  0.092230  0.378660  1
  Th  Th6  1  0.287697  0.912055  0.878896  1
  Th  Th7  1  0.710870  0.089285  0.880649  1
  Th  Th8  1  0.710180  0.910410  0.381782  1
  Th  Th9  1  0.587550  0.789720  0.881459  1
  Th  Th10  1  0.589886  0.211385  0.380563  1
  Th  Th11  1  0.408811  0.789936  0.380409  1
  Th  Th12  1  0.410440  0.211957  0.879998  1
  Th  Th13  1  0.208045  0.407061  0.617852  1
  Th  Th14  1  0.210182  0.583070  0.119445  1
  Th  Th15  1  0.794746  0.408750  0.118392  1
  Th  Th16  1  0.788239  0.589183  0.618494  1
  Th  Th17  1  0.912288  0.711055  0.116758  1
  Th  Th18  1  0.913697  0.289418  0.619086  1
  Th  Th19  1  0.090236  0.710523  0.618965  1
  Ir  Ir20  1  0.844768  0.151561  0.252968  1
  Ir  Ir21  1  0.846108  0.846043  0.751424  1
  Ir  Ir22  1  0.154592  0.153110  0.744560  1
  Ir  Ir23  1  0.153575  0.845853  0.249041  1
  Ir  Ir24  1  0.655049  0.345465  0.752474  1
  Ir  Ir25  1  0.652956  0.654653  0.250732  1
  Ir  Ir26  1  0.347818  0.344417  0.254751  1
  Ir  Ir27  1  0.346261  0.653706  0.751554  1
  Os  Os28  1  0.498721  0.000313  0.114835  1
  Os  Os29  1  0.500099  0.000193  0.615195  1
  Os  Os30  1  0.000237  0.501492  0.880368  1
  Os  Os31  1  0.998429  0.503048  0.384330  1
