# generated using pymatgen
data_Hf18Ta5AsPW3
_symmetry_space_group_name_H-M   'P 1'
_cell_length_a   8.81788600
_cell_length_b   8.70861135
_cell_length_c   8.74656701
_cell_angle_alpha   120.14518270
_cell_angle_beta   90.00000000
_cell_angle_gamma   90.00000000
_symmetry_Int_Tables_number   1
_chemical_formula_structural   Hf18Ta5AsPW3
_chemical_formula_sum   'Hf18 Ta5 As1 P1 W3'
_cell_volume   580.82383972
_cell_formula_units_Z   1
loop_
 _symmetry_equiv_pos_site_id
 _symmetry_equiv_pos_as_xyz
  1  'x, y, z'
loop_
 _atom_site_type_symbol
 _atom_site_label
 _atom_site_symmetry_multiplicity
 _atom_site_fract_x
 _atom_site_fract_y
 _atom_site_fract_z
 _atom_site_occupancy
  Hf  Hf0  1  0.545898  0.803161  0.606686  1
  Hf  Hf1  1  0.545872  0.803129  0.196511  1
  Hf  Hf2  1  0.544182  0.392193  0.196099  1
  Hf  Hf3  1  0.449388  0.198495  0.396929  1
  Hf  Hf4  1  0.449410  0.198525  0.801529  1
  Hf  Hf5  1  0.450424  0.602566  0.801280  1
  Hf  Hf6  1  0.050612  0.198495  0.396929  1
  Hf  Hf7  1  0.050590  0.198525  0.801529  1
  Hf  Hf8  1  0.049576  0.602566  0.801280  1
  Hf  Hf9  1  0.954102  0.803161  0.606686  1
  Hf  Hf10  1  0.954128  0.803129  0.196511  1
  Hf  Hf11  1  0.955818  0.392193  0.196099  1
  Hf  Hf12  1  0.750000  0.460171  0.920578  1
  Hf  Hf13  1  0.750000  0.460178  0.539591  1
  Hf  Hf14  1  0.750000  0.080036  0.540023  1
  Hf  Hf15  1  0.250000  0.537122  0.077721  1
  Hf  Hf16  1  0.250000  0.537114  0.459405  1
  Hf  Hf17  1  0.250000  0.922959  0.461474  1
  Ta  Ta18  1  0.750000  0.111516  0.222796  1
  Ta  Ta19  1  0.750000  0.111535  0.888745  1
  Ta  Ta20  1  0.750000  0.777329  0.888685  1
  Ta  Ta21  1  0.250000  0.891284  0.778586  1
  Ta  Ta22  1  0.250000  0.891257  0.112666  1
  As  As23  1  0.750000  0.665920  0.332982  1
  P  P24  1  0.250000  0.332764  0.666350  1
  W  W25  1  0.250000  0.222601  0.111284  1
  W  W26  1  0.498862  0.001039  0.000521  1
  W  W27  1  0.001138  0.001039  0.000521  1
