# generated using pymatgen
data_Ac3In2Ir3Pb
_symmetry_space_group_name_H-M   'P 1'
_cell_length_a   7.89917600
_cell_length_b   7.74132798
_cell_length_c   4.38261400
_cell_angle_alpha   90.00000000
_cell_angle_beta   90.00000000
_cell_angle_gamma   119.34114440
_symmetry_Int_Tables_number   1
_chemical_formula_structural   Ac3In2Ir3Pb
_chemical_formula_sum   'Ac3 In2 Ir3 Pb1'
_cell_volume   233.61800137
_cell_formula_units_Z   1
loop_
 _symmetry_equiv_pos_site_id
 _symmetry_equiv_pos_as_xyz
  1  'x, y, z'
loop_
 _atom_site_type_symbol
 _atom_site_label
 _atom_site_symmetry_multiplicity
 _atom_site_fract_x
 _atom_site_fract_y
 _atom_site_fract_z
 _atom_site_occupancy
  Ac  Ac0  1  0.415117  0.414268  0.000000  1
  Ac  Ac1  1  0.584883  0.999151  0.000000  1
  Ac  Ac2  1  0.000000  0.590172  0.000000  1
  In  In3  1  0.758222  0.756144  0.500000  1
  In  In4  1  0.241778  0.997921  0.500000  1
  Ir  Ir5  1  0.000000  0.994349  0.000000  1
  Ir  Ir6  1  0.338139  0.671447  0.500000  1
  Ir  Ir7  1  0.661861  0.333307  0.500000  1
  Pb  Pb8  1  0.000000  0.243242  0.500000  1
