# generated using pymatgen
data_Pr3Tm5Np4O24
_symmetry_space_group_name_H-M   'P 1'
_cell_length_a   5.60873300
_cell_length_b   7.91511831
_cell_length_c   11.81825045
_cell_angle_alpha   74.33962060
_cell_angle_beta   90.00000000
_cell_angle_gamma   90.00000000
_symmetry_Int_Tables_number   1
_chemical_formula_structural   Pr3Tm5Np4O24
_chemical_formula_sum   'Pr3 Tm5 Np4 O24'
_cell_volume   505.18089571
_cell_formula_units_Z   1
loop_
 _symmetry_equiv_pos_site_id
 _symmetry_equiv_pos_as_xyz
  1  'x, y, z'
loop_
 _atom_site_type_symbol
 _atom_site_label
 _atom_site_symmetry_multiplicity
 _atom_site_fract_x
 _atom_site_fract_y
 _atom_site_fract_z
 _atom_site_occupancy
  Pr  Pr0  1  0.749336  0.000000  0.750000  1
  Pr  Pr1  1  0.693245  0.500000  0.750000  1
  Pr  Pr2  1  0.302953  0.500000  0.250000  1
  Tm  Tm3  1  0.251517  0.000000  0.250000  1
  Tm  Tm4  1  0.187368  0.794371  0.578338  1
  Tm  Tm5  1  0.816726  0.792891  0.082215  1
  Tm  Tm6  1  0.187368  0.205629  0.921662  1
  Tm  Tm7  1  0.816726  0.207109  0.417785  1
  Np  Np8  1  0.255662  0.720939  0.889174  1
  Np  Np9  1  0.742703  0.730735  0.384450  1
  Np  Np10  1  0.255662  0.279061  0.610826  1
  Np  Np11  1  0.742703  0.269265  0.115550  1
  O  O12  1  0.057896  0.944332  0.902812  1
  O  O13  1  0.557157  0.836214  0.938884  1
  O  O14  1  0.952095  0.950077  0.395345  1
  O  O15  1  0.442142  0.795661  0.726465  1
  O  O16  1  0.436505  0.848694  0.430760  1
  O  O17  1  0.974300  0.717662  0.767311  1
  O  O18  1  0.549899  0.806595  0.223748  1
  O  O19  1  0.877588  0.639009  0.550808  1
  O  O20  1  0.372784  0.478967  0.889207  1
  O  O21  1  0.030535  0.726910  0.264355  1
  O  O22  1  0.372784  0.521033  0.610793  1
  O  O23  1  0.877588  0.360991  0.949192  1
  O  O24  1  0.116764  0.628459  0.053833  1
  O  O25  1  0.631351  0.488004  0.382931  1
  O  O26  1  0.974300  0.282338  0.732689  1
  O  O27  1  0.631351  0.511996  0.117069  1
  O  O28  1  0.116764  0.371541  0.446167  1
  O  O29  1  0.442142  0.204339  0.773535  1
  O  O30  1  0.030535  0.273090  0.235645  1
  O  O31  1  0.557157  0.163786  0.561116  1
  O  O32  1  0.549899  0.193405  0.276252  1
  O  O33  1  0.057896  0.055668  0.597188  1
  O  O34  1  0.436505  0.151306  0.069240  1
  O  O35  1  0.952095  0.049923  0.104655  1
