# generated using pymatgen
data_YbSb2F12
_symmetry_space_group_name_H-M   'P 1'
_cell_length_a   5.44012322
_cell_length_b   5.76861616
_cell_length_c   9.36845877
_cell_angle_alpha   73.79021163
_cell_angle_beta   88.71361657
_cell_angle_gamma   62.39005117
_symmetry_Int_Tables_number   1
_chemical_formula_structural   YbSb2F12
_chemical_formula_sum   'Yb1 Sb2 F12'
_cell_volume   248.18117012
_cell_formula_units_Z   1
loop_
 _symmetry_equiv_pos_site_id
 _symmetry_equiv_pos_as_xyz
  1  'x, y, z'
loop_
 _atom_site_type_symbol
 _atom_site_label
 _atom_site_symmetry_multiplicity
 _atom_site_fract_x
 _atom_site_fract_y
 _atom_site_fract_z
 _atom_site_occupancy
  Yb  Yb0  1  0.500000  0.500000  0.500000  1
  Sb  Sb1  1  0.772023  0.005532  0.239034  1
  Sb  Sb2  1  0.227977  0.994468  0.760966  1
  F  F3  1  0.945344  0.230661  0.207410  1
  F  F4  1  0.054656  0.769339  0.792590  1
  F  F5  1  0.019203  0.761262  0.140499  1
  F  F6  1  0.458285  0.784204  0.631118  1
  F  F7  1  0.541715  0.215796  0.368882  1
  F  F8  1  0.958724  0.231712  0.577642  1
  F  F9  1  0.041276  0.768288  0.422358  1
  F  F10  1  0.399124  0.232004  0.687327  1
  F  F11  1  0.600876  0.767996  0.312673  1
  F  F12  1  0.513005  0.776451  0.923049  1
  F  F13  1  0.486995  0.223549  0.076951  1
  F  F14  1  0.980797  0.238738  0.859501  1
