# generated using pymatgen
data_La4PrAg6
_symmetry_space_group_name_H-M   'P 1'
_cell_length_a   17.63549100
_cell_length_b   17.63549191
_cell_length_c   4.12215300
_cell_angle_alpha   90.00000000
_cell_angle_beta   90.00000000
_cell_angle_gamma   166.43696253
_symmetry_Int_Tables_number   1
_chemical_formula_structural   La4PrAg6
_chemical_formula_sum   'La4 Pr1 Ag6'
_cell_volume   300.65603907
_cell_formula_units_Z   1
loop_
 _symmetry_equiv_pos_site_id
 _symmetry_equiv_pos_as_xyz
  1  'x, y, z'
loop_
 _atom_site_type_symbol
 _atom_site_label
 _atom_site_symmetry_multiplicity
 _atom_site_fract_x
 _atom_site_fract_y
 _atom_site_fract_z
 _atom_site_occupancy
  La  La0  1  0.999931  0.000069  0.000000  1
  La  La1  1  0.622770  0.377228  0.000000  1
  La  La2  1  0.377000  0.622998  0.000000  1
  La  La3  1  0.191425  0.808573  0.500001  1
  Pr  Pr4  1  0.808593  0.191405  0.500001  1
  Ag  Ag5  1  0.723397  0.276601  0.000000  1
  Ag  Ag6  1  0.277128  0.722870  0.000000  1
  Ag  Ag7  1  0.908253  0.091746  0.500001  1
  Ag  Ag8  1  0.539790  0.460208  0.500001  1
  Ag  Ag9  1  0.460161  0.539837  0.500001  1
  Ag  Ag10  1  0.091542  0.908457  0.500001  1
