# generated using pymatgen
data_Eu3Ga2SbRh6
_symmetry_space_group_name_H-M   'P 1'
_cell_length_a   5.81901400
_cell_length_b   5.81901591
_cell_length_c   16.06841700
_cell_angle_alpha   90.00000000
_cell_angle_beta   90.00000000
_cell_angle_gamma   120.00001188
_symmetry_Int_Tables_number   1
_chemical_formula_structural   Eu3Ga2SbRh6
_chemical_formula_sum   'Eu6 Ga4 Sb2 Rh12'
_cell_volume   471.19711227
_cell_formula_units_Z   2
loop_
 _symmetry_equiv_pos_site_id
 _symmetry_equiv_pos_as_xyz
  1  'x, y, z'
loop_
 _atom_site_type_symbol
 _atom_site_label
 _atom_site_symmetry_multiplicity
 _atom_site_fract_x
 _atom_site_fract_y
 _atom_site_fract_z
 _atom_site_occupancy
  Eu  Eu0  1  0.333333  0.666667  0.540098  1
  Eu  Eu1  1  0.666667  0.333333  0.459902  1
  Eu  Eu2  1  0.666667  0.333333  0.040098  1
  Eu  Eu3  1  0.333333  0.666667  0.959902  1
  Eu  Eu4  1  0.333333  0.666667  0.750000  1
  Eu  Eu5  1  0.666667  0.333333  0.250000  1
  Ga  Ga6  1  0.000000  0.000000  0.250000  1
  Ga  Ga7  1  0.000000  0.000000  0.750000  1
  Ga  Ga8  1  0.000000  0.000000  0.000000  1
  Ga  Ga9  1  0.000000  0.000000  0.500000  1
  Sb  Sb10  1  0.333333  0.666667  0.250000  1
  Sb  Sb11  1  0.666667  0.333333  0.750000  1
  Rh  Rh12  1  0.163250  0.326498  0.126871  1
  Rh  Rh13  1  0.836750  0.673502  0.873129  1
  Rh  Rh14  1  0.673502  0.836750  0.126871  1
  Rh  Rh15  1  0.836750  0.673502  0.626871  1
  Rh  Rh16  1  0.326498  0.163250  0.873129  1
  Rh  Rh17  1  0.163250  0.326498  0.373129  1
  Rh  Rh18  1  0.163250  0.836750  0.126871  1
  Rh  Rh19  1  0.326498  0.163250  0.626871  1
  Rh  Rh20  1  0.836750  0.163250  0.873129  1
  Rh  Rh21  1  0.673502  0.836750  0.373129  1
  Rh  Rh22  1  0.836750  0.163250  0.626871  1
  Rh  Rh23  1  0.163250  0.836750  0.373129  1
