# generated using pymatgen
data_CaTb5(SiPd)6
_symmetry_space_group_name_H-M   'P 1'
_cell_length_a   4.34470800
_cell_length_b   7.47283122
_cell_length_c   21.23640564
_cell_angle_alpha   89.97189397
_cell_angle_beta   90.00000000
_cell_angle_gamma   90.00000000
_symmetry_Int_Tables_number   1
_chemical_formula_structural   CaTb5(SiPd)6
_chemical_formula_sum   'Ca2 Tb10 Si12 Pd12'
_cell_volume   689.48802436
_cell_formula_units_Z   2
loop_
 _symmetry_equiv_pos_site_id
 _symmetry_equiv_pos_as_xyz
  1  'x, y, z'
loop_
 _atom_site_type_symbol
 _atom_site_label
 _atom_site_symmetry_multiplicity
 _atom_site_fract_x
 _atom_site_fract_y
 _atom_site_fract_z
 _atom_site_occupancy
  Ca  Ca0  1  0.250000  0.704487  0.332518  1
  Ca  Ca1  1  0.750000  0.295513  0.667482  1
  Tb  Tb2  1  0.750000  0.203582  0.167259  1
  Tb  Tb3  1  0.250000  0.796418  0.832741  1
  Tb  Tb4  1  0.250000  0.794848  0.166631  1
  Tb  Tb5  1  0.750000  0.205152  0.833369  1
  Tb  Tb6  1  0.750000  0.294952  0.333884  1
  Tb  Tb7  1  0.250000  0.705048  0.666116  1
  Tb  Tb8  1  0.250000  0.710695  0.001028  1
  Tb  Tb9  1  0.750000  0.289305  0.998972  1
  Tb  Tb10  1  0.750000  0.208143  0.499516  1
  Tb  Tb11  1  0.250000  0.791857  0.500484  1
  Si  Si12  1  0.250000  0.090707  0.070889  1
  Si  Si13  1  0.750000  0.909293  0.929111  1
  Si  Si14  1  0.750000  0.588216  0.433153  1
  Si  Si15  1  0.250000  0.411784  0.566847  1
  Si  Si16  1  0.250000  0.087279  0.272114  1
  Si  Si17  1  0.750000  0.912721  0.727886  1
  Si  Si18  1  0.750000  0.583300  0.226219  1
  Si  Si19  1  0.250000  0.416700  0.773781  1
  Si  Si20  1  0.250000  0.088944  0.394526  1
  Si  Si21  1  0.750000  0.911056  0.605474  1
  Si  Si22  1  0.750000  0.587930  0.104752  1
  Si  Si23  1  0.250000  0.412070  0.895248  1
  Pd  Pd24  1  0.250000  0.414948  0.235645  1
  Pd  Pd25  1  0.750000  0.585052  0.764355  1
  Pd  Pd26  1  0.750000  0.917263  0.261984  1
  Pd  Pd27  1  0.250000  0.082737  0.738016  1
  Pd  Pd28  1  0.250000  0.416078  0.437175  1
  Pd  Pd29  1  0.750000  0.583922  0.562825  1
  Pd  Pd30  1  0.750000  0.916681  0.062561  1
  Pd  Pd31  1  0.250000  0.083319  0.937439  1
  Pd  Pd32  1  0.250000  0.419846  0.093674  1
  Pd  Pd33  1  0.750000  0.580154  0.906326  1
  Pd  Pd34  1  0.750000  0.919007  0.407179  1
  Pd  Pd35  1  0.250000  0.080993  0.592821  1
