# generated using pymatgen
data_LaPr(GaI)2
_symmetry_space_group_name_H-M   'P 1'
_cell_length_a   4.35985500
_cell_length_b   4.35985459
_cell_length_c   12.43842300
_cell_angle_alpha   90.00000000
_cell_angle_beta   90.00000000
_cell_angle_gamma   119.99999554
_symmetry_Int_Tables_number   1
_chemical_formula_structural   LaPr(GaI)2
_chemical_formula_sum   'La1 Pr1 Ga2 I2'
_cell_volume   204.75759682
_cell_formula_units_Z   1
loop_
 _symmetry_equiv_pos_site_id
 _symmetry_equiv_pos_as_xyz
  1  'x, y, z'
loop_
 _atom_site_type_symbol
 _atom_site_label
 _atom_site_symmetry_multiplicity
 _atom_site_fract_x
 _atom_site_fract_y
 _atom_site_fract_z
 _atom_site_occupancy
  La  La0  1  0.000000  0.000000  0.329001  1
  Pr  Pr1  1  0.000000  0.000000  0.671522  1
  Ga  Ga2  1  0.333333  0.666666  0.474209  1
  Ga  Ga3  1  0.666666  0.333333  0.527659  1
  I  I4  1  0.666666  0.333333  0.158934  1
  I  I5  1  0.333333  0.666666  0.838675  1
