# generated using pymatgen
data_Lu12Sn2Os3
_symmetry_space_group_name_H-M   'P 1'
_cell_length_a   8.31467174
_cell_length_b   8.31467169
_cell_length_c   8.31467200
_cell_angle_alpha   108.96111353
_cell_angle_beta   108.96111343
_cell_angle_gamma   110.49632545
_symmetry_Int_Tables_number   1
_chemical_formula_structural   Lu12Sn2Os3
_chemical_formula_sum   'Lu12 Sn2 Os3'
_cell_volume   442.39371198
_cell_formula_units_Z   1
loop_
 _symmetry_equiv_pos_site_id
 _symmetry_equiv_pos_as_xyz
  1  'x, y, z'
loop_
 _atom_site_type_symbol
 _atom_site_label
 _atom_site_symmetry_multiplicity
 _atom_site_fract_x
 _atom_site_fract_y
 _atom_site_fract_z
 _atom_site_occupancy
  Lu  Lu0  1  0.320210  0.320210  0.640421  1
  Lu  Lu1  1  0.679790  0.679790  0.359579  1
  Lu  Lu2  1  0.679790  0.320210  0.000000  1
  Lu  Lu3  1  0.320210  0.679790  0.000000  1
  Lu  Lu4  1  0.183894  0.423980  0.240086  1
  Lu  Lu5  1  0.816106  0.576020  0.759914  1
  Lu  Lu6  1  0.183894  0.943806  0.759914  1
  Lu  Lu7  1  0.943806  0.183894  0.759914  1
  Lu  Lu8  1  0.816106  0.056194  0.240086  1
  Lu  Lu9  1  0.056194  0.816106  0.240086  1
  Lu  Lu10  1  0.423980  0.183894  0.240086  1
  Lu  Lu11  1  0.576020  0.816106  0.759914  1
  Sn  Sn12  1  0.000000  0.500000  0.500000  1
  Sn  Sn13  1  0.500000  0.000000  0.500000  1
  Os  Os14  1  0.343118  0.343118  0.000000  1
  Os  Os15  1  0.656882  0.656882  0.000000  1
  Os  Os16  1  0.000000  0.000000  0.000000  1
