# generated using pymatgen
data_Tb24Tc7P
_symmetry_space_group_name_H-M   'P 1'
_cell_length_a   6.29274875
_cell_length_b   9.22942400
_cell_length_c   14.91847367
_cell_angle_alpha   90.00000000
_cell_angle_beta   89.81854898
_cell_angle_gamma   90.00000000
_symmetry_Int_Tables_number   1
_chemical_formula_structural   Tb24Tc7P
_chemical_formula_sum   'Tb24 Tc7 P1'
_cell_volume   866.43742812
_cell_formula_units_Z   1
loop_
 _symmetry_equiv_pos_site_id
 _symmetry_equiv_pos_as_xyz
  1  'x, y, z'
loop_
 _atom_site_type_symbol
 _atom_site_label
 _atom_site_symmetry_multiplicity
 _atom_site_fract_x
 _atom_site_fract_y
 _atom_site_fract_z
 _atom_site_occupancy
  Tb  Tb0  1  0.528523  0.750000  0.354264  1
  Tb  Tb1  1  0.029127  0.250000  0.146856  1
  Tb  Tb2  1  0.471367  0.250000  0.647641  1
  Tb  Tb3  1  0.963031  0.750000  0.855508  1
  Tb  Tb4  1  0.782128  0.750000  0.110655  1
  Tb  Tb5  1  0.278781  0.250000  0.389058  1
  Tb  Tb6  1  0.213414  0.250000  0.887347  1
  Tb  Tb7  1  0.730719  0.750000  0.609059  1
  Tb  Tb8  1  0.449045  0.936069  0.793826  1
  Tb  Tb9  1  0.935294  0.067027  0.709067  1
  Tb  Tb10  1  0.559164  0.434897  0.209596  1
  Tb  Tb11  1  0.061229  0.564922  0.288533  1
  Tb  Tb12  1  0.559164  0.065103  0.209596  1
  Tb  Tb13  1  0.061229  0.935078  0.288533  1
  Tb  Tb14  1  0.449045  0.563931  0.793826  1
  Tb  Tb15  1  0.935294  0.432973  0.709067  1
  Tb  Tb16  1  0.234410  0.936971  0.530965  1
  Tb  Tb17  1  0.741995  0.065907  0.967374  1
  Tb  Tb18  1  0.752211  0.434388  0.465678  1
  Tb  Tb19  1  0.256200  0.564097  0.034398  1
  Tb  Tb20  1  0.752211  0.065612  0.465678  1
  Tb  Tb21  1  0.256200  0.935903  0.034398  1
  Tb  Tb22  1  0.234410  0.563029  0.530965  1
  Tb  Tb23  1  0.741995  0.434093  0.967374  1
  Tc  Tc24  1  0.929775  0.750000  0.442420  1
  Tc  Tc25  1  0.421194  0.250000  0.056037  1
  Tc  Tc26  1  0.073176  0.250000  0.559534  1
  Tc  Tc27  1  0.568452  0.750000  0.942785  1
  Tc  Tc28  1  0.355390  0.750000  0.181915  1
  Tc  Tc29  1  0.853582  0.250000  0.316515  1
  Tc  Tc30  1  0.647839  0.250000  0.816640  1
  P  P31  1  0.174406  0.750000  0.684893  1
