# generated using pymatgen
data_Eu2Sn3PRh4
_symmetry_space_group_name_H-M   'P 1'
_cell_length_a   4.37590800
_cell_length_b   4.37590800
_cell_length_c   10.96871300
_cell_angle_alpha   90.00000000
_cell_angle_beta   90.00000000
_cell_angle_gamma   90.00000000
_symmetry_Int_Tables_number   1
_chemical_formula_structural   Eu2Sn3PRh4
_chemical_formula_sum   'Eu2 Sn3 P1 Rh4'
_cell_volume   210.03517773
_cell_formula_units_Z   1
loop_
 _symmetry_equiv_pos_site_id
 _symmetry_equiv_pos_as_xyz
  1  'x, y, z'
loop_
 _atom_site_type_symbol
 _atom_site_label
 _atom_site_symmetry_multiplicity
 _atom_site_fract_x
 _atom_site_fract_y
 _atom_site_fract_z
 _atom_site_occupancy
  Eu  Eu0  1  0.000000  0.500000  0.240388  1
  Eu  Eu1  1  0.500000  0.000000  0.749549  1
  Sn  Sn2  1  0.000000  0.000000  0.490829  1
  Sn  Sn3  1  0.500000  0.500000  0.490829  1
  Sn  Sn4  1  0.000000  0.500000  0.878730  1
  P  P5  1  0.500000  0.000000  0.123770  1
  Rh  Rh6  1  0.000000  0.000000  0.025754  1
  Rh  Rh7  1  0.500000  0.500000  0.025754  1
  Rh  Rh8  1  0.000000  0.500000  0.634946  1
  Rh  Rh9  1  0.500000  0.000000  0.339452  1
