# generated using pymatgen
data_Er20IrOsRh10
_symmetry_space_group_name_H-M   'P 1'
_cell_length_a   10.77965533
_cell_length_b   10.77810854
_cell_length_c   6.35063800
_cell_angle_alpha   89.96291600
_cell_angle_beta   90.01411711
_cell_angle_gamma   90.10839590
_symmetry_Int_Tables_number   1
_chemical_formula_structural   Er20IrOsRh10
_chemical_formula_sum   'Er20 Ir1 Os1 Rh10'
_cell_volume   737.84290275
_cell_formula_units_Z   1
loop_
 _symmetry_equiv_pos_site_id
 _symmetry_equiv_pos_as_xyz
  1  'x, y, z'
loop_
 _atom_site_type_symbol
 _atom_site_label
 _atom_site_symmetry_multiplicity
 _atom_site_fract_x
 _atom_site_fract_y
 _atom_site_fract_z
 _atom_site_occupancy
  Er  Er0  1  0.292277  0.087300  0.378449  1
  Er  Er1  1  0.293676  0.910857  0.884097  1
  Er  Er2  1  0.706149  0.087200  0.883523  1
  Er  Er3  1  0.706866  0.912111  0.377057  1
  Er  Er4  1  0.585501  0.792705  0.883420  1
  Er  Er5  1  0.587625  0.207473  0.378151  1
  Er  Er6  1  0.411745  0.791826  0.378904  1
  Er  Er7  1  0.411938  0.205834  0.882985  1
  Er  Er8  1  0.210341  0.412828  0.621213  1
  Er  Er9  1  0.209907  0.588863  0.118773  1
  Er  Er10  1  0.791184  0.411803  0.119300  1
  Er  Er11  1  0.791342  0.590034  0.621069  1
  Er  Er12  1  0.912131  0.709454  0.119215  1
  Er  Er13  1  0.911225  0.290928  0.621038  1
  Er  Er14  1  0.091404  0.709494  0.620475  1
  Er  Er15  1  0.088747  0.291402  0.120527  1
  Er  Er16  1  0.999025  0.000019  0.497702  1
  Er  Er17  1  0.999881  0.000937  0.997148  1
  Er  Er18  1  0.499963  0.499177  0.997217  1
  Er  Er19  1  0.500816  0.500188  0.497315  1
  Ir  Ir20  1  0.346646  0.652149  0.749370  1
  Os  Os21  1  0.499846  0.000227  0.132144  1
  Rh  Rh22  1  0.847286  0.155038  0.249949  1
  Rh  Rh23  1  0.845862  0.846607  0.751374  1
  Rh  Rh24  1  0.152167  0.154376  0.748364  1
  Rh  Rh25  1  0.151086  0.845901  0.248309  1
  Rh  Rh26  1  0.654271  0.346589  0.749595  1
  Rh  Rh27  1  0.656637  0.652033  0.248807  1
  Rh  Rh28  1  0.345065  0.346349  0.249320  1
  Rh  Rh29  1  0.500076  0.000452  0.628323  1
  Rh  Rh30  1  0.999288  0.499653  0.873183  1
  Rh  Rh31  1  0.000028  0.500192  0.373684  1
