# generated using pymatgen
data_Sm2ReMoH18
_symmetry_space_group_name_H-M   'P 1'
_cell_length_a   4.84971900
_cell_length_b   4.84971988
_cell_length_c   8.79215100
_cell_angle_alpha   90.00000000
_cell_angle_beta   90.00000000
_cell_angle_gamma   120.00001449
_symmetry_Int_Tables_number   1
_chemical_formula_structural   Sm2ReMoH18
_chemical_formula_sum   'Sm2 Re1 Mo1 H18'
_cell_volume   179.08488658
_cell_formula_units_Z   1
loop_
 _symmetry_equiv_pos_site_id
 _symmetry_equiv_pos_as_xyz
  1  'x, y, z'
loop_
 _atom_site_type_symbol
 _atom_site_label
 _atom_site_symmetry_multiplicity
 _atom_site_fract_x
 _atom_site_fract_y
 _atom_site_fract_z
 _atom_site_occupancy
  Sm  Sm0  1  0.000000  0.000000  0.024334  1
  Sm  Sm1  1  0.000000  0.000000  0.475666  1
  Re  Re2  1  0.666667  0.333333  0.750000  1
  Mo  Mo3  1  0.333333  0.666667  0.250000  1
  H  H4  1  0.480845  0.519155  0.396000  1
  H  H5  1  0.480845  0.961689  0.396000  1
  H  H6  1  0.038311  0.519155  0.396000  1
  H  H7  1  0.955213  0.477606  0.887988  1
  H  H8  1  0.126349  0.252698  0.250000  1
  H  H9  1  0.865935  0.134065  0.750000  1
  H  H10  1  0.268130  0.134065  0.750000  1
  H  H11  1  0.747302  0.873651  0.250000  1
  H  H12  1  0.126349  0.873651  0.250000  1
  H  H13  1  0.865935  0.731870  0.750000  1
  H  H14  1  0.480845  0.961689  0.104000  1
  H  H15  1  0.522394  0.477606  0.612012  1
  H  H16  1  0.955213  0.477606  0.612012  1
  H  H17  1  0.038311  0.519155  0.104000  1
  H  H18  1  0.480845  0.519155  0.104000  1
  H  H19  1  0.522394  0.044787  0.887988  1
  H  H20  1  0.522394  0.477606  0.887988  1
  H  H21  1  0.522394  0.044787  0.612012  1
