# generated using pymatgen
data_Dy10YHo9(CoBi2)4
_symmetry_space_group_name_H-M   'P 1'
_cell_length_a   7.96756752
_cell_length_b   8.87076900
_cell_length_c   12.37965400
_cell_angle_alpha   90.00000000
_cell_angle_beta   89.97830730
_cell_angle_gamma   90.00000000
_symmetry_Int_Tables_number   1
_chemical_formula_structural   Dy10YHo9(CoBi2)4
_chemical_formula_sum   'Dy10 Y1 Ho9 Co4 Bi8'
_cell_volume   874.97470545
_cell_formula_units_Z   1
loop_
 _symmetry_equiv_pos_site_id
 _symmetry_equiv_pos_as_xyz
  1  'x, y, z'
loop_
 _atom_site_type_symbol
 _atom_site_label
 _atom_site_symmetry_multiplicity
 _atom_site_fract_x
 _atom_site_fract_y
 _atom_site_fract_z
 _atom_site_occupancy
  Dy  Dy0  1  0.653021  0.250000  0.300343  1
  Dy  Dy1  1  0.847065  0.250000  0.800429  1
  Dy  Dy2  1  0.153247  0.750000  0.199715  1
  Dy  Dy3  1  0.884459  0.750000  0.810777  1
  Dy  Dy4  1  0.115257  0.250000  0.189236  1
  Dy  Dy5  1  0.384787  0.250000  0.689201  1
  Dy  Dy6  1  0.615526  0.750000  0.310279  1
  Dy  Dy7  1  0.051728  0.750000  0.497749  1
  Dy  Dy8  1  0.947917  0.250000  0.501900  1
  Dy  Dy9  1  0.552163  0.250000  0.002266  1
  Y  Y10  1  0.346443  0.750000  0.701103  1
  Ho  Ho11  1  0.675607  0.537748  0.562726  1
  Ho  Ho12  1  0.324460  0.462167  0.436965  1
  Ho  Ho13  1  0.175694  0.462239  0.937025  1
  Ho  Ho14  1  0.324460  0.037833  0.436965  1
  Ho  Ho15  1  0.824492  0.537931  0.063084  1
  Ho  Ho16  1  0.675607  0.962252  0.562726  1
  Ho  Ho17  1  0.824492  0.962069  0.063084  1
  Ho  Ho18  1  0.175694  0.037761  0.937025  1
  Ho  Ho19  1  0.447874  0.750000  0.998167  1
  Co  Co20  1  0.065674  0.750000  0.991719  1
  Co  Co21  1  0.934527  0.250000  0.008254  1
  Co  Co22  1  0.565305  0.250000  0.508216  1
  Co  Co23  1  0.434813  0.750000  0.490979  1
  Bi  Bi24  1  0.572058  0.509574  0.826903  1
  Bi  Bi25  1  0.427933  0.490596  0.173310  1
  Bi  Bi26  1  0.071862  0.490454  0.673376  1
  Bi  Bi27  1  0.427933  0.009404  0.173310  1
  Bi  Bi28  1  0.927992  0.509450  0.326443  1
  Bi  Bi29  1  0.572058  0.990426  0.826903  1
  Bi  Bi30  1  0.927992  0.990550  0.326443  1
  Bi  Bi31  1  0.071862  0.009546  0.673376  1
