# generated using pymatgen
data_TbHf7Ti6(Nb3Si8)2
_symmetry_space_group_name_H-M   'P 1'
_cell_length_a   6.86153605
_cell_length_b   6.86824808
_cell_length_c   12.63779491
_cell_angle_alpha   89.93264124
_cell_angle_beta   89.97871440
_cell_angle_gamma   89.94625679
_symmetry_Int_Tables_number   1
_chemical_formula_structural   TbHf7Ti6(Nb3Si8)2
_chemical_formula_sum   'Tb1 Hf7 Ti6 Nb6 Si16'
_cell_volume   595.57725749
_cell_formula_units_Z   1
loop_
 _symmetry_equiv_pos_site_id
 _symmetry_equiv_pos_as_xyz
  1  'x, y, z'
loop_
 _atom_site_type_symbol
 _atom_site_label
 _atom_site_symmetry_multiplicity
 _atom_site_fract_x
 _atom_site_fract_y
 _atom_site_fract_z
 _atom_site_occupancy
  Tb  Tb0  1  0.996209  0.660628  0.031146  1
  Hf  Hf1  1  0.342335  0.998557  0.469986  1
  Hf  Hf2  1  0.500494  0.843739  0.717870  1
  Hf  Hf3  1  0.498305  0.157006  0.221512  1
  Hf  Hf4  1  0.842277  0.501291  0.282464  1
  Hf  Hf5  1  0.159094  0.498231  0.780205  1
  Hf  Hf6  1  0.652874  0.001926  0.967442  1
  Hf  Hf7  1  0.999091  0.343012  0.530559  1
  Ti  Ti8  1  0.504151  0.348097  0.622032  1
  Ti  Ti9  1  0.652491  0.491814  0.874638  1
  Ti  Ti10  1  0.348371  0.503898  0.379037  1
  Ti  Ti11  1  0.848024  0.997006  0.374629  1
  Ti  Ti12  1  0.006039  0.152317  0.129015  1
  Ti  Ti13  1  0.995453  0.848705  0.625808  1
  Nb  Nb14  1  0.331628  0.327175  0.999357  1
  Nb  Nb15  1  0.170961  0.831471  0.252153  1
  Nb  Nb16  1  0.828819  0.170792  0.747640  1
  Nb  Nb17  1  0.670834  0.670356  0.499931  1
  Nb  Nb18  1  0.155169  0.002903  0.870469  1
  Nb  Nb19  1  0.497495  0.651400  0.124734  1
  Si  Si20  1  0.208105  0.135828  0.673700  1
  Si  Si21  1  0.371094  0.705666  0.924069  1
  Si  Si22  1  0.634722  0.292547  0.426330  1
  Si  Si23  1  0.705296  0.356749  0.073035  1
  Si  Si24  1  0.292761  0.635107  0.573993  1
  Si  Si25  1  0.791217  0.871872  0.181716  1
  Si  Si26  1  0.135362  0.207064  0.325398  1
  Si  Si27  1  0.859815  0.793988  0.818727  1
  Si  Si28  1  0.298433  0.957878  0.064663  1
  Si  Si29  1  0.544866  0.797861  0.316162  1
  Si  Si30  1  0.455689  0.206379  0.810303  1
  Si  Si31  1  0.796236  0.545806  0.685449  1
  Si  Si32  1  0.204084  0.450519  0.190121  1
  Si  Si33  1  0.703801  0.045863  0.562376  1
  Si  Si34  1  0.952376  0.292041  0.936034  1
  Si  Si35  1  0.046027  0.704509  0.437299  1
