# generated using pymatgen
data_LaPa2Sb4Pt3
_symmetry_space_group_name_H-M   'P 1'
_cell_length_a   8.53262526
_cell_length_b   8.53262560
_cell_length_c   8.53262619
_cell_angle_alpha   109.31621895
_cell_angle_beta   109.31621355
_cell_angle_gamma   109.78167914
_symmetry_Int_Tables_number   1
_chemical_formula_structural   LaPa2Sb4Pt3
_chemical_formula_sum   'La2 Pa4 Sb8 Pt6'
_cell_volume   478.20774537
_cell_formula_units_Z   2
loop_
 _symmetry_equiv_pos_site_id
 _symmetry_equiv_pos_as_xyz
  1  'x, y, z'
loop_
 _atom_site_type_symbol
 _atom_site_label
 _atom_site_symmetry_multiplicity
 _atom_site_fract_x
 _atom_site_fract_y
 _atom_site_fract_z
 _atom_site_occupancy
  La  La0  1  0.125000  0.875000  0.250000  1
  La  La1  1  0.375000  0.625000  0.750000  1
  Pa  Pa2  1  0.875106  0.250000  0.125106  1
  Pa  Pa3  1  0.624894  0.750000  0.374894  1
  Pa  Pa4  1  0.250000  0.124894  0.874894  1
  Pa  Pa5  1  0.750000  0.375106  0.625106  1
  Sb  Sb6  1  0.674287  0.498600  0.999029  1
  Sb  Sb7  1  0.500429  0.001400  0.675687  1
  Sb  Sb8  1  0.999571  0.675258  0.500971  1
  Sb  Sb9  1  0.825713  0.824742  0.824313  1
  Sb  Sb10  1  0.501400  0.000429  0.175687  1
  Sb  Sb11  1  0.175258  0.499571  0.000971  1
  Sb  Sb12  1  0.998600  0.174287  0.499029  1
  Sb  Sb13  1  0.324742  0.325713  0.324313  1
  Pt  Pt14  1  0.378866  0.250000  0.628866  1
  Pt  Pt15  1  0.121134  0.750000  0.871134  1
  Pt  Pt16  1  0.250000  0.621134  0.371134  1
  Pt  Pt17  1  0.750000  0.878866  0.128866  1
  Pt  Pt18  1  0.625000  0.375000  0.250000  1
  Pt  Pt19  1  0.875000  0.125000  0.750000  1
