# generated using pymatgen
data_TbDy2Y(CuPt)2
_symmetry_space_group_name_H-M   'P 1'
_cell_length_a   4.45734300
_cell_length_b   5.54051082
_cell_length_c   7.16968783
_cell_angle_alpha   90.01886800
_cell_angle_beta   90.00000000
_cell_angle_gamma   90.00000000
_symmetry_Int_Tables_number   1
_chemical_formula_structural   TbDy2Y(CuPt)2
_chemical_formula_sum   'Tb1 Dy2 Y1 Cu2 Pt2'
_cell_volume   177.06229383
_cell_formula_units_Z   1
loop_
 _symmetry_equiv_pos_site_id
 _symmetry_equiv_pos_as_xyz
  1  'x, y, z'
loop_
 _atom_site_type_symbol
 _atom_site_label
 _atom_site_symmetry_multiplicity
 _atom_site_fract_x
 _atom_site_fract_y
 _atom_site_fract_z
 _atom_site_occupancy
  Tb  Tb0  1  0.000000  0.884360  0.184041  1
  Dy  Dy1  1  0.500000  0.394288  0.315963  1
  Dy  Dy2  1  0.500000  0.605509  0.815741  1
  Y  Y3  1  0.000000  0.115244  0.684017  1
  Cu  Cu4  1  0.500000  0.891436  0.463974  1
  Cu  Cu5  1  0.500000  0.108744  0.963913  1
  Pt  Pt6  1  0.000000  0.614753  0.536035  1
  Pt  Pt7  1  0.000000  0.385666  0.036318  1
