# generated using pymatgen
data_La3Zn7(Ni3Pt)2
_symmetry_space_group_name_H-M   'P 1'
_cell_length_a   9.19534983
_cell_length_b   9.19534844
_cell_length_c   4.06783500
_cell_angle_alpha   90.00000000
_cell_angle_beta   90.00000000
_cell_angle_gamma   120.70046576
_symmetry_Int_Tables_number   1
_chemical_formula_structural   La3Zn7(Ni3Pt)2
_chemical_formula_sum   'La3 Zn7 Ni6 Pt2'
_cell_volume   295.74779980
_cell_formula_units_Z   1
loop_
 _symmetry_equiv_pos_site_id
 _symmetry_equiv_pos_as_xyz
  1  'x, y, z'
loop_
 _atom_site_type_symbol
 _atom_site_label
 _atom_site_symmetry_multiplicity
 _atom_site_fract_x
 _atom_site_fract_y
 _atom_site_fract_z
 _atom_site_occupancy
  La  La0  1  0.674163  0.325837  0.500000  1
  La  La1  1  0.325837  0.674163  0.500000  1
  La  La2  1  0.000000  0.000000  0.000000  1
  Zn  Zn3  1  0.500000  0.500000  0.000000  1
  Zn  Zn4  1  0.700427  0.995954  0.500000  1
  Zn  Zn5  1  0.702874  0.702874  0.500000  1
  Zn  Zn6  1  0.004046  0.299573  0.500000  1
  Zn  Zn7  1  0.995954  0.700427  0.500000  1
  Zn  Zn8  1  0.299573  0.004046  0.500000  1
  Zn  Zn9  1  0.297126  0.297126  0.500000  1
  Ni  Ni10  1  0.825193  0.174807  0.000000  1
  Ni  Ni11  1  0.174807  0.825193  0.000000  1
  Ni  Ni12  1  0.637371  0.812265  0.000000  1
  Ni  Ni13  1  0.362629  0.187735  0.000000  1
  Ni  Ni14  1  0.187735  0.362629  0.000000  1
  Ni  Ni15  1  0.812265  0.637371  0.000000  1
  Pt  Pt16  1  0.000000  0.500000  0.000000  1
  Pt  Pt17  1  0.500000  0.000000  0.000000  1
