# generated using pymatgen
data_La7Dy3ZnSi7O3
_symmetry_space_group_name_H-M   'P 1'
_cell_length_a   10.82527364
_cell_length_b   10.83559255
_cell_length_c   4.54854500
_cell_angle_alpha   90.00000000
_cell_angle_beta   90.00000000
_cell_angle_gamma   120.03153879
_symmetry_Int_Tables_number   1
_chemical_formula_structural   La7Dy3ZnSi7O3
_chemical_formula_sum   'La7 Dy3 Zn1 Si7 O3'
_cell_volume   461.90915245
_cell_formula_units_Z   1
loop_
 _symmetry_equiv_pos_site_id
 _symmetry_equiv_pos_as_xyz
  1  'x, y, z'
loop_
 _atom_site_type_symbol
 _atom_site_label
 _atom_site_symmetry_multiplicity
 _atom_site_fract_x
 _atom_site_fract_y
 _atom_site_fract_z
 _atom_site_occupancy
  La  La0  1  0.212423  0.787903  0.000000  1
  La  La1  1  0.576638  0.788537  0.000000  1
  La  La2  1  0.787577  0.575481  0.000000  1
  La  La3  1  0.000000  0.002252  0.000000  1
  La  La4  1  0.211634  0.422699  0.000000  1
  La  La5  1  0.423362  0.211901  0.000000  1
  La  La6  1  0.788366  0.211065  0.000000  1
  Dy  Dy7  1  0.000000  0.496216  0.500000  1
  Dy  Dy8  1  0.500078  0.501040  0.500000  1
  Dy  Dy9  1  0.499922  0.000962  0.500000  1
  Zn  Zn10  1  0.000000  0.777112  0.500000  1
  Si  Si11  1  0.000000  0.220932  0.500000  1
  Si  Si12  1  0.223003  0.222775  0.500000  1
  Si  Si13  1  0.776997  0.999772  0.500000  1
  Si  Si14  1  0.333079  0.666168  0.500000  1
  Si  Si15  1  0.223864  0.003007  0.500000  1
  Si  Si16  1  0.666921  0.333088  0.500000  1
  Si  Si17  1  0.776136  0.779143  0.500000  1
  O  O18  1  0.000000  0.499277  0.000000  1
  O  O19  1  0.499224  0.499947  0.000000  1
  O  O20  1  0.500776  0.000723  0.000000  1
