# generated using pymatgen
data_YHo3B12IrRu
_symmetry_space_group_name_H-M   'P 1'
_cell_length_a   3.64796000
_cell_length_b   9.16636868
_cell_length_c   11.49359505
_cell_angle_alpha   90.06921526
_cell_angle_beta   90.00000000
_cell_angle_gamma   90.00000000
_symmetry_Int_Tables_number   1
_chemical_formula_structural   YHo3B12IrRu
_chemical_formula_sum   'Y2 Ho6 B24 Ir2 Ru2'
_cell_volume   384.32882955
_cell_formula_units_Z   2
loop_
 _symmetry_equiv_pos_site_id
 _symmetry_equiv_pos_as_xyz
  1  'x, y, z'
loop_
 _atom_site_type_symbol
 _atom_site_label
 _atom_site_symmetry_multiplicity
 _atom_site_fract_x
 _atom_site_fract_y
 _atom_site_fract_z
 _atom_site_occupancy
  Y  Y0  1  0.000000  0.319328  0.411782  1
  Y  Y1  1  0.000000  0.680672  0.588218  1
  Ho  Ho2  1  0.000000  0.823604  0.085251  1
  Ho  Ho3  1  0.000000  0.176396  0.914749  1
  Ho  Ho4  1  0.000000  0.945741  0.372994  1
  Ho  Ho5  1  0.000000  0.054259  0.627006  1
  Ho  Ho6  1  0.000000  0.442415  0.125366  1
  Ho  Ho7  1  0.000000  0.557585  0.874634  1
  B  B8  1  0.500000  0.553202  0.433553  1
  B  B9  1  0.500000  0.446798  0.566447  1
  B  B10  1  0.500000  0.053878  0.066806  1
  B  B11  1  0.500000  0.946122  0.933194  1
  B  B12  1  0.500000  0.750108  0.420245  1
  B  B13  1  0.500000  0.249892  0.579755  1
  B  B14  1  0.500000  0.247729  0.079739  1
  B  B15  1  0.500000  0.752271  0.920261  1
  B  B16  1  0.500000  0.792743  0.265864  1
  B  B17  1  0.500000  0.207257  0.734136  1
  B  B18  1  0.500000  0.291682  0.233530  1
  B  B19  1  0.500000  0.708318  0.766470  1
  B  B20  1  0.500000  0.632184  0.184149  1
  B  B21  1  0.500000  0.367816  0.815851  1
  B  B22  1  0.500000  0.132040  0.314369  1
  B  B23  1  0.500000  0.867960  0.685631  1
  B  B24  1  0.500000  0.983601  0.212769  1
  B  B25  1  0.500000  0.016399  0.787231  1
  B  B26  1  0.500000  0.482255  0.286373  1
  B  B27  1  0.500000  0.517745  0.713627  1
  B  B28  1  0.500000  0.611315  0.030947  1
  B  B29  1  0.500000  0.388685  0.969053  1
  B  B30  1  0.500000  0.110338  0.469956  1
  B  B31  1  0.500000  0.889662  0.530044  1
  Ir  Ir32  1  0.000000  0.637684  0.321704  1
  Ir  Ir33  1  0.000000  0.362316  0.678296  1
  Ru  Ru34  1  0.000000  0.137984  0.178691  1
  Ru  Ru35  1  0.000000  0.862016  0.821309  1
