# generated using pymatgen
data_CaTb(NiIr)2
_symmetry_space_group_name_H-M   'P 1'
_cell_length_a   5.12383365
_cell_length_b   5.21392921
_cell_length_c   5.21393068
_cell_angle_alpha   61.60882141
_cell_angle_beta   60.56998775
_cell_angle_gamma   60.56997502
_symmetry_Int_Tables_number   1
_chemical_formula_structural   CaTb(NiIr)2
_chemical_formula_sum   'Ca1 Tb1 Ni2 Ir2'
_cell_volume   100.50649701
_cell_formula_units_Z   1
loop_
 _symmetry_equiv_pos_site_id
 _symmetry_equiv_pos_as_xyz
  1  'x, y, z'
loop_
 _atom_site_type_symbol
 _atom_site_label
 _atom_site_symmetry_multiplicity
 _atom_site_fract_x
 _atom_site_fract_y
 _atom_site_fract_z
 _atom_site_occupancy
  Ca  Ca0  1  0.000884  0.999116  0.999116  1
  Tb  Tb1  1  0.250937  0.249063  0.249063  1
  Ni  Ni2  1  0.624633  0.625415  0.625415  1
  Ni  Ni3  1  0.124537  0.625415  0.625415  1
  Ir  Ir4  1  0.624504  0.125217  0.625775  1
  Ir  Ir5  1  0.624504  0.625775  0.125217  1
