# generated using pymatgen
data_TbY11(TcPt)2
_symmetry_space_group_name_H-M   'P 1'
_cell_length_a   6.48524562
_cell_length_b   7.32073310
_cell_length_c   9.29875600
_cell_angle_alpha   90.00000000
_cell_angle_beta   90.00000000
_cell_angle_gamma   89.78317917
_symmetry_Int_Tables_number   1
_chemical_formula_structural   TbY11(TcPt)2
_chemical_formula_sum   'Tb1 Y11 Tc2 Pt2'
_cell_volume   441.47157352
_cell_formula_units_Z   1
loop_
 _symmetry_equiv_pos_site_id
 _symmetry_equiv_pos_as_xyz
  1  'x, y, z'
loop_
 _atom_site_type_symbol
 _atom_site_label
 _atom_site_symmetry_multiplicity
 _atom_site_fract_x
 _atom_site_fract_y
 _atom_site_fract_z
 _atom_site_occupancy
  Tb  Tb0  1  0.124829  0.041279  0.250000  1
  Y  Y1  1  0.624848  0.460793  0.750000  1
  Y  Y2  1  0.371685  0.534521  0.250000  1
  Y  Y3  1  0.871206  0.965059  0.750000  1
  Y  Y4  1  0.673327  0.181395  0.058924  1
  Y  Y5  1  0.173936  0.318667  0.941066  1
  Y  Y6  1  0.826472  0.674641  0.435317  1
  Y  Y7  1  0.326645  0.825644  0.564457  1
  Y  Y8  1  0.326645  0.825644  0.935543  1
  Y  Y9  1  0.826472  0.674641  0.064683  1
  Y  Y10  1  0.173936  0.318667  0.558934  1
  Y  Y11  1  0.673327  0.181395  0.441076  1
  Tc  Tc12  1  0.963514  0.387255  0.250000  1
  Tc  Tc13  1  0.461996  0.110509  0.750000  1
  Pt  Pt14  1  0.540282  0.888981  0.250000  1
  Pt  Pt15  1  0.040886  0.610911  0.750000  1
