# generated using pymatgen
data_La4Mg(Al4Au3)3
_symmetry_space_group_name_H-M   'P 1'
_cell_length_a   11.84934553
_cell_length_b   11.90863301
_cell_length_c   4.30046900
_cell_angle_alpha   90.00000000
_cell_angle_beta   90.00000000
_cell_angle_gamma   120.16565182
_symmetry_Int_Tables_number   1
_chemical_formula_structural   La4Mg(Al4Au3)3
_chemical_formula_sum   'La4 Mg1 Al12 Au9'
_cell_volume   524.65688153
_cell_formula_units_Z   1
loop_
 _symmetry_equiv_pos_site_id
 _symmetry_equiv_pos_as_xyz
  1  'x, y, z'
loop_
 _atom_site_type_symbol
 _atom_site_label
 _atom_site_symmetry_multiplicity
 _atom_site_fract_x
 _atom_site_fract_y
 _atom_site_fract_z
 _atom_site_occupancy
  La  La0  1  0.204894  0.794351  0.500000  1
  La  La1  1  0.591301  0.795650  0.500000  1
  La  La2  1  0.204894  0.410543  0.500000  1
  La  La3  1  0.668568  0.334283  0.000000  1
  Mg  Mg4  1  0.165392  0.082696  0.500000  1
  Al  Al5  1  0.944920  0.291874  0.000000  1
  Al  Al6  1  0.710997  0.658315  0.000000  1
  Al  Al7  1  0.944920  0.653046  0.000000  1
  Al  Al8  1  0.342991  0.053786  0.000000  1
  Al  Al9  1  0.915632  0.833645  0.500000  1
  Al  Al10  1  0.710997  0.052681  0.000000  1
  Al  Al11  1  0.531567  0.063996  0.500000  1
  Al  Al12  1  0.915632  0.081987  0.500000  1
  Al  Al13  1  0.342991  0.289205  0.000000  1
  Al  Al14  1  0.531567  0.467569  0.500000  1
  Al  Al15  1  0.934979  0.467488  0.500000  1
  Al  Al16  1  0.333275  0.666638  0.000000  1
  Au  Au17  1  0.458659  0.542213  0.000000  1
  Au  Au18  1  0.830160  0.915080  0.000000  1
  Au  Au19  1  0.458659  0.916444  0.000000  1
  Au  Au20  1  0.083414  0.174627  0.000000  1
  Au  Au21  1  0.083414  0.908788  0.000000  1
  Au  Au22  1  0.790210  0.580696  0.500000  1
  Au  Au23  1  0.083300  0.541649  0.000000  1
  Au  Au24  1  0.790210  0.209513  0.500000  1
  Au  Au25  1  0.426463  0.213231  0.500000  1
