# generated using pymatgen
data_Pa2Co2H5N
_symmetry_space_group_name_H-M   'P 1'
_cell_length_a   6.10998768
_cell_length_b   6.10998767
_cell_length_c   4.30788800
_cell_angle_alpha   90.00000000
_cell_angle_beta   90.00000000
_cell_angle_gamma   142.63623477
_symmetry_Int_Tables_number   1
_chemical_formula_structural   Pa2Co2H5N
_chemical_formula_sum   'Pa2 Co2 H5 N1'
_cell_volume   97.59849388
_cell_formula_units_Z   1
loop_
 _symmetry_equiv_pos_site_id
 _symmetry_equiv_pos_as_xyz
  1  'x, y, z'
loop_
 _atom_site_type_symbol
 _atom_site_label
 _atom_site_symmetry_multiplicity
 _atom_site_fract_x
 _atom_site_fract_y
 _atom_site_fract_z
 _atom_site_occupancy
  Pa  Pa0  1  0.632400  0.367600  0.250000  1
  Pa  Pa1  1  0.372124  0.627876  0.750000  1
  Co  Co2  1  0.076088  0.923912  0.750000  1
  Co  Co3  1  0.925115  0.074885  0.250000  1
  H  H4  1  0.185199  0.814801  0.495452  1
  H  H5  1  0.185199  0.814801  0.004548  1
  H  H6  1  0.817001  0.182999  0.999180  1
  H  H7  1  0.817001  0.182999  0.500820  1
  H  H8  1  0.430575  0.569425  0.250000  1
  N  N9  1  0.559298  0.440702  0.750000  1
