# generated using pymatgen
data_K3Er(IO3)6
_symmetry_space_group_name_H-M   'P 1'
_cell_length_a   7.14145596
_cell_length_b   7.23363338
_cell_length_c   10.90427076
_cell_angle_alpha   98.63558535
_cell_angle_beta   108.14952131
_cell_angle_gamma   103.12098954
_symmetry_Int_Tables_number   1
_chemical_formula_structural   K3Er(IO3)6
_chemical_formula_sum   'K3 Er1 I6 O18'
_cell_volume   506.23629125
_cell_formula_units_Z   1
loop_
 _symmetry_equiv_pos_site_id
 _symmetry_equiv_pos_as_xyz
  1  'x, y, z'
loop_
 _atom_site_type_symbol
 _atom_site_label
 _atom_site_symmetry_multiplicity
 _atom_site_fract_x
 _atom_site_fract_y
 _atom_site_fract_z
 _atom_site_occupancy
  K  K0  1  0.377902  0.539637  0.293390  1
  K  K1  1  0.622098  0.460363  0.706610  1
  K  K2  1  0.000000  0.500000  0.500000  1
  Er  Er3  1  0.000000  0.000000  0.000000  1
  I  I4  1  0.558880  0.034456  0.194300  1
  I  I5  1  0.441120  0.965544  0.805700  1
  I  I6  1  0.779662  0.534379  0.103682  1
  I  I7  1  0.220338  0.465621  0.896318  1
  I  I8  1  0.134004  0.060961  0.381708  1
  I  I9  1  0.865996  0.939039  0.618292  1
  O  O10  1  0.589750  0.655630  0.126075  1
  O  O11  1  0.410250  0.344370  0.873925  1
  O  O12  1  0.007749  0.358195  0.737354  1
  O  O13  1  0.992251  0.641805  0.262646  1
  O  O14  1  0.611811  0.301307  0.235041  1
  O  O15  1  0.388189  0.698693  0.764959  1
  O  O16  1  0.056151  0.106204  0.212648  1
  O  O17  1  0.943849  0.893796  0.787352  1
  O  O18  1  0.317099  0.965665  0.043963  1
  O  O19  1  0.682901  0.034335  0.956037  1
  O  O20  1  0.293436  0.307685  0.470478  1
  O  O21  1  0.706564  0.692315  0.529522  1
  O  O22  1  0.889634  0.079266  0.402302  1
  O  O23  1  0.110366  0.920734  0.597698  1
  O  O24  1  0.560321  0.036248  0.687579  1
  O  O25  1  0.439679  0.963752  0.312421  1
  O  O26  1  0.118943  0.320738  0.001494  1
  O  O27  1  0.881057  0.679262  0.998506  1
