# generated using pymatgen
data_Tb9Pr6Dy(CdIr)4
_symmetry_space_group_name_H-M   'P 1'
_cell_length_a   9.79946863
_cell_length_b   9.79946839
_cell_length_c   9.79648800
_cell_angle_alpha   60.01006031
_cell_angle_beta   60.01006109
_cell_angle_gamma   59.99845807
_symmetry_Int_Tables_number   1
_chemical_formula_structural   Tb9Pr6Dy(CdIr)4
_chemical_formula_sum   'Tb9 Pr6 Dy1 Cd4 Ir4'
_cell_volume   665.30596776
_cell_formula_units_Z   1
loop_
 _symmetry_equiv_pos_site_id
 _symmetry_equiv_pos_as_xyz
  1  'x, y, z'
loop_
 _atom_site_type_symbol
 _atom_site_label
 _atom_site_symmetry_multiplicity
 _atom_site_fract_x
 _atom_site_fract_y
 _atom_site_fract_z
 _atom_site_occupancy
  Tb  Tb0  1  0.347606  0.347606  0.346789  1
  Tb  Tb1  1  0.347606  0.347606  0.957997  1
  Tb  Tb2  1  0.348305  0.956980  0.347357  1
  Tb  Tb3  1  0.956980  0.348305  0.347357  1
  Tb  Tb4  1  0.811833  0.186926  0.188555  1
  Tb  Tb5  1  0.186926  0.811833  0.812686  1
  Tb  Tb6  1  0.186926  0.811833  0.188555  1
  Tb  Tb7  1  0.811833  0.186926  0.812686  1
  Tb  Tb8  1  0.187951  0.187951  0.812049  1
  Pr  Pr9  1  0.941075  0.558667  0.558868  1
  Pr  Pr10  1  0.558667  0.941075  0.941390  1
  Pr  Pr11  1  0.558667  0.941075  0.558868  1
  Pr  Pr12  1  0.941075  0.558667  0.941390  1
  Pr  Pr13  1  0.559315  0.559315  0.940685  1
  Pr  Pr14  1  0.941503  0.941503  0.558497  1
  Dy  Dy15  1  0.812129  0.812129  0.187871  1
  Cd  Cd16  1  0.579322  0.579322  0.579137  1
  Cd  Cd17  1  0.579322  0.579322  0.262217  1
  Cd  Cd18  1  0.579426  0.261792  0.579390  1
  Cd  Cd19  1  0.261792  0.579426  0.579390  1
  Ir  Ir20  1  0.141870  0.141870  0.140388  1
  Ir  Ir21  1  0.141870  0.141870  0.575872  1
  Ir  Ir22  1  0.141504  0.576494  0.141001  1
  Ir  Ir23  1  0.576494  0.141504  0.141001  1
