# generated using pymatgen
data_Na3PuF8
_symmetry_space_group_name_H-M   'P 1'
_cell_length_a   6.70201209
_cell_length_b   6.70201160
_cell_length_c   6.70201292
_cell_angle_alpha   131.82768510
_cell_angle_beta   131.82768880
_cell_angle_gamma   70.50131655
_symmetry_Int_Tables_number   1
_chemical_formula_structural   Na3PuF8
_chemical_formula_sum   'Na3 Pu1 F8'
_cell_volume   163.77885585
_cell_formula_units_Z   1
loop_
 _symmetry_equiv_pos_site_id
 _symmetry_equiv_pos_as_xyz
  1  'x, y, z'
loop_
 _atom_site_type_symbol
 _atom_site_label
 _atom_site_symmetry_multiplicity
 _atom_site_fract_x
 _atom_site_fract_y
 _atom_site_fract_z
 _atom_site_occupancy
  Na  Na0  1  0.500000  0.500000  0.000000  1
  Na  Na1  1  0.250000  0.750000  0.500000  1
  Na  Na2  1  0.750000  0.250000  0.500000  1
  Pu  Pu3  1  0.000000  0.000000  0.000000  1
  F  F4  1  0.884624  0.884624  0.537055  1
  F  F5  1  0.884624  0.347569  0.000000  1
  F  F6  1  0.347569  0.884624  0.000000  1
  F  F7  1  0.347569  0.347569  0.462945  1
  F  F8  1  0.652431  0.652431  0.537055  1
  F  F9  1  0.652431  0.115376  0.000000  1
  F  F10  1  0.115376  0.652431  0.000000  1
  F  F11  1  0.115376  0.115376  0.462945  1
