# generated using pymatgen
data_GdDyCoSi2
_symmetry_space_group_name_H-M   'P 1'
_cell_length_a   12.34041654
_cell_length_b   12.34041547
_cell_length_c   21.77983939
_cell_angle_alpha   64.56875998
_cell_angle_beta   64.56876166
_cell_angle_gamma   39.55433803
_symmetry_Int_Tables_number   1
_chemical_formula_structural   GdDyCoSi2
_chemical_formula_sum   'Gd2 Dy2 Co2 Si4'
_cell_volume   1879.39403239
_cell_formula_units_Z   2
loop_
 _symmetry_equiv_pos_site_id
 _symmetry_equiv_pos_as_xyz
  1  'x, y, z'
loop_
 _atom_site_type_symbol
 _atom_site_label
 _atom_site_symmetry_multiplicity
 _atom_site_fract_x
 _atom_site_fract_y
 _atom_site_fract_z
 _atom_site_occupancy
  Gd  Gd0  1  0.187156  0.187156  0.900024  1
  Gd  Gd1  1  0.812844  0.812844  0.099976  1
  Dy  Dy2  1  0.993013  0.993013  0.678131  1
  Dy  Dy3  1  0.006987  0.006987  0.321869  1
  Co  Co4  1  0.273935  0.273935  0.377595  1
  Co  Co5  1  0.726065  0.726065  0.622405  1
  Si  Si6  1  0.345440  0.345440  0.569011  1
  Si  Si7  1  0.654560  0.654560  0.430989  1
  Si  Si8  1  0.500734  0.500734  0.875461  1
  Si  Si9  1  0.499266  0.499266  0.124539  1
