# generated using pymatgen
data_Lu2Mn6P7Ir6
_symmetry_space_group_name_H-M   'P 1'
_cell_length_a   9.41834840
_cell_length_b   9.42129000
_cell_length_c   3.81630000
_cell_angle_alpha   90.00000000
_cell_angle_beta   90.00000000
_cell_angle_gamma   120.02319305
_symmetry_Int_Tables_number   1
_chemical_formula_structural   Lu2Mn6P7Ir6
_chemical_formula_sum   'Lu2 Mn6 P7 Ir6'
_cell_volume   293.19510595
_cell_formula_units_Z   1
loop_
 _symmetry_equiv_pos_site_id
 _symmetry_equiv_pos_as_xyz
  1  'x, y, z'
loop_
 _atom_site_type_symbol
 _atom_site_label
 _atom_site_symmetry_multiplicity
 _atom_site_fract_x
 _atom_site_fract_y
 _atom_site_fract_z
 _atom_site_occupancy
  Lu  Lu0  1  0.666656  0.333263  0.000000  1
  Lu  Lu1  1  0.999945  0.999832  0.500000  1
  Mn  Mn2  1  0.492298  0.939016  0.000000  1
  Mn  Mn3  1  0.062752  0.554524  0.000000  1
  Mn  Mn4  1  0.445084  0.508053  0.000000  1
  Mn  Mn5  1  0.549651  0.764295  0.500000  1
  Mn  Mn6  1  0.235910  0.785168  0.500000  1
  Mn  Mn7  1  0.214503  0.449785  0.500000  1
  P  P8  1  0.454167  0.064714  0.500000  1
  P  P9  1  0.935203  0.389220  0.500000  1
  P  P10  1  0.610549  0.545866  0.500000  1
  P  P11  1  0.744344  0.966767  0.000000  1
  P  P12  1  0.033045  0.777520  0.000000  1
  P  P13  1  0.222425  0.255501  0.000000  1
  P  P14  1  0.333626  0.667015  0.000000  1
  Ir  Ir15  1  0.762382  0.734978  0.000000  1
  Ir  Ir16  1  0.264672  0.027230  0.000000  1
  Ir  Ir17  1  0.972659  0.237372  0.000000  1
  Ir  Ir18  1  0.720605  0.112318  0.500000  1
  Ir  Ir19  1  0.887575  0.607952  0.500000  1
  Ir  Ir20  1  0.391947  0.279613  0.500000  1
