# generated using pymatgen
data_Nd2Y4Al24Pd3Ru5
_symmetry_space_group_name_H-M   'P 1'
_cell_length_a   8.89144274
_cell_length_b   8.87391056
_cell_length_c   9.59268008
_cell_angle_alpha   90.15280788
_cell_angle_beta   89.88400989
_cell_angle_gamma   119.81192954
_symmetry_Int_Tables_number   1
_chemical_formula_structural   Nd2Y4Al24Pd3Ru5
_chemical_formula_sum   'Nd2 Y4 Al24 Pd3 Ru5'
_cell_volume   656.71375984
_cell_formula_units_Z   1
loop_
 _symmetry_equiv_pos_site_id
 _symmetry_equiv_pos_as_xyz
  1  'x, y, z'
loop_
 _atom_site_type_symbol
 _atom_site_label
 _atom_site_symmetry_multiplicity
 _atom_site_fract_x
 _atom_site_fract_y
 _atom_site_fract_z
 _atom_site_occupancy
  Nd  Nd0  1  0.188786  0.809742  0.249535  1
  Nd  Nd1  1  0.811214  0.190258  0.750465  1
  Y  Y2  1  0.194895  0.387631  0.249820  1
  Y  Y3  1  0.805105  0.612369  0.750180  1
  Y  Y4  1  0.614720  0.804697  0.251712  1
  Y  Y5  1  0.385280  0.195303  0.748288  1
  Al  Al6  1  0.336487  0.664001  0.024697  1
  Al  Al7  1  0.663513  0.335999  0.975303  1
  Al  Al8  1  0.669127  0.338896  0.523978  1
  Al  Al9  1  0.330873  0.661104  0.476022  1
  Al  Al10  1  0.165206  0.327970  0.574766  1
  Al  Al11  1  0.834794  0.672030  0.425234  1
  Al  Al12  1  0.674722  0.830305  0.576577  1
  Al  Al13  1  0.830054  0.674531  0.078544  1
  Al  Al14  1  0.325278  0.169695  0.423423  1
  Al  Al15  1  0.169946  0.325469  0.921456  1
  Al  Al16  1  0.155901  0.832140  0.578513  1
  Al  Al17  1  0.324849  0.169471  0.076840  1
  Al  Al18  1  0.844099  0.167860  0.421487  1
  Al  Al19  1  0.675151  0.830529  0.923160  1
  Al  Al20  1  0.838005  0.160427  0.081578  1
  Al  Al21  1  0.161995  0.839573  0.918422  1
  Al  Al22  1  0.564291  0.127721  0.250047  1
  Al  Al23  1  0.435709  0.872279  0.749953  1
  Al  Al24  1  0.873878  0.436681  0.253327  1
  Al  Al25  1  0.126122  0.563319  0.746673  1
  Al  Al26  1  0.560392  0.439611  0.249752  1
  Al  Al27  1  0.439608  0.560389  0.750248  1
  Al  Al28  1  0.997528  0.000787  0.250325  1
  Al  Al29  1  0.002472  0.999213  0.749675  1
  Pd  Pd30  1  0.500000  0.000000  0.000000  1
  Pd  Pd31  1  0.000000  0.500000  0.000000  1
  Pd  Pd32  1  0.500000  0.000000  0.500000  1
  Ru  Ru33  1  0.500000  0.500000  0.000000  1
  Ru  Ru34  1  0.000000  0.500000  0.500000  1
  Ru  Ru35  1  0.500000  0.500000  0.500000  1
  Ru  Ru36  1  0.000000  0.000000  0.000000  1
  Ru  Ru37  1  0.000000  0.000000  0.500000  1
