# generated using pymatgen
data_Rb16Hf3MnSe16
_symmetry_space_group_name_H-M   'P 1'
_cell_length_a   8.79791598
_cell_length_b   10.45890700
_cell_length_c   15.42752000
_cell_angle_alpha   90.00000000
_cell_angle_beta   90.11256085
_cell_angle_gamma   90.00000000
_symmetry_Int_Tables_number   1
_chemical_formula_structural   Rb16Hf3MnSe16
_chemical_formula_sum   'Rb16 Hf3 Mn1 Se16'
_cell_volume   1419.58496605
_cell_formula_units_Z   1
loop_
 _symmetry_equiv_pos_site_id
 _symmetry_equiv_pos_as_xyz
  1  'x, y, z'
loop_
 _atom_site_type_symbol
 _atom_site_label
 _atom_site_symmetry_multiplicity
 _atom_site_fract_x
 _atom_site_fract_y
 _atom_site_fract_z
 _atom_site_occupancy
  Rb  Rb0  1  0.001585  0.004310  0.997695  1
  Rb  Rb1  1  0.500044  0.995550  0.499522  1
  Rb  Rb2  1  0.001585  0.495690  0.997695  1
  Rb  Rb3  1  0.500044  0.504450  0.499522  1
  Rb  Rb4  1  0.986975  0.750000  0.426611  1
  Rb  Rb5  1  0.481622  0.250000  0.070094  1
  Rb  Rb6  1  0.015094  0.250000  0.576268  1
  Rb  Rb7  1  0.508746  0.750000  0.921789  1
  Rb  Rb8  1  0.838083  0.054364  0.278895  1
  Rb  Rb9  1  0.337374  0.945272  0.220718  1
  Rb  Rb10  1  0.160808  0.547050  0.723533  1
  Rb  Rb11  1  0.662636  0.441826  0.780325  1
  Rb  Rb12  1  0.160808  0.952950  0.723533  1
  Rb  Rb13  1  0.662636  0.058174  0.780325  1
  Rb  Rb14  1  0.838083  0.445636  0.278895  1
  Rb  Rb15  1  0.337374  0.554728  0.220718  1
  Hf  Hf16  1  0.758287  0.750000  0.666897  1
  Hf  Hf17  1  0.242155  0.250000  0.334104  1
  Hf  Hf18  1  0.739802  0.750000  0.164335  1
  Mn  Mn19  1  0.263719  0.250000  0.837209  1
  Se  Se20  1  0.994832  0.250000  0.827721  1
  Se  Se21  1  0.528723  0.250000  0.325691  1
  Se  Se22  1  0.471335  0.750000  0.675268  1
  Se  Se23  1  0.026475  0.750000  0.174533  1
  Se  Se24  1  0.652026  0.551435  0.087394  1
  Se  Se25  1  0.154760  0.448100  0.411039  1
  Se  Se26  1  0.342109  0.059584  0.903811  1
  Se  Se27  1  0.844529  0.949138  0.590166  1
  Se  Se28  1  0.342109  0.440416  0.903811  1
  Se  Se29  1  0.844529  0.550862  0.590166  1
  Se  Se30  1  0.652026  0.948565  0.087394  1
  Se  Se31  1  0.154760  0.051900  0.411039  1
  Se  Se32  1  0.628070  0.750000  0.316298  1
  Se  Se33  1  0.128387  0.250000  0.182606  1
  Se  Se34  1  0.366904  0.250000  0.696111  1
  Se  Se35  1  0.870963  0.750000  0.818273  1
