# generated using pymatgen
data_AcGa5Co2
_symmetry_space_group_name_H-M   'P 1'
_cell_length_a   6.41738846
_cell_length_b   6.41738835
_cell_length_c   6.41738795
_cell_angle_alpha   142.89480247
_cell_angle_beta   113.91751188
_cell_angle_gamma   78.29046424
_symmetry_Int_Tables_number   1
_chemical_formula_structural   AcGa5Co2
_chemical_formula_sum   'Ac1 Ga5 Co2'
_cell_volume   142.23279840
_cell_formula_units_Z   1
loop_
 _symmetry_equiv_pos_site_id
 _symmetry_equiv_pos_as_xyz
  1  'x, y, z'
loop_
 _atom_site_type_symbol
 _atom_site_label
 _atom_site_symmetry_multiplicity
 _atom_site_fract_x
 _atom_site_fract_y
 _atom_site_fract_z
 _atom_site_occupancy
  Ac  Ac0  1  0.000000  0.000000  0.000000  1
  Ga  Ga1  1  0.500000  0.000000  0.500000  1
  Ga  Ga2  1  0.144963  0.336478  0.808486  1
  Ga  Ga3  1  0.855037  0.663522  0.191514  1
  Ga  Ga4  1  0.472008  0.663522  0.808486  1
  Ga  Ga5  1  0.527992  0.336478  0.191514  1
  Co  Co6  1  0.730221  0.230221  0.500000  1
  Co  Co7  1  0.269779  0.769779  0.500000  1
