# generated using pymatgen
data_Tm5Lu3(B6Os)4
_symmetry_space_group_name_H-M   'P 1'
_cell_length_a   3.60732300
_cell_length_b   9.04750702
_cell_length_c   11.42532903
_cell_angle_alpha   90.00823477
_cell_angle_beta   90.00000000
_cell_angle_gamma   90.00000000
_symmetry_Int_Tables_number   1
_chemical_formula_structural   Tm5Lu3(B6Os)4
_chemical_formula_sum   'Tm5 Lu3 B24 Os4'
_cell_volume   372.89166081
_cell_formula_units_Z   1
loop_
 _symmetry_equiv_pos_site_id
 _symmetry_equiv_pos_as_xyz
  1  'x, y, z'
loop_
 _atom_site_type_symbol
 _atom_site_label
 _atom_site_symmetry_multiplicity
 _atom_site_fract_x
 _atom_site_fract_y
 _atom_site_fract_z
 _atom_site_occupancy
  Tm  Tm0  1  0.000000  0.321732  0.414128  1
  Tm  Tm1  1  0.000000  0.678326  0.586177  1
  Tm  Tm2  1  0.000000  0.821447  0.085812  1
  Tm  Tm3  1  0.000000  0.178626  0.913980  1
  Tm  Tm4  1  0.000000  0.944196  0.373420  1
  Lu  Lu5  1  0.000000  0.055859  0.627001  1
  Lu  Lu6  1  0.000000  0.444251  0.126498  1
  Lu  Lu7  1  0.000000  0.555776  0.873300  1
  B  B8  1  0.500000  0.553404  0.433602  1
  B  B9  1  0.500000  0.446137  0.566578  1
  B  B10  1  0.500000  0.054016  0.066172  1
  B  B11  1  0.500000  0.946174  0.933516  1
  B  B12  1  0.500000  0.748751  0.420423  1
  B  B13  1  0.500000  0.250704  0.579842  1
  B  B14  1  0.500000  0.249740  0.079469  1
  B  B15  1  0.500000  0.750452  0.920366  1
  B  B16  1  0.500000  0.791567  0.265740  1
  B  B17  1  0.500000  0.207931  0.734144  1
  B  B18  1  0.500000  0.292469  0.233801  1
  B  B19  1  0.500000  0.707793  0.766083  1
  B  B20  1  0.500000  0.630990  0.184096  1
  B  B21  1  0.500000  0.368800  0.815775  1
  B  B22  1  0.500000  0.131917  0.315446  1
  B  B23  1  0.500000  0.868635  0.684503  1
  B  B24  1  0.500000  0.982513  0.212903  1
  B  B25  1  0.500000  0.017797  0.786698  1
  B  B26  1  0.500000  0.481934  0.286478  1
  B  B27  1  0.500000  0.517856  0.713444  1
  B  B28  1  0.500000  0.604893  0.028902  1
  B  B29  1  0.500000  0.395119  0.970903  1
  B  B30  1  0.500000  0.106170  0.471195  1
  B  B31  1  0.500000  0.894282  0.529714  1
  Os  Os32  1  0.000000  0.637035  0.320924  1
  Os  Os33  1  0.000000  0.362320  0.679203  1
  Os  Os34  1  0.000000  0.138233  0.178667  1
  Os  Os35  1  0.000000  0.862155  0.821099  1
