# generated using pymatgen
data_Zr6Ti4IrPt5
_symmetry_space_group_name_H-M   'P 1'
_cell_length_a   8.12485901
_cell_length_b   8.12535848
_cell_length_c   5.18755300
_cell_angle_alpha   90.00000000
_cell_angle_beta   90.00000000
_cell_angle_gamma   120.00202899
_symmetry_Int_Tables_number   1
_chemical_formula_structural   Zr6Ti4IrPt5
_chemical_formula_sum   'Zr6 Ti4 Ir1 Pt5'
_cell_volume   296.58054760
_cell_formula_units_Z   1
loop_
 _symmetry_equiv_pos_site_id
 _symmetry_equiv_pos_as_xyz
  1  'x, y, z'
loop_
 _atom_site_type_symbol
 _atom_site_label
 _atom_site_symmetry_multiplicity
 _atom_site_fract_x
 _atom_site_fract_y
 _atom_site_fract_z
 _atom_site_occupancy
  Zr  Zr0  1  0.750281  0.750896  0.750000  1
  Zr  Zr1  1  0.249719  0.000615  0.750000  1
  Zr  Zr2  1  0.000000  0.249462  0.750000  1
  Zr  Zr3  1  0.245028  0.250577  0.250000  1
  Zr  Zr4  1  0.754972  0.005549  0.250000  1
  Zr  Zr5  1  0.000000  0.747932  0.250000  1
  Ti  Ti6  1  0.669286  0.333976  0.001409  1
  Ti  Ti7  1  0.330714  0.664691  0.001409  1
  Ti  Ti8  1  0.330714  0.664691  0.498591  1
  Ti  Ti9  1  0.669286  0.333976  0.498591  1
  Ir  Ir10  1  0.000000  0.405063  0.250000  1
  Pt  Pt11  1  0.406842  0.404924  0.750000  1
  Pt  Pt12  1  0.593158  0.998082  0.750000  1
  Pt  Pt13  1  0.000000  0.594644  0.750000  1
  Pt  Pt14  1  0.594518  0.594720  0.250000  1
  Pt  Pt15  1  0.405482  0.000202  0.250000  1
