# generated using pymatgen
data_Ho8BeCuPd23
_symmetry_space_group_name_H-M   'P 1'
_cell_length_a   8.26997200
_cell_length_b   8.32108100
_cell_length_c   8.36413400
_cell_angle_alpha   90.00000000
_cell_angle_beta   90.00000000
_cell_angle_gamma   90.00000000
_symmetry_Int_Tables_number   1
_chemical_formula_structural   Ho8BeCuPd23
_chemical_formula_sum   'Ho8 Be1 Cu1 Pd23'
_cell_volume   575.57877517
_cell_formula_units_Z   1
loop_
 _symmetry_equiv_pos_site_id
 _symmetry_equiv_pos_as_xyz
  1  'x, y, z'
loop_
 _atom_site_type_symbol
 _atom_site_label
 _atom_site_symmetry_multiplicity
 _atom_site_fract_x
 _atom_site_fract_y
 _atom_site_fract_z
 _atom_site_occupancy
  Ho  Ho0  1  0.251266  0.248616  0.254756  1
  Ho  Ho1  1  0.748857  0.747885  0.750786  1
  Ho  Ho2  1  0.748857  0.747885  0.249214  1
  Ho  Ho3  1  0.748857  0.252115  0.750786  1
  Ho  Ho4  1  0.251266  0.248616  0.745244  1
  Ho  Ho5  1  0.251266  0.751384  0.254756  1
  Ho  Ho6  1  0.251266  0.751384  0.745244  1
  Ho  Ho7  1  0.748857  0.252115  0.249214  1
  Be  Be8  1  0.996773  0.000000  0.000000  1
  Cu  Cu9  1  0.259898  0.500000  0.000000  1
  Pd  Pd10  1  0.747811  0.500000  0.000000  1
  Pd  Pd11  1  0.998371  0.254140  0.500000  1
  Pd  Pd12  1  0.493146  0.258601  0.000000  1
  Pd  Pd13  1  0.998371  0.745860  0.500000  1
  Pd  Pd14  1  0.493146  0.741399  0.000000  1
  Pd  Pd15  1  0.500027  0.000000  0.254149  1
  Pd  Pd16  1  0.253119  0.000000  0.500000  1
  Pd  Pd17  1  0.500027  0.000000  0.745851  1
  Pd  Pd18  1  0.745873  0.000000  0.500000  1
  Pd  Pd19  1  0.003944  0.500000  0.253325  1
  Pd  Pd20  1  0.003944  0.500000  0.746675  1
  Pd  Pd21  1  0.251267  0.500000  0.500000  1
  Pd  Pd22  1  0.748727  0.500000  0.500000  1
  Pd  Pd23  1  0.501276  0.252048  0.500000  1
  Pd  Pd24  1  0.501276  0.747952  0.500000  1
  Pd  Pd25  1  0.495619  0.500000  0.248416  1
  Pd  Pd26  1  0.495619  0.500000  0.751584  1
  Pd  Pd27  1  0.266737  0.000000  0.000000  1
  Pd  Pd28  1  0.727329  0.000000  0.000000  1
  Pd  Pd29  1  0.009909  0.271919  0.000000  1
  Pd  Pd30  1  0.009909  0.728081  0.000000  1
  Pd  Pd31  1  0.998695  0.000000  0.266721  1
  Pd  Pd32  1  0.998695  0.000000  0.733279  1
