# generated using pymatgen
data_Dy12CdInSi4
_symmetry_space_group_name_H-M   'P 1'
_cell_length_a   8.52392700
_cell_length_b   8.52392708
_cell_length_c   8.52392654
_cell_angle_alpha   112.06450224
_cell_angle_beta   111.15887466
_cell_angle_gamma   105.27158244
_symmetry_Int_Tables_number   1
_chemical_formula_structural   Dy12CdInSi4
_chemical_formula_sum   'Dy12 Cd1 In1 Si4'
_cell_volume   474.82241958
_cell_formula_units_Z   1
loop_
 _symmetry_equiv_pos_site_id
 _symmetry_equiv_pos_as_xyz
  1  'x, y, z'
loop_
 _atom_site_type_symbol
 _atom_site_label
 _atom_site_symmetry_multiplicity
 _atom_site_fract_x
 _atom_site_fract_y
 _atom_site_fract_z
 _atom_site_occupancy
  Dy  Dy0  1  0.442824  0.239290  0.203534  1
  Dy  Dy1  1  0.557176  0.760710  0.796466  1
  Dy  Dy2  1  0.035755  0.239290  0.796466  1
  Dy  Dy3  1  0.964245  0.760710  0.203534  1
  Dy  Dy4  1  0.184560  0.276212  0.460772  1
  Dy  Dy5  1  0.815440  0.723788  0.539228  1
  Dy  Dy6  1  0.184560  0.723788  0.908349  1
  Dy  Dy7  1  0.815440  0.276212  0.091651  1
  Dy  Dy8  1  0.319909  0.615853  0.295944  1
  Dy  Dy9  1  0.680091  0.384147  0.704056  1
  Dy  Dy10  1  0.319909  0.023966  0.704056  1
  Dy  Dy11  1  0.680091  0.976034  0.295944  1
  Cd  Cd12  1  0.000000  0.000000  0.000000  1
  In  In13  1  0.500000  0.500000  0.000000  1
  Si  Si14  1  0.364483  0.000000  0.364483  1
  Si  Si15  1  0.635517  0.000000  0.635517  1
  Si  Si16  1  0.116054  0.616054  0.500000  1
  Si  Si17  1  0.883946  0.383946  0.500000  1
