# generated using pymatgen
data_DyYAl20Ru3Rh
_symmetry_space_group_name_H-M   'P 1'
_cell_length_a   6.84514034
_cell_length_b   6.85308735
_cell_length_c   9.14573109
_cell_angle_alpha   90.13856222
_cell_angle_beta   90.14443420
_cell_angle_gamma   96.78263862
_symmetry_Int_Tables_number   1
_chemical_formula_structural   DyYAl20Ru3Rh
_chemical_formula_sum   'Dy1 Y1 Al20 Ru3 Rh1'
_cell_volume   426.02381975
_cell_formula_units_Z   1
loop_
 _symmetry_equiv_pos_site_id
 _symmetry_equiv_pos_as_xyz
  1  'x, y, z'
loop_
 _atom_site_type_symbol
 _atom_site_label
 _atom_site_symmetry_multiplicity
 _atom_site_fract_x
 _atom_site_fract_y
 _atom_site_fract_z
 _atom_site_occupancy
  Dy  Dy0  1  0.871452  0.126770  0.750582  1
  Y  Y1  1  0.128682  0.873108  0.249432  1
  Al  Al2  1  0.620849  0.376096  0.550898  1
  Al  Al3  1  0.379199  0.623865  0.449196  1
  Al  Al4  1  0.377330  0.623261  0.049553  1
  Al  Al5  1  0.622712  0.376699  0.950363  1
  Al  Al6  1  0.227190  0.225588  0.499311  1
  Al  Al7  1  0.772728  0.774490  0.500785  1
  Al  Al8  1  0.773961  0.774518  0.999802  1
  Al  Al9  1  0.225963  0.225569  0.000110  1
  Al  Al10  1  0.844122  0.156444  0.099763  1
  Al  Al11  1  0.155800  0.843630  0.900147  1
  Al  Al12  1  0.157441  0.844748  0.601306  1
  Al  Al13  1  0.842488  0.155322  0.398784  1
  Al  Al14  1  0.858125  0.587285  0.750820  1
  Al  Al15  1  0.141786  0.412658  0.249169  1
  Al  Al16  1  0.412682  0.140970  0.750400  1
  Al  Al17  1  0.587394  0.859119  0.249594  1
  Al  Al18  1  0.222610  0.480622  0.752424  1
  Al  Al19  1  0.777299  0.519294  0.247568  1
  Al  Al20  1  0.519169  0.779168  0.749791  1
  Al  Al21  1  0.480923  0.220926  0.250204  1
  Ru  Ru22  1  0.999965  0.499895  0.999993  1
  Ru  Ru23  1  0.500119  0.000046  0.999979  1
  Ru  Ru24  1  0.500089  0.000034  0.499997  1
  Rh  Rh25  1  0.999923  0.499877  0.500029  1
