# generated using pymatgen
data_Pr3Nd13In4Os3Pt
_symmetry_space_group_name_H-M   'P 1'
_cell_length_a   10.01528600
_cell_length_b   10.06415227
_cell_length_c   10.06662922
_cell_angle_alpha   59.79315432
_cell_angle_beta   59.69387781
_cell_angle_gamma   59.69124435
_symmetry_Int_Tables_number   1
_chemical_formula_structural   Pr3Nd13In4Os3Pt
_chemical_formula_sum   'Pr3 Nd13 In4 Os3 Pt1'
_cell_volume   713.01495182
_cell_formula_units_Z   1
loop_
 _symmetry_equiv_pos_site_id
 _symmetry_equiv_pos_as_xyz
  1  'x, y, z'
loop_
 _atom_site_type_symbol
 _atom_site_label
 _atom_site_symmetry_multiplicity
 _atom_site_fract_x
 _atom_site_fract_y
 _atom_site_fract_z
 _atom_site_occupancy
  Pr  Pr0  1  0.939805  0.559500  0.942005  1
  Pr  Pr1  1  0.556807  0.564958  0.938814  1
  Pr  Pr2  1  0.939382  0.941877  0.559667  1
  Nd  Nd3  1  0.343667  0.349381  0.349674  1
  Nd  Nd4  1  0.343954  0.349413  0.956953  1
  Nd  Nd5  1  0.344139  0.956780  0.349556  1
  Nd  Nd6  1  0.963082  0.345302  0.345312  1
  Nd  Nd7  1  0.812995  0.191532  0.192218  1
  Nd  Nd8  1  0.190341  0.809314  0.809225  1
  Nd  Nd9  1  0.191110  0.808655  0.191389  1
  Nd  Nd10  1  0.813822  0.191239  0.803312  1
  Nd  Nd11  1  0.191500  0.191104  0.808507  1
  Nd  Nd12  1  0.813573  0.803341  0.191605  1
  Nd  Nd13  1  0.939578  0.559480  0.559092  1
  Nd  Nd14  1  0.555667  0.941033  0.940548  1
  Nd  Nd15  1  0.556435  0.939433  0.564284  1
  In  In16  1  0.580168  0.579562  0.579113  1
  In  In17  1  0.579316  0.579870  0.260747  1
  In  In18  1  0.579316  0.260286  0.579921  1
  In  In19  1  0.260009  0.579539  0.579578  1
  Os  Os20  1  0.142840  0.137846  0.137529  1
  Os  Os21  1  0.142617  0.138464  0.581397  1
  Os  Os22  1  0.142140  0.581437  0.138571  1
  Pt  Pt23  1  0.577735  0.140654  0.140985  1
