# generated using pymatgen
data_KRb2Ti2Cl9
_symmetry_space_group_name_H-M   'P 1'
_cell_length_a   7.15477400
_cell_length_b   7.19448072
_cell_length_c   17.84833500
_cell_angle_alpha   90.00000000
_cell_angle_beta   90.00000000
_cell_angle_gamma   119.79906775
_symmetry_Int_Tables_number   1
_chemical_formula_structural   KRb2Ti2Cl9
_chemical_formula_sum   'K2 Rb4 Ti4 Cl18'
_cell_volume   797.25910053
_cell_formula_units_Z   2
loop_
 _symmetry_equiv_pos_site_id
 _symmetry_equiv_pos_as_xyz
  1  'x, y, z'
loop_
 _atom_site_type_symbol
 _atom_site_label
 _atom_site_symmetry_multiplicity
 _atom_site_fract_x
 _atom_site_fract_y
 _atom_site_fract_z
 _atom_site_occupancy
  K  K0  1  0.999366  0.998440  0.250000  1
  K  K1  1  0.000634  0.001560  0.750000  1
  Rb  Rb2  1  0.666586  0.333211  0.566955  1
  Rb  Rb3  1  0.333414  0.666789  0.066955  1
  Rb  Rb4  1  0.333414  0.666789  0.433045  1
  Rb  Rb5  1  0.666586  0.333211  0.933045  1
  Ti  Ti6  1  0.333581  0.667385  0.670728  1
  Ti  Ti7  1  0.666419  0.332615  0.329272  1
  Ti  Ti8  1  0.333581  0.667385  0.829272  1
  Ti  Ti9  1  0.666419  0.332615  0.170728  1
  Cl  Cl10  1  0.824963  0.649996  0.402905  1
  Cl  Cl11  1  0.173404  0.825600  0.597395  1
  Cl  Cl12  1  0.651966  0.825537  0.597351  1
  Cl  Cl13  1  0.826596  0.174400  0.402605  1
  Cl  Cl14  1  0.348034  0.174463  0.402649  1
  Cl  Cl15  1  0.175037  0.350004  0.902905  1
  Cl  Cl16  1  0.007161  0.503139  0.750000  1
  Cl  Cl17  1  0.651966  0.825537  0.902649  1
  Cl  Cl18  1  0.824963  0.649996  0.097095  1
  Cl  Cl19  1  0.175037  0.350004  0.597095  1
  Cl  Cl20  1  0.496392  0.992728  0.750000  1
  Cl  Cl21  1  0.503977  0.496635  0.250000  1
  Cl  Cl22  1  0.496023  0.503365  0.750000  1
  Cl  Cl23  1  0.173404  0.825600  0.902605  1
  Cl  Cl24  1  0.348034  0.174463  0.097351  1
  Cl  Cl25  1  0.992839  0.496861  0.250000  1
  Cl  Cl26  1  0.503608  0.007272  0.250000  1
  Cl  Cl27  1  0.826596  0.174400  0.097395  1
