# generated using pymatgen
data_Y4Ga4Pd2RuRh
_symmetry_space_group_name_H-M   'P 1'
_cell_length_a   4.37766100
_cell_length_b   6.95794860
_cell_length_c   7.75010222
_cell_angle_alpha   89.75788454
_cell_angle_beta   90.00000000
_cell_angle_gamma   90.00000000
_symmetry_Int_Tables_number   1
_chemical_formula_structural   Y4Ga4Pd2RuRh
_chemical_formula_sum   'Y4 Ga4 Pd2 Ru1 Rh1'
_cell_volume   236.06244273
_cell_formula_units_Z   1
loop_
 _symmetry_equiv_pos_site_id
 _symmetry_equiv_pos_as_xyz
  1  'x, y, z'
loop_
 _atom_site_type_symbol
 _atom_site_label
 _atom_site_symmetry_multiplicity
 _atom_site_fract_x
 _atom_site_fract_y
 _atom_site_fract_z
 _atom_site_occupancy
  Y  Y0  1  0.250000  0.983163  0.300605  1
  Y  Y1  1  0.250000  0.486298  0.196689  1
  Y  Y2  1  0.750000  0.025169  0.688200  1
  Y  Y3  1  0.750000  0.524994  0.813463  1
  Ga  Ga4  1  0.250000  0.332468  0.571588  1
  Ga  Ga5  1  0.250000  0.830098  0.929717  1
  Ga  Ga6  1  0.750000  0.663007  0.422821  1
  Ga  Ga7  1  0.750000  0.162799  0.076015  1
  Pd  Pd8  1  0.250000  0.220199  0.897378  1
  Pd  Pd9  1  0.250000  0.719929  0.602343  1
  Ru  Ru10  1  0.750000  0.775375  0.102332  1
  Rh  Rh11  1  0.750000  0.276495  0.398849  1
