# generated using pymatgen
data_ErTm7Nb12Si15Ge
_symmetry_space_group_name_H-M   'P 1'
_cell_length_a   6.84759098
_cell_length_b   7.04730136
_cell_length_c   13.39159305
_cell_angle_alpha   90.05816203
_cell_angle_beta   89.92188744
_cell_angle_gamma   90.03698043
_symmetry_Int_Tables_number   1
_chemical_formula_structural   ErTm7Nb12Si15Ge
_chemical_formula_sum   'Er1 Tm7 Nb12 Si15 Ge1'
_cell_volume   646.23753736
_cell_formula_units_Z   1
loop_
 _symmetry_equiv_pos_site_id
 _symmetry_equiv_pos_as_xyz
  1  'x, y, z'
loop_
 _atom_site_type_symbol
 _atom_site_label
 _atom_site_symmetry_multiplicity
 _atom_site_fract_x
 _atom_site_fract_y
 _atom_site_fract_z
 _atom_site_occupancy
  Er  Er0  1  0.004039  0.172379  0.095459  1
  Tm  Tm1  1  0.503757  0.328219  0.095646  1
  Tm  Tm2  1  0.002879  0.171537  0.403810  1
  Tm  Tm3  1  0.499518  0.674157  0.596486  1
  Tm  Tm4  1  0.996018  0.827740  0.904800  1
  Tm  Tm5  1  0.495905  0.671701  0.904617  1
  Tm  Tm6  1  0.995887  0.828793  0.595992  1
  Tm  Tm7  1  0.504419  0.326632  0.403358  1
  Nb  Nb8  1  0.663139  0.007121  0.750191  1
  Nb  Nb9  1  0.163065  0.491619  0.751918  1
  Nb  Nb10  1  0.336620  0.992803  0.249786  1
  Nb  Nb11  1  0.836713  0.507791  0.249883  1
  Nb  Nb12  1  0.834969  0.324341  0.625405  1
  Nb  Nb13  1  0.336387  0.175170  0.875252  1
  Nb  Nb14  1  0.163552  0.675305  0.124783  1
  Nb  Nb15  1  0.663290  0.825223  0.374585  1
  Nb  Nb16  1  0.161708  0.677903  0.373271  1
  Nb  Nb17  1  0.662612  0.824387  0.124782  1
  Nb  Nb18  1  0.836207  0.324488  0.875210  1
  Nb  Nb19  1  0.338893  0.171424  0.626265  1
  Si  Si20  1  0.795197  0.627564  0.750333  1
  Si  Si21  1  0.294033  0.871034  0.750688  1
  Si  Si22  1  0.205302  0.372627  0.249705  1
  Si  Si23  1  0.705265  0.127824  0.249579  1
  Si  Si24  1  0.540792  0.377608  0.750368  1
  Si  Si25  1  0.040668  0.122230  0.750155  1
  Si  Si26  1  0.458825  0.622534  0.249914  1
  Si  Si27  1  0.958227  0.878331  0.248939  1
  Si  Si28  1  0.664185  0.036382  0.539911  1
  Si  Si29  1  0.163150  0.464257  0.959662  1
  Si  Si30  1  0.336497  0.964291  0.040320  1
  Si  Si31  1  0.832596  0.536638  0.458998  1
  Si  Si32  1  0.336155  0.963733  0.459696  1
  Si  Si33  1  0.836664  0.535977  0.040545  1
  Si  Si34  1  0.663113  0.035633  0.959638  1
  Ge  Ge35  1  0.169753  0.464608  0.540056  1
