# generated using pymatgen
data_Hf3Al3GaPdPt
_symmetry_space_group_name_H-M   'P 1'
_cell_length_a   6.65852700
_cell_length_b   6.65852765
_cell_length_c   8.27673800
_cell_angle_alpha   90.00000000
_cell_angle_beta   90.00000000
_cell_angle_gamma   120.00000172
_symmetry_Int_Tables_number   1
_chemical_formula_structural   Hf3Al3GaPdPt
_chemical_formula_sum   'Hf6 Al6 Ga2 Pd2 Pt2'
_cell_volume   317.79437428
_cell_formula_units_Z   2
loop_
 _symmetry_equiv_pos_site_id
 _symmetry_equiv_pos_as_xyz
  1  'x, y, z'
loop_
 _atom_site_type_symbol
 _atom_site_label
 _atom_site_symmetry_multiplicity
 _atom_site_fract_x
 _atom_site_fract_y
 _atom_site_fract_z
 _atom_site_occupancy
  Hf  Hf0  1  0.573162  0.992605  0.750000  1
  Hf  Hf1  1  0.007395  0.580557  0.750000  1
  Hf  Hf2  1  0.419443  0.426838  0.750000  1
  Hf  Hf3  1  0.007673  0.580859  0.250000  1
  Hf  Hf4  1  0.573185  0.992327  0.250000  1
  Hf  Hf5  1  0.419141  0.426815  0.250000  1
  Al  Al6  1  0.751032  0.758934  0.999950  1
  Al  Al7  1  0.241066  0.992100  0.999950  1
  Al  Al8  1  0.007900  0.248968  0.999950  1
  Al  Al9  1  0.751032  0.758934  0.500050  1
  Al  Al10  1  0.241066  0.992100  0.500050  1
  Al  Al11  1  0.007900  0.248968  0.500050  1
  Ga  Ga12  1  0.666667  0.333333  0.000297  1
  Ga  Ga13  1  0.666667  0.333333  0.499703  1
  Pd  Pd14  1  0.000000  0.000000  0.750000  1
  Pd  Pd15  1  0.000000  0.000000  0.250000  1
  Pt  Pt16  1  0.333333  0.666667  0.500052  1
  Pt  Pt17  1  0.333333  0.666667  0.999949  1
