# generated using pymatgen
data_K8Y6BBr20
_symmetry_space_group_name_H-M   'P 1'
_cell_length_a   12.02378690
_cell_length_b   12.02396959
_cell_length_c   12.02296700
_cell_angle_alpha   60.00194426
_cell_angle_beta   60.00150226
_cell_angle_gamma   59.99474611
_symmetry_Int_Tables_number   1
_chemical_formula_structural   K8Y6BBr20
_chemical_formula_sum   'K8 Y6 B1 Br20'
_cell_volume   1229.07917580
_cell_formula_units_Z   1
loop_
 _symmetry_equiv_pos_site_id
 _symmetry_equiv_pos_as_xyz
  1  'x, y, z'
loop_
 _atom_site_type_symbol
 _atom_site_label
 _atom_site_symmetry_multiplicity
 _atom_site_fract_x
 _atom_site_fract_y
 _atom_site_fract_z
 _atom_site_occupancy
  K  K0  1  0.077299  0.640895  0.640908  1
  K  K1  1  0.640890  0.077293  0.640911  1
  K  K2  1  0.640912  0.640909  0.077295  1
  K  K3  1  0.640907  0.640911  0.640889  1
  K  K4  1  0.359110  0.922707  0.359089  1
  K  K5  1  0.922701  0.359105  0.359092  1
  K  K6  1  0.359088  0.359091  0.922705  1
  K  K7  1  0.359093  0.359089  0.359111  1
  Y  Y8  1  0.845463  0.845465  0.154529  1
  Y  Y9  1  0.845469  0.154534  0.845468  1
  Y  Y10  1  0.154537  0.154535  0.845471  1
  Y  Y11  1  0.154531  0.845466  0.154532  1
  Y  Y12  1  0.154528  0.845462  0.845471  1
  Y  Y13  1  0.845472  0.154538  0.154529  1
  B  B14  1  0.000000  0.000000  0.000000  1
  Br  Br15  1  0.662443  0.337557  0.000001  1
  Br  Br16  1  0.000018  0.662445  0.999982  1
  Br  Br17  1  0.000001  0.000000  0.662441  1
  Br  Br18  1  0.662450  0.000019  0.337550  1
  Br  Br19  1  0.337557  0.662443  0.999999  1
  Br  Br20  1  0.337550  0.999981  0.662450  1
  Br  Br21  1  0.999999  0.000000  0.337559  1
  Br  Br22  1  0.999982  0.337555  0.000018  1
  Br  Br23  1  0.000018  0.662447  0.337554  1
  Br  Br24  1  0.662443  0.000020  0.999981  1
  Br  Br25  1  0.999982  0.337553  0.662446  1
  Br  Br26  1  0.337557  0.999980  0.000019  1
  Br  Br27  1  0.675635  0.675634  0.324366  1
  Br  Br28  1  0.675623  0.324376  0.675625  1
  Br  Br29  1  0.324365  0.324366  0.675634  1
  Br  Br30  1  0.324377  0.675624  0.324375  1
  Br  Br31  1  0.324378  0.675620  0.675622  1
  Br  Br32  1  0.675622  0.324380  0.324378  1
  Br  Br33  1  0.750001  0.750001  0.750000  1
  Br  Br34  1  0.249999  0.249999  0.250000  1
