# generated using pymatgen
data_SmHo3(Al8Pd3)3
_symmetry_space_group_name_H-M   'P 1'
_cell_length_a   7.54428042
_cell_length_b   7.57368439
_cell_length_c   13.18939200
_cell_angle_alpha   84.58486037
_cell_angle_beta   79.12827502
_cell_angle_gamma   60.01890274
_symmetry_Int_Tables_number   1
_chemical_formula_structural   SmHo3(Al8Pd3)3
_chemical_formula_sum   'Sm1 Ho3 Al24 Pd9'
_cell_volume   641.05835673
_cell_formula_units_Z   1
loop_
 _symmetry_equiv_pos_site_id
 _symmetry_equiv_pos_as_xyz
  1  'x, y, z'
loop_
 _atom_site_type_symbol
 _atom_site_label
 _atom_site_symmetry_multiplicity
 _atom_site_fract_x
 _atom_site_fract_y
 _atom_site_fract_z
 _atom_site_occupancy
  Sm  Sm0  1  0.393235  0.168689  0.809061  1
  Ho  Ho1  1  0.606723  0.831065  0.191735  1
  Ho  Ho2  1  0.733408  0.498170  0.808584  1
  Ho  Ho3  1  0.266362  0.502023  0.191635  1
  Al  Al4  1  0.685313  0.832519  0.945713  1
  Al  Al5  1  0.315353  0.166274  0.056485  1
  Al  Al6  1  0.146092  0.833117  0.561253  1
  Al  Al7  1  0.854235  0.166845  0.438098  1
  Al  Al8  1  0.479187  0.166766  0.558636  1
  Al  Al9  1  0.521008  0.833071  0.440505  1
  Al  Al10  1  0.217030  0.165233  0.329779  1
  Al  Al11  1  0.784212  0.833949  0.669041  1
  Al  Al12  1  0.437303  0.507587  0.669178  1
  Al  Al13  1  0.563108  0.493298  0.329617  1
  Al  Al14  1  0.108649  0.159647  0.668088  1
  Al  Al15  1  0.890908  0.840308  0.330668  1
  Al  Al16  1  0.352263  0.500868  0.945843  1
  Al  Al17  1  0.647085  0.500563  0.055462  1
  Al  Al18  1  0.014034  0.167458  0.955489  1
  Al  Al19  1  0.984430  0.832497  0.046175  1
  Al  Al20  1  0.187055  0.499406  0.440485  1
  Al  Al21  1  0.812996  0.500684  0.559018  1
  Al  Al22  1  0.733493  0.164065  0.183907  1
  Al  Al23  1  0.266689  0.834018  0.816131  1
  Al  Al24  1  0.059667  0.632258  0.815050  1
  Al  Al25  1  0.938258  0.369450  0.185045  1
  Al  Al26  1  0.856960  0.041970  0.816062  1
  Al  Al27  1  0.144596  0.958049  0.184118  1
  Pd  Pd28  1  0.119290  0.492998  0.637819  1
  Pd  Pd29  1  0.880482  0.507643  0.361499  1
  Pd  Pd30  1  0.657102  0.171357  0.000182  1
  Pd  Pd31  1  0.342842  0.828583  0.000499  1
  Pd  Pd32  1  0.537963  0.166738  0.361521  1
  Pd  Pd33  1  0.462086  0.832815  0.637882  1
  Pd  Pd34  1  0.778539  0.174939  0.637176  1
  Pd  Pd35  1  0.222198  0.824920  0.362209  1
  Pd  Pd36  1  0.999840  0.500157  0.000354  1
