# generated using pymatgen
data_Sm13Th(Pa3Rh8)2
_symmetry_space_group_name_H-M   'P 1'
_cell_length_a   7.57183592
_cell_length_b   7.60936038
_cell_length_c   14.50296944
_cell_angle_alpha   89.74018950
_cell_angle_beta   90.17169695
_cell_angle_gamma   90.42713473
_symmetry_Int_Tables_number   1
_chemical_formula_structural   Sm13Th(Pa3Rh8)2
_chemical_formula_sum   'Sm13 Th1 Pa6 Rh16'
_cell_volume   835.57962139
_cell_formula_units_Z   1
loop_
 _symmetry_equiv_pos_site_id
 _symmetry_equiv_pos_as_xyz
  1  'x, y, z'
loop_
 _atom_site_type_symbol
 _atom_site_label
 _atom_site_symmetry_multiplicity
 _atom_site_fract_x
 _atom_site_fract_y
 _atom_site_fract_z
 _atom_site_occupancy
  Sm  Sm0  1  0.164230  0.339567  0.620714  1
  Sm  Sm1  1  0.510138  0.678980  0.593258  1
  Sm  Sm2  1  0.007896  0.823385  0.907947  1
  Sm  Sm3  1  0.493337  0.322641  0.092652  1
  Sm  Sm4  1  0.990669  0.179994  0.406684  1
  Sm  Sm5  1  0.487859  0.322598  0.406464  1
  Sm  Sm6  1  0.992384  0.178564  0.092905  1
  Sm  Sm7  1  0.509561  0.678708  0.907070  1
  Sm  Sm8  1  0.012633  0.816679  0.589355  1
  Sm  Sm9  1  0.820294  0.521148  0.750160  1
  Sm  Sm10  1  0.310803  0.979141  0.750686  1
  Sm  Sm11  1  0.187208  0.478399  0.248238  1
  Sm  Sm12  1  0.687377  0.022788  0.248957  1
  Th  Th13  1  0.665518  0.154568  0.621659  1
  Pa  Pa14  1  0.159553  0.346157  0.880920  1
  Pa  Pa15  1  0.340901  0.844955  0.119416  1
  Pa  Pa16  1  0.837979  0.655455  0.375787  1
  Pa  Pa17  1  0.338694  0.843828  0.375873  1
  Pa  Pa18  1  0.841594  0.656711  0.119895  1
  Pa  Pa19  1  0.657168  0.156569  0.880915  1
  Rh  Rh20  1  0.685959  0.939985  0.456255  1
  Rh  Rh21  1  0.181230  0.549843  0.039152  1
  Rh  Rh22  1  0.320004  0.049068  0.964762  1
  Rh  Rh23  1  0.807415  0.464250  0.529828  1
  Rh  Rh24  1  0.321730  0.024816  0.529255  1
  Rh  Rh25  1  0.820291  0.455682  0.966304  1
  Rh  Rh26  1  0.680133  0.952645  0.037128  1
  Rh  Rh27  1  0.171744  0.561327  0.451765  1
  Rh  Rh28  1  0.462142  0.354533  0.764197  1
  Rh  Rh29  1  0.955065  0.144363  0.767764  1
  Rh  Rh30  1  0.539927  0.652571  0.247290  1
  Rh  Rh31  1  0.038994  0.851078  0.244151  1
  Rh  Rh32  1  0.689306  0.882990  0.754482  1
  Rh  Rh33  1  0.198250  0.614478  0.760502  1
  Rh  Rh34  1  0.307328  0.107590  0.248498  1
  Rh  Rh35  1  0.804690  0.393945  0.249113  1
