# generated using pymatgen
data_Pa3CdPd12
_symmetry_space_group_name_H-M   'P 1'
_cell_length_a   5.79613900
_cell_length_b   5.79613908
_cell_length_c   9.65158500
_cell_angle_alpha   90.00000000
_cell_angle_beta   90.00000000
_cell_angle_gamma   119.99999383
_symmetry_Int_Tables_number   1
_chemical_formula_structural   Pa3CdPd12
_chemical_formula_sum   'Pa3 Cd1 Pd12'
_cell_volume   280.80632671
_cell_formula_units_Z   1
loop_
 _symmetry_equiv_pos_site_id
 _symmetry_equiv_pos_as_xyz
  1  'x, y, z'
loop_
 _atom_site_type_symbol
 _atom_site_label
 _atom_site_symmetry_multiplicity
 _atom_site_fract_x
 _atom_site_fract_y
 _atom_site_fract_z
 _atom_site_occupancy
  Pa  Pa0  1  0.000000  0.000000  0.487934  1
  Pa  Pa1  1  0.000000  0.000000  0.012066  1
  Pa  Pa2  1  0.666667  0.333333  0.750000  1
  Cd  Cd3  1  0.333333  0.666667  0.250000  1
  Pd  Pd4  1  0.501125  0.498875  0.500701  1
  Pd  Pd5  1  0.501125  0.002249  0.500701  1
  Pd  Pd6  1  0.997751  0.498875  0.500701  1
  Pd  Pd7  1  0.501125  0.498875  0.999299  1
  Pd  Pd8  1  0.501125  0.002249  0.999299  1
  Pd  Pd9  1  0.997751  0.498875  0.999299  1
  Pd  Pd10  1  0.828574  0.657149  0.250000  1
  Pd  Pd11  1  0.342851  0.171426  0.250000  1
  Pd  Pd12  1  0.828574  0.171426  0.250000  1
  Pd  Pd13  1  0.168258  0.336513  0.750000  1
  Pd  Pd14  1  0.663487  0.831742  0.750000  1
  Pd  Pd15  1  0.168258  0.831742  0.750000  1
