# generated using pymatgen
data_Li2PrDySi2Sn
_symmetry_space_group_name_H-M   'P 1'
_cell_length_a   9.67288621
_cell_length_b   9.67288720
_cell_length_c   6.87433900
_cell_angle_alpha   90.00000000
_cell_angle_beta   90.00000000
_cell_angle_gamma   153.25652031
_symmetry_Int_Tables_number   1
_chemical_formula_structural   Li2PrDySi2Sn
_chemical_formula_sum   'Li4 Pr2 Dy2 Si4 Sn2'
_cell_volume   289.43602711
_cell_formula_units_Z   2
loop_
 _symmetry_equiv_pos_site_id
 _symmetry_equiv_pos_as_xyz
  1  'x, y, z'
loop_
 _atom_site_type_symbol
 _atom_site_label
 _atom_site_symmetry_multiplicity
 _atom_site_fract_x
 _atom_site_fract_y
 _atom_site_fract_z
 _atom_site_occupancy
  Li  Li0  1  0.184618  0.815382  0.054748  1
  Li  Li1  1  0.184618  0.815382  0.445252  1
  Li  Li2  1  0.815382  0.184618  0.945252  1
  Li  Li3  1  0.815382  0.184618  0.554748  1
  Pr  Pr4  1  0.549567  0.450433  0.250000  1
  Pr  Pr5  1  0.450433  0.549567  0.750000  1
  Dy  Dy6  1  0.351508  0.648492  0.250000  1
  Dy  Dy7  1  0.648492  0.351508  0.750000  1
  Si  Si8  1  0.058037  0.941963  0.924609  1
  Si  Si9  1  0.941963  0.058037  0.075391  1
  Si  Si10  1  0.941963  0.058037  0.424609  1
  Si  Si11  1  0.058037  0.941963  0.575391  1
  Sn  Sn12  1  0.721630  0.278370  0.250000  1
  Sn  Sn13  1  0.278370  0.721630  0.750000  1
