# generated using pymatgen
data_DyBi5(PtO6)3
_symmetry_space_group_name_H-M   'P 1'
_cell_length_a   9.25637600
_cell_length_b   9.26155008
_cell_length_c   5.16457057
_cell_angle_alpha   90.14550039
_cell_angle_beta   90.00000000
_cell_angle_gamma   119.98151419
_symmetry_Int_Tables_number   1
_chemical_formula_structural   DyBi5(PtO6)3
_chemical_formula_sum   'Dy1 Bi5 Pt3 O18'
_cell_volume   383.50277990
_cell_formula_units_Z   1
loop_
 _symmetry_equiv_pos_site_id
 _symmetry_equiv_pos_as_xyz
  1  'x, y, z'
loop_
 _atom_site_type_symbol
 _atom_site_label
 _atom_site_symmetry_multiplicity
 _atom_site_fract_x
 _atom_site_fract_y
 _atom_site_fract_z
 _atom_site_occupancy
  Dy  Dy0  1  0.625851  0.000000  0.000000  1
  Bi  Bi1  1  0.998927  0.626872  0.999174  1
  Bi  Bi2  1  0.997525  0.292534  0.500332  1
  Bi  Bi3  1  0.372054  0.373128  0.000826  1
  Bi  Bi4  1  0.296889  0.000000  0.500000  1
  Bi  Bi5  1  0.704991  0.707466  0.499668  1
  Pt  Pt6  1  0.334475  0.667965  0.498073  1
  Pt  Pt7  1  0.999442  0.000000  0.000000  1
  Pt  Pt8  1  0.666511  0.332035  0.501927  1
  O  O9  1  0.087476  0.882030  0.781845  1
  O  O10  1  0.226980  0.769128  0.282111  1
  O  O11  1  0.129768  0.538523  0.713062  1
  O  O12  1  0.415584  0.874051  0.715644  1
  O  O13  1  0.231380  0.458021  0.284654  1
  O  O14  1  0.116014  0.203287  0.777099  1
  O  O15  1  0.205448  0.117970  0.218155  1
  O  O16  1  0.544309  0.778742  0.282293  1
  O  O17  1  0.462668  0.592785  0.714410  1
  O  O18  1  0.790247  0.908955  0.786685  1
  O  O19  1  0.457852  0.230872  0.717889  1
  O  O20  1  0.591246  0.461477  0.286938  1
  O  O21  1  0.541533  0.125949  0.284356  1
  O  O22  1  0.773359  0.541979  0.715346  1
  O  O23  1  0.912728  0.796713  0.222901  1
  O  O24  1  0.765567  0.221258  0.717707  1
  O  O25  1  0.869883  0.407215  0.285590  1
  O  O26  1  0.881293  0.091045  0.213315  1
