# generated using pymatgen
data_Nd3Y5CdHgIr2
_symmetry_space_group_name_H-M   'P 1'
_cell_length_a   9.75902347
_cell_length_b   9.75902449
_cell_length_c   9.76220900
_cell_angle_alpha   59.98920839
_cell_angle_beta   59.98920496
_cell_angle_gamma   60.07000809
_symmetry_Int_Tables_number   1
_chemical_formula_structural   Nd3Y5CdHgIr2
_chemical_formula_sum   'Nd6 Y10 Cd2 Hg2 Ir4'
_cell_volume   657.66416778
_cell_formula_units_Z   2
loop_
 _symmetry_equiv_pos_site_id
 _symmetry_equiv_pos_as_xyz
  1  'x, y, z'
loop_
 _atom_site_type_symbol
 _atom_site_label
 _atom_site_symmetry_multiplicity
 _atom_site_fract_x
 _atom_site_fract_y
 _atom_site_fract_z
 _atom_site_occupancy
  Nd  Nd0  1  0.940441  0.558528  0.559878  1
  Nd  Nd1  1  0.558528  0.940441  0.941154  1
  Nd  Nd2  1  0.558528  0.940441  0.559878  1
  Nd  Nd3  1  0.940441  0.558528  0.941154  1
  Nd  Nd4  1  0.559405  0.559405  0.940595  1
  Nd  Nd5  1  0.940369  0.940369  0.559631  1
  Y  Y6  1  0.348664  0.348664  0.347374  1
  Y  Y7  1  0.348664  0.348664  0.955297  1
  Y  Y8  1  0.349662  0.952349  0.348994  1
  Y  Y9  1  0.952349  0.349662  0.348994  1
  Y  Y10  1  0.810798  0.187332  0.189993  1
  Y  Y11  1  0.187332  0.810798  0.811878  1
  Y  Y12  1  0.187332  0.810798  0.189993  1
  Y  Y13  1  0.810798  0.187332  0.811878  1
  Y  Y14  1  0.187974  0.187974  0.812026  1
  Y  Y15  1  0.810417  0.810417  0.189583  1
  Cd  Cd16  1  0.579064  0.262457  0.579239  1
  Cd  Cd17  1  0.262457  0.579064  0.579239  1
  Hg  Hg18  1  0.582613  0.582613  0.584096  1
  Hg  Hg19  1  0.582613  0.582613  0.250678  1
  Ir  Ir20  1  0.141892  0.141892  0.140601  1
  Ir  Ir21  1  0.141892  0.141892  0.575614  1
  Ir  Ir22  1  0.141962  0.575805  0.141116  1
  Ir  Ir23  1  0.575805  0.141962  0.141116  1
