# generated using pymatgen
data_Tb5Ho(MnB7)2
_symmetry_space_group_name_H-M   'P 1'
_cell_length_a   8.09857161
_cell_length_b   8.09857146
_cell_length_c   9.31874900
_cell_angle_alpha   90.00000000
_cell_angle_beta   90.00000000
_cell_angle_gamma   155.41634205
_symmetry_Int_Tables_number   1
_chemical_formula_structural   Tb5Ho(MnB7)2
_chemical_formula_sum   'Tb5 Ho1 Mn2 B14'
_cell_volume   254.26710198
_cell_formula_units_Z   1
loop_
 _symmetry_equiv_pos_site_id
 _symmetry_equiv_pos_as_xyz
  1  'x, y, z'
loop_
 _atom_site_type_symbol
 _atom_site_label
 _atom_site_symmetry_multiplicity
 _atom_site_fract_x
 _atom_site_fract_y
 _atom_site_fract_z
 _atom_site_occupancy
  Tb  Tb0  1  0.896076  0.103924  0.439350  1
  Tb  Tb1  1  0.104066  0.895934  0.561517  1
  Tb  Tb2  1  0.896076  0.103924  0.060650  1
  Tb  Tb3  1  0.104066  0.895934  0.938483  1
  Tb  Tb4  1  0.240113  0.759887  0.250000  1
  Ho  Ho5  1  0.760958  0.239042  0.750000  1
  Mn  Mn6  1  0.053396  0.946604  0.250000  1
  Mn  Mn7  1  0.946424  0.053576  0.750000  1
  B  B8  1  0.727508  0.272492  0.469347  1
  B  B9  1  0.272358  0.727642  0.533475  1
  B  B10  1  0.727508  0.272492  0.030653  1
  B  B11  1  0.272358  0.727642  0.966525  1
  B  B12  1  0.629805  0.370195  0.153027  1
  B  B13  1  0.370033  0.629967  0.846620  1
  B  B14  1  0.629805  0.370195  0.346973  1
  B  B15  1  0.370033  0.629967  0.653380  1
  B  B16  1  0.522234  0.477766  0.098560  1
  B  B17  1  0.477643  0.522357  0.901490  1
  B  B18  1  0.522234  0.477766  0.401440  1
  B  B19  1  0.477643  0.522357  0.598510  1
  B  B20  1  0.461376  0.538624  0.250000  1
  B  B21  1  0.538290  0.461710  0.750000  1
