# generated using pymatgen
data_Ba4La7LuSe16
_symmetry_space_group_name_H-M   'P 1'
_cell_length_a   4.39632700
_cell_length_b   13.07002015
_cell_length_c   15.72188404
_cell_angle_alpha   89.57725535
_cell_angle_beta   90.00000000
_cell_angle_gamma   90.00000000
_symmetry_Int_Tables_number   1
_chemical_formula_structural   Ba4La7LuSe16
_chemical_formula_sum   'Ba4 La7 Lu1 Se16'
_cell_volume   903.35616414
_cell_formula_units_Z   1
loop_
 _symmetry_equiv_pos_site_id
 _symmetry_equiv_pos_as_xyz
  1  'x, y, z'
loop_
 _atom_site_type_symbol
 _atom_site_label
 _atom_site_symmetry_multiplicity
 _atom_site_fract_x
 _atom_site_fract_y
 _atom_site_fract_z
 _atom_site_occupancy
  Ba  Ba0  1  0.250000  0.757124  0.340343  1
  Ba  Ba1  1  0.250000  0.256390  0.165454  1
  Ba  Ba2  1  0.750000  0.239199  0.655762  1
  Ba  Ba3  1  0.750000  0.743667  0.837822  1
  La  La4  1  0.250000  0.423605  0.393017  1
  La  La5  1  0.250000  0.932830  0.113895  1
  La  La6  1  0.750000  0.570408  0.610080  1
  La  La7  1  0.750000  0.071219  0.890447  1
  La  La8  1  0.250000  0.417565  0.898574  1
  La  La9  1  0.250000  0.924080  0.597078  1
  La  La10  1  0.750000  0.580681  0.102585  1
  Lu  Lu11  1  0.750000  0.079084  0.395858  1
  Se  Se12  1  0.250000  0.206828  0.819033  1
  Se  Se13  1  0.250000  0.709955  0.674840  1
  Se  Se14  1  0.750000  0.793320  0.180223  1
  Se  Se15  1  0.750000  0.282273  0.328666  1
  Se  Se16  1  0.250000  0.131894  0.512509  1
  Se  Se17  1  0.250000  0.630480  0.974851  1
  Se  Se18  1  0.750000  0.878773  0.468265  1
  Se  Se19  1  0.750000  0.368144  0.026487  1
  Se  Se20  1  0.250000  0.518693  0.218376  1
  Se  Se21  1  0.250000  0.027431  0.290536  1
  Se  Se22  1  0.750000  0.478441  0.783887  1
  Se  Se23  1  0.750000  0.979273  0.714590  1
  Se  Se24  1  0.250000  0.415474  0.582016  1
  Se  Se25  1  0.250000  0.917188  0.923078  1
  Se  Se26  1  0.750000  0.581050  0.420570  1
  Se  Se27  1  0.750000  0.084932  0.081156  1
