# generated using pymatgen
data_Y20Ir8Rh3Au
_symmetry_space_group_name_H-M   'P 1'
_cell_length_a   10.98049522
_cell_length_b   10.98626040
_cell_length_c   6.38863940
_cell_angle_alpha   89.96843422
_cell_angle_beta   89.97590810
_cell_angle_gamma   89.52591183
_symmetry_Int_Tables_number   1
_chemical_formula_structural   Y20Ir8Rh3Au
_chemical_formula_sum   'Y20 Ir8 Rh3 Au1'
_cell_volume   770.66426318
_cell_formula_units_Z   1
loop_
 _symmetry_equiv_pos_site_id
 _symmetry_equiv_pos_as_xyz
  1  'x, y, z'
loop_
 _atom_site_type_symbol
 _atom_site_label
 _atom_site_symmetry_multiplicity
 _atom_site_fract_x
 _atom_site_fract_y
 _atom_site_fract_z
 _atom_site_occupancy
  Y  Y0  1  0.289171  0.088151  0.378875  1
  Y  Y1  1  0.291961  0.910055  0.877747  1
  Y  Y2  1  0.704802  0.085177  0.866270  1
  Y  Y3  1  0.706178  0.904391  0.381934  1
  Y  Y4  1  0.589044  0.789746  0.881113  1
  Y  Y5  1  0.579542  0.211149  0.380233  1
  Y  Y6  1  0.410580  0.790009  0.380373  1
  Y  Y7  1  0.408981  0.209152  0.880094  1
  Y  Y8  1  0.209120  0.411502  0.617534  1
  Y  Y9  1  0.209452  0.589988  0.121375  1
  Y  Y10  1  0.789425  0.419696  0.121498  1
  Y  Y11  1  0.791938  0.590521  0.618504  1
  Y  Y12  1  0.911193  0.710203  0.122391  1
  Y  Y13  1  0.915250  0.296306  0.631237  1
  Y  Y14  1  0.089599  0.707134  0.620189  1
  Y  Y15  1  0.095711  0.294207  0.119527  1
  Y  Y16  1  0.003088  0.995983  0.502047  1
  Y  Y17  1  0.004286  0.996727  0.998633  1
  Y  Y18  1  0.498973  0.499152  0.998839  1
  Y  Y19  1  0.500743  0.501087  0.501705  1
  Ir  Ir20  1  0.845916  0.848136  0.749544  1
  Ir  Ir21  1  0.152440  0.153679  0.750336  1
  Ir  Ir22  1  0.156579  0.845572  0.250049  1
  Ir  Ir23  1  0.655635  0.343748  0.749931  1
  Ir  Ir24  1  0.653463  0.653141  0.248299  1
  Ir  Ir25  1  0.348154  0.345237  0.251492  1
  Ir  Ir26  1  0.346004  0.654309  0.750001  1
  Ir  Ir27  1  0.000118  0.499554  0.371394  1
  Rh  Rh28  1  0.500516  0.999925  0.128315  1
  Rh  Rh29  1  0.499855  0.000565  0.624229  1
  Rh  Rh30  1  0.999522  0.500204  0.876353  1
  Au  Au31  1  0.842761  0.155597  0.249936  1
