# generated using pymatgen
data_Tb11DyCo4SnOs
_symmetry_space_group_name_H-M   'P 1'
_cell_length_a   8.32810019
_cell_length_b   8.32809970
_cell_length_c   8.32942237
_cell_angle_alpha   106.47705484
_cell_angle_beta   110.35241449
_cell_angle_gamma   111.62159667
_symmetry_Int_Tables_number   1
_chemical_formula_structural   Tb11DyCo4SnOs
_chemical_formula_sum   'Tb11 Dy1 Co4 Sn1 Os1'
_cell_volume   443.79036069
_cell_formula_units_Z   1
loop_
 _symmetry_equiv_pos_site_id
 _symmetry_equiv_pos_as_xyz
  1  'x, y, z'
loop_
 _atom_site_type_symbol
 _atom_site_label
 _atom_site_symmetry_multiplicity
 _atom_site_fract_x
 _atom_site_fract_y
 _atom_site_fract_z
 _atom_site_occupancy
  Tb  Tb0  1  0.467959  0.285435  0.182423  1
  Tb  Tb1  1  0.102648  0.285070  0.817875  1
  Tb  Tb2  1  0.896988  0.714465  0.182423  1
  Tb  Tb3  1  0.532803  0.715227  0.817875  1
  Tb  Tb4  1  0.306089  0.619925  0.313180  1
  Tb  Tb5  1  0.306656  0.992642  0.686354  1
  Tb  Tb6  1  0.693712  0.379698  0.686354  1
  Tb  Tb7  1  0.693255  0.007090  0.313180  1
  Tb  Tb8  1  0.193422  0.215253  0.408676  1
  Tb  Tb9  1  0.806218  0.784458  0.590676  1
  Tb  Tb10  1  0.193564  0.784737  0.978301  1
  Dy  Dy11  1  0.806261  0.215649  0.021911  1
  Co  Co12  1  0.499980  0.611200  0.111180  1
  Co  Co13  1  0.500793  0.388960  0.889753  1
  Co  Co14  1  0.379359  0.999792  0.379151  1
  Co  Co15  1  0.621307  0.000208  0.621514  1
  Sn  Sn16  1  0.999641  0.499812  0.499452  1
  Os  Os17  1  0.999345  0.000378  0.999723  1
