# generated using pymatgen
data_Y4Zr3PbF28
_symmetry_space_group_name_H-M   'P 1'
_cell_length_a   5.74754419
_cell_length_b   9.11369826
_cell_length_c   12.26616500
_cell_angle_alpha   62.33143061
_cell_angle_beta   90.01459424
_cell_angle_gamma   89.99864184
_symmetry_Int_Tables_number   1
_chemical_formula_structural   Y4Zr3PbF28
_chemical_formula_sum   'Y4 Zr3 Pb1 F28'
_cell_volume   569.04568400
_cell_formula_units_Z   1
loop_
 _symmetry_equiv_pos_site_id
 _symmetry_equiv_pos_as_xyz
  1  'x, y, z'
loop_
 _atom_site_type_symbol
 _atom_site_label
 _atom_site_symmetry_multiplicity
 _atom_site_fract_x
 _atom_site_fract_y
 _atom_site_fract_z
 _atom_site_occupancy
  Y  Y0  1  0.256711  0.816574  0.266647  1
  Y  Y1  1  0.742975  0.186934  0.731841  1
  Y  Y2  1  0.756475  0.184836  0.232912  1
  Y  Y3  1  0.242714  0.816482  0.764346  1
  Zr  Zr4  1  0.243468  0.274660  0.953897  1
  Zr  Zr5  1  0.256129  0.275154  0.453610  1
  Zr  Zr6  1  0.743064  0.727270  0.544105  1
  Pb  Pb7  1  0.756013  0.729256  0.042819  1
  F  F8  1  0.964407  0.711742  0.420925  1
  F  F9  1  0.035457  0.288315  0.578729  1
  F  F10  1  0.464528  0.288658  0.078154  1
  F  F11  1  0.535965  0.702152  0.917271  1
  F  F12  1  0.475113  0.726114  0.152925  1
  F  F13  1  0.513130  0.268326  0.847916  1
  F  F14  1  0.985206  0.265922  0.350305  1
  F  F15  1  0.014462  0.734217  0.648842  1
  F  F16  1  0.964738  0.741401  0.179895  1
  F  F17  1  0.033657  0.256002  0.824762  1
  F  F18  1  0.465403  0.253686  0.326128  1
  F  F19  1  0.534314  0.747078  0.672708  1
  F  F20  1  0.772651  0.471904  0.144669  1
  F  F21  1  0.228973  0.525737  0.855780  1
  F  F22  1  0.270623  0.525920  0.361970  1
  F  F23  1  0.728962  0.475405  0.639721  1
  F  F24  1  0.950866  0.278637  0.048339  1
  F  F25  1  0.061145  0.716800  0.952125  1
  F  F26  1  0.447779  0.722786  0.451858  1
  F  F27  1  0.550157  0.278140  0.548126  1
  F  F28  1  0.740390  0.978018  0.441917  1
  F  F29  1  0.258508  0.023796  0.557762  1
  F  F30  1  0.240999  0.023633  0.057834  1
  F  F31  1  0.761374  0.987383  0.945682  1
  F  F32  1  0.573347  0.971940  0.235595  1
  F  F33  1  0.431125  0.025275  0.766319  1
  F  F34  1  0.072893  0.028154  0.265845  1
  F  F35  1  0.926278  0.971693  0.737723  1
