# generated using pymatgen
data_Sr4As2Se
_symmetry_space_group_name_H-M   'P 1'
_cell_length_a   8.23490950
_cell_length_b   8.23490887
_cell_length_c   8.23490924
_cell_angle_alpha   109.36980656
_cell_angle_beta   109.36980048
_cell_angle_gamma   109.67425548
_symmetry_Int_Tables_number   1
_chemical_formula_structural   Sr4As2Se
_chemical_formula_sum   'Sr8 As4 Se2'
_cell_volume   429.88313821
_cell_formula_units_Z   2
loop_
 _symmetry_equiv_pos_site_id
 _symmetry_equiv_pos_as_xyz
  1  'x, y, z'
loop_
 _atom_site_type_symbol
 _atom_site_label
 _atom_site_symmetry_multiplicity
 _atom_site_fract_x
 _atom_site_fract_y
 _atom_site_fract_z
 _atom_site_occupancy
  Sr  Sr0  1  0.630722  0.882507  0.885179  1
  Sr  Sr1  1  0.254456  0.369278  0.251785  1
  Sr  Sr2  1  0.117493  0.002672  0.748215  1
  Sr  Sr3  1  0.495544  0.247328  0.614821  1
  Sr  Sr4  1  0.119278  0.504456  0.751785  1
  Sr  Sr5  1  0.752672  0.367493  0.248215  1
  Sr  Sr6  1  0.997328  0.745544  0.114821  1
  Sr  Sr7  1  0.632507  0.880722  0.385179  1
  As  As8  1  0.375000  0.994335  0.119335  1
  As  As9  1  0.005665  0.125000  0.380665  1
  As  As10  1  0.875000  0.255665  0.880665  1
  As  As11  1  0.744335  0.625000  0.619335  1
  Se  Se12  1  0.500000  0.500000  0.000000  1
  Se  Se13  1  0.250000  0.750000  0.500000  1
