# generated using pymatgen
data_Th2ScNi9
_symmetry_space_group_name_H-M   'P 1'
_cell_length_a   8.65491045
_cell_length_b   8.65491067
_cell_length_c   8.65491123
_cell_angle_alpha   33.33526018
_cell_angle_beta   33.33526029
_cell_angle_gamma   33.33525843
_symmetry_Int_Tables_number   1
_chemical_formula_structural   Th2ScNi9
_chemical_formula_sum   'Th2 Sc1 Ni9'
_cell_volume   174.32777779
_cell_formula_units_Z   1
loop_
 _symmetry_equiv_pos_site_id
 _symmetry_equiv_pos_as_xyz
  1  'x, y, z'
loop_
 _atom_site_type_symbol
 _atom_site_label
 _atom_site_symmetry_multiplicity
 _atom_site_fract_x
 _atom_site_fract_y
 _atom_site_fract_z
 _atom_site_occupancy
  Th  Th0  1  0.859214  0.859214  0.859214  1
  Th  Th1  1  0.002444  0.002444  0.002444  1
  Sc  Sc2  1  0.137069  0.137069  0.137069  1
  Ni  Ni3  1  0.414989  0.919658  0.414989  1
  Ni  Ni4  1  0.414989  0.414989  0.919658  1
  Ni  Ni5  1  0.919658  0.414989  0.414989  1
  Ni  Ni6  1  0.584771  0.082620  0.584771  1
  Ni  Ni7  1  0.584771  0.584771  0.082620  1
  Ni  Ni8  1  0.082620  0.584771  0.584771  1
  Ni  Ni9  1  0.666725  0.666725  0.666725  1
  Ni  Ni10  1  0.333580  0.333580  0.333580  1
  Ni  Ni11  1  0.499169  0.499169  0.499169  1
