# generated using pymatgen
data_Hf2Be16Cu
_symmetry_space_group_name_H-M   'P 1'
_cell_length_a   5.68580362
_cell_length_b   5.68580356
_cell_length_c   5.68580388
_cell_angle_alpha   82.90292505
_cell_angle_beta   82.90291727
_cell_angle_gamma   82.90293370
_symmetry_Int_Tables_number   1
_chemical_formula_structural   Hf2Be16Cu
_chemical_formula_sum   'Hf2 Be16 Cu1'
_cell_volume   179.90914822
_cell_formula_units_Z   1
loop_
 _symmetry_equiv_pos_site_id
 _symmetry_equiv_pos_as_xyz
  1  'x, y, z'
loop_
 _atom_site_type_symbol
 _atom_site_label
 _atom_site_symmetry_multiplicity
 _atom_site_fract_x
 _atom_site_fract_y
 _atom_site_fract_z
 _atom_site_occupancy
  Hf  Hf0  1  0.840966  0.840966  0.840966  1
  Hf  Hf1  1  0.161489  0.161489  0.161489  1
  Be  Be2  1  0.397102  0.397102  0.397102  1
  Be  Be3  1  0.498441  0.498441  0.002934  1
  Be  Be4  1  0.002934  0.498441  0.498441  1
  Be  Be5  1  0.498441  0.002934  0.498441  1
  Be  Be6  1  0.211038  0.500605  0.789858  1
  Be  Be7  1  0.789858  0.211038  0.500605  1
  Be  Be8  1  0.500605  0.789858  0.211038  1
  Be  Be9  1  0.789858  0.500605  0.211038  1
  Be  Be10  1  0.211038  0.789858  0.500605  1
  Be  Be11  1  0.500605  0.211038  0.789858  1
  Be  Be12  1  0.844370  0.339096  0.844370  1
  Be  Be13  1  0.844370  0.844370  0.339096  1
  Be  Be14  1  0.339096  0.844370  0.844370  1
  Be  Be15  1  0.157300  0.659030  0.157300  1
  Be  Be16  1  0.157300  0.157300  0.659030  1
  Be  Be17  1  0.659030  0.157300  0.157300  1
  Cu  Cu18  1  0.596159  0.596159  0.596159  1
