# generated using pymatgen
data_LiDy12Y7(Cd3Ir)2
_symmetry_space_group_name_H-M   'P 1'
_cell_length_a   9.59201500
_cell_length_b   9.59201468
_cell_length_c   9.73779400
_cell_angle_alpha   90.00000000
_cell_angle_beta   90.00000000
_cell_angle_gamma   120.00000457
_symmetry_Int_Tables_number   1
_chemical_formula_structural   LiDy12Y7(Cd3Ir)2
_chemical_formula_sum   'Li1 Dy12 Y7 Cd6 Ir2'
_cell_volume   775.90915905
_cell_formula_units_Z   1
loop_
 _symmetry_equiv_pos_site_id
 _symmetry_equiv_pos_as_xyz
  1  'x, y, z'
loop_
 _atom_site_type_symbol
 _atom_site_label
 _atom_site_symmetry_multiplicity
 _atom_site_fract_x
 _atom_site_fract_y
 _atom_site_fract_z
 _atom_site_occupancy
  Li  Li0  1  0.000000  0.000000  0.500000  1
  Dy  Dy1  1  0.207785  0.792215  0.440456  1
  Dy  Dy2  1  0.207785  0.415570  0.440456  1
  Dy  Dy3  1  0.584430  0.792215  0.440456  1
  Dy  Dy4  1  0.792215  0.207785  0.559544  1
  Dy  Dy5  1  0.792215  0.584430  0.559544  1
  Dy  Dy6  1  0.415570  0.207785  0.559544  1
  Dy  Dy7  1  0.789959  0.210041  0.942277  1
  Dy  Dy8  1  0.789959  0.579916  0.942277  1
  Dy  Dy9  1  0.420084  0.210041  0.942277  1
  Dy  Dy10  1  0.210041  0.789959  0.057723  1
  Dy  Dy11  1  0.210041  0.420084  0.057723  1
  Dy  Dy12  1  0.579916  0.789959  0.057723  1
  Y  Y13  1  0.000000  0.000000  0.000000  1
  Y  Y14  1  0.541554  0.458446  0.252334  1
  Y  Y15  1  0.541554  0.083107  0.252334  1
  Y  Y16  1  0.916893  0.458446  0.252334  1
  Y  Y17  1  0.458446  0.541554  0.747666  1
  Y  Y18  1  0.458446  0.916893  0.747666  1
  Y  Y19  1  0.083107  0.541554  0.747666  1
  Cd  Cd20  1  0.888659  0.111341  0.258970  1
  Cd  Cd21  1  0.888659  0.777321  0.258970  1
  Cd  Cd22  1  0.222679  0.111341  0.258970  1
  Cd  Cd23  1  0.111341  0.888659  0.741030  1
  Cd  Cd24  1  0.111341  0.222679  0.741030  1
  Cd  Cd25  1  0.777321  0.888659  0.741030  1
  Ir  Ir26  1  0.333333  0.666667  0.250989  1
  Ir  Ir27  1  0.666667  0.333333  0.749011  1
