# generated using pymatgen
data_Nd6MgCd22Si
_symmetry_space_group_name_H-M   'P 1'
_cell_length_a   10.07524105
_cell_length_b   10.07524073
_cell_length_c   10.07524200
_cell_angle_alpha   60.00000240
_cell_angle_beta   60.00000344
_cell_angle_gamma   60.00000504
_symmetry_Int_Tables_number   1
_chemical_formula_structural   Nd6MgCd22Si
_chemical_formula_sum   'Nd6 Mg1 Cd22 Si1'
_cell_volume   723.18831657
_cell_formula_units_Z   1
loop_
 _symmetry_equiv_pos_site_id
 _symmetry_equiv_pos_as_xyz
  1  'x, y, z'
loop_
 _atom_site_type_symbol
 _atom_site_label
 _atom_site_symmetry_multiplicity
 _atom_site_fract_x
 _atom_site_fract_y
 _atom_site_fract_z
 _atom_site_occupancy
  Nd  Nd0  1  0.794386  0.794386  0.205614  1
  Nd  Nd1  1  0.205614  0.794386  0.205614  1
  Nd  Nd2  1  0.794386  0.205614  0.205614  1
  Nd  Nd3  1  0.205614  0.205614  0.794386  1
  Nd  Nd4  1  0.794386  0.205614  0.794386  1
  Nd  Nd5  1  0.205614  0.794386  0.794386  1
  Mg  Mg6  1  0.500000  0.500000  0.500000  1
  Cd  Cd7  1  0.832950  0.832950  0.501151  1
  Cd  Cd8  1  0.832950  0.501151  0.832950  1
  Cd  Cd9  1  0.501151  0.832950  0.832950  1
  Cd  Cd10  1  0.832950  0.832950  0.832950  1
  Cd  Cd11  1  0.167050  0.167050  0.498849  1
  Cd  Cd12  1  0.167050  0.498849  0.167050  1
  Cd  Cd13  1  0.498849  0.167050  0.167050  1
  Cd  Cd14  1  0.167050  0.167050  0.167050  1
  Cd  Cd15  1  0.620391  0.620391  0.138825  1
  Cd  Cd16  1  0.620391  0.138825  0.620391  1
  Cd  Cd17  1  0.138825  0.620391  0.620391  1
  Cd  Cd18  1  0.620391  0.620391  0.620391  1
  Cd  Cd19  1  0.379609  0.379609  0.861175  1
  Cd  Cd20  1  0.379609  0.861175  0.379609  1
  Cd  Cd21  1  0.861175  0.379609  0.379609  1
  Cd  Cd22  1  0.379609  0.379609  0.379609  1
  Cd  Cd23  1  0.000000  0.000000  0.500000  1
  Cd  Cd24  1  0.500000  0.000000  0.500000  1
  Cd  Cd25  1  0.000000  0.500000  0.500000  1
  Cd  Cd26  1  0.500000  0.500000  0.000000  1
  Cd  Cd27  1  0.000000  0.500000  0.000000  1
  Cd  Cd28  1  0.500000  0.000000  0.000000  1
  Si  Si29  1  0.000000  0.000000  0.000000  1
