# generated using pymatgen
data_Pr4Sm3Au10
_symmetry_space_group_name_H-M   'P 1'
_cell_length_a   8.98975359
_cell_length_b   8.98977439
_cell_length_c   10.69964700
_cell_angle_alpha   90.00039575
_cell_angle_beta   89.99954187
_cell_angle_gamma   107.23554193
_symmetry_Int_Tables_number   1
_chemical_formula_structural   Pr4Sm3Au10
_chemical_formula_sum   'Pr8 Sm6 Au20'
_cell_volume   825.87151109
_cell_formula_units_Z   2
loop_
 _symmetry_equiv_pos_site_id
 _symmetry_equiv_pos_as_xyz
  1  'x, y, z'
loop_
 _atom_site_type_symbol
 _atom_site_label
 _atom_site_symmetry_multiplicity
 _atom_site_fract_x
 _atom_site_fract_y
 _atom_site_fract_z
 _atom_site_occupancy
  Pr  Pr0  1  0.693151  0.306850  0.000000  1
  Pr  Pr1  1  0.193149  0.806850  0.500001  1
  Pr  Pr2  1  0.813352  0.813349  0.308875  1
  Pr  Pr3  1  0.313348  0.313348  0.191124  1
  Pr  Pr4  1  0.806851  0.193150  0.499999  1
  Pr  Pr5  1  0.306849  0.693150  0.000000  1
  Pr  Pr6  1  0.686652  0.686652  0.808876  1
  Pr  Pr7  1  0.186648  0.186651  0.691125  1
  Sm  Sm8  1  0.505204  0.005200  0.250001  1
  Sm  Sm9  1  0.994798  0.494798  0.750001  1
  Sm  Sm10  1  0.000000  0.000000  0.000000  1
  Sm  Sm11  1  0.005202  0.505202  0.249999  1
  Sm  Sm12  1  0.494796  0.994800  0.749999  1
  Sm  Sm13  1  0.500000  0.500000  0.500000  1
  Au  Au14  1  0.145230  0.439456  0.495889  1
  Au  Au15  1  0.895201  0.895203  0.597744  1
  Au  Au16  1  0.560547  0.854770  0.504115  1
  Au  Au17  1  0.865290  0.154337  0.209349  1
  Au  Au18  1  0.365287  0.654337  0.290654  1
  Au  Au19  1  0.654336  0.365287  0.290650  1
  Au  Au20  1  0.395204  0.395203  0.902254  1
  Au  Au21  1  0.939453  0.645230  0.004114  1
  Au  Au22  1  0.345664  0.634713  0.709350  1
  Au  Au23  1  0.354770  0.060545  0.995888  1
  Au  Au24  1  0.604796  0.604797  0.097746  1
  Au  Au25  1  0.645230  0.939455  0.004112  1
  Au  Au26  1  0.104799  0.104797  0.402256  1
  Au  Au27  1  0.634713  0.345663  0.709346  1
  Au  Au28  1  0.134710  0.845663  0.790651  1
  Au  Au29  1  0.060547  0.354770  0.995886  1
  Au  Au30  1  0.854770  0.560544  0.504111  1
  Au  Au31  1  0.154339  0.865291  0.209349  1
  Au  Au32  1  0.439453  0.145230  0.495885  1
  Au  Au33  1  0.845661  0.134709  0.790651  1
