# generated using pymatgen
data_Nd5As12Ru9Rh10
_symmetry_space_group_name_H-M   'P 1'
_cell_length_a   13.16424800
_cell_length_b   13.16424820
_cell_length_c   4.06705800
_cell_angle_alpha   90.00000000
_cell_angle_beta   90.00000000
_cell_angle_gamma   119.99999447
_symmetry_Int_Tables_number   1
_chemical_formula_structural   Nd5As12Ru9Rh10
_chemical_formula_sum   'Nd5 As12 Ru9 Rh10'
_cell_volume   610.38399745
_cell_formula_units_Z   1
loop_
 _symmetry_equiv_pos_site_id
 _symmetry_equiv_pos_as_xyz
  1  'x, y, z'
loop_
 _atom_site_type_symbol
 _atom_site_label
 _atom_site_symmetry_multiplicity
 _atom_site_fract_x
 _atom_site_fract_y
 _atom_site_fract_z
 _atom_site_occupancy
  Nd  Nd0  1  0.812952  0.000000  0.500000  1
  Nd  Nd1  1  0.000000  0.812952  0.500000  1
  Nd  Nd2  1  0.187048  0.187048  0.500000  1
  Nd  Nd3  1  0.333333  0.666667  0.000000  1
  Nd  Nd4  1  0.666667  0.333333  0.000000  1
  As  As5  1  0.182552  0.000000  0.000000  1
  As  As6  1  0.000000  0.182552  0.000000  1
  As  As7  1  0.817448  0.817448  0.000000  1
  As  As8  1  0.517420  0.687278  0.500000  1
  As  As9  1  0.312722  0.830142  0.500000  1
  As  As10  1  0.169858  0.482580  0.500000  1
  As  As11  1  0.482580  0.169858  0.500000  1
  As  As12  1  0.687278  0.517420  0.500000  1
  As  As13  1  0.830142  0.312722  0.500000  1
  As  As14  1  0.628966  0.000000  0.000000  1
  As  As15  1  0.000000  0.628966  0.000000  1
  As  As16  1  0.371034  0.371034  0.000000  1
  Ru  Ru17  1  0.286009  0.000000  0.500000  1
  Ru  Ru18  1  0.000000  0.286009  0.500000  1
  Ru  Ru19  1  0.713991  0.713991  0.500000  1
  Ru  Ru20  1  0.515330  0.876168  0.500000  1
  Ru  Ru21  1  0.123832  0.639162  0.500000  1
  Ru  Ru22  1  0.360838  0.484670  0.500000  1
  Ru  Ru23  1  0.484670  0.360838  0.500000  1
  Ru  Ru24  1  0.876168  0.515330  0.500000  1
  Ru  Ru25  1  0.639162  0.123832  0.500000  1
  Rh  Rh26  1  0.445820  0.000000  0.000000  1
  Rh  Rh27  1  0.000000  0.445820  0.000000  1
  Rh  Rh28  1  0.554180  0.554180  0.000000  1
  Rh  Rh29  1  0.623852  0.805618  0.000000  1
  Rh  Rh30  1  0.194382  0.818234  0.000000  1
  Rh  Rh31  1  0.181766  0.376148  0.000000  1
  Rh  Rh32  1  0.376148  0.181766  0.000000  1
  Rh  Rh33  1  0.805618  0.623852  0.000000  1
  Rh  Rh34  1  0.818234  0.194382  0.000000  1
  Rh  Rh35  1  0.000000  0.000000  0.000000  1
