# generated using pymatgen
data_Tb12CuNi4Bi
_symmetry_space_group_name_H-M   'P 1'
_cell_length_a   8.45363632
_cell_length_b   8.45363737
_cell_length_c   8.45363638
_cell_angle_alpha   112.75275350
_cell_angle_beta   109.05810698
_cell_angle_gamma   106.66156264
_symmetry_Int_Tables_number   1
_chemical_formula_structural   Tb12CuNi4Bi
_chemical_formula_sum   'Tb12 Cu1 Ni4 Bi1'
_cell_volume   463.71745004
_cell_formula_units_Z   1
loop_
 _symmetry_equiv_pos_site_id
 _symmetry_equiv_pos_as_xyz
  1  'x, y, z'
loop_
 _atom_site_type_symbol
 _atom_site_label
 _atom_site_symmetry_multiplicity
 _atom_site_fract_x
 _atom_site_fract_y
 _atom_site_fract_z
 _atom_site_occupancy
  Tb  Tb0  1  0.822826  0.705393  0.528218  1
  Tb  Tb1  1  0.177174  0.294607  0.471782  1
  Tb  Tb2  1  0.177174  0.705393  0.882568  1
  Tb  Tb3  1  0.822826  0.294607  0.117432  1
  Tb  Tb4  1  0.677670  0.367619  0.689948  1
  Tb  Tb5  1  0.322330  0.632381  0.310052  1
  Tb  Tb6  1  0.677670  0.987722  0.310052  1
  Tb  Tb7  1  0.322330  0.012278  0.689948  1
  Tb  Tb8  1  0.589911  0.786672  0.803240  1
  Tb  Tb9  1  0.410089  0.213328  0.196760  1
  Tb  Tb10  1  0.983432  0.786672  0.196760  1
  Tb  Tb11  1  0.016568  0.213328  0.803240  1
  Cu  Cu12  1  0.000000  0.000000  0.000000  1
  Ni  Ni13  1  0.640138  0.000000  0.640138  1
  Ni  Ni14  1  0.359862  0.000000  0.359862  1
  Ni  Ni15  1  0.125116  0.625116  0.500000  1
  Ni  Ni16  1  0.874884  0.374884  0.500000  1
  Bi  Bi17  1  0.500000  0.500000  0.000000  1
