# generated using pymatgen
data_Lu(CrC)4
_symmetry_space_group_name_H-M   'P 1'
_cell_length_a   5.73198194
_cell_length_b   5.73198199
_cell_length_c   5.73198140
_cell_angle_alpha   94.31652804
_cell_angle_beta   94.31650924
_cell_angle_gamma   148.15378898
_symmetry_Int_Tables_number   1
_chemical_formula_structural   Lu(CrC)4
_chemical_formula_sum   'Lu1 Cr4 C4'
_cell_volume   95.55675518
_cell_formula_units_Z   1
loop_
 _symmetry_equiv_pos_site_id
 _symmetry_equiv_pos_as_xyz
  1  'x, y, z'
loop_
 _atom_site_type_symbol
 _atom_site_label
 _atom_site_symmetry_multiplicity
 _atom_site_fract_x
 _atom_site_fract_y
 _atom_site_fract_z
 _atom_site_occupancy
  Lu  Lu0  1  0.000000  0.000000  0.000000  1
  Cr  Cr1  1  0.818653  0.365834  0.184488  1
  Cr  Cr2  1  0.634165  0.818653  0.452818  1
  Cr  Cr3  1  0.365835  0.181347  0.547182  1
  Cr  Cr4  1  0.181347  0.634166  0.815513  1
  C  C5  1  0.402710  0.740778  0.143489  1
  C  C6  1  0.740778  0.597289  0.338068  1
  C  C7  1  0.259222  0.402711  0.661933  1
  C  C8  1  0.597290  0.259222  0.856512  1
