# generated using pymatgen
data_Th6PI15
_symmetry_space_group_name_H-M   'P 1'
_cell_length_a   10.69235714
_cell_length_b   10.69235638
_cell_length_c   10.69235700
_cell_angle_alpha   109.47122181
_cell_angle_beta   109.47122038
_cell_angle_gamma   109.47121428
_symmetry_Int_Tables_number   1
_chemical_formula_structural   Th6PI15
_chemical_formula_sum   'Th6 P1 I15'
_cell_volume   941.01917035
_cell_formula_units_Z   1
loop_
 _symmetry_equiv_pos_site_id
 _symmetry_equiv_pos_as_xyz
  1  'x, y, z'
loop_
 _atom_site_type_symbol
 _atom_site_label
 _atom_site_symmetry_multiplicity
 _atom_site_fract_x
 _atom_site_fract_y
 _atom_site_fract_z
 _atom_site_occupancy
  Th  Th0  1  0.000000  0.228181  0.228181  1
  Th  Th1  1  0.000000  0.771819  0.771819  1
  Th  Th2  1  0.228181  0.000000  0.228181  1
  Th  Th3  1  0.771819  0.000000  0.771819  1
  Th  Th4  1  0.228181  0.228181  0.000000  1
  Th  Th5  1  0.771819  0.771819  0.000000  1
  P  P6  1  0.000000  0.000000  0.000000  1
  I  I7  1  0.503813  0.251908  0.251908  1
  I  I8  1  0.496187  0.748092  0.748092  1
  I  I9  1  0.000000  0.251908  0.748092  1
  I  I10  1  0.000000  0.748092  0.251908  1
  I  I11  1  0.251908  0.503813  0.251908  1
  I  I12  1  0.748092  0.000000  0.251908  1
  I  I13  1  0.748092  0.496187  0.748092  1
  I  I14  1  0.251908  0.000000  0.748092  1
  I  I15  1  0.251908  0.251908  0.503813  1
  I  I16  1  0.748092  0.748092  0.496187  1
  I  I17  1  0.748092  0.251908  0.000000  1
  I  I18  1  0.251908  0.748092  0.000000  1
  I  I19  1  0.000000  0.500000  0.500000  1
  I  I20  1  0.500000  0.000000  0.500000  1
  I  I21  1  0.500000  0.500000  0.000000  1
