# generated using pymatgen
data_AlTc6As13
_symmetry_space_group_name_H-M   'P 1'
_cell_length_a   7.61318537
_cell_length_b   7.61318514
_cell_length_c   7.61318579
_cell_angle_alpha   110.11282955
_cell_angle_beta   108.19548224
_cell_angle_gamma   110.11283264
_symmetry_Int_Tables_number   1
_chemical_formula_structural   AlTc6As13
_chemical_formula_sum   'Al1 Tc6 As13'
_cell_volume   339.55979357
_cell_formula_units_Z   1
loop_
 _symmetry_equiv_pos_site_id
 _symmetry_equiv_pos_as_xyz
  1  'x, y, z'
loop_
 _atom_site_type_symbol
 _atom_site_label
 _atom_site_symmetry_multiplicity
 _atom_site_fract_x
 _atom_site_fract_y
 _atom_site_fract_z
 _atom_site_occupancy
  Al  Al0  1  0.750000  0.500000  0.250000  1
  Tc  Tc1  1  0.342345  0.000000  0.342345  1
  Tc  Tc2  1  0.006300  0.336976  0.343276  1
  Tc  Tc3  1  0.006301  0.663025  0.669325  1
  Tc  Tc4  1  0.330675  0.336975  0.993699  1
  Tc  Tc5  1  0.656724  0.663024  0.993700  1
  Tc  Tc6  1  0.657655  0.000000  0.657655  1
  As  As7  1  0.501926  0.746528  0.248454  1
  As  As8  1  0.501926  0.253472  0.755398  1
  As  As9  1  0.751546  0.253472  0.498074  1
  As  As10  1  0.244602  0.746528  0.498074  1
  As  As11  1  0.250000  0.500000  0.750000  1
  As  As12  1  0.997689  0.993871  0.328073  1
  As  As13  1  0.671927  0.006129  0.002311  1
  As  As14  1  0.997688  0.669615  0.003817  1
  As  As15  1  0.334202  0.330385  0.328073  1
  As  As16  1  0.996183  0.330385  0.002312  1
  As  As17  1  0.671927  0.669615  0.665798  1
  As  As18  1  0.334202  0.006128  0.003817  1
  As  As19  1  0.996183  0.993872  0.665798  1
