# generated using pymatgen
data_Er3PaCo3
_symmetry_space_group_name_H-M   'P 1'
_cell_length_a   5.82791852
_cell_length_b   5.82791923
_cell_length_c   14.04091500
_cell_angle_alpha   90.00000000
_cell_angle_beta   90.00000000
_cell_angle_gamma   143.12935515
_symmetry_Int_Tables_number   1
_chemical_formula_structural   Er3PaCo3
_chemical_formula_sum   'Er6 Pa2 Co6'
_cell_volume   286.14173605
_cell_formula_units_Z   2
loop_
 _symmetry_equiv_pos_site_id
 _symmetry_equiv_pos_as_xyz
  1  'x, y, z'
loop_
 _atom_site_type_symbol
 _atom_site_label
 _atom_site_symmetry_multiplicity
 _atom_site_fract_x
 _atom_site_fract_y
 _atom_site_fract_z
 _atom_site_occupancy
  Er  Er0  1  0.781231  0.218769  0.385273  1
  Er  Er1  1  0.218769  0.781231  0.614727  1
  Er  Er2  1  0.781231  0.218769  0.114727  1
  Er  Er3  1  0.218769  0.781231  0.885273  1
  Er  Er4  1  0.505913  0.494087  0.250000  1
  Er  Er5  1  0.494087  0.505913  0.750000  1
  Pa  Pa6  1  0.500000  0.500000  0.500000  1
  Pa  Pa7  1  0.500000  0.500000  0.000000  1
  Co  Co8  1  0.079948  0.920052  0.398235  1
  Co  Co9  1  0.920052  0.079948  0.601765  1
  Co  Co10  1  0.079948  0.920052  0.101765  1
  Co  Co11  1  0.920052  0.079948  0.898235  1
  Co  Co12  1  0.206054  0.793946  0.250000  1
  Co  Co13  1  0.793946  0.206054  0.750000  1
