# generated using pymatgen
data_Cs2RbScBi2
_symmetry_space_group_name_H-M   'P 1'
_cell_length_a   10.51013541
_cell_length_b   10.51013480
_cell_length_c   10.51013468
_cell_angle_alpha   128.58818048
_cell_angle_beta   69.15303973
_cell_angle_gamma   137.06732774
_symmetry_Int_Tables_number   1
_chemical_formula_structural   Cs2RbScBi2
_chemical_formula_sum   'Cs4 Rb2 Sc2 Bi4'
_cell_volume   606.94311817
_cell_formula_units_Z   2
loop_
 _symmetry_equiv_pos_site_id
 _symmetry_equiv_pos_as_xyz
  1  'x, y, z'
loop_
 _atom_site_type_symbol
 _atom_site_label
 _atom_site_symmetry_multiplicity
 _atom_site_fract_x
 _atom_site_fract_y
 _atom_site_fract_z
 _atom_site_occupancy
  Cs  Cs0  1  0.316208  0.802829  0.119034  1
  Cs  Cs1  1  0.183793  0.302829  0.486622  1
  Cs  Cs2  1  0.816208  0.697172  0.513378  1
  Cs  Cs3  1  0.683792  0.197171  0.880966  1
  Rb  Rb4  1  0.250000  0.250000  0.000000  1
  Rb  Rb5  1  0.750000  0.750000  0.000000  1
  Sc  Sc6  1  0.749999  0.250000  0.500000  1
  Sc  Sc7  1  0.250000  0.750000  0.500000  1
  Bi  Bi8  1  0.911497  0.311235  0.222732  1
  Bi  Bi9  1  0.588504  0.811235  0.399737  1
  Bi  Bi10  1  0.411497  0.188765  0.600263  1
  Bi  Bi11  1  0.088503  0.688766  0.777269  1
