# generated using pymatgen
data_Pr(NdIn2)5
_symmetry_space_group_name_H-M   'P 1'
_cell_length_a   6.60778994
_cell_length_b   6.61212061
_cell_length_c   10.59793136
_cell_angle_alpha   90.05402085
_cell_angle_beta   90.04155024
_cell_angle_gamma   101.96680514
_symmetry_Int_Tables_number   1
_chemical_formula_structural   Pr(NdIn2)5
_chemical_formula_sum   'Pr1 Nd5 In10'
_cell_volume   452.97633328
_cell_formula_units_Z   1
loop_
 _symmetry_equiv_pos_site_id
 _symmetry_equiv_pos_as_xyz
  1  'x, y, z'
loop_
 _atom_site_type_symbol
 _atom_site_label
 _atom_site_symmetry_multiplicity
 _atom_site_fract_x
 _atom_site_fract_y
 _atom_site_fract_z
 _atom_site_occupancy
  Pr  Pr0  1  0.203473  0.797437  0.499886  1
  Nd  Nd1  1  0.629872  0.629811  0.249912  1
  Nd  Nd2  1  0.369907  0.369675  0.749967  1
  Nd  Nd3  1  0.202814  0.797239  0.000332  1
  Nd  Nd4  1  0.797339  0.202934  0.500098  1
  Nd  Nd5  1  0.797130  0.203018  0.999799  1
  In  In6  1  0.012494  0.013692  0.249791  1
  In  In7  1  0.986512  0.986707  0.750361  1
  In  In8  1  0.309349  0.308946  0.049402  1
  In  In9  1  0.691133  0.690940  0.950191  1
  In  In10  1  0.309259  0.309596  0.450284  1
  In  In11  1  0.690441  0.690644  0.549703  1
  In  In12  1  0.502763  0.075067  0.249987  1
  In  In13  1  0.924963  0.497275  0.750281  1
  In  In14  1  0.497843  0.925130  0.750553  1
  In  In15  1  0.074711  0.501889  0.249454  1
