# generated using pymatgen
data_Eu(UH5)3
_symmetry_space_group_name_H-M   'P 1'
_cell_length_a   7.45717250
_cell_length_b   7.49081488
_cell_length_c   7.52259496
_cell_angle_alpha   109.34135271
_cell_angle_beta   109.16000479
_cell_angle_gamma   109.65217536
_symmetry_Int_Tables_number   1
_chemical_formula_structural   Eu(UH5)3
_chemical_formula_sum   'Eu2 U6 H30'
_cell_volume   324.51092694
_cell_formula_units_Z   2
loop_
 _symmetry_equiv_pos_site_id
 _symmetry_equiv_pos_as_xyz
  1  'x, y, z'
loop_
 _atom_site_type_symbol
 _atom_site_label
 _atom_site_symmetry_multiplicity
 _atom_site_fract_x
 _atom_site_fract_y
 _atom_site_fract_z
 _atom_site_occupancy
  Eu  Eu0  1  0.927406  0.924967  0.928217  1
  Eu  Eu1  1  0.499189  0.996751  0.071783  1
  U  U2  1  0.002100  0.080884  0.503189  1
  U  U3  1  0.075801  0.492056  0.995562  1
  U  U4  1  0.998911  0.577696  0.496811  1
  U  U5  1  0.580239  0.496494  0.004438  1
  U  U6  1  0.496024  0.002479  0.573644  1
  U  U7  1  0.422380  0.428835  0.426356  1
  H  H8  1  0.660857  0.970772  0.384291  1
  H  H9  1  0.214285  0.308502  0.849433  1
  H  H10  1  0.183819  0.400458  0.534640  1
  H  H11  1  0.107257  0.303263  0.153666  1
  H  H12  1  0.303304  0.168291  0.117147  1
  H  H13  1  0.153853  0.109803  0.305455  1
  H  H14  1  0.453590  0.149597  0.846334  1
  H  H15  1  0.712944  0.348752  0.814341  1
  H  H16  1  0.633175  0.396992  0.265290  1
  H  H17  1  0.247578  0.628525  0.369286  1
  H  H18  1  0.757903  0.862877  0.145654  1
  H  H19  1  0.112249  0.717222  0.854346  1
  H  H20  1  0.378292  0.259238  0.630714  1
  H  H21  1  0.867886  0.131702  0.734710  1
  H  H22  1  0.776566  0.586481  0.615709  1
  H  H23  1  0.299373  0.835457  0.215325  1
  H  H24  1  0.361986  0.634011  0.965425  1
  H  H25  1  0.970023  0.368041  0.649981  1
  H  H26  1  0.533198  0.198135  0.413277  1
  H  H27  1  0.398604  0.534412  0.185659  1
  H  H28  1  0.862785  0.219407  0.323521  1
  H  H29  1  0.896561  0.668585  0.034575  1
  H  H30  1  0.820042  0.718059  0.350019  1
  H  H31  1  0.149180  0.865819  0.465360  1
  H  H32  1  0.686156  0.051142  0.882853  1
  H  H33  1  0.348398  0.804349  0.694545  1
  H  H34  1  0.864851  0.459068  0.150567  1
  H  H35  1  0.619921  0.784860  0.586723  1
  H  H36  1  0.584047  0.620132  0.784675  1
  H  H37  1  0.039266  0.895888  0.676479  1
