# generated using pymatgen
data_Tb3In4CoRh
_symmetry_space_group_name_H-M   'P 1'
_cell_length_a   7.92363900
_cell_length_b   7.92363917
_cell_length_c   3.73029200
_cell_angle_alpha   90.00000000
_cell_angle_beta   90.00000000
_cell_angle_gamma   120.00001180
_symmetry_Int_Tables_number   1
_chemical_formula_structural   Tb3In4CoRh
_chemical_formula_sum   'Tb3 In4 Co1 Rh1'
_cell_volume   202.82560512
_cell_formula_units_Z   1
loop_
 _symmetry_equiv_pos_site_id
 _symmetry_equiv_pos_as_xyz
  1  'x, y, z'
loop_
 _atom_site_type_symbol
 _atom_site_label
 _atom_site_symmetry_multiplicity
 _atom_site_fract_x
 _atom_site_fract_y
 _atom_site_fract_z
 _atom_site_occupancy
  Tb  Tb0  1  0.046146  0.299457  0.500000  1
  Tb  Tb1  1  0.700543  0.746688  0.500000  1
  Tb  Tb2  1  0.253312  0.953854  0.500000  1
  In  In3  1  0.664356  0.083117  0.000000  1
  In  In4  1  0.916883  0.581239  0.000000  1
  In  In5  1  0.418761  0.335644  0.000000  1
  In  In6  1  0.333333  0.666667  0.000000  1
  Co  Co7  1  0.666667  0.333333  0.500000  1
  Rh  Rh8  1  0.000000  0.000000  0.000000  1
