# generated using pymatgen
data_Tm4Lu2Fe7Co16
_symmetry_space_group_name_H-M   'P 1'
_cell_length_a   8.30663568
_cell_length_b   8.30821851
_cell_length_c   8.30821715
_cell_angle_alpha   59.98740245
_cell_angle_beta   60.00631028
_cell_angle_gamma   60.00630221
_symmetry_Int_Tables_number   1
_chemical_formula_structural   Tm4Lu2Fe7Co16
_chemical_formula_sum   'Tm4 Lu2 Fe7 Co16'
_cell_volume   405.43938292
_cell_formula_units_Z   1
loop_
 _symmetry_equiv_pos_site_id
 _symmetry_equiv_pos_as_xyz
  1  'x, y, z'
loop_
 _atom_site_type_symbol
 _atom_site_label
 _atom_site_symmetry_multiplicity
 _atom_site_fract_x
 _atom_site_fract_y
 _atom_site_fract_z
 _atom_site_occupancy
  Tm  Tm0  1  0.288850  0.711150  0.288850  1
  Tm  Tm1  1  0.288850  0.288850  0.711150  1
  Tm  Tm2  1  0.711150  0.288850  0.711150  1
  Tm  Tm3  1  0.711150  0.711150  0.288850  1
  Lu  Lu4  1  0.713111  0.286889  0.286889  1
  Lu  Lu5  1  0.286889  0.713111  0.713111  1
  Fe  Fe6  1  0.500000  0.000000  0.000000  1
  Fe  Fe7  1  0.000000  0.500000  0.500000  1
  Fe  Fe8  1  0.000000  0.500000  0.000000  1
  Fe  Fe9  1  0.000000  0.000000  0.500000  1
  Fe  Fe10  1  0.500000  0.000000  0.500000  1
  Fe  Fe11  1  0.500000  0.500000  0.000000  1
  Fe  Fe12  1  0.000000  0.000000  0.000000  1
  Co  Co13  1  0.323617  0.323710  0.323710  1
  Co  Co14  1  0.323710  0.323617  0.028964  1
  Co  Co15  1  0.028964  0.323710  0.323710  1
  Co  Co16  1  0.323710  0.028964  0.323617  1
  Co  Co17  1  0.676383  0.676290  0.676290  1
  Co  Co18  1  0.676290  0.676383  0.971036  1
  Co  Co19  1  0.676290  0.971036  0.676383  1
  Co  Co20  1  0.971036  0.676290  0.676290  1
  Co  Co21  1  0.122127  0.122588  0.122588  1
  Co  Co22  1  0.122588  0.122127  0.632696  1
  Co  Co23  1  0.632696  0.122588  0.122588  1
  Co  Co24  1  0.122588  0.632696  0.122127  1
  Co  Co25  1  0.877873  0.877412  0.877412  1
  Co  Co26  1  0.877412  0.877873  0.367304  1
  Co  Co27  1  0.877412  0.367304  0.877873  1
  Co  Co28  1  0.367304  0.877412  0.877412  1
