# generated using pymatgen
data_La3ErMg2Ir3
_symmetry_space_group_name_H-M   'P 1'
_cell_length_a   7.61192200
_cell_length_b   7.65909091
_cell_length_c   4.24161400
_cell_angle_alpha   90.00000000
_cell_angle_beta   90.00000000
_cell_angle_gamma   119.79648498
_symmetry_Int_Tables_number   1
_chemical_formula_structural   La3ErMg2Ir3
_chemical_formula_sum   'La3 Er1 Mg2 Ir3'
_cell_volume   214.59535234
_cell_formula_units_Z   1
loop_
 _symmetry_equiv_pos_site_id
 _symmetry_equiv_pos_as_xyz
  1  'x, y, z'
loop_
 _atom_site_type_symbol
 _atom_site_label
 _atom_site_symmetry_multiplicity
 _atom_site_fract_x
 _atom_site_fract_y
 _atom_site_fract_z
 _atom_site_occupancy
  La  La0  1  0.397081  0.000000  0.500001  1
  La  La1  1  0.015125  0.434509  0.500001  1
  La  La2  1  0.580616  0.565492  0.500001  1
  Er  Er3  1  0.756292  0.000000  0.000000  1
  Mg  Mg4  1  0.241128  0.241059  0.000000  1
  Mg  Mg5  1  0.000069  0.758941  0.000000  1
  Ir  Ir6  1  0.670621  0.330188  0.000000  1
  Ir  Ir7  1  0.340433  0.669812  0.000000  1
  Ir  Ir8  1  0.998636  0.000000  0.500001  1
