# generated using pymatgen
data_LuVI18
_symmetry_space_group_name_H-M   'P 1'
_cell_length_a   10.22124914
_cell_length_b   10.25115257
_cell_length_c   10.24637174
_cell_angle_alpha   88.66163481
_cell_angle_beta   88.91317038
_cell_angle_gamma   88.46561242
_symmetry_Int_Tables_number   1
_chemical_formula_structural   LuVI18
_chemical_formula_sum   'Lu1 V1 I18'
_cell_volume   1072.75209984
_cell_formula_units_Z   1
loop_
 _symmetry_equiv_pos_site_id
 _symmetry_equiv_pos_as_xyz
  1  'x, y, z'
loop_
 _atom_site_type_symbol
 _atom_site_label
 _atom_site_symmetry_multiplicity
 _atom_site_fract_x
 _atom_site_fract_y
 _atom_site_fract_z
 _atom_site_occupancy
  Lu  Lu0  1  0.000000  0.000000  0.000000  1
  V  V1  1  0.500000  0.500000  0.500000  1
  I  I2  1  0.767656  0.478046  0.503419  1
  I  I3  1  0.502773  0.767715  0.477324  1
  I  I4  1  0.477691  0.503390  0.768314  1
  I  I5  1  0.232344  0.521954  0.496581  1
  I  I6  1  0.497227  0.232285  0.522676  1
  I  I7  1  0.522309  0.496610  0.231686  1
  I  I8  1  0.882214  0.377750  0.746933  1
  I  I9  1  0.745089  0.881295  0.377784  1
  I  I10  1  0.377847  0.745731  0.882241  1
  I  I11  1  0.117786  0.622250  0.253067  1
  I  I12  1  0.254911  0.118705  0.622216  1
  I  I13  1  0.622153  0.254269  0.117759  1
  I  I14  1  0.019089  0.973477  0.709034  1
  I  I15  1  0.709841  0.019402  0.971992  1
  I  I16  1  0.972569  0.709648  0.017941  1
  I  I17  1  0.980911  0.026523  0.290966  1
  I  I18  1  0.290159  0.980598  0.028008  1
  I  I19  1  0.027431  0.290352  0.982059  1
