# generated using pymatgen
data_NdY4In4PdRu
_symmetry_space_group_name_H-M   'P 1'
_cell_length_a   3.63011400
_cell_length_b   8.17135821
_cell_length_c   18.57135015
_cell_angle_alpha   90.02010443
_cell_angle_beta   90.00000000
_cell_angle_gamma   90.00000000
_symmetry_Int_Tables_number   1
_chemical_formula_structural   NdY4In4PdRu
_chemical_formula_sum   'Nd2 Y8 In8 Pd2 Ru2'
_cell_volume   550.88121653
_cell_formula_units_Z   2
loop_
 _symmetry_equiv_pos_site_id
 _symmetry_equiv_pos_as_xyz
  1  'x, y, z'
loop_
 _atom_site_type_symbol
 _atom_site_label
 _atom_site_symmetry_multiplicity
 _atom_site_fract_x
 _atom_site_fract_y
 _atom_site_fract_z
 _atom_site_occupancy
  Nd  Nd0  1  0.500000  0.000000  0.000000  1
  Nd  Nd1  1  0.500000  0.500000  0.500000  1
  Y  Y2  1  0.500000  0.230081  0.778750  1
  Y  Y3  1  0.500000  0.769919  0.221250  1
  Y  Y4  1  0.500000  0.247321  0.279705  1
  Y  Y5  1  0.500000  0.752679  0.720295  1
  Y  Y6  1  0.500000  0.119835  0.587590  1
  Y  Y7  1  0.500000  0.880165  0.412410  1
  Y  Y8  1  0.500000  0.377416  0.085437  1
  Y  Y9  1  0.500000  0.622584  0.914563  1
  In  In10  1  0.000000  0.072194  0.152523  1
  In  In11  1  0.000000  0.927806  0.847477  1
  In  In12  1  0.000000  0.424410  0.652685  1
  In  In13  1  0.000000  0.575590  0.347315  1
  In  In14  1  0.000000  0.201586  0.428896  1
  In  In15  1  0.000000  0.798414  0.571104  1
  In  In16  1  0.000000  0.298776  0.931520  1
  In  In17  1  0.000000  0.701224  0.068480  1
  Pd  Pd18  1  0.000000  0.480089  0.196223  1
  Pd  Pd19  1  0.000000  0.519911  0.803777  1
  Ru  Ru20  1  0.000000  0.018760  0.695227  1
  Ru  Ru21  1  0.000000  0.981240  0.304773  1
