# generated using pymatgen
data_Lu2PaAl3Ga2Co
_symmetry_space_group_name_H-M   'P 1'
_cell_length_a   6.72089100
_cell_length_b   6.89489595
_cell_length_c   4.22635100
_cell_angle_alpha   90.00000000
_cell_angle_beta   90.00000000
_cell_angle_gamma   119.16864156
_symmetry_Int_Tables_number   1
_chemical_formula_structural   Lu2PaAl3Ga2Co
_chemical_formula_sum   'Lu2 Pa1 Al3 Ga2 Co1'
_cell_volume   171.01270073
_cell_formula_units_Z   1
loop_
 _symmetry_equiv_pos_site_id
 _symmetry_equiv_pos_as_xyz
  1  'x, y, z'
loop_
 _atom_site_type_symbol
 _atom_site_label
 _atom_site_symmetry_multiplicity
 _atom_site_fract_x
 _atom_site_fract_y
 _atom_site_fract_z
 _atom_site_occupancy
  Lu  Lu0  1  0.002300  0.603070  0.000000  1
  Lu  Lu1  1  0.399231  0.396930  0.000000  1
  Pa  Pa2  1  0.604037  0.000000  0.000000  1
  Al  Al3  1  0.234391  0.000000  0.500000  1
  Al  Al4  1  0.002340  0.231681  0.500000  1
  Al  Al5  1  0.770660  0.768319  0.500000  1
  Ga  Ga6  1  0.334994  0.661816  0.500000  1
  Ga  Ga7  1  0.673179  0.338184  0.500000  1
  Co  Co8  1  0.978866  0.000000  0.000000  1
