# generated using pymatgen
data_Nd3ZnCu3Sn4
_symmetry_space_group_name_H-M   'P 1'
_cell_length_a   8.63377215
_cell_length_b   8.67962473
_cell_length_c   8.67962494
_cell_angle_alpha   149.09692404
_cell_angle_beta   131.85099937
_cell_angle_gamma   58.36681154
_symmetry_Int_Tables_number   1
_chemical_formula_structural   Nd3ZnCu3Sn4
_chemical_formula_sum   'Nd3 Zn1 Cu3 Sn4'
_cell_volume   246.86463466
_cell_formula_units_Z   1
loop_
 _symmetry_equiv_pos_site_id
 _symmetry_equiv_pos_as_xyz
  1  'x, y, z'
loop_
 _atom_site_type_symbol
 _atom_site_label
 _atom_site_symmetry_multiplicity
 _atom_site_fract_x
 _atom_site_fract_y
 _atom_site_fract_z
 _atom_site_occupancy
  Nd  Nd0  1  0.501218  0.000505  0.500713  1
  Nd  Nd1  1  0.138699  0.132786  0.005913  1
  Nd  Nd2  1  0.871569  0.868964  0.002605  1
  Zn  Zn3  1  0.848760  0.665440  0.183320  1
  Cu  Cu4  1  0.482252  0.668537  0.813714  1
  Cu  Cu5  1  0.511002  0.331231  0.179771  1
  Cu  Cu6  1  0.148962  0.332568  0.816394  1
  Sn  Sn7  1  0.796450  0.495967  0.300482  1
  Sn  Sn8  1  0.204093  0.500391  0.703702  1
  Sn  Sn9  1  0.708920  0.218258  0.490662  1
  Sn  Sn10  1  0.288076  0.785353  0.502724  1
