# generated using pymatgen
data_Ac5(SnO6)2
_symmetry_space_group_name_H-M   'P 1'
_cell_length_a   7.39817995
_cell_length_b   7.39817824
_cell_length_c   8.05286800
_cell_angle_alpha   74.55144680
_cell_angle_beta   74.55145046
_cell_angle_gamma   51.14377398
_symmetry_Int_Tables_number   1
_chemical_formula_structural   Ac5(SnO6)2
_chemical_formula_sum   'Ac5 Sn2 O12'
_cell_volume   327.92197546
_cell_formula_units_Z   1
loop_
 _symmetry_equiv_pos_site_id
 _symmetry_equiv_pos_as_xyz
  1  'x, y, z'
loop_
 _atom_site_type_symbol
 _atom_site_label
 _atom_site_symmetry_multiplicity
 _atom_site_fract_x
 _atom_site_fract_y
 _atom_site_fract_z
 _atom_site_occupancy
  Ac  Ac0  1  0.308768  0.308768  0.356490  1
  Ac  Ac1  1  0.691232  0.691232  0.643510  1
  Ac  Ac2  1  0.303902  0.303902  0.837649  1
  Ac  Ac3  1  0.696098  0.696098  0.162351  1
  Ac  Ac4  1  0.000000  0.000000  0.500000  1
  Sn  Sn5  1  0.758511  0.241489  0.000000  1
  Sn  Sn6  1  0.241489  0.758511  0.000000  1
  O  O7  1  0.896006  0.426659  0.919650  1
  O  O8  1  0.426659  0.896006  0.919650  1
  O  O9  1  0.103994  0.573341  0.080350  1
  O  O10  1  0.573341  0.103994  0.080350  1
  O  O11  1  0.093232  0.595713  0.577755  1
  O  O12  1  0.595713  0.093232  0.577755  1
  O  O13  1  0.906768  0.404287  0.422245  1
  O  O14  1  0.404287  0.906768  0.422245  1
  O  O15  1  0.001436  0.001436  0.820538  1
  O  O16  1  0.998564  0.998564  0.179462  1
  O  O17  1  0.498620  0.498620  0.826236  1
  O  O18  1  0.501380  0.501380  0.173764  1
