# generated using pymatgen
data_Nd3In3Ni2Rh
_symmetry_space_group_name_H-M   'P 1'
_cell_length_a   7.58163400
_cell_length_b   7.58163344
_cell_length_c   4.02041800
_cell_angle_alpha   90.00000000
_cell_angle_beta   90.00000000
_cell_angle_gamma   120.00000244
_symmetry_Int_Tables_number   1
_chemical_formula_structural   Nd3In3Ni2Rh
_chemical_formula_sum   'Nd3 In3 Ni2 Rh1'
_cell_volume   200.13701962
_cell_formula_units_Z   1
loop_
 _symmetry_equiv_pos_site_id
 _symmetry_equiv_pos_as_xyz
  1  'x, y, z'
loop_
 _atom_site_type_symbol
 _atom_site_label
 _atom_site_symmetry_multiplicity
 _atom_site_fract_x
 _atom_site_fract_y
 _atom_site_fract_z
 _atom_site_occupancy
  Nd  Nd0  1  0.413988  0.412174  0.500000  1
  Nd  Nd1  1  0.587826  0.001814  0.500000  1
  Nd  Nd2  1  0.998186  0.586012  0.500000  1
  In  In3  1  0.754613  0.757461  0.000000  1
  In  In4  1  0.242539  0.997152  0.000000  1
  In  In5  1  0.002848  0.245387  0.000000  1
  Ni  Ni6  1  0.000000  0.000000  0.500000  1
  Ni  Ni7  1  0.333333  0.666667  0.000000  1
  Rh  Rh8  1  0.666667  0.333333  0.000000  1
