# generated using pymatgen
data_Tm8B24Mo2IrRh
_symmetry_space_group_name_H-M   'P 1'
_cell_length_a   3.62822400
_cell_length_b   9.12679083
_cell_length_c   11.52668230
_cell_angle_alpha   90.33698337
_cell_angle_beta   90.00000000
_cell_angle_gamma   90.00000000
_symmetry_Int_Tables_number   1
_chemical_formula_structural   Tm8B24Mo2IrRh
_chemical_formula_sum   'Tm8 B24 Mo2 Ir1 Rh1'
_cell_volume   381.68843473
_cell_formula_units_Z   1
loop_
 _symmetry_equiv_pos_site_id
 _symmetry_equiv_pos_as_xyz
  1  'x, y, z'
loop_
 _atom_site_type_symbol
 _atom_site_label
 _atom_site_symmetry_multiplicity
 _atom_site_fract_x
 _atom_site_fract_y
 _atom_site_fract_z
 _atom_site_occupancy
  Tm  Tm0  1  0.500000  0.317780  0.411181  1
  Tm  Tm1  1  0.500000  0.681945  0.588944  1
  Tm  Tm2  1  0.500000  0.174645  0.916983  1
  Tm  Tm3  1  0.500000  0.825569  0.082962  1
  Tm  Tm4  1  0.500000  0.443224  0.126453  1
  Tm  Tm5  1  0.500000  0.557127  0.873964  1
  Tm  Tm6  1  0.500000  0.054260  0.627469  1
  Tm  Tm7  1  0.500000  0.944951  0.372085  1
  B  B8  1  0.000000  0.106753  0.471779  1
  B  B9  1  0.000000  0.892595  0.528106  1
  B  B10  1  0.000000  0.395255  0.970017  1
  B  B11  1  0.000000  0.605380  0.030214  1
  B  B12  1  0.000000  0.132669  0.317660  1
  B  B13  1  0.000000  0.867157  0.682240  1
  B  B14  1  0.000000  0.368670  0.815645  1
  B  B15  1  0.000000  0.631556  0.184102  1
  B  B16  1  0.000000  0.051749  0.065839  1
  B  B17  1  0.000000  0.948547  0.933971  1
  B  B18  1  0.000000  0.446275  0.565211  1
  B  B19  1  0.000000  0.553850  0.434828  1
  B  B20  1  0.000000  0.482819  0.288360  1
  B  B21  1  0.000000  0.517460  0.711846  1
  B  B22  1  0.000000  0.020950  0.785913  1
  B  B23  1  0.000000  0.979038  0.213856  1
  B  B24  1  0.000000  0.250482  0.078937  1
  B  B25  1  0.000000  0.749787  0.921032  1
  B  B26  1  0.000000  0.250399  0.578754  1
  B  B27  1  0.000000  0.749335  0.421405  1
  B  B28  1  0.000000  0.296124  0.236670  1
  B  B29  1  0.000000  0.703971  0.763475  1
  B  B30  1  0.000000  0.208519  0.733758  1
  B  B31  1  0.000000  0.791303  0.266123  1
  Mo  Mo32  1  0.500000  0.139313  0.180909  1
  Mo  Mo33  1  0.500000  0.860813  0.818997  1
  Ir  Ir34  1  0.500000  0.362083  0.677971  1
  Rh  Rh35  1  0.500000  0.637649  0.322343  1
