# generated using pymatgen
data_Y8AlSiI12
_symmetry_space_group_name_H-M   'P 1'
_cell_length_a   4.20440400
_cell_length_b   14.13458321
_cell_length_c   14.89089344
_cell_angle_alpha   89.92244247
_cell_angle_beta   90.00000000
_cell_angle_gamma   90.00000000
_symmetry_Int_Tables_number   1
_chemical_formula_structural   Y8AlSiI12
_chemical_formula_sum   'Y8 Al1 Si1 I12'
_cell_volume   884.92773214
_cell_formula_units_Z   1
loop_
 _symmetry_equiv_pos_site_id
 _symmetry_equiv_pos_as_xyz
  1  'x, y, z'
loop_
 _atom_site_type_symbol
 _atom_site_label
 _atom_site_symmetry_multiplicity
 _atom_site_fract_x
 _atom_site_fract_y
 _atom_site_fract_z
 _atom_site_occupancy
  Y  Y0  1  0.500000  0.117612  0.342704  1
  Y  Y1  1  0.500000  0.882388  0.657296  1
  Y  Y2  1  0.500000  0.612790  0.151268  1
  Y  Y3  1  0.500000  0.387210  0.848732  1
  Y  Y4  1  0.000000  0.117985  0.579300  1
  Y  Y5  1  0.000000  0.882015  0.420700  1
  Y  Y6  1  0.000000  0.610019  0.926169  1
  Y  Y7  1  0.000000  0.389981  0.073831  1
  Al  Al8  1  0.500000  0.000000  0.500000  1
  Si  Si9  1  0.500000  0.500000  0.000000  1
  I  I10  1  0.500000  0.248993  0.162121  1
  I  I11  1  0.500000  0.751007  0.837879  1
  I  I12  1  0.500000  0.744100  0.333473  1
  I  I13  1  0.500000  0.255900  0.666527  1
  I  I14  1  0.000000  0.261069  0.414744  1
  I  I15  1  0.000000  0.738931  0.585256  1
  I  I16  1  0.000000  0.756726  0.084804  1
  I  I17  1  0.000000  0.243274  0.915196  1
  I  I18  1  0.000000  0.998848  0.237648  1
  I  I19  1  0.000000  0.001152  0.762352  1
  I  I20  1  0.000000  0.499004  0.258060  1
  I  I21  1  0.000000  0.500996  0.741940  1
