# generated using pymatgen
data_K3Ce(B2Pt3)6
_symmetry_space_group_name_H-M   'P 1'
_cell_length_a   8.17302474
_cell_length_b   8.17314438
_cell_length_c   8.17321300
_cell_angle_alpha   82.14516646
_cell_angle_beta   82.14458368
_cell_angle_gamma   82.14200445
_symmetry_Int_Tables_number   1
_chemical_formula_structural   K3Ce(B2Pt3)6
_chemical_formula_sum   'K3 Ce1 B12 Pt18'
_cell_volume   531.87717341
_cell_formula_units_Z   1
loop_
 _symmetry_equiv_pos_site_id
 _symmetry_equiv_pos_as_xyz
  1  'x, y, z'
loop_
 _atom_site_type_symbol
 _atom_site_label
 _atom_site_symmetry_multiplicity
 _atom_site_fract_x
 _atom_site_fract_y
 _atom_site_fract_z
 _atom_site_occupancy
  K  K0  1  0.638856  0.638774  0.638836  1
  K  K1  1  0.867931  0.867860  0.867872  1
  K  K2  1  0.402400  0.402522  0.402468  1
  Ce  Ce3  1  0.154088  0.154144  0.153917  1
  B  B4  1  0.543705  0.185524  0.836800  1
  B  B5  1  0.836849  0.543636  0.185367  1
  B  B6  1  0.185440  0.836793  0.543645  1
  B  B7  1  0.954227  0.662079  0.311615  1
  B  B8  1  0.462379  0.798029  0.158686  1
  B  B9  1  0.158536  0.462359  0.798062  1
  B  B10  1  0.798056  0.158661  0.462376  1
  B  B11  1  0.039502  0.347719  0.674787  1
  B  B12  1  0.674614  0.039511  0.347770  1
  B  B13  1  0.347672  0.674629  0.039561  1
  B  B14  1  0.311647  0.954237  0.662046  1
  B  B15  1  0.662064  0.311589  0.954220  1
  Pt  Pt16  1  0.406281  0.940353  0.399124  1
  Pt  Pt17  1  0.091147  0.098359  0.556785  1
  Pt  Pt18  1  0.940253  0.399091  0.406082  1
  Pt  Pt19  1  0.556772  0.091029  0.098272  1
  Pt  Pt20  1  0.606861  0.569915  0.068198  1
  Pt  Pt21  1  0.569984  0.068148  0.607020  1
  Pt  Pt22  1  0.068190  0.606847  0.569799  1
  Pt  Pt23  1  0.915231  0.909797  0.415472  1
  Pt  Pt24  1  0.909678  0.415466  0.915445  1
  Pt  Pt25  1  0.415409  0.915148  0.909766  1
  Pt  Pt26  1  0.767594  0.265040  0.211625  1
  Pt  Pt27  1  0.211524  0.767953  0.265010  1
  Pt  Pt28  1  0.265152  0.211550  0.767753  1
  Pt  Pt29  1  0.247690  0.707618  0.784790  1
  Pt  Pt30  1  0.785029  0.247728  0.707676  1
  Pt  Pt31  1  0.707701  0.784891  0.247708  1
  Pt  Pt32  1  0.098443  0.556864  0.091088  1
  Pt  Pt33  1  0.399097  0.406134  0.940360  1
