# generated using pymatgen
data_Ac7Dy(Tm3Pt4)4
_symmetry_space_group_name_H-M   'P 1'
_cell_length_a   7.80408117
_cell_length_b   7.84910363
_cell_length_c   14.97308600
_cell_angle_alpha   89.90606065
_cell_angle_beta   89.89880097
_cell_angle_gamma   90.10035028
_symmetry_Int_Tables_number   1
_chemical_formula_structural   Ac7Dy(Tm3Pt4)4
_chemical_formula_sum   'Ac7 Dy1 Tm12 Pt16'
_cell_volume   917.17293479
_cell_formula_units_Z   1
loop_
 _symmetry_equiv_pos_site_id
 _symmetry_equiv_pos_as_xyz
  1  'x, y, z'
loop_
 _atom_site_type_symbol
 _atom_site_label
 _atom_site_symmetry_multiplicity
 _atom_site_fract_x
 _atom_site_fract_y
 _atom_site_fract_z
 _atom_site_occupancy
  Ac  Ac0  1  0.502258  0.677937  0.596045  1
  Ac  Ac1  1  0.003220  0.823206  0.902263  1
  Ac  Ac2  1  0.497110  0.324947  0.097181  1
  Ac  Ac3  1  0.997254  0.171170  0.406183  1
  Ac  Ac4  1  0.496805  0.324344  0.402468  1
  Ac  Ac5  1  0.997468  0.177060  0.097098  1
  Ac  Ac6  1  0.503842  0.675427  0.900466  1
  Dy  Dy7  1  0.006062  0.820975  0.603359  1
  Tm  Tm8  1  0.664391  0.161927  0.623089  1
  Tm  Tm9  1  0.157360  0.331977  0.873041  1
  Tm  Tm10  1  0.342218  0.833746  0.124773  1
  Tm  Tm11  1  0.845232  0.671209  0.379845  1
  Tm  Tm12  1  0.340114  0.834056  0.376237  1
  Tm  Tm13  1  0.841072  0.666260  0.125744  1
  Tm  Tm14  1  0.659354  0.165745  0.872409  1
  Tm  Tm15  1  0.158577  0.333992  0.624423  1
  Tm  Tm16  1  0.828129  0.499480  0.746569  1
  Tm  Tm17  1  0.322441  0.002120  0.746462  1
  Tm  Tm18  1  0.171543  0.503618  0.251683  1
  Tm  Tm19  1  0.673295  0.996394  0.250894  1
  Pt  Pt20  1  0.670625  0.957844  0.456028  1
  Pt  Pt21  1  0.172040  0.542228  0.046230  1
  Pt  Pt22  1  0.329734  0.042053  0.952704  1
  Pt  Pt23  1  0.835902  0.468609  0.550137  1
  Pt  Pt24  1  0.310790  0.031980  0.548543  1
  Pt  Pt25  1  0.828081  0.457040  0.952988  1
  Pt  Pt26  1  0.672048  0.957454  0.046573  1
  Pt  Pt27  1  0.169832  0.546020  0.455756  1
  Pt  Pt28  1  0.454867  0.361946  0.748496  1
  Pt  Pt29  1  0.957877  0.131549  0.747231  1
  Pt  Pt30  1  0.545285  0.639400  0.251333  1
  Pt  Pt31  1  0.044555  0.862412  0.250120  1
  Pt  Pt32  1  0.696207  0.870041  0.746626  1
  Pt  Pt33  1  0.186495  0.634539  0.744901  1
  Pt  Pt34  1  0.308547  0.128976  0.250542  1
  Pt  Pt35  1  0.809367  0.372321  0.251555  1
