# generated using pymatgen
data_La6Tb(GdRh3)2
_symmetry_space_group_name_H-M   'P 1'
_cell_length_a   7.65282886
_cell_length_b   7.65282697
_cell_length_c   7.65282900
_cell_angle_alpha   70.86765464
_cell_angle_beta   70.86764370
_cell_angle_gamma   70.86764965
_symmetry_Int_Tables_number   1
_chemical_formula_structural   La6Tb(GdRh3)2
_chemical_formula_sum   'La6 Tb1 Gd2 Rh6'
_cell_volume   387.66873285
_cell_formula_units_Z   1
loop_
 _symmetry_equiv_pos_site_id
 _symmetry_equiv_pos_as_xyz
  1  'x, y, z'
loop_
 _atom_site_type_symbol
 _atom_site_label
 _atom_site_symmetry_multiplicity
 _atom_site_fract_x
 _atom_site_fract_y
 _atom_site_fract_z
 _atom_site_occupancy
  La  La0  1  0.154635  0.390798  0.674629  1
  La  La1  1  0.674629  0.154635  0.390798  1
  La  La2  1  0.390798  0.674629  0.154635  1
  La  La3  1  0.845365  0.609202  0.325371  1
  La  La4  1  0.325371  0.845365  0.609202  1
  La  La5  1  0.609202  0.325371  0.845365  1
  Tb  Tb6  1  0.000000  0.000000  0.000000  1
  Gd  Gd7  1  0.800515  0.800515  0.800515  1
  Gd  Gd8  1  0.199485  0.199485  0.199485  1
  Rh  Rh9  1  0.958245  0.161005  0.590383  1
  Rh  Rh10  1  0.590383  0.958245  0.161005  1
  Rh  Rh11  1  0.161005  0.590383  0.958245  1
  Rh  Rh12  1  0.041755  0.838995  0.409617  1
  Rh  Rh13  1  0.409617  0.041755  0.838995  1
  Rh  Rh14  1  0.838995  0.409617  0.041755  1
