# generated using pymatgen
data_Sc3Pa7Mn6
_symmetry_space_group_name_H-M   'P 1'
_cell_length_a   6.31779400
_cell_length_b   7.54717055
_cell_length_c   7.54717100
_cell_angle_alpha   120.00000637
_cell_angle_beta   90.00000000
_cell_angle_gamma   90.00000000
_symmetry_Int_Tables_number   1
_chemical_formula_structural   Sc3Pa7Mn6
_chemical_formula_sum   'Sc3 Pa7 Mn6'
_cell_volume   311.64805372
_cell_formula_units_Z   1
loop_
 _symmetry_equiv_pos_site_id
 _symmetry_equiv_pos_as_xyz
  1  'x, y, z'
loop_
 _atom_site_type_symbol
 _atom_site_label
 _atom_site_symmetry_multiplicity
 _atom_site_fract_x
 _atom_site_fract_y
 _atom_site_fract_z
 _atom_site_occupancy
  Sc  Sc0  1  0.000000  0.666667  0.333333  1
  Sc  Sc1  1  0.000000  0.333333  0.666667  1
  Sc  Sc2  1  0.500000  0.333333  0.666667  1
  Pa  Pa3  1  0.500000  0.666667  0.333333  1
  Pa  Pa4  1  0.752407  0.758057  0.760232  1
  Pa  Pa5  1  0.247593  0.239768  0.241943  1
  Pa  Pa6  1  0.752407  0.002174  0.241943  1
  Pa  Pa7  1  0.247593  0.002174  0.760232  1
  Pa  Pa8  1  0.752407  0.239768  0.997826  1
  Pa  Pa9  1  0.247593  0.758057  0.997826  1
  Mn  Mn10  1  0.750817  0.366461  0.361570  1
  Mn  Mn11  1  0.249183  0.638430  0.633539  1
  Mn  Mn12  1  0.750817  0.995109  0.633539  1
  Mn  Mn13  1  0.249183  0.995109  0.361570  1
  Mn  Mn14  1  0.750817  0.638430  0.004891  1
  Mn  Mn15  1  0.249183  0.366461  0.004891  1
