# generated using pymatgen
data_Tb2Ho6Tc3B24Rh
_symmetry_space_group_name_H-M   'P 1'
_cell_length_a   3.67623500
_cell_length_b   9.14558478
_cell_length_c   11.53055403
_cell_angle_alpha   90.13164130
_cell_angle_beta   90.00000000
_cell_angle_gamma   90.00000000
_symmetry_Int_Tables_number   1
_chemical_formula_structural   Tb2Ho6Tc3B24Rh
_chemical_formula_sum   'Tb2 Ho6 Tc3 B24 Rh1'
_cell_volume   387.67141040
_cell_formula_units_Z   1
loop_
 _symmetry_equiv_pos_site_id
 _symmetry_equiv_pos_as_xyz
  1  'x, y, z'
loop_
 _atom_site_type_symbol
 _atom_site_label
 _atom_site_symmetry_multiplicity
 _atom_site_fract_x
 _atom_site_fract_y
 _atom_site_fract_z
 _atom_site_occupancy
  Tb  Tb0  1  0.500000  0.318940  0.415799  1
  Tb  Tb1  1  0.500000  0.677779  0.590885  1
  Ho  Ho2  1  0.500000  0.176939  0.912948  1
  Ho  Ho3  1  0.500000  0.827487  0.080934  1
  Ho  Ho4  1  0.500000  0.440417  0.128941  1
  Ho  Ho5  1  0.500000  0.557303  0.871278  1
  Ho  Ho6  1  0.500000  0.056435  0.630028  1
  Ho  Ho7  1  0.500000  0.943532  0.369161  1
  Tc  Tc8  1  0.500000  0.138050  0.179809  1
  Tc  Tc9  1  0.500000  0.861979  0.821051  1
  Tc  Tc10  1  0.500000  0.362238  0.678544  1
  B  B11  1  0.000000  0.100797  0.471437  1
  B  B12  1  0.000000  0.896171  0.527937  1
  B  B13  1  0.000000  0.396698  0.971902  1
  B  B14  1  0.000000  0.604410  0.029447  1
  B  B15  1  0.000000  0.130274  0.314556  1
  B  B16  1  0.000000  0.868950  0.685824  1
  B  B17  1  0.000000  0.369282  0.814640  1
  B  B18  1  0.000000  0.631652  0.183724  1
  B  B19  1  0.000000  0.053519  0.066368  1
  B  B20  1  0.000000  0.947382  0.932709  1
  B  B21  1  0.000000  0.446113  0.567205  1
  B  B22  1  0.000000  0.554168  0.433323  1
  B  B23  1  0.000000  0.483299  0.287555  1
  B  B24  1  0.000000  0.517681  0.712820  1
  B  B25  1  0.000000  0.017706  0.787553  1
  B  B26  1  0.000000  0.982658  0.211378  1
  B  B27  1  0.000000  0.248802  0.081044  1
  B  B28  1  0.000000  0.752152  0.919092  1
  B  B29  1  0.000000  0.250376  0.581646  1
  B  B30  1  0.000000  0.749149  0.419582  1
  B  B31  1  0.000000  0.291123  0.234854  1
  B  B32  1  0.000000  0.708738  0.766263  1
  B  B33  1  0.000000  0.208588  0.734773  1
  B  B34  1  0.000000  0.791045  0.264453  1
  Rh  Rh35  1  0.500000  0.638172  0.320539  1
