# generated using pymatgen
data_Rb4Na2YInSb4
_symmetry_space_group_name_H-M   'P 1'
_cell_length_a   10.05002236
_cell_length_b   10.05002107
_cell_length_c   10.05002210
_cell_angle_alpha   136.56539039
_cell_angle_beta   62.33516441
_cell_angle_gamma   137.57313388
_symmetry_Int_Tables_number   1
_chemical_formula_structural   Rb4Na2YInSb4
_chemical_formula_sum   'Rb4 Na2 Y1 In1 Sb4'
_cell_volume   465.17355510
_cell_formula_units_Z   1
loop_
 _symmetry_equiv_pos_site_id
 _symmetry_equiv_pos_as_xyz
  1  'x, y, z'
loop_
 _atom_site_type_symbol
 _atom_site_label
 _atom_site_symmetry_multiplicity
 _atom_site_fract_x
 _atom_site_fract_y
 _atom_site_fract_z
 _atom_site_occupancy
  Rb  Rb0  1  0.832328  0.240159  0.056685  1
  Rb  Rb1  1  0.667671  0.724357  0.407834  1
  Rb  Rb2  1  0.316526  0.259840  0.592167  1
  Rb  Rb3  1  0.183475  0.775644  0.943316  1
  Na  Na4  1  0.250000  0.250000  0.000000  1
  Na  Na5  1  0.750000  0.750000  0.000000  1
  Y  Y6  1  0.750001  0.250000  0.500000  1
  In  In7  1  0.250000  0.750001  0.500001  1
  Sb  Sb8  1  0.393706  0.769945  0.175957  1
  Sb  Sb9  1  0.106293  0.282252  0.376240  1
  Sb  Sb10  1  0.906011  0.730055  0.623760  1
  Sb  Sb11  1  0.593989  0.217749  0.824044  1
