# generated using pymatgen
data_Ba4Nd7NpSe16
_symmetry_space_group_name_H-M   'P 1'
_cell_length_a   4.34018900
_cell_length_b   13.09824190
_cell_length_c   15.56124902
_cell_angle_alpha   90.06460601
_cell_angle_beta   90.00000000
_cell_angle_gamma   90.00000000
_symmetry_Int_Tables_number   1
_chemical_formula_structural   Ba4Nd7NpSe16
_chemical_formula_sum   'Ba4 Nd7 Np1 Se16'
_cell_volume   884.63847759
_cell_formula_units_Z   1
loop_
 _symmetry_equiv_pos_site_id
 _symmetry_equiv_pos_as_xyz
  1  'x, y, z'
loop_
 _atom_site_type_symbol
 _atom_site_label
 _atom_site_symmetry_multiplicity
 _atom_site_fract_x
 _atom_site_fract_y
 _atom_site_fract_z
 _atom_site_occupancy
  Ba  Ba0  1  0.250000  0.755885  0.338340  1
  Ba  Ba1  1  0.250000  0.258221  0.162652  1
  Ba  Ba2  1  0.750000  0.241922  0.661547  1
  Ba  Ba3  1  0.750000  0.742966  0.837652  1
  Nd  Nd4  1  0.250000  0.428305  0.392209  1
  Nd  Nd5  1  0.250000  0.930922  0.109547  1
  Nd  Nd6  1  0.750000  0.569227  0.608902  1
  Nd  Nd7  1  0.750000  0.070394  0.891624  1
  Nd  Nd8  1  0.250000  0.420767  0.898743  1
  Nd  Nd9  1  0.250000  0.921710  0.600017  1
  Nd  Nd10  1  0.750000  0.578982  0.101550  1
  Np  Np11  1  0.750000  0.079090  0.398880  1
  Se  Se12  1  0.250000  0.207751  0.826128  1
  Se  Se13  1  0.250000  0.708229  0.672137  1
  Se  Se14  1  0.750000  0.792871  0.174152  1
  Se  Se15  1  0.750000  0.289896  0.327601  1
  Se  Se16  1  0.250000  0.129722  0.520954  1
  Se  Se17  1  0.250000  0.629740  0.975280  1
  Se  Se18  1  0.750000  0.872231  0.472972  1
  Se  Se19  1  0.750000  0.370104  0.025064  1
  Se  Se20  1  0.250000  0.521605  0.217688  1
  Se  Se21  1  0.250000  0.024746  0.284590  1
  Se  Se22  1  0.750000  0.477261  0.783036  1
  Se  Se23  1  0.750000  0.979041  0.716333  1
  Se  Se24  1  0.250000  0.415718  0.580000  1
  Se  Se25  1  0.250000  0.917201  0.921309  1
  Se  Se26  1  0.750000  0.581882  0.421035  1
  Se  Se27  1  0.750000  0.083615  0.080063  1
