# generated using pymatgen
data_Cs4Ir7RhSe16
_symmetry_space_group_name_H-M   'P 1'
_cell_length_a   6.55916881
_cell_length_b   7.60344900
_cell_length_c   16.53202746
_cell_angle_alpha   90.00000000
_cell_angle_beta   90.05965589
_cell_angle_gamma   90.00000000
_symmetry_Int_Tables_number   1
_chemical_formula_structural   Cs4Ir7RhSe16
_chemical_formula_sum   'Cs4 Ir7 Rh1 Se16'
_cell_volume   824.48987705
_cell_formula_units_Z   1
loop_
 _symmetry_equiv_pos_site_id
 _symmetry_equiv_pos_as_xyz
  1  'x, y, z'
loop_
 _atom_site_type_symbol
 _atom_site_label
 _atom_site_symmetry_multiplicity
 _atom_site_fract_x
 _atom_site_fract_y
 _atom_site_fract_z
 _atom_site_occupancy
  Cs  Cs0  1  0.351700  0.000000  0.999647  1
  Cs  Cs1  1  0.649671  0.500000  0.499933  1
  Cs  Cs2  1  0.031646  0.000000  0.500314  1
  Cs  Cs3  1  0.969386  0.500000  0.000019  1
  Ir  Ir4  1  0.002873  0.000000  0.250792  1
  Ir  Ir5  1  0.003349  0.000000  0.749574  1
  Ir  Ir6  1  0.996692  0.500000  0.249017  1
  Ir  Ir7  1  0.500190  0.249993  0.250058  1
  Ir  Ir8  1  0.499348  0.747566  0.749875  1
  Ir  Ir9  1  0.500190  0.750007  0.250058  1
  Ir  Ir10  1  0.499348  0.252434  0.749875  1
  Rh  Rh11  1  0.997203  0.500000  0.751037  1
  Se  Se12  1  0.834921  0.250151  0.325761  1
  Se  Se13  1  0.834057  0.750642  0.674355  1
  Se  Se14  1  0.165205  0.750274  0.174445  1
  Se  Se15  1  0.165581  0.249106  0.825755  1
  Se  Se16  1  0.165205  0.249726  0.174445  1
  Se  Se17  1  0.165581  0.750894  0.825755  1
  Se  Se18  1  0.834921  0.749849  0.325761  1
  Se  Se19  1  0.834057  0.249358  0.674355  1
  Se  Se20  1  0.669821  0.000000  0.175015  1
  Se  Se21  1  0.668857  0.000000  0.824467  1
  Se  Se22  1  0.330120  0.500000  0.324728  1
  Se  Se23  1  0.330908  0.500000  0.673626  1
  Se  Se24  1  0.339004  0.000000  0.325639  1
  Se  Se25  1  0.339944  0.000000  0.674461  1
  Se  Se26  1  0.660967  0.500000  0.174118  1
  Se  Se27  1  0.659257  0.500000  0.827115  1
