# generated using pymatgen
data_YTm(CoOs)2
_symmetry_space_group_name_H-M   'P 1'
_cell_length_a   5.23960501
_cell_length_b   5.21634666
_cell_length_c   5.21634708
_cell_angle_alpha   58.31037005
_cell_angle_beta   59.85237553
_cell_angle_gamma   59.85238354
_symmetry_Int_Tables_number   1
_chemical_formula_structural   YTm(CoOs)2
_chemical_formula_sum   'Y1 Tm1 Co2 Os2'
_cell_volume   99.24614692
_cell_formula_units_Z   1
loop_
 _symmetry_equiv_pos_site_id
 _symmetry_equiv_pos_as_xyz
  1  'x, y, z'
loop_
 _atom_site_type_symbol
 _atom_site_label
 _atom_site_symmetry_multiplicity
 _atom_site_fract_x
 _atom_site_fract_y
 _atom_site_fract_z
 _atom_site_occupancy
  Y  Y0  1  0.997812  0.002188  0.002188  1
  Tm  Tm1  1  0.252905  0.247095  0.247095  1
  Co  Co2  1  0.125181  0.625146  0.625146  1
  Co  Co3  1  0.624527  0.625146  0.625146  1
  Os  Os4  1  0.624787  0.625011  0.125415  1
  Os  Os5  1  0.624787  0.125415  0.625011  1
