# generated using pymatgen
data_UNi2(PO5)2
_symmetry_space_group_name_H-M   'P 1'
_cell_length_a   5.18017442
_cell_length_b   5.68715176
_cell_length_c   7.66908309
_cell_angle_alpha   111.76399434
_cell_angle_beta   111.18831932
_cell_angle_gamma   89.99999881
_symmetry_Int_Tables_number   1
_chemical_formula_structural   UNi2(PO5)2
_chemical_formula_sum   'U1 Ni2 P2 O10'
_cell_volume   193.28751708
_cell_formula_units_Z   1
loop_
 _symmetry_equiv_pos_site_id
 _symmetry_equiv_pos_as_xyz
  1  'x, y, z'
loop_
 _atom_site_type_symbol
 _atom_site_label
 _atom_site_symmetry_multiplicity
 _atom_site_fract_x
 _atom_site_fract_y
 _atom_site_fract_z
 _atom_site_occupancy
  U  U0  1  0.000000  0.000000  0.000000  1
  Ni  Ni1  1  0.499999  0.000000  0.500000  1
  Ni  Ni2  1  0.499999  0.500000  0.500000  1
  P  P3  1  0.879906  0.633076  0.266153  1
  P  P4  1  0.120092  0.366924  0.733847  1
  O  O5  1  0.826084  0.342900  0.129787  1
  O  O6  1  0.826084  0.786887  0.129787  1
  O  O7  1  0.323781  0.124828  0.249656  1
  O  O8  1  0.673316  0.687007  0.374013  1
  O  O9  1  0.189203  0.710197  0.420395  1
  O  O10  1  0.810798  0.289802  0.579604  1
  O  O11  1  0.326683  0.312992  0.625987  1
  O  O12  1  0.676218  0.875171  0.750344  1
  O  O13  1  0.173915  0.213114  0.870214  1
  O  O14  1  0.173915  0.657099  0.870214  1
