# generated using pymatgen
data_Dy6Y3Er11Bi12
_symmetry_space_group_name_H-M   'P 1'
_cell_length_a   8.23949058
_cell_length_b   9.47442006
_cell_length_c   12.04924723
_cell_angle_alpha   89.99741578
_cell_angle_beta   90.01022270
_cell_angle_gamma   89.99818533
_symmetry_Int_Tables_number   1
_chemical_formula_structural   Dy6Y3Er11Bi12
_chemical_formula_sum   'Dy6 Y3 Er11 Bi12'
_cell_volume   940.61717739
_cell_formula_units_Z   1
loop_
 _symmetry_equiv_pos_site_id
 _symmetry_equiv_pos_as_xyz
  1  'x, y, z'
loop_
 _atom_site_type_symbol
 _atom_site_label
 _atom_site_symmetry_multiplicity
 _atom_site_fract_x
 _atom_site_fract_y
 _atom_site_fract_z
 _atom_site_occupancy
  Dy  Dy0  1  0.186370  0.749976  0.718670  1
  Dy  Dy1  1  0.686396  0.749978  0.781385  1
  Dy  Dy2  1  0.813654  0.249813  0.281195  1
  Dy  Dy3  1  0.313482  0.249948  0.218537  1
  Dy  Dy4  1  0.806717  0.436640  0.559759  1
  Dy  Dy5  1  0.353989  0.749951  0.215675  1
  Y  Y6  1  0.853847  0.749801  0.284386  1
  Y  Y7  1  0.645647  0.249637  0.784617  1
  Y  Y8  1  0.146282  0.249662  0.715716  1
  Er  Er9  1  0.025588  0.749891  0.988778  1
  Er  Er10  1  0.525351  0.749989  0.511261  1
  Er  Er11  1  0.974470  0.249957  0.011311  1
  Er  Er12  1  0.474018  0.249757  0.488683  1
  Er  Er13  1  0.306631  0.435483  0.940360  1
  Er  Er14  1  0.806577  0.064565  0.559791  1
  Er  Er15  1  0.693357  0.935406  0.059703  1
  Er  Er16  1  0.193321  0.564712  0.440181  1
  Er  Er17  1  0.693280  0.564626  0.059708  1
  Er  Er18  1  0.193675  0.935448  0.440050  1
  Er  Er19  1  0.306602  0.064484  0.940404  1
  Bi  Bi20  1  0.433750  0.003653  0.673205  1
  Bi  Bi21  1  0.933961  0.496114  0.827043  1
  Bi  Bi22  1  0.566171  0.503702  0.326713  1
  Bi  Bi23  1  0.066321  0.996018  0.173108  1
  Bi  Bi24  1  0.566168  0.996047  0.326841  1
  Bi  Bi25  1  0.066393  0.503815  0.173041  1
  Bi  Bi26  1  0.433467  0.496050  0.673239  1
  Bi  Bi27  1  0.933824  0.003711  0.826951  1
  Bi  Bi28  1  0.407964  0.749994  0.957819  1
  Bi  Bi29  1  0.908622  0.751471  0.541934  1
  Bi  Bi30  1  0.591983  0.250031  0.042259  1
  Bi  Bi31  1  0.092124  0.249671  0.457678  1
