# generated using pymatgen
data_Pr12Al3Ga5Rh8
_symmetry_space_group_name_H-M   'P 1'
_cell_length_a   5.77696600
_cell_length_b   8.24264914
_cell_length_c   13.67014524
_cell_angle_alpha   89.96511150
_cell_angle_beta   90.00000000
_cell_angle_gamma   90.00000000
_symmetry_Int_Tables_number   1
_chemical_formula_structural   Pr12Al3Ga5Rh8
_chemical_formula_sum   'Pr12 Al3 Ga5 Rh8'
_cell_volume   650.93807263
_cell_formula_units_Z   1
loop_
 _symmetry_equiv_pos_site_id
 _symmetry_equiv_pos_as_xyz
  1  'x, y, z'
loop_
 _atom_site_type_symbol
 _atom_site_label
 _atom_site_symmetry_multiplicity
 _atom_site_fract_x
 _atom_site_fract_y
 _atom_site_fract_z
 _atom_site_occupancy
  Pr  Pr0  1  0.633558  0.255321  0.251109  1
  Pr  Pr1  1  0.367164  0.745608  0.749095  1
  Pr  Pr2  1  0.367164  0.754392  0.250905  1
  Pr  Pr3  1  0.633558  0.244679  0.748891  1
  Pr  Pr4  1  0.141580  0.397369  0.099273  1
  Pr  Pr5  1  0.858689  0.602089  0.901125  1
  Pr  Pr6  1  0.856034  0.601475  0.598602  1
  Pr  Pr7  1  0.856034  0.898525  0.401398  1
  Pr  Pr8  1  0.143261  0.395968  0.401919  1
  Pr  Pr9  1  0.143261  0.104032  0.598081  1
  Pr  Pr10  1  0.141580  0.102631  0.900727  1
  Pr  Pr11  1  0.858689  0.897911  0.098875  1
  Al  Al12  1  0.617226  0.250000  0.000000  1
  Al  Al13  1  0.382919  0.750000  0.000000  1
  Al  Al14  1  0.379084  0.750000  0.500000  1
  Ga  Ga15  1  0.139353  0.108507  0.250128  1
  Ga  Ga16  1  0.862075  0.890629  0.749456  1
  Ga  Ga17  1  0.862075  0.609371  0.250544  1
  Ga  Ga18  1  0.139353  0.391493  0.749872  1
  Ga  Ga19  1  0.628354  0.250000  0.500000  1
  Rh  Rh20  1  0.360240  0.029546  0.089768  1
  Rh  Rh21  1  0.639308  0.970403  0.909708  1
  Rh  Rh22  1  0.636186  0.966982  0.591211  1
  Rh  Rh23  1  0.636186  0.533018  0.408789  1
  Rh  Rh24  1  0.358763  0.027958  0.409706  1
  Rh  Rh25  1  0.358763  0.472042  0.590294  1
  Rh  Rh26  1  0.360240  0.470454  0.910232  1
  Rh  Rh27  1  0.639308  0.529597  0.090292  1
