# generated using pymatgen
data_La4Sc15Bi(BO3)20
_symmetry_space_group_name_H-M   'P 1'
_cell_length_a   7.83784351
_cell_length_b   7.83784400
_cell_length_c   18.93863380
_cell_angle_alpha   87.74608432
_cell_angle_beta   87.74608342
_cell_angle_gamma   78.31872800
_symmetry_Int_Tables_number   1
_chemical_formula_structural   La4Sc15Bi(BO3)20
_chemical_formula_sum   'La4 Sc15 Bi1 B20 O60'
_cell_volume   1137.87198310
_cell_formula_units_Z   1
loop_
 _symmetry_equiv_pos_site_id
 _symmetry_equiv_pos_as_xyz
  1  'x, y, z'
loop_
 _atom_site_type_symbol
 _atom_site_label
 _atom_site_symmetry_multiplicity
 _atom_site_fract_x
 _atom_site_fract_y
 _atom_site_fract_z
 _atom_site_occupancy
  La  La0  1  0.399702  0.399718  0.699283  1
  La  La1  1  0.800095  0.800010  0.899907  1
  La  La2  1  0.199990  0.199905  0.100093  1
  La  La3  1  0.600282  0.600298  0.300717  1
  Sc  Sc4  1  0.709618  0.161530  0.080765  1
  Sc  Sc5  1  0.109567  0.561786  0.280899  1
  Sc  Sc6  1  0.509676  0.961359  0.480692  1
  Sc  Sc7  1  0.909630  0.361445  0.680741  1
  Sc  Sc8  1  0.309643  0.761463  0.880734  1
  Sc  Sc9  1  0.238537  0.690357  0.119266  1
  Sc  Sc10  1  0.638555  0.090370  0.319259  1
  Sc  Sc11  1  0.038641  0.490324  0.519308  1
  Sc  Sc12  1  0.438214  0.890433  0.719101  1
  Sc  Sc13  1  0.838470  0.290382  0.919235  1
  Sc  Sc14  1  0.251918  0.348125  0.899946  1
  Sc  Sc15  1  0.651875  0.748082  0.100054  1
  Sc  Sc16  1  0.051681  0.148089  0.300486  1
  Sc  Sc17  1  0.452189  0.547811  0.500000  1
  Sc  Sc18  1  0.851911  0.948319  0.699514  1
  Bi  Bi19  1  0.999971  0.000029  0.500000  1
  B  B20  1  0.500025  0.499975  0.000000  1
  B  B21  1  0.900082  0.900004  0.200032  1
  B  B22  1  0.299726  0.299704  0.400146  1
  B  B23  1  0.700296  0.700274  0.599854  1
  B  B24  1  0.099996  0.099918  0.799968  1
  B  B25  1  0.850405  0.752590  0.400447  1
  B  B26  1  0.247410  0.149595  0.599553  1
  B  B27  1  0.649893  0.549953  0.799909  1
  B  B28  1  0.050016  0.949984  0.000000  1
  B  B29  1  0.450047  0.350107  0.200091  1
  B  B30  1  0.389907  0.939959  0.220102  1
  B  B31  1  0.790755  0.337083  0.420334  1
  B  B32  1  0.189733  0.741034  0.618831  1
  B  B33  1  0.590030  0.140086  0.819850  1
  B  B34  1  0.989981  0.540009  0.020013  1
  B  B35  1  0.662917  0.209245  0.579666  1
  B  B36  1  0.060041  0.610092  0.779898  1
  B  B37  1  0.459991  0.010019  0.979987  1
  B  B38  1  0.859914  0.409970  0.180150  1
  B  B39  1  0.258966  0.810267  0.381169  1
  O  O40  1  0.640412  0.359588  0.000000  1
  O  O41  1  0.040294  0.759355  0.200020  1
  O  O42  1  0.440347  0.159718  0.400276  1
  O  O43  1  0.840282  0.559653  0.599724  1
  O  O44  1  0.240645  0.959706  0.799980  1
  O  O45  1  0.471962  0.612258  0.056170  1
  O  O46  1  0.872316  0.012006  0.256257  1
  O  O47  1  0.271496  0.412678  0.456034  1
  O  O48  1  0.672175  0.812086  0.656173  1
  O  O49  1  0.071845  0.212218  0.856126  1
  O  O50  1  0.387742  0.528038  0.943830  1
  O  O51  1  0.787782  0.928155  0.143874  1
  O  O52  1  0.187914  0.327825  0.343827  1
  O  O53  1  0.587322  0.728504  0.543966  1
  O  O54  1  0.987994  0.127684  0.743743  1
  O  O55  1  0.909761  0.090239  0.000000  1
  O  O56  1  0.309689  0.490396  0.200098  1
  O  O57  1  0.707803  0.889953  0.399658  1
  O  O58  1  0.110047  0.292197  0.600342  1
  O  O59  1  0.509604  0.690311  0.799902  1
  O  O60  1  0.417892  0.828021  0.163877  1
  O  O61  1  0.817246  0.228575  0.363197  1
  O  O62  1  0.219209  0.625162  0.564128  1
  O  O63  1  0.618234  0.027896  0.763682  1
  O  O64  1  0.018041  0.427793  0.963903  1
  O  O65  1  0.171979  0.582108  0.836123  1
  O  O66  1  0.572207  0.981959  0.036097  1
  O  O67  1  0.972104  0.381766  0.236318  1
  O  O68  1  0.374838  0.780791  0.435872  1
  O  O69  1  0.771425  0.182754  0.636803  1
  O  O70  1  0.082954  0.850623  0.940453  1
  O  O71  1  0.482854  0.250702  0.140510  1
  O  O72  1  0.884487  0.650563  0.341638  1
  O  O73  1  0.278533  0.049663  0.539820  1
  O  O74  1  0.682631  0.450736  0.740379  1
  O  O75  1  0.712906  0.117334  0.871595  1
  O  O76  1  0.113040  0.517323  0.071667  1
  O  O77  1  0.513201  0.917210  0.271609  1
  O  O78  1  0.914356  0.312386  0.472174  1
  O  O79  1  0.310228  0.719404  0.671466  1
  O  O80  1  0.731513  0.559558  0.178946  1
  O  O81  1  0.129167  0.959712  0.380907  1
  O  O82  1  0.532436  0.357033  0.577815  1
  O  O83  1  0.931748  0.759799  0.778421  1
  O  O84  1  0.331473  0.159499  0.978727  1
  O  O85  1  0.440442  0.268487  0.821054  1
  O  O86  1  0.840501  0.668527  0.021273  1
  O  O87  1  0.240201  0.068252  0.221579  1
  O  O88  1  0.642967  0.467564  0.422185  1
  O  O89  1  0.040288  0.870833  0.619093  1
  O  O90  1  0.149377  0.917046  0.059547  1
  O  O91  1  0.549264  0.317369  0.259621  1
  O  O92  1  0.950337  0.721467  0.460180  1
  O  O93  1  0.349437  0.115513  0.658362  1
  O  O94  1  0.749298  0.517146  0.859490  1
  O  O95  1  0.882666  0.287094  0.128405  1
  O  O96  1  0.280596  0.689772  0.328534  1
  O  O97  1  0.687614  0.085644  0.527826  1
  O  O98  1  0.082790  0.486799  0.728391  1
  O  O99  1  0.482677  0.886960  0.928333  1
