# generated using pymatgen
data_Er7UAlPd24
_symmetry_space_group_name_H-M   'P 1'
_cell_length_a   8.29472286
_cell_length_b   8.29472354
_cell_length_c   8.29472400
_cell_angle_alpha   89.84371768
_cell_angle_beta   90.15628233
_cell_angle_gamma   90.15627285
_symmetry_Int_Tables_number   1
_chemical_formula_structural   Er7UAlPd24
_chemical_formula_sum   'Er7 U1 Al1 Pd24'
_cell_volume   570.69083464
_cell_formula_units_Z   1
loop_
 _symmetry_equiv_pos_site_id
 _symmetry_equiv_pos_as_xyz
  1  'x, y, z'
loop_
 _atom_site_type_symbol
 _atom_site_label
 _atom_site_symmetry_multiplicity
 _atom_site_fract_x
 _atom_site_fract_y
 _atom_site_fract_z
 _atom_site_occupancy
  Er  Er0  1  0.251028  0.252403  0.252403  1
  Er  Er1  1  0.747840  0.747675  0.747675  1
  Er  Er2  1  0.747597  0.748972  0.252403  1
  Er  Er3  1  0.747597  0.252403  0.748972  1
  Er  Er4  1  0.252325  0.252160  0.747675  1
  Er  Er5  1  0.252325  0.747675  0.252160  1
  Er  Er6  1  0.252920  0.747080  0.747080  1
  U  U7  1  0.745349  0.254651  0.254651  1
  Al  Al8  1  0.002055  0.997945  0.997945  1
  Pd  Pd9  1  0.258927  0.499086  0.000089  1
  Pd  Pd10  1  0.741004  0.497647  0.004294  1
  Pd  Pd11  1  0.995706  0.258996  0.497647  1
  Pd  Pd12  1  0.502353  0.258996  0.004294  1
  Pd  Pd13  1  0.999911  0.741073  0.499086  1
  Pd  Pd14  1  0.500914  0.741073  0.000089  1
  Pd  Pd15  1  0.502353  0.004294  0.258996  1
  Pd  Pd16  1  0.258927  0.000089  0.499086  1
  Pd  Pd17  1  0.500914  0.000089  0.741073  1
  Pd  Pd18  1  0.741004  0.004294  0.497647  1
  Pd  Pd19  1  0.995706  0.497647  0.258996  1
  Pd  Pd20  1  0.999911  0.499086  0.741073  1
  Pd  Pd21  1  0.252243  0.499457  0.499457  1
  Pd  Pd22  1  0.747005  0.497657  0.497657  1
  Pd  Pd23  1  0.502343  0.252995  0.497657  1
  Pd  Pd24  1  0.500543  0.747757  0.499457  1
  Pd  Pd25  1  0.502343  0.497657  0.252995  1
  Pd  Pd26  1  0.500543  0.499457  0.747757  1
  Pd  Pd27  1  0.288615  0.999715  0.999715  1
  Pd  Pd28  1  0.713574  0.002222  0.002222  1
  Pd  Pd29  1  0.997778  0.286426  0.002222  1
  Pd  Pd30  1  0.000285  0.711385  0.999715  1
  Pd  Pd31  1  0.997778  0.002222  0.286426  1
  Pd  Pd32  1  0.000285  0.999715  0.711385  1
