# generated using pymatgen
data_Pr10Al3GaRu6
_symmetry_space_group_name_H-M   'P 1'
_cell_length_a   8.60768222
_cell_length_b   8.60768119
_cell_length_c   8.60768156
_cell_angle_alpha   109.49332425
_cell_angle_beta   109.49331973
_cell_angle_gamma   109.49332817
_symmetry_Int_Tables_number   1
_chemical_formula_structural   Pr10Al3GaRu6
_chemical_formula_sum   'Pr10 Al3 Ga1 Ru6'
_cell_volume   490.54717849
_cell_formula_units_Z   1
loop_
 _symmetry_equiv_pos_site_id
 _symmetry_equiv_pos_as_xyz
  1  'x, y, z'
loop_
 _atom_site_type_symbol
 _atom_site_label
 _atom_site_symmetry_multiplicity
 _atom_site_fract_x
 _atom_site_fract_y
 _atom_site_fract_z
 _atom_site_occupancy
  Pr  Pr0  1  0.251569  0.685178  0.435818  1
  Pr  Pr1  1  0.749301  0.814757  0.063370  1
  Pr  Pr2  1  0.435818  0.251569  0.685178  1
  Pr  Pr3  1  0.685178  0.435818  0.251569  1
  Pr  Pr4  1  0.063370  0.749301  0.814757  1
  Pr  Pr5  1  0.814757  0.063370  0.749301  1
  Pr  Pr6  1  0.215495  0.215495  0.215495  1
  Pr  Pr7  1  0.500009  0.999245  0.284240  1
  Pr  Pr8  1  0.284240  0.500009  0.999245  1
  Pr  Pr9  1  0.999245  0.284240  0.500009  1
  Al  Al10  1  0.499538  0.001279  0.910171  1
  Al  Al11  1  0.910171  0.499538  0.001279  1
  Al  Al12  1  0.001279  0.910171  0.499538  1
  Ga  Ga13  1  0.589404  0.589404  0.589404  1
  Ru  Ru14  1  0.250034  0.117768  0.867814  1
  Ru  Ru15  1  0.750993  0.380315  0.633705  1
  Ru  Ru16  1  0.867813  0.250034  0.117768  1
  Ru  Ru17  1  0.117768  0.867813  0.250034  1
  Ru  Ru18  1  0.633705  0.750993  0.380315  1
  Ru  Ru19  1  0.380315  0.633705  0.750993  1
