# generated using pymatgen
data_Ce5Nd5(Pb3Cl)2
_symmetry_space_group_name_H-M   'P 1'
_cell_length_a   9.45500500
_cell_length_b   9.47073877
_cell_length_c   6.79455900
_cell_angle_alpha   90.00000000
_cell_angle_beta   90.00000000
_cell_angle_gamma   119.94506322
_symmetry_Int_Tables_number   1
_chemical_formula_structural   Ce5Nd5(Pb3Cl)2
_chemical_formula_sum   'Ce5 Nd5 Pb6 Cl2'
_cell_volume   527.20276195
_cell_formula_units_Z   1
loop_
 _symmetry_equiv_pos_site_id
 _symmetry_equiv_pos_as_xyz
  1  'x, y, z'
loop_
 _atom_site_type_symbol
 _atom_site_label
 _atom_site_symmetry_multiplicity
 _atom_site_fract_x
 _atom_site_fract_y
 _atom_site_fract_z
 _atom_site_occupancy
  Ce  Ce0  1  0.260919  0.000000  0.250000  1
  Ce  Ce1  1  0.333362  0.667352  0.999692  1
  Ce  Ce2  1  0.666011  0.332648  0.999692  1
  Ce  Ce3  1  0.666011  0.332648  0.500308  1
  Ce  Ce4  1  0.333362  0.667352  0.500308  1
  Nd  Nd5  1  0.738806  0.000000  0.750000  1
  Nd  Nd6  1  0.999966  0.261172  0.250000  1
  Nd  Nd7  1  0.000406  0.738923  0.750000  1
  Nd  Nd8  1  0.738794  0.738828  0.250000  1
  Nd  Nd9  1  0.261483  0.261077  0.750000  1
  Pb  Pb10  1  0.611548  0.000000  0.250000  1
  Pb  Pb11  1  0.389072  0.000000  0.750000  1
  Pb  Pb12  1  0.999513  0.610911  0.250000  1
  Pb  Pb13  1  0.000213  0.388938  0.750000  1
  Pb  Pb14  1  0.388601  0.389089  0.250000  1
  Pb  Pb15  1  0.611274  0.611062  0.750000  1
  Cl  Cl16  1  0.000330  0.000000  0.000047  1
  Cl  Cl17  1  0.000330  0.000000  0.499953  1
