# generated using pymatgen
data_Pr2Er3HgPb3
_symmetry_space_group_name_H-M   'P 1'
_cell_length_a   7.97249200
_cell_length_b   8.45152300
_cell_length_c   15.73835500
_cell_angle_alpha   90.00000000
_cell_angle_beta   90.00000000
_cell_angle_gamma   90.00000000
_symmetry_Int_Tables_number   1
_chemical_formula_structural   Pr2Er3HgPb3
_chemical_formula_sum   'Pr8 Er12 Hg4 Pb12'
_cell_volume   1060.44563061
_cell_formula_units_Z   4
loop_
 _symmetry_equiv_pos_site_id
 _symmetry_equiv_pos_as_xyz
  1  'x, y, z'
loop_
 _atom_site_type_symbol
 _atom_site_label
 _atom_site_symmetry_multiplicity
 _atom_site_fract_x
 _atom_site_fract_y
 _atom_site_fract_z
 _atom_site_occupancy
  Pr  Pr0  1  0.491641  0.682807  0.593233  1
  Pr  Pr1  1  0.991641  0.817193  0.906767  1
  Pr  Pr2  1  0.508359  0.317193  0.093233  1
  Pr  Pr3  1  0.008359  0.182807  0.406767  1
  Pr  Pr4  1  0.508359  0.317193  0.406767  1
  Pr  Pr5  1  0.008359  0.182807  0.093233  1
  Pr  Pr6  1  0.491641  0.682807  0.906767  1
  Pr  Pr7  1  0.991641  0.817193  0.593233  1
  Er  Er8  1  0.656369  0.165830  0.627116  1
  Er  Er9  1  0.156369  0.334170  0.872884  1
  Er  Er10  1  0.343631  0.834170  0.127116  1
  Er  Er11  1  0.843631  0.665830  0.372884  1
  Er  Er12  1  0.343631  0.834170  0.372884  1
  Er  Er13  1  0.843631  0.665830  0.127116  1
  Er  Er14  1  0.656369  0.165830  0.872884  1
  Er  Er15  1  0.156369  0.334170  0.627116  1
  Er  Er16  1  0.809289  0.497262  0.750000  1
  Er  Er17  1  0.309289  0.002738  0.750000  1
  Er  Er18  1  0.190711  0.502738  0.250000  1
  Er  Er19  1  0.690711  0.997262  0.250000  1
  Hg  Hg20  1  0.455922  0.372831  0.750000  1
  Hg  Hg21  1  0.955922  0.127169  0.750000  1
  Hg  Hg22  1  0.544078  0.627169  0.250000  1
  Hg  Hg23  1  0.044078  0.872831  0.250000  1
  Pb  Pb24  1  0.689525  0.960254  0.458815  1
  Pb  Pb25  1  0.189525  0.539746  0.041185  1
  Pb  Pb26  1  0.310475  0.039746  0.958815  1
  Pb  Pb27  1  0.810475  0.460254  0.541185  1
  Pb  Pb28  1  0.310475  0.039746  0.541185  1
  Pb  Pb29  1  0.810475  0.460254  0.958815  1
  Pb  Pb30  1  0.689525  0.960254  0.041185  1
  Pb  Pb31  1  0.189525  0.539746  0.458815  1
  Pb  Pb32  1  0.689820  0.859751  0.750000  1
  Pb  Pb33  1  0.189820  0.640249  0.750000  1
  Pb  Pb34  1  0.310180  0.140249  0.250000  1
  Pb  Pb35  1  0.810180  0.359751  0.250000  1
