# generated using pymatgen
data_Sc4Ge2B4Ru9Pt
_symmetry_space_group_name_H-M   'P 1'
_cell_length_a   9.40618224
_cell_length_b   9.39831029
_cell_length_c   3.04112500
_cell_angle_alpha   90.00000000
_cell_angle_beta   90.00000000
_cell_angle_gamma   89.86773307
_symmetry_Int_Tables_number   1
_chemical_formula_structural   Sc4Ge2B4Ru9Pt
_chemical_formula_sum   'Sc4 Ge2 B4 Ru9 Pt1'
_cell_volume   268.84148283
_cell_formula_units_Z   1
loop_
 _symmetry_equiv_pos_site_id
 _symmetry_equiv_pos_as_xyz
  1  'x, y, z'
loop_
 _atom_site_type_symbol
 _atom_site_label
 _atom_site_symmetry_multiplicity
 _atom_site_fract_x
 _atom_site_fract_y
 _atom_site_fract_z
 _atom_site_occupancy
  Sc  Sc0  1  0.676908  0.173747  0.000000  1
  Sc  Sc1  1  0.329160  0.818375  0.000000  1
  Sc  Sc2  1  0.172808  0.334405  0.000000  1
  Sc  Sc3  1  0.825902  0.675182  0.000000  1
  Ge  Ge4  1  0.989773  0.996713  0.000000  1
  Ge  Ge5  1  0.500120  0.500555  0.000000  1
  B  B6  1  0.123326  0.624507  0.000000  1
  B  B7  1  0.876842  0.376433  0.000000  1
  B  B8  1  0.622881  0.873788  0.000000  1
  B  B9  1  0.386681  0.126676  0.000000  1
  Ru  Ru10  1  0.781837  0.928177  0.500000  1
  Ru  Ru11  1  0.073138  0.788813  0.500000  1
  Ru  Ru12  1  0.713395  0.426915  0.500000  1
  Ru  Ru13  1  0.931801  0.212781  0.500000  1
  Ru  Ru14  1  0.286496  0.570597  0.500000  1
  Ru  Ru15  1  0.569935  0.712189  0.500000  1
  Ru  Ru16  1  0.428547  0.286434  0.500000  1
  Ru  Ru17  1  0.497793  0.999048  0.500000  1
  Ru  Ru18  1  0.998643  0.502162  0.500000  1
  Pt  Pt19  1  0.214015  0.072504  0.500000  1
