# generated using pymatgen
data_Tb2Dy5Y(WO6)4
_symmetry_space_group_name_H-M   'P 1'
_cell_length_a   5.40923900
_cell_length_b   7.71998610
_cell_length_c   11.50404102
_cell_angle_alpha   75.51830170
_cell_angle_beta   90.00000000
_cell_angle_gamma   90.00000000
_symmetry_Int_Tables_number   1
_chemical_formula_structural   Tb2Dy5Y(WO6)4
_chemical_formula_sum   'Tb2 Dy5 Y1 W4 O24'
_cell_volume   465.13664403
_cell_formula_units_Z   1
loop_
 _symmetry_equiv_pos_site_id
 _symmetry_equiv_pos_as_xyz
  1  'x, y, z'
loop_
 _atom_site_type_symbol
 _atom_site_label
 _atom_site_symmetry_multiplicity
 _atom_site_fract_x
 _atom_site_fract_y
 _atom_site_fract_z
 _atom_site_occupancy
  Tb  Tb0  1  0.683833  0.500000  0.750000  1
  Tb  Tb1  1  0.316151  0.500000  0.250000  1
  Dy  Dy2  1  0.261407  0.000000  0.250000  1
  Dy  Dy3  1  0.187028  0.796070  0.577641  1
  Dy  Dy4  1  0.812982  0.796077  0.077676  1
  Dy  Dy5  1  0.187028  0.203930  0.922359  1
  Dy  Dy6  1  0.812982  0.203923  0.422324  1
  Y  Y7  1  0.738809  0.000000  0.750000  1
  W  W8  1  0.254155  0.722971  0.885669  1
  W  W9  1  0.745847  0.723075  0.385635  1
  W  W10  1  0.254155  0.277029  0.614331  1
  W  W11  1  0.745847  0.276925  0.114365  1
  O  O12  1  0.041535  0.939219  0.895447  1
  O  O13  1  0.528855  0.849245  0.930828  1
  O  O14  1  0.958752  0.939276  0.395313  1
  O  O15  1  0.459112  0.788878  0.728192  1
  O  O16  1  0.470998  0.849355  0.430692  1
  O  O17  1  0.983225  0.710162  0.771429  1
  O  O18  1  0.540544  0.789140  0.228202  1
  O  O19  1  0.851353  0.635629  0.547767  1
  O  O20  1  0.361487  0.490179  0.887000  1
  O  O21  1  0.016874  0.710299  0.271418  1
  O  O22  1  0.361487  0.509821  0.613000  1
  O  O23  1  0.851353  0.364371  0.952233  1
  O  O24  1  0.148650  0.635627  0.047776  1
  O  O25  1  0.638504  0.490187  0.386999  1
  O  O26  1  0.983225  0.289838  0.728571  1
  O  O27  1  0.638504  0.509813  0.113001  1
  O  O28  1  0.148650  0.364373  0.452224  1
  O  O29  1  0.459112  0.211122  0.771808  1
  O  O30  1  0.016874  0.289701  0.228582  1
  O  O31  1  0.528855  0.150755  0.569172  1
  O  O32  1  0.540544  0.210860  0.271798  1
  O  O33  1  0.041535  0.060781  0.604553  1
  O  O34  1  0.470998  0.150645  0.069308  1
  O  O35  1  0.958752  0.060724  0.104687  1
