# generated using pymatgen
data_Yb6CrTcN6
_symmetry_space_group_name_H-M   'P 1'
_cell_length_a   6.57446656
_cell_length_b   6.57446591
_cell_length_c   5.00266500
_cell_angle_alpha   90.00000000
_cell_angle_beta   90.00000000
_cell_angle_gamma   100.81721443
_symmetry_Int_Tables_number   1
_chemical_formula_structural   Yb6CrTcN6
_chemical_formula_sum   'Yb6 Cr1 Tc1 N6'
_cell_volume   212.39095419
_cell_formula_units_Z   1
loop_
 _symmetry_equiv_pos_site_id
 _symmetry_equiv_pos_as_xyz
  1  'x, y, z'
loop_
 _atom_site_type_symbol
 _atom_site_label
 _atom_site_symmetry_multiplicity
 _atom_site_fract_x
 _atom_site_fract_y
 _atom_site_fract_z
 _atom_site_occupancy
  Yb  Yb0  1  0.595146  0.831086  0.250000  1
  Yb  Yb1  1  0.890656  0.109344  0.750000  1
  Yb  Yb2  1  0.831464  0.597036  0.750000  1
  Yb  Yb3  1  0.107771  0.892229  0.250000  1
  Yb  Yb4  1  0.402964  0.168536  0.750000  1
  Yb  Yb5  1  0.168914  0.404854  0.250000  1
  Cr  Cr6  1  0.695071  0.304929  0.250000  1
  Tc  Tc7  1  0.310571  0.689429  0.750000  1
  N  N8  1  0.585179  0.828998  0.750000  1
  N  N9  1  0.871514  0.128486  0.250000  1
  N  N10  1  0.117549  0.882451  0.750000  1
  N  N11  1  0.820137  0.567940  0.250000  1
  N  N12  1  0.432060  0.179863  0.250000  1
  N  N13  1  0.171002  0.414821  0.750000  1
