# generated using pymatgen
data_Dy16CdCo3Hg3Ir
_symmetry_space_group_name_H-M   'P 1'
_cell_length_a   9.52115970
_cell_length_b   9.49355494
_cell_length_c   9.49355500
_cell_angle_alpha   59.99999629
_cell_angle_beta   60.09585834
_cell_angle_gamma   60.09586156
_symmetry_Int_Tables_number   1
_chemical_formula_structural   Dy16CdCo3Hg3Ir
_chemical_formula_sum   'Dy16 Cd1 Co3 Hg3 Ir1'
_cell_volume   607.65953934
_cell_formula_units_Z   1
loop_
 _symmetry_equiv_pos_site_id
 _symmetry_equiv_pos_as_xyz
  1  'x, y, z'
loop_
 _atom_site_type_symbol
 _atom_site_label
 _atom_site_symmetry_multiplicity
 _atom_site_fract_x
 _atom_site_fract_y
 _atom_site_fract_z
 _atom_site_occupancy
  Dy  Dy0  1  0.594041  0.600853  0.600853  1
  Dy  Dy1  1  0.594041  0.600853  0.204254  1
  Dy  Dy2  1  0.594041  0.204254  0.600853  1
  Dy  Dy3  1  0.205353  0.598215  0.598215  1
  Dy  Dy4  1  0.065827  0.438823  0.438823  1
  Dy  Dy5  1  0.437522  0.062547  0.062547  1
  Dy  Dy6  1  0.437522  0.062547  0.437383  1
  Dy  Dy7  1  0.065827  0.438823  0.056527  1
  Dy  Dy8  1  0.437522  0.437383  0.062547  1
  Dy  Dy9  1  0.065827  0.056527  0.438823  1
  Dy  Dy10  1  0.186149  0.812995  0.812995  1
  Dy  Dy11  1  0.812168  0.188213  0.188213  1
  Dy  Dy12  1  0.812168  0.188213  0.811408  1
  Dy  Dy13  1  0.186149  0.812995  0.187862  1
  Dy  Dy14  1  0.812168  0.811408  0.188213  1
  Dy  Dy15  1  0.186149  0.187862  0.812995  1
  Cd  Cd16  1  0.511250  0.829583  0.829583  1
  Co  Co17  1  0.390920  0.391649  0.391649  1
  Co  Co18  1  0.390920  0.391649  0.825781  1
  Co  Co19  1  0.390920  0.825781  0.391649  1
  Hg  Hg20  1  0.833060  0.834232  0.834232  1
  Hg  Hg21  1  0.833060  0.834232  0.498477  1
  Hg  Hg22  1  0.833060  0.498477  0.834232  1
  Ir  Ir23  1  0.824337  0.391888  0.391888  1
