# generated using pymatgen
data_Tb4Lu4B24MoOs3
_symmetry_space_group_name_H-M   'P 1'
_cell_length_a   3.63036000
_cell_length_b   9.12136319
_cell_length_c   11.52484602
_cell_angle_alpha   89.90291360
_cell_angle_beta   90.00000000
_cell_angle_gamma   90.00000000
_symmetry_Int_Tables_number   1
_chemical_formula_structural   Tb4Lu4B24MoOs3
_chemical_formula_sum   'Tb4 Lu4 B24 Mo1 Os3'
_cell_volume   381.63126792
_cell_formula_units_Z   1
loop_
 _symmetry_equiv_pos_site_id
 _symmetry_equiv_pos_as_xyz
  1  'x, y, z'
loop_
 _atom_site_type_symbol
 _atom_site_label
 _atom_site_symmetry_multiplicity
 _atom_site_fract_x
 _atom_site_fract_y
 _atom_site_fract_z
 _atom_site_occupancy
  Tb  Tb0  1  0.000000  0.321629  0.413218  1
  Tb  Tb1  1  0.000000  0.677958  0.584920  1
  Tb  Tb2  1  0.000000  0.820195  0.087040  1
  Tb  Tb3  1  0.000000  0.177952  0.914585  1
  Lu  Lu4  1  0.000000  0.945115  0.372893  1
  Lu  Lu5  1  0.000000  0.057296  0.628163  1
  Lu  Lu6  1  0.000000  0.443515  0.126918  1
  Lu  Lu7  1  0.000000  0.556580  0.871525  1
  B  B8  1  0.500000  0.551640  0.434919  1
  B  B9  1  0.500000  0.445673  0.568410  1
  B  B10  1  0.500000  0.054139  0.067517  1
  B  B11  1  0.500000  0.945671  0.932587  1
  B  B12  1  0.500000  0.752396  0.420809  1
  B  B13  1  0.500000  0.250549  0.581785  1
  B  B14  1  0.500000  0.249840  0.080997  1
  B  B15  1  0.500000  0.749881  0.918364  1
  B  B16  1  0.500000  0.794816  0.264944  1
  B  B17  1  0.500000  0.208093  0.734401  1
  B  B18  1  0.500000  0.291388  0.232908  1
  B  B19  1  0.500000  0.708681  0.765882  1
  B  B20  1  0.500000  0.630564  0.182815  1
  B  B21  1  0.500000  0.369158  0.815378  1
  B  B22  1  0.500000  0.130334  0.314292  1
  B  B23  1  0.500000  0.870307  0.685168  1
  B  B24  1  0.500000  0.983010  0.213401  1
  B  B25  1  0.500000  0.017458  0.787281  1
  B  B26  1  0.500000  0.478421  0.285592  1
  B  B27  1  0.500000  0.516794  0.713763  1
  B  B28  1  0.500000  0.602156  0.026755  1
  B  B29  1  0.500000  0.397406  0.971012  1
  B  B30  1  0.500000  0.103110  0.472228  1
  B  B31  1  0.500000  0.899563  0.529137  1
  Mo  Mo32  1  0.000000  0.638248  0.320617  1
  Os  Os33  1  0.000000  0.360345  0.681270  1
  Os  Os34  1  0.000000  0.138469  0.178519  1
  Os  Os35  1  0.000000  0.861649  0.819987  1
