# generated using pymatgen
data_YEr4Co19(SiP3)3
_symmetry_space_group_name_H-M   'P 1'
_cell_length_a   12.02617900
_cell_length_b   12.02617966
_cell_length_c   3.67725400
_cell_angle_alpha   90.00000000
_cell_angle_beta   90.00000000
_cell_angle_gamma   120.00000093
_symmetry_Int_Tables_number   1
_chemical_formula_structural   YEr4Co19(SiP3)3
_chemical_formula_sum   'Y1 Er4 Co19 Si3 P9'
_cell_volume   460.58480684
_cell_formula_units_Z   1
loop_
 _symmetry_equiv_pos_site_id
 _symmetry_equiv_pos_as_xyz
  1  'x, y, z'
loop_
 _atom_site_type_symbol
 _atom_site_label
 _atom_site_symmetry_multiplicity
 _atom_site_fract_x
 _atom_site_fract_y
 _atom_site_fract_z
 _atom_site_occupancy
  Y  Y0  1  0.333333  0.666667  0.000000  1
  Er  Er1  1  0.666667  0.333333  0.000000  1
  Er  Er2  1  0.000024  0.184839  0.500000  1
  Er  Er3  1  0.815161  0.815184  0.500000  1
  Er  Er4  1  0.184816  0.999976  0.500000  1
  Co  Co5  1  0.622975  0.824991  0.000000  1
  Co  Co6  1  0.175009  0.797984  0.000000  1
  Co  Co7  1  0.202016  0.377025  0.000000  1
  Co  Co8  1  0.377680  0.202300  0.000000  1
  Co  Co9  1  0.824621  0.622320  0.000000  1
  Co  Co10  1  0.797700  0.175379  0.000000  1
  Co  Co11  1  0.999923  0.556497  0.000000  1
  Co  Co12  1  0.443503  0.443426  0.000000  1
  Co  Co13  1  0.556574  0.000077  0.000000  1
  Co  Co14  1  0.515451  0.642128  0.500000  1
  Co  Co15  1  0.357872  0.873322  0.500000  1
  Co  Co16  1  0.126678  0.484549  0.500000  1
  Co  Co17  1  0.485328  0.127490  0.500000  1
  Co  Co18  1  0.642162  0.514672  0.500000  1
  Co  Co19  1  0.872510  0.357838  0.500000  1
  Co  Co20  1  0.999630  0.715849  0.500000  1
  Co  Co21  1  0.284151  0.283781  0.500000  1
  Co  Co22  1  0.716219  0.000370  0.500000  1
  Co  Co23  1  0.000000  0.000000  0.000000  1
  Si  Si24  1  0.999853  0.368495  0.000000  1
  Si  Si25  1  0.631505  0.631358  0.000000  1
  Si  Si26  1  0.368642  0.000147  0.000000  1
  P  P27  1  0.520773  0.835022  0.500000  1
  P  P28  1  0.164978  0.685751  0.500000  1
  P  P29  1  0.314249  0.479227  0.500000  1
  P  P30  1  0.480205  0.314238  0.500000  1
  P  P31  1  0.834033  0.519795  0.500000  1
  P  P32  1  0.685762  0.165967  0.500000  1
  P  P33  1  0.999830  0.818530  0.000000  1
  P  P34  1  0.181470  0.181300  0.000000  1
  P  P35  1  0.818700  0.000170  0.000000  1
