# generated using pymatgen
data_Zr4TaNb3GaP3
_symmetry_space_group_name_H-M   'P 1'
_cell_length_a   3.58715100
_cell_length_b   6.99880520
_cell_length_c   8.47546917
_cell_angle_alpha   89.35155403
_cell_angle_beta   90.00000000
_cell_angle_gamma   90.00000000
_symmetry_Int_Tables_number   1
_chemical_formula_structural   Zr4TaNb3GaP3
_chemical_formula_sum   'Zr4 Ta1 Nb3 Ga1 P3'
_cell_volume   212.76956158
_cell_formula_units_Z   1
loop_
 _symmetry_equiv_pos_site_id
 _symmetry_equiv_pos_as_xyz
  1  'x, y, z'
loop_
 _atom_site_type_symbol
 _atom_site_label
 _atom_site_symmetry_multiplicity
 _atom_site_fract_x
 _atom_site_fract_y
 _atom_site_fract_z
 _atom_site_occupancy
  Zr  Zr0  1  0.250000  0.531492  0.839150  1
  Zr  Zr1  1  0.750000  0.961380  0.329641  1
  Zr  Zr2  1  0.250000  0.047038  0.669098  1
  Zr  Zr3  1  0.750000  0.464201  0.170813  1
  Ta  Ta4  1  0.750000  0.867455  0.945892  1
  Nb  Nb5  1  0.250000  0.141239  0.060561  1
  Nb  Nb6  1  0.250000  0.628223  0.432411  1
  Nb  Nb7  1  0.750000  0.360307  0.556682  1
  Ga  Ga8  1  0.750000  0.743948  0.641719  1
  P  P9  1  0.250000  0.762401  0.140906  1
  P  P10  1  0.750000  0.237624  0.855579  1
  P  P11  1  0.250000  0.254692  0.357548  1
