# generated using pymatgen
data_Tb3ZrZn2Rh3
_symmetry_space_group_name_H-M   'P 1'
_cell_length_a   7.23593700
_cell_length_b   7.23593773
_cell_length_c   4.05627200
_cell_angle_alpha   90.00000000
_cell_angle_beta   90.00000000
_cell_angle_gamma   120.98476424
_symmetry_Int_Tables_number   1
_chemical_formula_structural   Tb3ZrZn2Rh3
_chemical_formula_sum   'Tb3 Zr1 Zn2 Rh3'
_cell_volume   182.07555077
_cell_formula_units_Z   1
loop_
 _symmetry_equiv_pos_site_id
 _symmetry_equiv_pos_as_xyz
  1  'x, y, z'
loop_
 _atom_site_type_symbol
 _atom_site_label
 _atom_site_symmetry_multiplicity
 _atom_site_fract_x
 _atom_site_fract_y
 _atom_site_fract_z
 _atom_site_occupancy
  Tb  Tb0  1  0.019347  0.580539  0.500000  1
  Tb  Tb1  1  0.384821  0.384821  0.500000  1
  Tb  Tb2  1  0.580539  0.019347  0.500000  1
  Zr  Zr3  1  0.762626  0.762626  0.000000  1
  Zn  Zn4  1  0.995293  0.245073  0.000000  1
  Zn  Zn5  1  0.245073  0.995293  0.000000  1
  Rh  Rh6  1  0.347770  0.672374  0.000000  1
  Rh  Rh7  1  0.992158  0.992158  0.500000  1
  Rh  Rh8  1  0.672374  0.347770  0.000000  1
