# generated using pymatgen
data_Nb16Fe3NiTe16
_symmetry_space_group_name_H-M   'P 1'
_cell_length_a   4.86290000
_cell_length_b   10.92513801
_cell_length_c   19.16360901
_cell_angle_alpha   89.99612378
_cell_angle_beta   90.00000000
_cell_angle_gamma   90.00000000
_symmetry_Int_Tables_number   1
_chemical_formula_structural   Nb16Fe3NiTe16
_chemical_formula_sum   'Nb16 Fe3 Ni1 Te16'
_cell_volume   1018.12141186
_cell_formula_units_Z   1
loop_
 _symmetry_equiv_pos_site_id
 _symmetry_equiv_pos_as_xyz
  1  'x, y, z'
loop_
 _atom_site_type_symbol
 _atom_site_label
 _atom_site_symmetry_multiplicity
 _atom_site_fract_x
 _atom_site_fract_y
 _atom_site_fract_z
 _atom_site_occupancy
  Nb  Nb0  1  0.498767  0.564293  0.384121  1
  Nb  Nb1  1  0.498767  0.435707  0.615879  1
  Nb  Nb2  1  0.499987  0.064236  0.115751  1
  Nb  Nb3  1  0.499987  0.935764  0.884249  1
  Nb  Nb4  1  0.498242  0.703940  0.536423  1
  Nb  Nb5  1  0.498242  0.296060  0.463577  1
  Nb  Nb6  1  0.499980  0.203408  0.963464  1
  Nb  Nb7  1  0.499980  0.796592  0.036536  1
  Nb  Nb8  1  0.002449  0.689918  0.443484  1
  Nb  Nb9  1  0.002449  0.310082  0.556516  1
  Nb  Nb10  1  0.000122  0.189271  0.056373  1
  Nb  Nb11  1  0.000122  0.810729  0.943627  1
  Nb  Nb12  1  0.000823  0.401449  0.392117  1
  Nb  Nb13  1  0.000823  0.598551  0.607883  1
  Nb  Nb14  1  0.000110  0.901829  0.107665  1
  Nb  Nb15  1  0.000110  0.098171  0.892335  1
  Fe  Fe16  1  0.750298  0.000000  0.000000  1
  Fe  Fe17  1  0.748463  0.500000  0.500000  1
  Fe  Fe18  1  0.249722  0.000000  0.000000  1
  Ni  Ni19  1  0.248486  0.500000  0.500000  1
  Te  Te20  1  0.000107  0.847473  0.562550  1
  Te  Te21  1  0.000107  0.152527  0.437450  1
  Te  Te22  1  0.000090  0.347001  0.937482  1
  Te  Te23  1  0.000090  0.652999  0.062518  1
  Te  Te24  1  0.499424  0.332156  0.316136  1
  Te  Te25  1  0.499424  0.667844  0.683864  1
  Te  Te26  1  0.499952  0.832391  0.183888  1
  Te  Te27  1  0.499952  0.167609  0.816112  1
  Te  Te28  1  0.500731  0.823702  0.403889  1
  Te  Te29  1  0.500731  0.176298  0.596111  1
  Te  Te30  1  0.500038  0.323362  0.095892  1
  Te  Te31  1  0.500038  0.676638  0.904108  1
  Te  Te32  1  0.000561  0.609133  0.301893  1
  Te  Te33  1  0.000561  0.390867  0.698107  1
  Te  Te34  1  0.000133  0.109242  0.198011  1
  Te  Te35  1  0.000133  0.890758  0.801989  1
