# generated using pymatgen
data_Ca6Zn2Cu14N
_symmetry_space_group_name_H-M   'P 1'
_cell_length_a   7.87356933
_cell_length_b   7.86199774
_cell_length_c   7.87357023
_cell_angle_alpha   109.48721478
_cell_angle_beta   109.49882529
_cell_angle_gamma   109.48721896
_symmetry_Int_Tables_number   1
_chemical_formula_structural   Ca6Zn2Cu14N
_chemical_formula_sum   'Ca6 Zn2 Cu14 N1'
_cell_volume   374.91648964
_cell_formula_units_Z   1
loop_
 _symmetry_equiv_pos_site_id
 _symmetry_equiv_pos_as_xyz
  1  'x, y, z'
loop_
 _atom_site_type_symbol
 _atom_site_label
 _atom_site_symmetry_multiplicity
 _atom_site_fract_x
 _atom_site_fract_y
 _atom_site_fract_z
 _atom_site_occupancy
  Ca  Ca0  1  0.002898  0.268625  0.265727  1
  Ca  Ca1  1  0.265818  0.000000  0.265818  1
  Ca  Ca2  1  0.734182  0.000000  0.734182  1
  Ca  Ca3  1  0.734273  0.731375  0.997102  1
  Ca  Ca4  1  0.265727  0.268625  0.002898  1
  Ca  Ca5  1  0.997102  0.731375  0.734273  1
  Zn  Zn6  1  0.500000  0.000000  0.000000  1
  Zn  Zn7  1  0.000000  0.000000  0.500000  1
  Cu  Cu8  1  0.500000  0.500000  0.500000  1
  Cu  Cu9  1  0.000000  0.500000  0.000000  1
  Cu  Cu10  1  0.676446  0.339051  0.338928  1
  Cu  Cu11  1  0.338307  0.000000  0.661693  1
  Cu  Cu12  1  0.338200  0.676399  0.338200  1
  Cu  Cu13  1  0.338928  0.339051  0.676446  1
  Cu  Cu14  1  0.337396  0.660949  0.999877  1
  Cu  Cu15  1  0.000123  0.339051  0.662604  1
  Cu  Cu16  1  0.999877  0.660949  0.337396  1
  Cu  Cu17  1  0.661072  0.660949  0.323554  1
  Cu  Cu18  1  0.661693  0.000000  0.338307  1
  Cu  Cu19  1  0.662604  0.339051  0.000123  1
  Cu  Cu20  1  0.661800  0.323601  0.661800  1
  Cu  Cu21  1  0.323554  0.660949  0.661072  1
  N  N22  1  0.000000  0.000000  0.000000  1
