# generated using pymatgen
data_Ta4Mn3Al2Cr3
_symmetry_space_group_name_H-M   'P 1'
_cell_length_a   4.86836631
_cell_length_b   4.87136316
_cell_length_c   8.15511900
_cell_angle_alpha   90.00000000
_cell_angle_beta   90.00000000
_cell_angle_gamma   120.02036610
_symmetry_Int_Tables_number   1
_chemical_formula_structural   Ta4Mn3Al2Cr3
_chemical_formula_sum   'Ta4 Mn3 Al2 Cr3'
_cell_volume   167.45785580
_cell_formula_units_Z   1
loop_
 _symmetry_equiv_pos_site_id
 _symmetry_equiv_pos_as_xyz
  1  'x, y, z'
loop_
 _atom_site_type_symbol
 _atom_site_label
 _atom_site_symmetry_multiplicity
 _atom_site_fract_x
 _atom_site_fract_y
 _atom_site_fract_z
 _atom_site_occupancy
  Ta  Ta0  1  0.334164  0.667083  0.434583  1
  Ta  Ta1  1  0.668641  0.334320  0.933272  1
  Ta  Ta2  1  0.668641  0.334320  0.566728  1
  Ta  Ta3  1  0.334164  0.667083  0.065417  1
  Mn  Mn4  1  0.172426  0.345409  0.750000  1
  Mn  Mn5  1  0.172426  0.827018  0.750000  1
  Mn  Mn6  1  0.343727  0.171863  0.250000  1
  Al  Al7  1  0.004946  0.002473  0.999038  1
  Al  Al8  1  0.004946  0.002473  0.500962  1
  Cr  Cr9  1  0.825028  0.650887  0.250000  1
  Cr  Cr10  1  0.645864  0.822932  0.750000  1
  Cr  Cr11  1  0.825028  0.174141  0.250000  1
