# generated using pymatgen
data_Sr2DyPa7O20
_symmetry_space_group_name_H-M   'P 1'
_cell_length_a   6.73495607
_cell_length_b   7.77343363
_cell_length_c   8.67200100
_cell_angle_alpha   103.27965473
_cell_angle_beta   96.86507859
_cell_angle_gamma   106.97690462
_symmetry_Int_Tables_number   1
_chemical_formula_structural   Sr2DyPa7O20
_chemical_formula_sum   'Sr2 Dy1 Pa7 O20'
_cell_volume   414.03723520
_cell_formula_units_Z   1
loop_
 _symmetry_equiv_pos_site_id
 _symmetry_equiv_pos_as_xyz
  1  'x, y, z'
loop_
 _atom_site_type_symbol
 _atom_site_label
 _atom_site_symmetry_multiplicity
 _atom_site_fract_x
 _atom_site_fract_y
 _atom_site_fract_z
 _atom_site_occupancy
  Sr  Sr0  1  0.394242  0.296331  0.798024  1
  Sr  Sr1  1  0.200537  0.901599  0.399681  1
  Dy  Dy2  1  0.004005  0.999854  0.001245  1
  Pa  Pa3  1  0.801323  0.603091  0.602481  1
  Pa  Pa4  1  0.596652  0.197607  0.197251  1
  Pa  Pa5  1  0.997399  0.499870  0.998587  1
  Pa  Pa6  1  0.799408  0.100419  0.603152  1
  Pa  Pa7  1  0.404922  0.801913  0.802421  1
  Pa  Pa8  1  0.197165  0.398912  0.398177  1
  Pa  Pa9  1  0.604571  0.700702  0.198219  1
  O  O10  1  0.835000  0.328675  0.445327  1
  O  O11  1  0.651977  0.924512  0.049526  1
  O  O12  1  0.934585  0.759579  0.136558  1
  O  O13  1  0.456380  0.541501  0.639838  1
  O  O14  1  0.827404  0.817650  0.454984  1
  O  O15  1  0.657795  0.426223  0.062429  1
  O  O16  1  0.768066  0.385580  0.745103  1
  O  O17  1  0.262293  0.149179  0.247908  1
  O  O18  1  0.942802  0.278325  0.157864  1
  O  O19  1  0.477878  0.010734  0.656191  1
  O  O20  1  0.573980  0.979609  0.342146  1
  O  O21  1  0.052463  0.720526  0.846741  1
  O  O22  1  0.759323  0.869636  0.752734  1
  O  O23  1  0.349680  0.595272  0.957734  1
  O  O24  1  0.256977  0.604427  0.242281  1
  O  O25  1  0.554136  0.477428  0.350498  1
  O  O26  1  0.117495  0.188589  0.541649  1
  O  O27  1  0.023304  0.228123  0.856605  1
  O  O28  1  0.357115  0.056813  0.957561  1
  O  O29  1  0.141122  0.657319  0.557087  1
