# generated using pymatgen
data_Sm3Y(B4W)4
_symmetry_space_group_name_H-M   'P 1'
_cell_length_a   6.08104301
_cell_length_b   11.75899895
_cell_length_c   3.66583100
_cell_angle_alpha   90.00000000
_cell_angle_beta   90.00000000
_cell_angle_gamma   89.93400808
_symmetry_Int_Tables_number   1
_chemical_formula_structural   Sm3Y(B4W)4
_chemical_formula_sum   'Sm3 Y1 B16 W4'
_cell_volume   262.13232408
_cell_formula_units_Z   1
loop_
 _symmetry_equiv_pos_site_id
 _symmetry_equiv_pos_as_xyz
  1  'x, y, z'
loop_
 _atom_site_type_symbol
 _atom_site_label
 _atom_site_symmetry_multiplicity
 _atom_site_fract_x
 _atom_site_fract_y
 _atom_site_fract_z
 _atom_site_occupancy
  Sm  Sm0  1  0.626238  0.349922  0.000000  1
  Sm  Sm1  1  0.373729  0.650378  0.000000  1
  Sm  Sm2  1  0.126152  0.149805  0.000000  1
  Y  Y3  1  0.873640  0.850442  0.000000  1
  B  B4  1  0.784460  0.185107  0.500000  1
  B  B5  1  0.213430  0.814535  0.500000  1
  B  B6  1  0.284431  0.314323  0.500000  1
  B  B7  1  0.715646  0.686877  0.500000  1
  B  B8  1  0.865164  0.030921  0.500000  1
  B  B9  1  0.134533  0.967130  0.500000  1
  B  B10  1  0.364648  0.468169  0.500000  1
  B  B11  1  0.635480  0.532562  0.500000  1
  B  B12  1  0.887254  0.453721  0.500000  1
  B  B13  1  0.112408  0.547181  0.500000  1
  B  B14  1  0.387854  0.045903  0.500000  1
  B  B15  1  0.614346  0.952323  0.500000  1
  B  B16  1  0.975992  0.308126  0.500000  1
  B  B17  1  0.023008  0.693398  0.500000  1
  B  B18  1  0.476079  0.191438  0.500000  1
  B  B19  1  0.525145  0.807832  0.500000  1
  W  W20  1  0.630159  0.083216  0.000000  1
  W  W21  1  0.370430  0.915603  0.000000  1
  W  W22  1  0.129571  0.416331  0.000000  1
  W  W23  1  0.870205  0.584757  0.000000  1
