# generated using pymatgen
data_Tm2Si2IrRu
_symmetry_space_group_name_H-M   'P 1'
_cell_length_a   4.22512200
_cell_length_b   6.82885249
_cell_length_c   7.28530758
_cell_angle_alpha   89.74127157
_cell_angle_beta   90.00000000
_cell_angle_gamma   90.00000000
_symmetry_Int_Tables_number   1
_chemical_formula_structural   Tm2Si2IrRu
_chemical_formula_sum   'Tm4 Si4 Ir2 Ru2'
_cell_volume   210.19890489
_cell_formula_units_Z   2
loop_
 _symmetry_equiv_pos_site_id
 _symmetry_equiv_pos_as_xyz
  1  'x, y, z'
loop_
 _atom_site_type_symbol
 _atom_site_label
 _atom_site_symmetry_multiplicity
 _atom_site_fract_x
 _atom_site_fract_y
 _atom_site_fract_z
 _atom_site_occupancy
  Tm  Tm0  1  0.250000  0.501900  0.187640  1
  Tm  Tm1  1  0.750000  0.498100  0.812360  1
  Tm  Tm2  1  0.750000  0.005964  0.686519  1
  Tm  Tm3  1  0.250000  0.994036  0.313481  1
  Si  Si4  1  0.250000  0.798466  0.884430  1
  Si  Si5  1  0.750000  0.201534  0.115570  1
  Si  Si6  1  0.750000  0.700546  0.396016  1
  Si  Si7  1  0.250000  0.299454  0.603984  1
  Ir  Ir8  1  0.750000  0.841694  0.063898  1
  Ir  Ir9  1  0.250000  0.158306  0.936102  1
  Ru  Ru10  1  0.250000  0.656681  0.565189  1
  Ru  Ru11  1  0.750000  0.343319  0.434811  1
