# generated using pymatgen
data_Dy3Ho7Sn5Bi
_symmetry_space_group_name_H-M   'P 1'
_cell_length_a   8.97678600
_cell_length_b   8.97002640
_cell_length_c   6.49667400
_cell_angle_alpha   90.00000000
_cell_angle_beta   90.00000000
_cell_angle_gamma   120.02492387
_symmetry_Int_Tables_number   1
_chemical_formula_structural   Dy3Ho7Sn5Bi
_chemical_formula_sum   'Dy3 Ho7 Sn5 Bi1'
_cell_volume   452.92591650
_cell_formula_units_Z   1
loop_
 _symmetry_equiv_pos_site_id
 _symmetry_equiv_pos_as_xyz
  1  'x, y, z'
loop_
 _atom_site_type_symbol
 _atom_site_label
 _atom_site_symmetry_multiplicity
 _atom_site_fract_x
 _atom_site_fract_y
 _atom_site_fract_z
 _atom_site_occupancy
  Dy  Dy0  1  0.994687  0.757799  0.750000  1
  Dy  Dy1  1  0.764834  0.000000  0.750000  1
  Dy  Dy2  1  0.236888  0.242201  0.750000  1
  Ho  Ho3  1  0.000420  0.238996  0.250000  1
  Ho  Ho4  1  0.761424  0.761004  0.250000  1
  Ho  Ho5  1  0.237513  0.000000  0.250000  1
  Ho  Ho6  1  0.332587  0.662781  0.498376  1
  Ho  Ho7  1  0.669807  0.337219  0.001624  1
  Ho  Ho8  1  0.669807  0.337219  0.498376  1
  Ho  Ho9  1  0.332587  0.662781  0.001624  1
  Sn  Sn10  1  0.395402  0.394262  0.250000  1
  Sn  Sn11  1  0.001140  0.605738  0.250000  1
  Sn  Sn12  1  0.999672  0.395769  0.750000  1
  Sn  Sn13  1  0.603903  0.604231  0.750000  1
  Sn  Sn14  1  0.605250  0.000000  0.250000  1
  Bi  Bi15  1  0.394079  0.000000  0.750000  1
