# generated using pymatgen
data_Tb5Dy4Th3Co4
_symmetry_space_group_name_H-M   'P 1'
_cell_length_a   6.32284616
_cell_length_b   6.90703233
_cell_length_c   9.61042251
_cell_angle_alpha   89.99207254
_cell_angle_beta   90.06389569
_cell_angle_gamma   91.05830279
_symmetry_Int_Tables_number   1
_chemical_formula_structural   Tb5Dy4Th3Co4
_chemical_formula_sum   'Tb5 Dy4 Th3 Co4'
_cell_volume   419.63550198
_cell_formula_units_Z   1
loop_
 _symmetry_equiv_pos_site_id
 _symmetry_equiv_pos_as_xyz
  1  'x, y, z'
loop_
 _atom_site_type_symbol
 _atom_site_label
 _atom_site_symmetry_multiplicity
 _atom_site_fract_x
 _atom_site_fract_y
 _atom_site_fract_z
 _atom_site_occupancy
  Tb  Tb0  1  0.671675  0.327240  0.930733  1
  Tb  Tb1  1  0.643965  0.044782  0.249993  1
  Tb  Tb2  1  0.175454  0.172996  0.428689  1
  Tb  Tb3  1  0.829654  0.827498  0.569495  1
  Tb  Tb4  1  0.175120  0.172752  0.071325  1
  Dy  Dy5  1  0.829867  0.827465  0.930483  1
  Dy  Dy6  1  0.671188  0.327292  0.569269  1
  Dy  Dy7  1  0.324663  0.672185  0.070031  1
  Dy  Dy8  1  0.324931  0.671850  0.429966  1
  Th  Th9  1  0.157299  0.445057  0.749809  1
  Th  Th10  1  0.345638  0.944923  0.750235  1
  Th  Th11  1  0.842370  0.553161  0.249937  1
  Co  Co12  1  0.533124  0.627181  0.750026  1
  Co  Co13  1  0.967905  0.126717  0.750011  1
  Co  Co14  1  0.039725  0.867460  0.249648  1
  Co  Co15  1  0.467422  0.391441  0.250349  1
