# generated using pymatgen
data_Dy13Ho7(FeSb2)4
_symmetry_space_group_name_H-M   'P 1'
_cell_length_a   7.85690406
_cell_length_b   8.79004108
_cell_length_c   12.18224305
_cell_angle_alpha   90.00917950
_cell_angle_beta   89.99442950
_cell_angle_gamma   90.01239112
_symmetry_Int_Tables_number   1
_chemical_formula_structural   Dy13Ho7(FeSb2)4
_chemical_formula_sum   'Dy13 Ho7 Fe4 Sb8'
_cell_volume   841.33624099
_cell_formula_units_Z   1
loop_
 _symmetry_equiv_pos_site_id
 _symmetry_equiv_pos_as_xyz
  1  'x, y, z'
loop_
 _atom_site_type_symbol
 _atom_site_label
 _atom_site_symmetry_multiplicity
 _atom_site_fract_x
 _atom_site_fract_y
 _atom_site_fract_z
 _atom_site_occupancy
  Dy  Dy0  1  0.154669  0.750019  0.204170  1
  Dy  Dy1  1  0.345237  0.750089  0.704140  1
  Dy  Dy2  1  0.845388  0.249979  0.795987  1
  Dy  Dy3  1  0.654704  0.249964  0.295794  1
  Dy  Dy4  1  0.450333  0.750007  0.996063  1
  Dy  Dy5  1  0.049809  0.750040  0.496056  1
  Dy  Dy6  1  0.549696  0.249995  0.003947  1
  Dy  Dy7  1  0.950481  0.249899  0.503897  1
  Dy  Dy8  1  0.622185  0.750135  0.307447  1
  Dy  Dy9  1  0.877760  0.750003  0.807505  1
  Dy  Dy10  1  0.377583  0.249886  0.692568  1
  Dy  Dy11  1  0.122203  0.249992  0.192427  1
  Dy  Dy12  1  0.676528  0.534866  0.563759  1
  Ho  Ho13  1  0.823838  0.534893  0.063789  1
  Ho  Ho14  1  0.676202  0.965019  0.563790  1
  Ho  Ho15  1  0.176138  0.035082  0.936220  1
  Ho  Ho16  1  0.323640  0.465019  0.436151  1
  Ho  Ho17  1  0.176138  0.464901  0.936229  1
  Ho  Ho18  1  0.323907  0.034975  0.436250  1
  Ho  Ho19  1  0.823854  0.965123  0.063802  1
  Fe  Fe20  1  0.427784  0.750188  0.488868  1
  Fe  Fe21  1  0.071876  0.749996  0.988924  1
  Fe  Fe22  1  0.571822  0.249980  0.511063  1
  Fe  Fe23  1  0.928112  0.250001  0.011049  1
  Sb  Sb24  1  0.928723  0.506984  0.327699  1
  Sb  Sb25  1  0.571258  0.993007  0.827760  1
  Sb  Sb26  1  0.071231  0.007003  0.672267  1
  Sb  Sb27  1  0.428756  0.493008  0.172243  1
  Sb  Sb28  1  0.071438  0.492969  0.672338  1
  Sb  Sb29  1  0.428752  0.006992  0.172234  1
  Sb  Sb30  1  0.928764  0.993011  0.327721  1
  Sb  Sb31  1  0.571192  0.506975  0.827842  1
