# generated using pymatgen
data_DyTm5Sc4(In2Rh)4
_symmetry_space_group_name_H-M   'P 1'
_cell_length_a   3.51746500
_cell_length_b   7.85688332
_cell_length_c   17.92021373
_cell_angle_alpha   89.96733240
_cell_angle_beta   90.00000000
_cell_angle_gamma   90.00000000
_symmetry_Int_Tables_number   1
_chemical_formula_structural   DyTm5Sc4(In2Rh)4
_chemical_formula_sum   'Dy1 Tm5 Sc4 In8 Rh4'
_cell_volume   495.24853872
_cell_formula_units_Z   1
loop_
 _symmetry_equiv_pos_site_id
 _symmetry_equiv_pos_as_xyz
  1  'x, y, z'
loop_
 _atom_site_type_symbol
 _atom_site_label
 _atom_site_symmetry_multiplicity
 _atom_site_fract_x
 _atom_site_fract_y
 _atom_site_fract_z
 _atom_site_occupancy
  Dy  Dy0  1  0.000000  0.000000  0.000000  1
  Tm  Tm1  1  0.000000  0.500000  0.500000  1
  Tm  Tm2  1  0.000000  0.748039  0.781153  1
  Tm  Tm3  1  0.000000  0.251961  0.218847  1
  Tm  Tm4  1  0.000000  0.248005  0.718800  1
  Tm  Tm5  1  0.000000  0.751995  0.281200  1
  Sc  Sc6  1  0.000000  0.877971  0.588355  1
  Sc  Sc7  1  0.000000  0.122029  0.411645  1
  Sc  Sc8  1  0.000000  0.378084  0.911548  1
  Sc  Sc9  1  0.000000  0.621916  0.088452  1
  In  In10  1  0.500000  0.807198  0.437443  1
  In  In11  1  0.500000  0.192802  0.562557  1
  In  In12  1  0.500000  0.308108  0.062790  1
  In  In13  1  0.500000  0.691892  0.937210  1
  In  In14  1  0.500000  0.926105  0.149827  1
  In  In15  1  0.500000  0.073895  0.850173  1
  In  In16  1  0.500000  0.426316  0.350679  1
  In  In17  1  0.500000  0.573684  0.649321  1
  Rh  Rh18  1  0.500000  0.963394  0.692947  1
  Rh  Rh19  1  0.500000  0.036606  0.307053  1
  Rh  Rh20  1  0.500000  0.463448  0.806915  1
  Rh  Rh21  1  0.500000  0.536552  0.193085  1
