# generated using pymatgen
data_Y16TlHg3(PdPt)2
_symmetry_space_group_name_H-M   'P 1'
_cell_length_a   9.71382462
_cell_length_b   9.72715930
_cell_length_c   9.71114700
_cell_angle_alpha   60.05444245
_cell_angle_beta   60.00912144
_cell_angle_gamma   60.12033081
_symmetry_Int_Tables_number   1
_chemical_formula_structural   Y16TlHg3(PdPt)2
_chemical_formula_sum   'Y16 Tl1 Hg3 Pd2 Pt2'
_cell_volume   649.73148712
_cell_formula_units_Z   1
loop_
 _symmetry_equiv_pos_site_id
 _symmetry_equiv_pos_as_xyz
  1  'x, y, z'
loop_
 _atom_site_type_symbol
 _atom_site_label
 _atom_site_symmetry_multiplicity
 _atom_site_fract_x
 _atom_site_fract_y
 _atom_site_fract_z
 _atom_site_occupancy
  Y  Y0  1  0.605891  0.604633  0.599138  1
  Y  Y1  1  0.605891  0.604633  0.190338  1
  Y  Y2  1  0.611690  0.178298  0.605006  1
  Y  Y3  1  0.175592  0.611463  0.606473  1
  Y  Y4  1  0.060660  0.439606  0.438482  1
  Y  Y5  1  0.439555  0.059791  0.061346  1
  Y  Y6  1  0.439555  0.059791  0.439308  1
  Y  Y7  1  0.060660  0.439606  0.061252  1
  Y  Y8  1  0.440045  0.440613  0.059671  1
  Y  Y9  1  0.061861  0.061666  0.438236  1
  Y  Y10  1  0.183922  0.814581  0.812923  1
  Y  Y11  1  0.813314  0.188062  0.185616  1
  Y  Y12  1  0.813314  0.188062  0.813008  1
  Y  Y13  1  0.183922  0.814581  0.188574  1
  Y  Y14  1  0.814160  0.815742  0.185050  1
  Y  Y15  1  0.183771  0.190440  0.812895  1
  Tl  Tl16  1  0.498243  0.831318  0.835219  1
  Hg  Hg17  1  0.836917  0.835954  0.839305  1
  Hg  Hg18  1  0.836917  0.835954  0.487824  1
  Hg  Hg19  1  0.835663  0.487744  0.838297  1
  Pd  Pd20  1  0.393957  0.394217  0.399425  1
  Pd  Pd21  1  0.393957  0.394217  0.812402  1
  Pt  Pt22  1  0.390135  0.819098  0.395384  1
  Pt  Pt23  1  0.820409  0.389933  0.394829  1
