# generated using pymatgen
data_Zr3Nb2AlSi2N
_symmetry_space_group_name_H-M   'P 1'
_cell_length_a   7.91144476
_cell_length_b   7.91144529
_cell_length_c   5.46488000
_cell_angle_alpha   90.00000000
_cell_angle_beta   90.00000000
_cell_angle_gamma   119.90418952
_symmetry_Int_Tables_number   1
_chemical_formula_structural   Zr3Nb2AlSi2N
_chemical_formula_sum   'Zr6 Nb4 Al2 Si4 N2'
_cell_volume   296.51138389
_cell_formula_units_Z   2
loop_
 _symmetry_equiv_pos_site_id
 _symmetry_equiv_pos_as_xyz
  1  'x, y, z'
loop_
 _atom_site_type_symbol
 _atom_site_label
 _atom_site_symmetry_multiplicity
 _atom_site_fract_x
 _atom_site_fract_y
 _atom_site_fract_z
 _atom_site_occupancy
  Zr  Zr0  1  0.234591  0.996271  0.250000  1
  Zr  Zr1  1  0.765409  0.003729  0.750000  1
  Zr  Zr2  1  0.996271  0.234591  0.250000  1
  Zr  Zr3  1  0.003729  0.765409  0.750000  1
  Zr  Zr4  1  0.768376  0.768376  0.250000  1
  Zr  Zr5  1  0.231624  0.231624  0.750000  1
  Nb  Nb6  1  0.328371  0.671629  0.000000  1
  Nb  Nb7  1  0.671629  0.328371  0.000000  1
  Nb  Nb8  1  0.671629  0.328371  0.500000  1
  Nb  Nb9  1  0.328371  0.671629  0.500000  1
  Al  Al10  1  0.413681  0.413681  0.250000  1
  Al  Al11  1  0.586319  0.586319  0.750000  1
  Si  Si12  1  0.589859  0.997528  0.250000  1
  Si  Si13  1  0.410141  0.002472  0.750000  1
  Si  Si14  1  0.997528  0.589859  0.250000  1
  Si  Si15  1  0.002472  0.410141  0.750000  1
  N  N16  1  0.000000  0.000000  0.000000  1
  N  N17  1  0.000000  0.000000  0.500000  1
