# generated using pymatgen
data_Be8Tc2MoW
_symmetry_space_group_name_H-M   'P 1'
_cell_length_a   4.40196900
_cell_length_b   4.40197013
_cell_length_c   7.23955200
_cell_angle_alpha   90.00000000
_cell_angle_beta   90.00000000
_cell_angle_gamma   119.99999900
_symmetry_Int_Tables_number   1
_chemical_formula_structural   Be8Tc2MoW
_chemical_formula_sum   'Be8 Tc2 Mo1 W1'
_cell_volume   121.48884390
_cell_formula_units_Z   1
loop_
 _symmetry_equiv_pos_site_id
 _symmetry_equiv_pos_as_xyz
  1  'x, y, z'
loop_
 _atom_site_type_symbol
 _atom_site_label
 _atom_site_symmetry_multiplicity
 _atom_site_fract_x
 _atom_site_fract_y
 _atom_site_fract_z
 _atom_site_occupancy
  Be  Be0  1  0.000000  0.000000  0.502168  1
  Be  Be1  1  0.000000  0.000000  0.997175  1
  Be  Be2  1  0.830552  0.169448  0.250363  1
  Be  Be3  1  0.830552  0.661103  0.250363  1
  Be  Be4  1  0.338897  0.169448  0.250363  1
  Be  Be5  1  0.169373  0.830627  0.749850  1
  Be  Be6  1  0.169373  0.338746  0.749850  1
  Be  Be7  1  0.661254  0.830627  0.749850  1
  Tc  Tc8  1  0.666667  0.333333  0.560733  1
  Tc  Tc9  1  0.666667  0.333333  0.939249  1
  Mo  Mo10  1  0.333333  0.666667  0.060472  1
  W  W11  1  0.333333  0.666667  0.439562  1
