# generated using pymatgen
data_Er2Al5Ga3SiIr3
_symmetry_space_group_name_H-M   'P 1'
_cell_length_a   7.50586470
_cell_length_b   7.47539420
_cell_length_c   9.49513275
_cell_angle_alpha   90.14553267
_cell_angle_beta   89.56586281
_cell_angle_gamma   119.93317994
_symmetry_Int_Tables_number   1
_chemical_formula_structural   Er2Al5Ga3SiIr3
_chemical_formula_sum   'Er4 Al10 Ga6 Si2 Ir6'
_cell_volume   461.68484408
_cell_formula_units_Z   2
loop_
 _symmetry_equiv_pos_site_id
 _symmetry_equiv_pos_as_xyz
  1  'x, y, z'
loop_
 _atom_site_type_symbol
 _atom_site_label
 _atom_site_symmetry_multiplicity
 _atom_site_fract_x
 _atom_site_fract_y
 _atom_site_fract_z
 _atom_site_occupancy
  Er  Er0  1  0.997374  0.663496  0.743922  1
  Er  Er1  1  0.002626  0.336504  0.256078  1
  Er  Er2  1  0.675776  0.003643  0.747520  1
  Er  Er3  1  0.324224  0.996357  0.252480  1
  Al  Al4  1  0.997671  0.666042  0.069127  1
  Al  Al5  1  0.334488  0.999713  0.926663  1
  Al  Al6  1  0.002329  0.333958  0.930873  1
  Al  Al7  1  0.665512  0.000287  0.073337  1
  Al  Al8  1  0.661216  0.995030  0.423868  1
  Al  Al9  1  0.338784  0.004970  0.576132  1
  Al  Al10  1  0.333120  0.332399  0.060098  1
  Al  Al11  1  0.666880  0.667601  0.939902  1
  Al  Al12  1  0.663208  0.666194  0.560839  1
  Al  Al13  1  0.336792  0.333806  0.439161  1
  Ga  Ga14  1  0.131053  0.126140  0.750892  1
  Ga  Ga15  1  0.868947  0.873860  0.249108  1
  Ga  Ga16  1  0.343297  0.549818  0.751152  1
  Ga  Ga17  1  0.656703  0.450182  0.248848  1
  Ga  Ga18  1  0.548626  0.340935  0.749711  1
  Ga  Ga19  1  0.451374  0.659065  0.250289  1
  Si  Si20  1  0.999591  0.327868  0.573846  1
  Si  Si21  1  0.000409  0.672132  0.426154  1
  Ir  Ir22  1  0.689384  0.338286  0.499546  1
  Ir  Ir23  1  0.310616  0.661714  0.500454  1
  Ir  Ir24  1  0.327275  0.671006  0.001037  1
  Ir  Ir25  1  0.672725  0.328994  0.998963  1
  Ir  Ir26  1  0.000000  0.000000  0.500000  1
  Ir  Ir27  1  0.000000  0.000000  0.000000  1
