# generated using pymatgen
data_Hf4Nb4Si3As
_symmetry_space_group_name_H-M   'P 1'
_cell_length_a   3.62423600
_cell_length_b   7.01598276
_cell_length_c   8.47876686
_cell_angle_alpha   89.87786693
_cell_angle_beta   90.00000000
_cell_angle_gamma   90.00000000
_symmetry_Int_Tables_number   1
_chemical_formula_structural   Hf4Nb4Si3As
_chemical_formula_sum   'Hf4 Nb4 Si3 As1'
_cell_volume   215.59400991
_cell_formula_units_Z   1
loop_
 _symmetry_equiv_pos_site_id
 _symmetry_equiv_pos_as_xyz
  1  'x, y, z'
loop_
 _atom_site_type_symbol
 _atom_site_label
 _atom_site_symmetry_multiplicity
 _atom_site_fract_x
 _atom_site_fract_y
 _atom_site_fract_z
 _atom_site_occupancy
  Hf  Hf0  1  0.250000  0.038656  0.662782  1
  Hf  Hf1  1  0.250000  0.547871  0.834326  1
  Hf  Hf2  1  0.750000  0.459978  0.169436  1
  Hf  Hf3  1  0.750000  0.957002  0.334748  1
  Nb  Nb4  1  0.750000  0.863892  0.940775  1
  Nb  Nb5  1  0.250000  0.632534  0.440676  1
  Nb  Nb6  1  0.750000  0.366065  0.557395  1
  Nb  Nb7  1  0.250000  0.132939  0.061431  1
  Si  Si8  1  0.250000  0.254165  0.358061  1
  Si  Si9  1  0.250000  0.756871  0.142062  1
  Si  Si10  1  0.750000  0.744039  0.640950  1
  As  As11  1  0.750000  0.245990  0.857357  1
