# generated using pymatgen
data_CaZr8In14Co5Ir2
_symmetry_space_group_name_H-M   'P 1'
_cell_length_a   9.57770723
_cell_length_b   9.57770664
_cell_length_c   9.58233000
_cell_angle_alpha   59.98403045
_cell_angle_beta   59.98403246
_cell_angle_gamma   60.03194365
_symmetry_Int_Tables_number   1
_chemical_formula_structural   CaZr8In14Co5Ir2
_chemical_formula_sum   'Ca1 Zr8 In14 Co5 Ir2'
_cell_volume   621.55423879
_cell_formula_units_Z   1
loop_
 _symmetry_equiv_pos_site_id
 _symmetry_equiv_pos_as_xyz
  1  'x, y, z'
loop_
 _atom_site_type_symbol
 _atom_site_label
 _atom_site_symmetry_multiplicity
 _atom_site_fract_x
 _atom_site_fract_y
 _atom_site_fract_z
 _atom_site_occupancy
  Ca  Ca0  1  0.503922  0.503922  0.496078  1
  Zr  Zr1  1  0.127616  0.630849  0.120768  1
  Zr  Zr2  1  0.366311  0.879132  0.877278  1
  Zr  Zr3  1  0.879232  0.879232  0.872384  1
  Zr  Zr4  1  0.630849  0.127616  0.120768  1
  Zr  Zr5  1  0.879232  0.879232  0.369151  1
  Zr  Zr6  1  0.122722  0.122722  0.120868  1
  Zr  Zr7  1  0.879132  0.366311  0.877278  1
  Zr  Zr8  1  0.122722  0.122722  0.633689  1
  In  In9  1  0.493032  0.847785  0.152215  1
  In  In10  1  0.493032  0.847785  0.506968  1
  In  In11  1  0.499978  0.156931  0.500022  1
  In  In12  1  0.500723  0.500723  0.844343  1
  In  In13  1  0.156931  0.499978  0.500022  1
  In  In14  1  0.845788  0.155657  0.499277  1
  In  In15  1  0.155657  0.845788  0.499277  1
  In  In16  1  0.499978  0.156931  0.843069  1
  In  In17  1  0.156931  0.499978  0.843069  1
  In  In18  1  0.500723  0.500723  0.154212  1
  In  In19  1  0.847785  0.493032  0.506968  1
  In  In20  1  0.847785  0.493032  0.152215  1
  In  In21  1  0.248474  0.248474  0.251526  1
  In  In22  1  0.748474  0.748474  0.751526  1
  Co  Co23  1  0.216701  0.781711  0.218289  1
  Co  Co24  1  0.216701  0.781711  0.783299  1
  Co  Co25  1  0.217584  0.217584  0.782416  1
  Co  Co26  1  0.781711  0.216701  0.783299  1
  Co  Co27  1  0.781711  0.216701  0.218289  1
  Ir  Ir28  1  0.777196  0.777196  0.222804  1
  Ir  Ir29  1  0.001370  0.001370  0.998630  1
