# generated using pymatgen
data_Tb6Er10Cd3HgIr4
_symmetry_space_group_name_H-M   'P 1'
_cell_length_a   9.58349523
_cell_length_b   9.58349572
_cell_length_c   9.58349592
_cell_angle_alpha   59.95892584
_cell_angle_beta   59.95892463
_cell_angle_gamma   59.95892595
_symmetry_Int_Tables_number   1
_chemical_formula_structural   Tb6Er10Cd3HgIr4
_chemical_formula_sum   'Tb6 Er10 Cd3 Hg1 Ir4'
_cell_volume   621.80199940
_cell_formula_units_Z   1
loop_
 _symmetry_equiv_pos_site_id
 _symmetry_equiv_pos_as_xyz
  1  'x, y, z'
loop_
 _atom_site_type_symbol
 _atom_site_label
 _atom_site_symmetry_multiplicity
 _atom_site_fract_x
 _atom_site_fract_y
 _atom_site_fract_z
 _atom_site_occupancy
  Tb  Tb0  1  0.188702  0.810989  0.810989  1
  Tb  Tb1  1  0.810629  0.189115  0.189115  1
  Tb  Tb2  1  0.810989  0.188702  0.810989  1
  Tb  Tb3  1  0.189115  0.810629  0.189115  1
  Tb  Tb4  1  0.810989  0.810989  0.188702  1
  Tb  Tb5  1  0.189115  0.189115  0.810629  1
  Er  Er6  1  0.598333  0.598333  0.598333  1
  Er  Er7  1  0.599833  0.599833  0.202628  1
  Er  Er8  1  0.599833  0.202628  0.599833  1
  Er  Er9  1  0.202628  0.599833  0.599833  1
  Er  Er10  1  0.060472  0.438772  0.438772  1
  Er  Er11  1  0.437411  0.060986  0.060986  1
  Er  Er12  1  0.438772  0.060472  0.438772  1
  Er  Er13  1  0.060986  0.437411  0.060986  1
  Er  Er14  1  0.438772  0.438772  0.060472  1
  Er  Er15  1  0.060986  0.060986  0.437411  1
  Cd  Cd16  1  0.830599  0.830599  0.507481  1
  Cd  Cd17  1  0.830599  0.507481  0.830599  1
  Cd  Cd18  1  0.507481  0.830599  0.830599  1
  Hg  Hg19  1  0.832472  0.832472  0.832472  1
  Ir  Ir20  1  0.391868  0.391868  0.391868  1
  Ir  Ir21  1  0.392178  0.392178  0.825061  1
  Ir  Ir22  1  0.392178  0.825061  0.392178  1
  Ir  Ir23  1  0.825061  0.392178  0.392178  1
