# generated using pymatgen
data_HoZn2(Ga2Pd)3
_symmetry_space_group_name_H-M   'P 1'
_cell_length_a   8.44914162
_cell_length_b   8.44914215
_cell_length_c   8.44914331
_cell_angle_alpha   90.01244025
_cell_angle_beta   90.01244128
_cell_angle_gamma   90.01244433
_symmetry_Int_Tables_number   1
_chemical_formula_structural   HoZn2(Ga2Pd)3
_chemical_formula_sum   'Ho3 Zn6 Ga18 Pd9'
_cell_volume   603.16738766
_cell_formula_units_Z   3
loop_
 _symmetry_equiv_pos_site_id
 _symmetry_equiv_pos_as_xyz
  1  'x, y, z'
loop_
 _atom_site_type_symbol
 _atom_site_label
 _atom_site_symmetry_multiplicity
 _atom_site_fract_x
 _atom_site_fract_y
 _atom_site_fract_z
 _atom_site_occupancy
  Ho  Ho0  1  0.000000  0.500000  0.000000  1
  Ho  Ho1  1  0.500000  0.000000  0.000000  1
  Ho  Ho2  1  0.000000  0.000000  0.500000  1
  Zn  Zn3  1  0.737867  0.500000  0.262133  1
  Zn  Zn4  1  0.262133  0.500000  0.737867  1
  Zn  Zn5  1  0.500000  0.262133  0.737867  1
  Zn  Zn6  1  0.500000  0.737867  0.262133  1
  Zn  Zn7  1  0.262133  0.737867  0.500000  1
  Zn  Zn8  1  0.737867  0.262133  0.500000  1
  Ga  Ga9  1  0.992350  0.642582  0.642582  1
  Ga  Ga10  1  0.642582  0.642582  0.992350  1
  Ga  Ga11  1  0.642582  0.992350  0.642582  1
  Ga  Ga12  1  0.007650  0.357418  0.357418  1
  Ga  Ga13  1  0.357418  0.357418  0.007650  1
  Ga  Ga14  1  0.357418  0.007650  0.357418  1
  Ga  Ga15  1  0.838120  0.140562  0.838120  1
  Ga  Ga16  1  0.140562  0.838120  0.838120  1
  Ga  Ga17  1  0.838120  0.838120  0.140562  1
  Ga  Ga18  1  0.161880  0.859438  0.161880  1
  Ga  Ga19  1  0.859438  0.161880  0.161880  1
  Ga  Ga20  1  0.161880  0.161880  0.859438  1
  Ga  Ga21  1  0.728904  0.483240  0.728904  1
  Ga  Ga22  1  0.483240  0.728904  0.728904  1
  Ga  Ga23  1  0.728904  0.728904  0.483240  1
  Ga  Ga24  1  0.271096  0.516760  0.271096  1
  Ga  Ga25  1  0.516760  0.271096  0.271096  1
  Ga  Ga26  1  0.271096  0.271096  0.516760  1
  Pd  Pd27  1  0.833820  0.833820  0.833820  1
  Pd  Pd28  1  0.166180  0.166180  0.166180  1
  Pd  Pd29  1  0.665270  0.334730  0.000000  1
  Pd  Pd30  1  0.000000  0.334730  0.665270  1
  Pd  Pd31  1  0.334730  0.000000  0.665270  1
  Pd  Pd32  1  0.334730  0.665270  0.000000  1
  Pd  Pd33  1  0.000000  0.665270  0.334730  1
  Pd  Pd34  1  0.665270  0.000000  0.334730  1
  Pd  Pd35  1  0.500000  0.500000  0.500000  1
