# generated using pymatgen
data_TmLu3Ga2(B2Rh5)2
_symmetry_space_group_name_H-M   'P 1'
_cell_length_a   9.42398193
_cell_length_b   9.42398193
_cell_length_c   3.17740400
_cell_angle_alpha   90.00000000
_cell_angle_beta   90.00000000
_cell_angle_gamma   89.94906356
_symmetry_Int_Tables_number   1
_chemical_formula_structural   TmLu3Ga2(B2Rh5)2
_chemical_formula_sum   'Tm1 Lu3 Ga2 B4 Rh10'
_cell_volume   282.18969869
_cell_formula_units_Z   1
loop_
 _symmetry_equiv_pos_site_id
 _symmetry_equiv_pos_as_xyz
  1  'x, y, z'
loop_
 _atom_site_type_symbol
 _atom_site_label
 _atom_site_symmetry_multiplicity
 _atom_site_fract_x
 _atom_site_fract_y
 _atom_site_fract_z
 _atom_site_occupancy
  Tm  Tm0  1  0.825433  0.325433  0.000000  1
  Lu  Lu1  1  0.325535  0.174406  0.000000  1
  Lu  Lu2  1  0.674406  0.825535  0.000000  1
  Lu  Lu3  1  0.174664  0.674664  0.000000  1
  Ga  Ga4  1  0.000001  0.000021  0.000000  1
  Ga  Ga5  1  0.500021  0.500001  0.000000  1
  B  B6  1  0.622893  0.122893  0.000000  1
  B  B7  1  0.123711  0.376678  0.000000  1
  B  B8  1  0.876678  0.623711  0.000000  1
  B  B9  1  0.376680  0.876680  0.000000  1
  Rh  Rh10  1  0.071203  0.217955  0.500000  1
  Rh  Rh11  1  0.217981  0.929237  0.500000  1
  Rh  Rh12  1  0.781788  0.070160  0.500000  1
  Rh  Rh13  1  0.929290  0.782033  0.500000  1
  Rh  Rh14  1  0.429237  0.717981  0.500000  1
  Rh  Rh15  1  0.570160  0.281788  0.500000  1
  Rh  Rh16  1  0.717955  0.571203  0.500000  1
  Rh  Rh17  1  0.282033  0.429290  0.500000  1
  Rh  Rh18  1  0.499916  0.999916  0.500000  1
  Rh  Rh19  1  0.000414  0.500414  0.500000  1
