# generated using pymatgen
data_SmDy(ScPt)2
_symmetry_space_group_name_H-M   'P 1'
_cell_length_a   4.61377900
_cell_length_b   6.99828000
_cell_length_c   8.42595300
_cell_angle_alpha   90.00000000
_cell_angle_beta   90.00000000
_cell_angle_gamma   90.00000000
_symmetry_Int_Tables_number   1
_chemical_formula_structural   SmDy(ScPt)2
_chemical_formula_sum   'Sm2 Dy2 Sc4 Pt4'
_cell_volume   272.06152921
_cell_formula_units_Z   2
loop_
 _symmetry_equiv_pos_site_id
 _symmetry_equiv_pos_as_xyz
  1  'x, y, z'
loop_
 _atom_site_type_symbol
 _atom_site_label
 _atom_site_symmetry_multiplicity
 _atom_site_fract_x
 _atom_site_fract_y
 _atom_site_fract_z
 _atom_site_occupancy
  Sm  Sm0  1  0.750000  0.015054  0.677552  1
  Sm  Sm1  1  0.750000  0.515054  0.822448  1
  Dy  Dy2  1  0.250000  0.985146  0.322349  1
  Dy  Dy3  1  0.250000  0.485146  0.177651  1
  Sc  Sc4  1  0.250000  0.859151  0.928317  1
  Sc  Sc5  1  0.250000  0.359151  0.571683  1
  Sc  Sc6  1  0.750000  0.140705  0.075297  1
  Sc  Sc7  1  0.750000  0.640705  0.424703  1
  Pt  Pt8  1  0.250000  0.242856  0.905805  1
  Pt  Pt9  1  0.250000  0.742856  0.594195  1
  Pt  Pt10  1  0.750000  0.757087  0.097951  1
  Pt  Pt11  1  0.750000  0.257087  0.402049  1
