# generated using pymatgen
data_Tm6Al12Fe7Si12Ru
_symmetry_space_group_name_H-M   'P 1'
_cell_length_a   8.48017481
_cell_length_b   8.48017524
_cell_length_c   8.99031476
_cell_angle_alpha   89.95629381
_cell_angle_beta   90.04370503
_cell_angle_gamma   120.20153286
_symmetry_Int_Tables_number   1
_chemical_formula_structural   Tm6Al12Fe7Si12Ru
_chemical_formula_sum   'Tm6 Al12 Fe7 Si12 Ru1'
_cell_volume   558.76532782
_cell_formula_units_Z   1
loop_
 _symmetry_equiv_pos_site_id
 _symmetry_equiv_pos_as_xyz
  1  'x, y, z'
loop_
 _atom_site_type_symbol
 _atom_site_label
 _atom_site_symmetry_multiplicity
 _atom_site_fract_x
 _atom_site_fract_y
 _atom_site_fract_z
 _atom_site_occupancy
  Tm  Tm0  1  0.805888  0.194112  0.751256  1
  Tm  Tm1  1  0.194112  0.805888  0.248744  1
  Tm  Tm2  1  0.387532  0.192951  0.750621  1
  Tm  Tm3  1  0.612468  0.807049  0.249379  1
  Tm  Tm4  1  0.807049  0.612468  0.750621  1
  Tm  Tm5  1  0.192951  0.387532  0.249379  1
  Al  Al6  1  0.836356  0.163644  0.420855  1
  Al  Al7  1  0.163644  0.836356  0.579145  1
  Al  Al8  1  0.326306  0.159282  0.419994  1
  Al  Al9  1  0.164190  0.835810  0.921794  1
  Al  Al10  1  0.673694  0.840718  0.580006  1
  Al  Al11  1  0.835810  0.164190  0.078206  1
  Al  Al12  1  0.840718  0.673694  0.419994  1
  Al  Al13  1  0.672520  0.836981  0.922042  1
  Al  Al14  1  0.159282  0.326306  0.580006  1
  Al  Al15  1  0.327480  0.163019  0.077958  1
  Al  Al16  1  0.163019  0.327480  0.922042  1
  Al  Al17  1  0.836981  0.672520  0.077958  1
  Fe  Fe18  1  0.500000  0.500000  0.000000  1
  Fe  Fe19  1  0.000000  0.500000  0.000000  1
  Fe  Fe20  1  0.500000  0.000000  0.000000  1
  Fe  Fe21  1  0.000000  0.500000  0.500000  1
  Fe  Fe22  1  0.500000  0.000000  0.500000  1
  Fe  Fe23  1  0.000000  0.000000  0.000000  1
  Fe  Fe24  1  0.000000  0.000000  0.500000  1
  Si  Si25  1  0.666878  0.333122  0.966054  1
  Si  Si26  1  0.333122  0.666878  0.033946  1
  Si  Si27  1  0.329816  0.670184  0.465183  1
  Si  Si28  1  0.670184  0.329816  0.534817  1
  Si  Si29  1  0.439740  0.560260  0.756552  1
  Si  Si30  1  0.560260  0.439740  0.243448  1
  Si  Si31  1  0.117351  0.558618  0.750755  1
  Si  Si32  1  0.882649  0.441382  0.249245  1
  Si  Si33  1  0.441382  0.882649  0.750755  1
  Si  Si34  1  0.558618  0.117351  0.249245  1
  Si  Si35  1  0.998988  0.001012  0.749902  1
  Si  Si36  1  0.001012  0.998988  0.250098  1
  Ru  Ru37  1  0.500000  0.500000  0.500000  1
