# generated using pymatgen
data_Dy8Al(Pd7Pt5)2
_symmetry_space_group_name_H-M   'P 1'
_cell_length_a   8.32899405
_cell_length_b   8.33307398
_cell_length_c   8.33268200
_cell_angle_alpha   90.01856441
_cell_angle_beta   90.00597104
_cell_angle_gamma   89.97935719
_symmetry_Int_Tables_number   1
_chemical_formula_structural   Dy8Al(Pd7Pt5)2
_chemical_formula_sum   'Dy8 Al1 Pd14 Pt10'
_cell_volume   578.33908531
_cell_formula_units_Z   1
loop_
 _symmetry_equiv_pos_site_id
 _symmetry_equiv_pos_as_xyz
  1  'x, y, z'
loop_
 _atom_site_type_symbol
 _atom_site_label
 _atom_site_symmetry_multiplicity
 _atom_site_fract_x
 _atom_site_fract_y
 _atom_site_fract_z
 _atom_site_occupancy
  Dy  Dy0  1  0.251691  0.251942  0.747889  1
  Dy  Dy1  1  0.252384  0.748256  0.252655  1
  Dy  Dy2  1  0.747922  0.252232  0.252056  1
  Dy  Dy3  1  0.748196  0.747417  0.747667  1
  Dy  Dy4  1  0.747564  0.747684  0.252370  1
  Dy  Dy5  1  0.748328  0.252468  0.748033  1
  Dy  Dy6  1  0.251743  0.747988  0.747361  1
  Dy  Dy7  1  0.252104  0.251702  0.252176  1
  Al  Al8  1  0.000271  0.000561  0.999729  1
  Pd  Pd9  1  0.999482  0.999470  0.711060  1
  Pd  Pd10  1  0.999957  0.289429  0.000467  1
  Pd  Pd11  1  0.289507  0.999522  0.000035  1
  Pd  Pd12  1  0.999479  0.999555  0.288701  1
  Pd  Pd13  1  0.999956  0.711219  0.000398  1
  Pd  Pd14  1  0.710815  0.999487  0.000018  1
  Pd  Pd15  1  0.500260  0.000165  0.740449  1
  Pd  Pd16  1  0.259653  0.500381  0.999778  1
  Pd  Pd17  1  0.999941  0.500372  0.259515  1
  Pd  Pd18  1  0.500082  0.740039  0.000064  1
  Pd  Pd19  1  0.000154  0.740582  0.499660  1
  Pd  Pd20  1  0.500322  0.000103  0.259386  1
  Pd  Pd21  1  0.740090  0.000136  0.499918  1
  Pd  Pd22  1  0.740491  0.500429  0.999838  1
  Pt  Pt23  1  0.500083  0.499970  0.748053  1
  Pt  Pt24  1  0.499860  0.252018  0.499892  1
  Pt  Pt25  1  0.252246  0.499988  0.500031  1
  Pt  Pt26  1  0.500078  0.499922  0.252134  1
  Pt  Pt27  1  0.499846  0.747613  0.499951  1
  Pt  Pt28  1  0.747572  0.499968  0.500045  1
  Pt  Pt29  1  0.999936  0.500230  0.740858  1
  Pt  Pt30  1  0.500097  0.259771  0.000041  1
  Pt  Pt31  1  0.259701  0.000078  0.499912  1
  Pt  Pt32  1  0.000188  0.259303  0.499862  1
