# generated using pymatgen
data_Gd6GaTcPd
_symmetry_space_group_name_H-M   'P 1'
_cell_length_a   8.72044600
_cell_length_b   8.72044718
_cell_length_c   8.72044700
_cell_angle_alpha   102.97788503
_cell_angle_beta   111.92591412
_cell_angle_gamma   113.70436563
_symmetry_Int_Tables_number   1
_chemical_formula_structural   Gd6GaTcPd
_chemical_formula_sum   'Gd12 Ga2 Tc2 Pd2'
_cell_volume   505.51956126
_cell_formula_units_Z   2
loop_
 _symmetry_equiv_pos_site_id
 _symmetry_equiv_pos_as_xyz
  1  'x, y, z'
loop_
 _atom_site_type_symbol
 _atom_site_label
 _atom_site_symmetry_multiplicity
 _atom_site_fract_x
 _atom_site_fract_y
 _atom_site_fract_z
 _atom_site_occupancy
  Gd  Gd0  1  0.692690  0.264733  0.957423  1
  Gd  Gd1  1  0.307310  0.735267  0.042577  1
  Gd  Gd2  1  0.692690  0.735267  0.427957  1
  Gd  Gd3  1  0.307310  0.264733  0.572043  1
  Gd  Gd4  1  0.814109  0.156111  0.342002  1
  Gd  Gd5  1  0.814109  0.472107  0.657998  1
  Gd  Gd6  1  0.185891  0.843889  0.657998  1
  Gd  Gd7  1  0.185891  0.527893  0.342002  1
  Gd  Gd8  1  0.597287  0.777978  0.819309  1
  Gd  Gd9  1  0.958667  0.777978  0.180691  1
  Gd  Gd10  1  0.041333  0.222022  0.819309  1
  Gd  Gd11  1  0.402713  0.222022  0.180691  1
  Ga  Ga12  1  0.500000  0.500000  0.000000  1
  Ga  Ga13  1  0.500000  0.000000  0.500000  1
  Tc  Tc14  1  0.818163  0.500000  0.318163  1
  Tc  Tc15  1  0.181837  0.500000  0.681837  1
  Pd  Pd16  1  0.000000  0.128686  0.128686  1
  Pd  Pd17  1  0.000000  0.871314  0.871314  1
