# generated using pymatgen
data_Y5Nb3Fe6(Co5P6)2
_symmetry_space_group_name_H-M   'P 1'
_cell_length_a   12.16108900
_cell_length_b   12.16108874
_cell_length_c   3.72007100
_cell_angle_alpha   90.00000000
_cell_angle_beta   90.00000000
_cell_angle_gamma   119.99999799
_symmetry_Int_Tables_number   1
_chemical_formula_structural   Y5Nb3Fe6(Co5P6)2
_chemical_formula_sum   'Y5 Nb3 Fe6 Co10 P12'
_cell_volume   476.46038095
_cell_formula_units_Z   1
loop_
 _symmetry_equiv_pos_site_id
 _symmetry_equiv_pos_as_xyz
  1  'x, y, z'
loop_
 _atom_site_type_symbol
 _atom_site_label
 _atom_site_symmetry_multiplicity
 _atom_site_fract_x
 _atom_site_fract_y
 _atom_site_fract_z
 _atom_site_occupancy
  Y  Y0  1  0.817283  0.000444  0.500000  1
  Y  Y1  1  0.999556  0.816839  0.500000  1
  Y  Y2  1  0.183161  0.182717  0.500000  1
  Y  Y3  1  0.333333  0.666667  0.000000  1
  Y  Y4  1  0.666667  0.333333  0.000000  1
  Nb  Nb5  1  0.440477  0.999767  0.000000  1
  Nb  Nb6  1  0.000233  0.440710  0.000000  1
  Nb  Nb7  1  0.559290  0.559523  0.000000  1
  Fe  Fe8  1  0.281866  0.002182  0.500000  1
  Fe  Fe9  1  0.997818  0.279684  0.500000  1
  Fe  Fe10  1  0.720316  0.718134  0.500000  1
  Fe  Fe11  1  0.622805  0.802861  0.000000  1
  Fe  Fe12  1  0.197139  0.819945  0.000000  1
  Fe  Fe13  1  0.180055  0.377195  0.000000  1
  Co  Co14  1  0.376276  0.181095  0.000000  1
  Co  Co15  1  0.804820  0.623724  0.000000  1
  Co  Co16  1  0.818905  0.195180  0.000000  1
  Co  Co17  1  0.518890  0.876882  0.500000  1
  Co  Co18  1  0.123118  0.642008  0.500000  1
  Co  Co19  1  0.357992  0.481110  0.500000  1
  Co  Co20  1  0.481773  0.356257  0.500000  1
  Co  Co21  1  0.874484  0.518227  0.500000  1
  Co  Co22  1  0.643743  0.125516  0.500000  1
  Co  Co23  1  0.000000  0.000000  0.000000  1
  P  P24  1  0.181629  0.998485  0.000000  1
  P  P25  1  0.001515  0.183144  0.000000  1
  P  P26  1  0.816856  0.818371  0.000000  1
  P  P27  1  0.524447  0.693512  0.500000  1
  P  P28  1  0.306488  0.830935  0.500000  1
  P  P29  1  0.169065  0.475553  0.500000  1
  P  P30  1  0.477814  0.168767  0.500000  1
  P  P31  1  0.690951  0.522186  0.500000  1
  P  P32  1  0.831233  0.309049  0.500000  1
  P  P33  1  0.643712  0.998216  0.000000  1
  P  P34  1  0.001784  0.645496  0.000000  1
  P  P35  1  0.354504  0.356288  0.000000  1
