# generated using pymatgen
data_Dy2Tm3Sn4
_symmetry_space_group_name_H-M   'P 1'
_cell_length_a   7.97872600
_cell_length_b   8.10950200
_cell_length_c   15.33004900
_cell_angle_alpha   90.00000000
_cell_angle_beta   90.00000000
_cell_angle_gamma   90.00000000
_symmetry_Int_Tables_number   1
_chemical_formula_structural   Dy2Tm3Sn4
_chemical_formula_sum   'Dy8 Tm12 Sn16'
_cell_volume   991.90774046
_cell_formula_units_Z   4
loop_
 _symmetry_equiv_pos_site_id
 _symmetry_equiv_pos_as_xyz
  1  'x, y, z'
loop_
 _atom_site_type_symbol
 _atom_site_label
 _atom_site_symmetry_multiplicity
 _atom_site_fract_x
 _atom_site_fract_y
 _atom_site_fract_z
 _atom_site_occupancy
  Dy  Dy0  1  0.521566  0.320388  0.902694  1
  Dy  Dy1  1  0.021566  0.179612  0.597306  1
  Dy  Dy2  1  0.478434  0.679612  0.402694  1
  Dy  Dy3  1  0.978434  0.820388  0.097306  1
  Dy  Dy4  1  0.478434  0.679612  0.097306  1
  Dy  Dy5  1  0.978434  0.820388  0.402694  1
  Dy  Dy6  1  0.521566  0.320388  0.597306  1
  Dy  Dy7  1  0.021566  0.179612  0.902694  1
  Tm  Tm8  1  0.367632  0.836220  0.877484  1
  Tm  Tm9  1  0.867632  0.663780  0.622516  1
  Tm  Tm10  1  0.632368  0.163780  0.377484  1
  Tm  Tm11  1  0.132368  0.336220  0.122516  1
  Tm  Tm12  1  0.632368  0.163780  0.122516  1
  Tm  Tm13  1  0.132368  0.336220  0.377484  1
  Tm  Tm14  1  0.367632  0.836220  0.622516  1
  Tm  Tm15  1  0.867632  0.663780  0.877484  1
  Tm  Tm16  1  0.198183  0.504005  0.750000  1
  Tm  Tm17  1  0.698183  0.995995  0.750000  1
  Tm  Tm18  1  0.801817  0.495995  0.250000  1
  Tm  Tm19  1  0.301817  0.004005  0.250000  1
  Sn  Sn20  1  0.293521  0.036232  0.041783  1
  Sn  Sn21  1  0.793521  0.463768  0.458217  1
  Sn  Sn22  1  0.706479  0.963768  0.541783  1
  Sn  Sn23  1  0.206479  0.536232  0.958217  1
  Sn  Sn24  1  0.706479  0.963768  0.958217  1
  Sn  Sn25  1  0.206479  0.536232  0.541783  1
  Sn  Sn26  1  0.293521  0.036232  0.458217  1
  Sn  Sn27  1  0.793521  0.463768  0.041783  1
  Sn  Sn28  1  0.564552  0.620405  0.750000  1
  Sn  Sn29  1  0.064552  0.879595  0.750000  1
  Sn  Sn30  1  0.435448  0.379595  0.250000  1
  Sn  Sn31  1  0.935448  0.120405  0.250000  1
  Sn  Sn32  1  0.330177  0.147260  0.750000  1
  Sn  Sn33  1  0.830177  0.352740  0.750000  1
  Sn  Sn34  1  0.669823  0.852740  0.250000  1
  Sn  Sn35  1  0.169823  0.647260  0.250000  1
