# generated using pymatgen
data_YbPr19(TlGa2)4
_symmetry_space_group_name_H-M   'P 1'
_cell_length_a   8.10865400
_cell_length_b   8.10865400
_cell_length_c   14.73617800
_cell_angle_alpha   90.00000000
_cell_angle_beta   90.00000000
_cell_angle_gamma   90.00000000
_symmetry_Int_Tables_number   1
_chemical_formula_structural   YbPr19(TlGa2)4
_chemical_formula_sum   'Yb1 Pr19 Tl4 Ga8'
_cell_volume   968.90767773
_cell_formula_units_Z   1
loop_
 _symmetry_equiv_pos_site_id
 _symmetry_equiv_pos_as_xyz
  1  'x, y, z'
loop_
 _atom_site_type_symbol
 _atom_site_label
 _atom_site_symmetry_multiplicity
 _atom_site_fract_x
 _atom_site_fract_y
 _atom_site_fract_z
 _atom_site_occupancy
  Yb  Yb0  1  0.000000  0.500000  0.741446  1
  Pr  Pr1  1  0.824563  0.832440  0.605971  1
  Pr  Pr2  1  0.178597  0.838791  0.106420  1
  Pr  Pr3  1  0.160399  0.820306  0.392340  1
  Pr  Pr4  1  0.839601  0.179694  0.392340  1
  Pr  Pr5  1  0.679694  0.660399  0.392340  1
  Pr  Pr6  1  0.667560  0.324563  0.605971  1
  Pr  Pr7  1  0.332440  0.675437  0.605971  1
  Pr  Pr8  1  0.000000  0.500000  0.220992  1
  Pr  Pr9  1  0.661209  0.678597  0.106420  1
  Pr  Pr10  1  0.675292  0.339319  0.893154  1
  Pr  Pr11  1  0.839319  0.824708  0.893154  1
  Pr  Pr12  1  0.320306  0.339601  0.392340  1
  Pr  Pr13  1  0.175437  0.167560  0.605971  1
  Pr  Pr14  1  0.821403  0.161209  0.106420  1
  Pr  Pr15  1  0.324708  0.660681  0.893154  1
  Pr  Pr16  1  0.338791  0.321403  0.106420  1
  Pr  Pr17  1  0.500000  0.000000  0.279888  1
  Pr  Pr18  1  0.160681  0.175292  0.893154  1
  Pr  Pr19  1  0.500000  0.000000  0.773946  1
  Tl  Tl20  1  0.000000  0.500000  0.504590  1
  Tl  Tl21  1  0.500000  0.000000  0.501386  1
  Tl  Tl22  1  0.500000  0.000000  0.997750  1
  Tl  Tl23  1  0.000000  0.500000  0.997987  1
  Ga  Ga24  1  0.620670  0.379374  0.249811  1
  Ga  Ga25  1  0.120017  0.881455  0.747808  1
  Ga  Ga26  1  0.381455  0.379983  0.747808  1
  Ga  Ga27  1  0.379330  0.620626  0.249811  1
  Ga  Ga28  1  0.879374  0.879330  0.249811  1
  Ga  Ga29  1  0.618545  0.620017  0.747808  1
  Ga  Ga30  1  0.879983  0.118545  0.747808  1
  Ga  Ga31  1  0.120626  0.120670  0.249811  1
