# generated using pymatgen
data_La2ThP3
_symmetry_space_group_name_H-M   'P 1'
_cell_length_a   7.33926383
_cell_length_b   7.33926314
_cell_length_c   7.33926353
_cell_angle_alpha   146.58252897
_cell_angle_beta   132.04313666
_cell_angle_gamma   59.71047332
_symmetry_Int_Tables_number   1
_chemical_formula_structural   La2ThP3
_chemical_formula_sum   'La2 Th1 P3'
_cell_volume   160.24090874
_cell_formula_units_Z   1
loop_
 _symmetry_equiv_pos_site_id
 _symmetry_equiv_pos_as_xyz
  1  'x, y, z'
loop_
 _atom_site_type_symbol
 _atom_site_label
 _atom_site_symmetry_multiplicity
 _atom_site_fract_x
 _atom_site_fract_y
 _atom_site_fract_z
 _atom_site_occupancy
  La  La0  1  0.667659  0.667659  0.000000  1
  La  La1  1  0.332341  0.332341  0.000000  1
  Th  Th2  1  0.000000  0.000000  0.000000  1
  P  P3  1  0.500000  0.000000  0.500000  1
  P  P4  1  0.159872  0.659872  0.500000  1
  P  P5  1  0.840128  0.340128  0.500000  1
