# generated using pymatgen
data_Pr8Nb9Si16Mo3
_symmetry_space_group_name_H-M   'P 1'
_cell_length_a   6.96210800
_cell_length_b   7.27668933
_cell_length_c   13.56292400
_cell_angle_alpha   90.00000000
_cell_angle_beta   90.00000000
_cell_angle_gamma   89.95510396
_symmetry_Int_Tables_number   1
_chemical_formula_structural   Pr8Nb9Si16Mo3
_chemical_formula_sum   'Pr8 Nb9 Si16 Mo3'
_cell_volume   687.11239725
_cell_formula_units_Z   1
loop_
 _symmetry_equiv_pos_site_id
 _symmetry_equiv_pos_as_xyz
  1  'x, y, z'
loop_
 _atom_site_type_symbol
 _atom_site_label
 _atom_site_symmetry_multiplicity
 _atom_site_fract_x
 _atom_site_fract_y
 _atom_site_fract_z
 _atom_site_occupancy
  Pr  Pr0  1  0.504856  0.331335  0.096883  1
  Pr  Pr1  1  0.004820  0.169245  0.403068  1
  Pr  Pr2  1  0.494331  0.669055  0.596324  1
  Pr  Pr3  1  0.995223  0.830703  0.904253  1
  Pr  Pr4  1  0.494331  0.669055  0.903676  1
  Pr  Pr5  1  0.995223  0.830703  0.595747  1
  Pr  Pr6  1  0.504856  0.331335  0.403117  1
  Pr  Pr7  1  0.004820  0.169245  0.096932  1
  Nb  Nb8  1  0.834644  0.326260  0.626416  1
  Nb  Nb9  1  0.334646  0.174648  0.873757  1
  Nb  Nb10  1  0.165827  0.673961  0.126920  1
  Nb  Nb11  1  0.666171  0.826102  0.372551  1
  Nb  Nb12  1  0.165827  0.673961  0.373080  1
  Nb  Nb13  1  0.666171  0.826102  0.127449  1
  Nb  Nb14  1  0.834644  0.326260  0.873584  1
  Nb  Nb15  1  0.334646  0.174648  0.626243  1
  Nb  Nb16  1  0.661769  0.013832  0.750000  1
  Si  Si17  1  0.657268  0.041017  0.543006  1
  Si  Si18  1  0.156720  0.457555  0.955404  1
  Si  Si19  1  0.343996  0.958666  0.045250  1
  Si  Si20  1  0.843501  0.541758  0.454961  1
  Si  Si21  1  0.343996  0.958666  0.454750  1
  Si  Si22  1  0.843501  0.541758  0.045039  1
  Si  Si23  1  0.657268  0.041017  0.956994  1
  Si  Si24  1  0.156720  0.457555  0.544596  1
  Si  Si25  1  0.536011  0.370757  0.750000  1
  Si  Si26  1  0.039893  0.131310  0.750000  1
  Si  Si27  1  0.462785  0.631557  0.250000  1
  Si  Si28  1  0.963793  0.869267  0.250000  1
  Si  Si29  1  0.802968  0.611629  0.750000  1
  Si  Si30  1  0.298607  0.887002  0.750000  1
  Si  Si31  1  0.195385  0.389755  0.250000  1
  Si  Si32  1  0.695334  0.110671  0.250000  1
  Mo  Mo33  1  0.160311  0.482762  0.750000  1
  Mo  Mo34  1  0.339544  0.982314  0.250000  1
  Mo  Mo35  1  0.839597  0.518533  0.250000  1
