# generated using pymatgen
data_Y12GaNi4Sn
_symmetry_space_group_name_H-M   'P 1'
_cell_length_a   8.44680538
_cell_length_b   8.44674947
_cell_length_c   8.44680493
_cell_angle_alpha   106.48947838
_cell_angle_beta   109.56259715
_cell_angle_gamma   112.41598716
_symmetry_Int_Tables_number   1
_chemical_formula_structural   Y12GaNi4Sn
_chemical_formula_sum   'Y12 Ga1 Ni4 Sn1'
_cell_volume   462.68894973
_cell_formula_units_Z   1
loop_
 _symmetry_equiv_pos_site_id
 _symmetry_equiv_pos_as_xyz
  1  'x, y, z'
loop_
 _atom_site_type_symbol
 _atom_site_label
 _atom_site_symmetry_multiplicity
 _atom_site_fract_x
 _atom_site_fract_y
 _atom_site_fract_z
 _atom_site_occupancy
  Y  Y0  1  0.696670  0.271184  0.967865  1
  Y  Y1  1  0.303330  0.728816  0.032135  1
  Y  Y2  1  0.696681  0.728816  0.425487  1
  Y  Y3  1  0.303319  0.271184  0.574513  1
  Y  Y4  1  0.809942  0.134683  0.324742  1
  Y  Y5  1  0.809962  0.485218  0.675254  1
  Y  Y6  1  0.190058  0.865317  0.675258  1
  Y  Y7  1  0.190038  0.514782  0.324746  1
  Y  Y8  1  0.607571  0.787404  0.820167  1
  Y  Y9  1  0.967237  0.787404  0.179833  1
  Y  Y10  1  0.032763  0.212596  0.820167  1
  Y  Y11  1  0.392429  0.212596  0.179833  1
  Ga  Ga12  1  0.500000  0.500000  0.000000  1
  Ni  Ni13  1  0.850506  0.500000  0.350506  1
  Ni  Ni14  1  0.149494  0.500000  0.649494  1
  Ni  Ni15  1  0.999996  0.120928  0.120932  1
  Ni  Ni16  1  0.000004  0.879072  0.879068  1
  Sn  Sn17  1  0.500000  0.000000  0.500000  1
