# generated using pymatgen
data_YbPt4Pb
_symmetry_space_group_name_H-M   'P 1'
_cell_length_a   5.44757532
_cell_length_b   5.44757461
_cell_length_c   5.44757500
_cell_angle_alpha   60.00000373
_cell_angle_beta   60.00000803
_cell_angle_gamma   59.99999755
_symmetry_Int_Tables_number   1
_chemical_formula_structural   YbPt4Pb
_chemical_formula_sum   'Yb1 Pt4 Pb1'
_cell_volume   114.31275250
_cell_formula_units_Z   1
loop_
 _symmetry_equiv_pos_site_id
 _symmetry_equiv_pos_as_xyz
  1  'x, y, z'
loop_
 _atom_site_type_symbol
 _atom_site_label
 _atom_site_symmetry_multiplicity
 _atom_site_fract_x
 _atom_site_fract_y
 _atom_site_fract_z
 _atom_site_occupancy
  Yb  Yb0  1  0.500000  0.500000  0.500000  1
  Pt  Pt1  1  0.124967  0.625100  0.124967  1
  Pt  Pt2  1  0.124967  0.124967  0.625100  1
  Pt  Pt3  1  0.625100  0.124967  0.124967  1
  Pt  Pt4  1  0.124967  0.124967  0.124967  1
  Pb  Pb5  1  0.750000  0.750000  0.750000  1
