# generated using pymatgen
data_Y2Mg(Al3Cu4)3
_symmetry_space_group_name_H-M   'P 1'
_cell_length_a   10.37094719
_cell_length_b   8.21214982
_cell_length_c   7.84762842
_cell_angle_alpha   80.41217141
_cell_angle_beta   51.33213165
_cell_angle_gamma   48.25570521
_symmetry_Int_Tables_number   1
_chemical_formula_structural   Y2Mg(Al3Cu4)3
_chemical_formula_sum   'Y2 Mg1 Al9 Cu12'
_cell_volume   351.86395500
_cell_formula_units_Z   1
loop_
 _symmetry_equiv_pos_site_id
 _symmetry_equiv_pos_as_xyz
  1  'x, y, z'
loop_
 _atom_site_type_symbol
 _atom_site_label
 _atom_site_symmetry_multiplicity
 _atom_site_fract_x
 _atom_site_fract_y
 _atom_site_fract_z
 _atom_site_occupancy
  Y  Y0  1  0.000000  0.000000  0.000000  1
  Y  Y1  1  0.250000  0.250000  0.250000  1
  Mg  Mg2  1  0.500000  0.500000  0.500000  1
  Al  Al3  1  0.750000  0.750000  0.750000  1
  Al  Al4  1  0.755999  0.070749  0.833845  1
  Al  Al5  1  0.833845  0.339408  0.755999  1
  Al  Al6  1  0.070749  0.755999  0.339408  1
  Al  Al7  1  0.339408  0.833845  0.070749  1
  Al  Al8  1  0.494420  0.178106  0.414444  1
  Al  Al9  1  0.414444  0.913030  0.494420  1
  Al  Al10  1  0.178106  0.494420  0.913030  1
  Al  Al11  1  0.913030  0.414444  0.178106  1
  Cu  Cu12  1  0.625776  0.122324  0.626575  1
  Cu  Cu13  1  0.626575  0.625325  0.625776  1
  Cu  Cu14  1  0.122324  0.625776  0.625325  1
  Cu  Cu15  1  0.625325  0.626575  0.122324  1
  Cu  Cu16  1  0.490417  0.434454  0.180902  1
  Cu  Cu17  1  0.180902  0.894227  0.490417  1
  Cu  Cu18  1  0.434454  0.490417  0.894227  1
  Cu  Cu19  1  0.894227  0.180902  0.434454  1
  Cu  Cu20  1  0.758590  0.814881  0.066085  1
  Cu  Cu21  1  0.066085  0.360443  0.758590  1
  Cu  Cu22  1  0.814881  0.758590  0.360443  1
  Cu  Cu23  1  0.360443  0.066085  0.814881  1
