# generated using pymatgen
data_NaEr(PtRh)2
_symmetry_space_group_name_H-M   'P 1'
_cell_length_a   5.33626138
_cell_length_b   5.33625979
_cell_length_c   5.33626120
_cell_angle_alpha   119.77685220
_cell_angle_beta   120.47601223
_cell_angle_gamma   89.78222452
_symmetry_Int_Tables_number   1
_chemical_formula_structural   NaEr(PtRh)2
_chemical_formula_sum   'Na1 Er1 Pt2 Rh2'
_cell_volume   107.23626753
_cell_formula_units_Z   1
loop_
 _symmetry_equiv_pos_site_id
 _symmetry_equiv_pos_as_xyz
  1  'x, y, z'
loop_
 _atom_site_type_symbol
 _atom_site_label
 _atom_site_symmetry_multiplicity
 _atom_site_fract_x
 _atom_site_fract_y
 _atom_site_fract_z
 _atom_site_occupancy
  Na  Na0  1  0.875906  0.125906  0.750000  1
  Er  Er1  1  0.123623  0.873623  0.250000  1
  Pt  Pt2  1  0.500114  0.499642  0.499528  1
  Pt  Pt3  1  0.500114  0.000585  0.000472  1
  Rh  Rh4  1  0.499851  0.500122  0.999729  1
  Rh  Rh5  1  0.000391  0.500122  0.500271  1
