# generated using pymatgen
data_Ta6Ga5CuRh12
_symmetry_space_group_name_H-M   'P 1'
_cell_length_a   4.06617301
_cell_length_b   7.31881200
_cell_length_c   12.11426205
_cell_angle_alpha   90.00000000
_cell_angle_beta   90.00996557
_cell_angle_gamma   90.00000000
_symmetry_Int_Tables_number   1
_chemical_formula_structural   Ta6Ga5CuRh12
_chemical_formula_sum   'Ta6 Ga5 Cu1 Rh12'
_cell_volume   360.51505260
_cell_formula_units_Z   1
loop_
 _symmetry_equiv_pos_site_id
 _symmetry_equiv_pos_as_xyz
  1  'x, y, z'
loop_
 _atom_site_type_symbol
 _atom_site_label
 _atom_site_symmetry_multiplicity
 _atom_site_fract_x
 _atom_site_fract_y
 _atom_site_fract_z
 _atom_site_occupancy
  Ta  Ta0  1  0.000002  0.499999  0.990107  1
  Ta  Ta1  1  0.499921  0.000000  0.166511  1
  Ta  Ta2  1  0.999918  0.499999  0.333320  1
  Ta  Ta3  1  0.500009  0.000000  0.500177  1
  Ta  Ta4  1  0.000087  0.499999  0.676564  1
  Ta  Ta5  1  0.500071  0.000000  0.833342  1
  Ga  Ga6  1  0.999994  0.000000  0.001507  1
  Ga  Ga7  1  0.499897  0.499999  0.162647  1
  Ga  Ga8  1  0.999915  0.000000  0.333338  1
  Ga  Ga9  1  0.499988  0.499999  0.504006  1
  Ga  Ga10  1  0.000088  0.000000  0.665167  1
  Cu  Cu11  1  0.500123  0.499999  0.833326  1
  Rh  Rh12  1  0.499989  0.249470  0.999860  1
  Rh  Rh13  1  0.499989  0.750530  0.999860  1
  Rh  Rh14  1  0.999932  0.251183  0.166844  1
  Rh  Rh15  1  0.999932  0.748817  0.166844  1
  Rh  Rh16  1  0.499928  0.252309  0.333334  1
  Rh  Rh17  1  0.499928  0.747691  0.333334  1
  Rh  Rh18  1  0.000001  0.251176  0.499827  1
  Rh  Rh19  1  0.000001  0.748824  0.499827  1
  Rh  Rh20  1  0.500056  0.249471  0.666802  1
  Rh  Rh21  1  0.500056  0.750529  0.666802  1
  Rh  Rh22  1  0.000084  0.244253  0.833328  1
  Rh  Rh23  1  0.000084  0.755747  0.833328  1
