# generated using pymatgen
data_Tb3Th(Ga5Ir3)2
_symmetry_space_group_name_H-M   'P 1'
_cell_length_a   8.64368640
_cell_length_b   8.59878096
_cell_length_c   8.59878032
_cell_angle_alpha   140.96057338
_cell_angle_beta   109.04152392
_cell_angle_gamma   84.02318231
_symmetry_Int_Tables_number   1
_chemical_formula_structural   Tb3Th(Ga5Ir3)2
_chemical_formula_sum   'Tb3 Th1 Ga10 Ir6'
_cell_volume   368.36342051
_cell_formula_units_Z   1
loop_
 _symmetry_equiv_pos_site_id
 _symmetry_equiv_pos_as_xyz
  1  'x, y, z'
loop_
 _atom_site_type_symbol
 _atom_site_label
 _atom_site_symmetry_multiplicity
 _atom_site_fract_x
 _atom_site_fract_y
 _atom_site_fract_z
 _atom_site_occupancy
  Tb  Tb0  1  0.590062  0.360814  0.229247  1
  Tb  Tb1  1  0.131253  0.859444  0.271810  1
  Tb  Tb2  1  0.869042  0.140561  0.728481  1
  Th  Th3  1  0.415491  0.642379  0.773112  1
  Ga  Ga4  1  0.738632  0.914668  0.823965  1
  Ga  Ga5  1  0.258582  0.084914  0.173667  1
  Ga  Ga6  1  0.908711  0.586063  0.322649  1
  Ga  Ga7  1  0.087385  0.411078  0.676307  1
  Ga  Ga8  1  0.199517  0.956076  0.748007  1
  Ga  Ga9  1  0.799412  0.546460  0.750331  1
  Ga  Ga10  1  0.799412  0.049082  0.252953  1
  Ga  Ga11  1  0.199517  0.451510  0.243441  1
  Ga  Ga12  1  0.502203  0.751277  0.255706  1
  Ga  Ga13  1  0.502203  0.246497  0.750926  1
  Ir  Ir14  1  0.000665  0.749934  0.749777  1
  Ir  Ir15  1  0.000665  0.250888  0.250731  1
  Ir  Ir16  1  0.440369  0.845812  0.594556  1
  Ir  Ir17  1  0.555496  0.150930  0.404567  1
  Ir  Ir18  1  0.741811  0.650975  0.090835  1
  Ir  Ir19  1  0.259571  0.350638  0.908934  1
