# generated using pymatgen
data_Ba3DyLuWO9
_symmetry_space_group_name_H-M   'P 1'
_cell_length_a   6.06275500
_cell_length_b   6.06275438
_cell_length_c   7.41899400
_cell_angle_alpha   90.00000000
_cell_angle_beta   90.00000000
_cell_angle_gamma   119.99998700
_symmetry_Int_Tables_number   1
_chemical_formula_structural   Ba3DyLuWO9
_chemical_formula_sum   'Ba3 Dy1 Lu1 W1 O9'
_cell_volume   236.16509036
_cell_formula_units_Z   1
loop_
 _symmetry_equiv_pos_site_id
 _symmetry_equiv_pos_as_xyz
  1  'x, y, z'
loop_
 _atom_site_type_symbol
 _atom_site_label
 _atom_site_symmetry_multiplicity
 _atom_site_fract_x
 _atom_site_fract_y
 _atom_site_fract_z
 _atom_site_occupancy
  Ba  Ba0  1  0.000000  0.000000  0.498152  1
  Ba  Ba1  1  0.666667  0.333333  0.815641  1
  Ba  Ba2  1  0.333333  0.666667  0.184305  1
  Dy  Dy3  1  0.333333  0.666667  0.666312  1
  Lu  Lu4  1  0.666667  0.333333  0.331872  1
  W  W5  1  0.000000  0.000000  0.002788  1
  O  O6  1  0.694503  0.847251  0.850480  1
  O  O7  1  0.308193  0.154097  0.153436  1
  O  O8  1  0.996374  0.498187  0.496394  1
  O  O9  1  0.501813  0.003626  0.496394  1
  O  O10  1  0.152749  0.305497  0.850480  1
  O  O11  1  0.845903  0.691807  0.153436  1
  O  O12  1  0.501813  0.498187  0.496394  1
  O  O13  1  0.152749  0.847251  0.850480  1
  O  O14  1  0.845903  0.154097  0.153436  1
