# generated using pymatgen
data_Sr13Nd7Si15Hg
_symmetry_space_group_name_H-M   'P 1'
_cell_length_a   7.88689241
_cell_length_b   8.20296724
_cell_length_c   16.05755400
_cell_angle_alpha   90.24293776
_cell_angle_beta   89.19759671
_cell_angle_gamma   90.29120325
_symmetry_Int_Tables_number   1
_chemical_formula_structural   Sr13Nd7Si15Hg
_chemical_formula_sum   'Sr13 Nd7 Si15 Hg1'
_cell_volume   1038.73391255
_cell_formula_units_Z   1
loop_
 _symmetry_equiv_pos_site_id
 _symmetry_equiv_pos_as_xyz
  1  'x, y, z'
loop_
 _atom_site_type_symbol
 _atom_site_label
 _atom_site_symmetry_multiplicity
 _atom_site_fract_x
 _atom_site_fract_y
 _atom_site_fract_z
 _atom_site_occupancy
  Sr  Sr0  1  0.647678  0.974740  0.251747  1
  Sr  Sr1  1  0.151654  0.521973  0.250931  1
  Sr  Sr2  1  0.847034  0.480396  0.747110  1
  Sr  Sr3  1  0.354162  0.022140  0.746215  1
  Sr  Sr4  1  0.986765  0.826056  0.099162  1
  Sr  Sr5  1  0.473689  0.678485  0.405846  1
  Sr  Sr6  1  0.505719  0.322129  0.903636  1
  Sr  Sr7  1  0.029530  0.181487  0.594648  1
  Sr  Sr8  1  0.026276  0.170545  0.901825  1
  Sr  Sr9  1  0.528604  0.320372  0.594821  1
  Sr  Sr10  1  0.476314  0.678781  0.095845  1
  Sr  Sr11  1  0.973537  0.821329  0.404771  1
  Sr  Sr12  1  0.674971  0.827539  0.875254  1
  Nd  Nd13  1  0.182334  0.680190  0.619164  1
  Nd  Nd14  1  0.822432  0.312717  0.129439  1
  Nd  Nd15  1  0.316630  0.178948  0.380835  1
  Nd  Nd16  1  0.320319  0.180690  0.124107  1
  Nd  Nd17  1  0.815644  0.319998  0.380618  1
  Nd  Nd18  1  0.190422  0.680029  0.876666  1
  Nd  Nd19  1  0.684199  0.821117  0.619345  1
  Si  Si20  1  0.749481  0.591690  0.250851  1
  Si  Si21  1  0.249241  0.906423  0.252539  1
  Si  Si22  1  0.756806  0.100354  0.742998  1
  Si  Si23  1  0.243681  0.404600  0.747195  1
  Si  Si24  1  0.031478  0.116732  0.252215  1
  Si  Si25  1  0.531809  0.379276  0.254433  1
  Si  Si26  1  0.463696  0.614362  0.743601  1
  Si  Si27  1  0.974864  0.886028  0.745817  1
  Si  Si28  1  0.366460  0.965431  0.535975  1
  Si  Si29  1  0.635456  0.044473  0.037920  1
  Si  Si30  1  0.132845  0.465656  0.462567  1
  Si  Si31  1  0.151599  0.460857  0.038821  1
  Si  Si32  1  0.633604  0.034750  0.462710  1
  Si  Si33  1  0.357914  0.966345  0.968919  1
  Si  Si34  1  0.865717  0.536830  0.534826  1
  Hg  Hg35  1  0.847436  0.526523  0.966628  1
