# generated using pymatgen
data_Ti2Cu2Tc
_symmetry_space_group_name_H-M   'P 1'
_cell_length_a   3.15250962
_cell_length_b   3.15250999
_cell_length_c   7.49896897
_cell_angle_alpha   102.13385367
_cell_angle_beta   102.13385277
_cell_angle_gamma   89.99999727
_symmetry_Int_Tables_number   1
_chemical_formula_structural   Ti2Cu2Tc
_chemical_formula_sum   'Ti2 Cu2 Tc1'
_cell_volume   71.15820135
_cell_formula_units_Z   1
loop_
 _symmetry_equiv_pos_site_id
 _symmetry_equiv_pos_as_xyz
  1  'x, y, z'
loop_
 _atom_site_type_symbol
 _atom_site_label
 _atom_site_symmetry_multiplicity
 _atom_site_fract_x
 _atom_site_fract_y
 _atom_site_fract_z
 _atom_site_occupancy
  Ti  Ti0  1  0.603305  0.603305  0.206614  1
  Ti  Ti1  1  0.396693  0.396693  0.793385  1
  Cu  Cu2  1  0.205963  0.205963  0.411926  1
  Cu  Cu3  1  0.794036  0.794036  0.588075  1
  Tc  Tc4  1  0.000000  0.000000  0.000000  1
