# generated using pymatgen
data_Hf4CrCo2Si4Pt
_symmetry_space_group_name_H-M   'P 1'
_cell_length_a   3.87155500
_cell_length_b   6.43019585
_cell_length_c   7.32254612
_cell_angle_alpha   90.64041123
_cell_angle_beta   90.00000000
_cell_angle_gamma   90.00000000
_symmetry_Int_Tables_number   1
_chemical_formula_structural   Hf4CrCo2Si4Pt
_chemical_formula_sum   'Hf4 Cr1 Co2 Si4 Pt1'
_cell_volume   182.28235080
_cell_formula_units_Z   1
loop_
 _symmetry_equiv_pos_site_id
 _symmetry_equiv_pos_as_xyz
  1  'x, y, z'
loop_
 _atom_site_type_symbol
 _atom_site_label
 _atom_site_symmetry_multiplicity
 _atom_site_fract_x
 _atom_site_fract_y
 _atom_site_fract_z
 _atom_site_occupancy
  Hf  Hf0  1  0.750000  0.492368  0.322213  1
  Hf  Hf1  1  0.250000  0.010310  0.805379  1
  Hf  Hf2  1  0.750000  0.974020  0.193016  1
  Hf  Hf3  1  0.250000  0.516491  0.673954  1
  Cr  Cr4  1  0.250000  0.658239  0.065010  1
  Co  Co5  1  0.250000  0.147827  0.439678  1
  Co  Co6  1  0.750000  0.854404  0.567182  1
  Si  Si7  1  0.250000  0.274389  0.133895  1
  Si  Si8  1  0.250000  0.785430  0.392111  1
  Si  Si9  1  0.750000  0.725902  0.872328  1
  Si  Si10  1  0.750000  0.216740  0.600422  1
  Pt  Pt11  1  0.750000  0.343879  0.934814  1
