# generated using pymatgen
data_Dy3Ho5(ScIn3)2
_symmetry_space_group_name_H-M   'P 1'
_cell_length_a   9.05229129
_cell_length_b   9.05229229
_cell_length_c   9.05049500
_cell_angle_alpha   96.47989182
_cell_angle_beta   96.47264976
_cell_angle_gamma   140.75622864
_symmetry_Int_Tables_number   1
_chemical_formula_structural   Dy3Ho5(ScIn3)2
_chemical_formula_sum   'Dy3 Ho5 Sc2 In6'
_cell_volume   441.91671323
_cell_formula_units_Z   1
loop_
 _symmetry_equiv_pos_site_id
 _symmetry_equiv_pos_as_xyz
  1  'x, y, z'
loop_
 _atom_site_type_symbol
 _atom_site_label
 _atom_site_symmetry_multiplicity
 _atom_site_fract_x
 _atom_site_fract_y
 _atom_site_fract_z
 _atom_site_occupancy
  Dy  Dy0  1  0.781293  0.917439  0.698733  1
  Dy  Dy1  1  0.417385  0.281336  0.698722  1
  Dy  Dy2  1  0.082747  0.781266  0.864012  1
  Ho  Ho3  1  0.718327  0.417519  0.135846  1
  Ho  Ho4  1  0.281546  0.582769  0.864314  1
  Ho  Ho5  1  0.582806  0.718381  0.301186  1
  Ho  Ho6  1  0.218416  0.082955  0.301368  1
  Ho  Ho7  1  0.917406  0.218327  0.135735  1
  Sc  Sc8  1  0.750005  0.249951  0.499911  1
  Sc  Sc9  1  0.249961  0.749906  0.499911  1
  In  In10  1  0.843570  0.656212  0.499781  1
  In  In11  1  0.343712  0.843759  0.187471  1
  In  In12  1  0.750046  0.750102  0.000126  1
  In  In13  1  0.656481  0.156407  0.812890  1
  In  In14  1  0.156280  0.343594  0.499874  1
  In  In15  1  0.250022  0.250079  0.000126  1
