# generated using pymatgen
data_Sc4GeAs5Rh7
_symmetry_space_group_name_H-M   'P 1'
_cell_length_a   7.11405931
_cell_length_b   7.11405831
_cell_length_c   7.11405953
_cell_angle_alpha   109.42292430
_cell_angle_beta   109.42292039
_cell_angle_gamma   109.56786356
_symmetry_Int_Tables_number   1
_chemical_formula_structural   Sc4GeAs5Rh7
_chemical_formula_sum   'Sc4 Ge1 As5 Rh7'
_cell_volume   277.15936856
_cell_formula_units_Z   1
loop_
 _symmetry_equiv_pos_site_id
 _symmetry_equiv_pos_as_xyz
  1  'x, y, z'
loop_
 _atom_site_type_symbol
 _atom_site_label
 _atom_site_symmetry_multiplicity
 _atom_site_fract_x
 _atom_site_fract_y
 _atom_site_fract_z
 _atom_site_occupancy
  Sc  Sc0  1  0.500116  0.500116  0.500169  1
  Sc  Sc1  1  0.999947  0.999947  0.499831  1
  Sc  Sc2  1  0.500116  0.999947  0.000000  1
  Sc  Sc3  1  0.999947  0.500116  0.000000  1
  Ge  Ge4  1  0.685702  0.685702  0.000000  1
  As  As5  1  0.318118  0.318118  0.000000  1
  As  As6  1  0.998989  0.313239  0.314250  1
  As  As7  1  0.998989  0.684739  0.685750  1
  As  As8  1  0.684739  0.998989  0.685750  1
  As  As9  1  0.313239  0.998989  0.314250  1
  Rh  Rh10  1  0.749165  0.249165  0.500000  1
  Rh  Rh11  1  0.500713  0.250056  0.749343  1
  Rh  Rh12  1  0.500713  0.751371  0.250657  1
  Rh  Rh13  1  0.250056  0.500713  0.749343  1
  Rh  Rh14  1  0.751371  0.500713  0.250657  1
  Rh  Rh15  1  0.249165  0.749165  0.500000  1
  Rh  Rh16  1  0.998911  0.998911  0.000000  1
