# generated using pymatgen
data_Mg3In5BRh4
_symmetry_space_group_name_H-M   'P 1'
_cell_length_a   8.70316277
_cell_length_b   8.78813440
_cell_length_c   8.72266701
_cell_angle_alpha   60.24927339
_cell_angle_beta   59.92381038
_cell_angle_gamma   59.73393354
_symmetry_Int_Tables_number   1
_chemical_formula_structural   Mg3In5BRh4
_chemical_formula_sum   'Mg6 In10 B2 Rh8'
_cell_volume   471.39473290
_cell_formula_units_Z   2
loop_
 _symmetry_equiv_pos_site_id
 _symmetry_equiv_pos_as_xyz
  1  'x, y, z'
loop_
 _atom_site_type_symbol
 _atom_site_label
 _atom_site_symmetry_multiplicity
 _atom_site_fract_x
 _atom_site_fract_y
 _atom_site_fract_z
 _atom_site_occupancy
  Mg  Mg0  1  0.125749  0.122948  0.625339  1
  Mg  Mg1  1  0.125006  0.624998  0.121807  1
  Mg  Mg2  1  0.951015  0.550843  0.948728  1
  Mg  Mg3  1  0.124252  0.127031  0.124049  1
  Mg  Mg4  1  0.625008  0.124996  0.124795  1
  Mg  Mg5  1  0.298989  0.699152  0.700598  1
  In  In6  1  0.953135  0.944544  0.553991  1
  In  In7  1  0.301548  0.699103  0.302497  1
  In  In8  1  0.696424  0.303052  0.698452  1
  In  In9  1  0.296764  0.305519  0.701746  1
  In  In10  1  0.702022  0.302257  0.296049  1
  In  In11  1  0.699520  0.699105  0.297916  1
  In  In12  1  0.948536  0.550784  0.553013  1
  In  In13  1  0.553487  0.947000  0.948045  1
  In  In14  1  0.547995  0.947937  0.550248  1
  In  In15  1  0.550500  0.550861  0.946744  1
  B  B16  1  0.250966  0.249393  0.249689  1
  B  B17  1  0.999039  0.000582  0.000049  1
  Rh  Rh18  1  0.904034  0.901684  0.905464  1
  Rh  Rh19  1  0.905371  0.289089  0.903271  1
  Rh  Rh20  1  0.290116  0.903222  0.903701  1
  Rh  Rh21  1  0.345963  0.348291  0.961206  1
  Rh  Rh22  1  0.959892  0.346754  0.347050  1
  Rh  Rh23  1  0.903826  0.902204  0.290884  1
  Rh  Rh24  1  0.344650  0.960884  0.347734  1
  Rh  Rh25  1  0.346191  0.347767  0.346935  1
