# generated using pymatgen
data_Tm6Zn4Pt13
_symmetry_space_group_name_H-M   'P 1'
_cell_length_a   8.23445968
_cell_length_b   8.23446027
_cell_length_c   8.23446000
_cell_angle_alpha   109.47121997
_cell_angle_beta   109.47122142
_cell_angle_gamma   109.47122883
_symmetry_Int_Tables_number   1
_chemical_formula_structural   Tm6Zn4Pt13
_chemical_formula_sum   'Tm6 Zn4 Pt13'
_cell_volume   429.81684778
_cell_formula_units_Z   1
loop_
 _symmetry_equiv_pos_site_id
 _symmetry_equiv_pos_as_xyz
  1  'x, y, z'
loop_
 _atom_site_type_symbol
 _atom_site_label
 _atom_site_symmetry_multiplicity
 _atom_site_fract_x
 _atom_site_fract_y
 _atom_site_fract_z
 _atom_site_occupancy
  Tm  Tm0  1  0.697478  0.697478  0.000000  1
  Tm  Tm1  1  0.302522  0.000000  0.302522  1
  Tm  Tm2  1  0.000000  0.302522  0.302522  1
  Tm  Tm3  1  0.302522  0.302522  0.000000  1
  Tm  Tm4  1  0.697478  0.000000  0.697478  1
  Tm  Tm5  1  0.000000  0.697478  0.697478  1
  Zn  Zn6  1  0.000000  0.000000  0.500000  1
  Zn  Zn7  1  0.000000  0.500000  0.000000  1
  Zn  Zn8  1  0.500000  0.000000  0.000000  1
  Zn  Zn9  1  0.500000  0.500000  0.500000  1
  Pt  Pt10  1  0.331977  0.331977  0.663953  1
  Pt  Pt11  1  0.668023  0.000000  0.331977  1
  Pt  Pt12  1  0.000000  0.668023  0.331977  1
  Pt  Pt13  1  0.668023  0.331977  0.000000  1
  Pt  Pt14  1  0.331977  0.663953  0.331977  1
  Pt  Pt15  1  0.000000  0.331977  0.668023  1
  Pt  Pt16  1  0.331977  0.668023  0.000000  1
  Pt  Pt17  1  0.331977  0.000000  0.668023  1
  Pt  Pt18  1  0.663953  0.331977  0.331977  1
  Pt  Pt19  1  0.668023  0.668023  0.336047  1
  Pt  Pt20  1  0.668023  0.336047  0.668023  1
  Pt  Pt21  1  0.336047  0.668023  0.668023  1
  Pt  Pt22  1  0.000000  0.000000  0.000000  1
