# generated using pymatgen
data_Cs4Na2DyTmAs4
_symmetry_space_group_name_H-M   'P 1'
_cell_length_a   9.78779541
_cell_length_b   9.78779532
_cell_length_c   9.78779533
_cell_angle_alpha   136.34882549
_cell_angle_beta   136.79779745
_cell_angle_gamma   63.09594236
_symmetry_Int_Tables_number   1
_chemical_formula_structural   Cs4Na2DyTmAs4
_chemical_formula_sum   'Cs4 Na2 Dy1 Tm1 As4'
_cell_volume   437.48395553
_cell_formula_units_Z   1
loop_
 _symmetry_equiv_pos_site_id
 _symmetry_equiv_pos_as_xyz
  1  'x, y, z'
loop_
 _atom_site_type_symbol
 _atom_site_label
 _atom_site_symmetry_multiplicity
 _atom_site_fract_x
 _atom_site_fract_y
 _atom_site_fract_z
 _atom_site_occupancy
  Cs  Cs0  1  0.680930  0.398488  0.717273  1
  Cs  Cs1  1  0.819070  0.036343  0.217558  1
  Cs  Cs2  1  0.181215  0.963657  0.782727  1
  Cs  Cs3  1  0.318785  0.601512  0.282442  1
  Na  Na4  1  0.750000  0.000000  0.750000  1
  Na  Na5  1  0.250000  0.000000  0.250000  1
  Dy  Dy6  1  0.750000  0.500000  0.250000  1
  Tm  Tm7  1  0.250000  0.500000  0.750000  1
  As  As8  1  0.407897  0.190732  0.777972  1
  As  As9  1  0.587240  0.809268  0.217165  1
  As  As10  1  0.092103  0.370074  0.282835  1
  As  As11  1  0.912760  0.629926  0.722028  1
