# generated using pymatgen
data_Pr5Nd3Al(Si4Rh)3
_symmetry_space_group_name_H-M   'P 1'
_cell_length_a   8.28166500
_cell_length_b   8.28166588
_cell_length_c   8.53606400
_cell_angle_alpha   90.00000000
_cell_angle_beta   90.00000000
_cell_angle_gamma   120.00000049
_symmetry_Int_Tables_number   1
_chemical_formula_structural   Pr5Nd3Al(Si4Rh)3
_chemical_formula_sum   'Pr5 Nd3 Al1 Si12 Rh3'
_cell_volume   507.01832488
_cell_formula_units_Z   1
loop_
 _symmetry_equiv_pos_site_id
 _symmetry_equiv_pos_as_xyz
  1  'x, y, z'
loop_
 _atom_site_type_symbol
 _atom_site_label
 _atom_site_symmetry_multiplicity
 _atom_site_fract_x
 _atom_site_fract_y
 _atom_site_fract_z
 _atom_site_occupancy
  Pr  Pr0  1  0.000000  0.000000  0.747555  1
  Pr  Pr1  1  0.000000  0.000000  0.252589  1
  Pr  Pr2  1  0.497711  0.502289  0.745830  1
  Pr  Pr3  1  0.497711  0.995423  0.745830  1
  Pr  Pr4  1  0.004577  0.502289  0.745830  1
  Nd  Nd5  1  0.498903  0.501097  0.254145  1
  Nd  Nd6  1  0.002195  0.501097  0.254145  1
  Nd  Nd7  1  0.498903  0.997805  0.254145  1
  Al  Al8  1  0.666667  0.333333  0.998230  1
  Si  Si9  1  0.838561  0.161439  0.001406  1
  Si  Si10  1  0.838561  0.677124  0.001406  1
  Si  Si11  1  0.322876  0.161439  0.001406  1
  Si  Si12  1  0.832386  0.167614  0.499474  1
  Si  Si13  1  0.832386  0.664772  0.499474  1
  Si  Si14  1  0.335228  0.167614  0.499474  1
  Si  Si15  1  0.166938  0.833062  0.498182  1
  Si  Si16  1  0.666126  0.833062  0.498182  1
  Si  Si17  1  0.166938  0.333874  0.498182  1
  Si  Si18  1  0.169589  0.830411  0.001252  1
  Si  Si19  1  0.660822  0.830411  0.001252  1
  Si  Si20  1  0.169589  0.339178  0.001252  1
  Rh  Rh21  1  0.666667  0.333333  0.500347  1
  Rh  Rh22  1  0.333333  0.666667  0.496333  1
  Rh  Rh23  1  0.333333  0.666667  0.004079  1
