# generated using pymatgen
data_Lu10CoAg3
_symmetry_space_group_name_H-M   'P 1'
_cell_length_a   9.26940400
_cell_length_b   9.26940407
_cell_length_c   9.31647500
_cell_angle_alpha   90.00000000
_cell_angle_beta   90.00000000
_cell_angle_gamma   119.99999261
_symmetry_Int_Tables_number   1
_chemical_formula_structural   Lu10CoAg3
_chemical_formula_sum   'Lu20 Co2 Ag6'
_cell_volume   693.24366907
_cell_formula_units_Z   2
loop_
 _symmetry_equiv_pos_site_id
 _symmetry_equiv_pos_as_xyz
  1  'x, y, z'
loop_
 _atom_site_type_symbol
 _atom_site_label
 _atom_site_symmetry_multiplicity
 _atom_site_fract_x
 _atom_site_fract_y
 _atom_site_fract_z
 _atom_site_occupancy
  Lu  Lu0  1  0.000000  0.000000  0.500000  1
  Lu  Lu1  1  0.000000  0.000000  0.000000  1
  Lu  Lu2  1  0.542303  0.457697  0.250000  1
  Lu  Lu3  1  0.542303  0.084604  0.250000  1
  Lu  Lu4  1  0.915396  0.457697  0.250000  1
  Lu  Lu5  1  0.457697  0.542303  0.750000  1
  Lu  Lu6  1  0.457697  0.915396  0.750000  1
  Lu  Lu7  1  0.084604  0.542303  0.750000  1
  Lu  Lu8  1  0.210975  0.789025  0.437985  1
  Lu  Lu9  1  0.210975  0.421950  0.437985  1
  Lu  Lu10  1  0.578050  0.789025  0.437985  1
  Lu  Lu11  1  0.789025  0.210975  0.562015  1
  Lu  Lu12  1  0.789025  0.578050  0.562015  1
  Lu  Lu13  1  0.421950  0.210975  0.562015  1
  Lu  Lu14  1  0.789025  0.210975  0.937985  1
  Lu  Lu15  1  0.789025  0.578050  0.937985  1
  Lu  Lu16  1  0.421950  0.210975  0.937985  1
  Lu  Lu17  1  0.210975  0.789025  0.062015  1
  Lu  Lu18  1  0.210975  0.421950  0.062015  1
  Lu  Lu19  1  0.578050  0.789025  0.062015  1
  Co  Co20  1  0.333333  0.666667  0.250000  1
  Co  Co21  1  0.666667  0.333333  0.750000  1
  Ag  Ag22  1  0.883753  0.116247  0.250000  1
  Ag  Ag23  1  0.883753  0.767505  0.250000  1
  Ag  Ag24  1  0.232495  0.116247  0.250000  1
  Ag  Ag25  1  0.116247  0.883753  0.750000  1
  Ag  Ag26  1  0.116247  0.232495  0.750000  1
  Ag  Ag27  1  0.767505  0.883753  0.750000  1
