# generated using pymatgen
data_Zr3UTc7As6
_symmetry_space_group_name_H-M   'P 1'
_cell_length_a   7.16638218
_cell_length_b   7.16638151
_cell_length_c   7.16638091
_cell_angle_alpha   109.53246406
_cell_angle_beta   109.53247368
_cell_angle_gamma   109.53246898
_symmetry_Int_Tables_number   1
_chemical_formula_structural   Zr3UTc7As6
_chemical_formula_sum   'Zr3 U1 Tc7 As6'
_cell_volume   282.67612794
_cell_formula_units_Z   1
loop_
 _symmetry_equiv_pos_site_id
 _symmetry_equiv_pos_as_xyz
  1  'x, y, z'
loop_
 _atom_site_type_symbol
 _atom_site_label
 _atom_site_symmetry_multiplicity
 _atom_site_fract_x
 _atom_site_fract_y
 _atom_site_fract_z
 _atom_site_occupancy
  Zr  Zr0  1  0.000000  0.000000  0.500000  1
  Zr  Zr1  1  0.500000  0.000000  0.000000  1
  Zr  Zr2  1  0.000000  0.500000  0.000000  1
  U  U3  1  0.500000  0.500000  0.500000  1
  Tc  Tc4  1  0.749028  0.250972  0.500000  1
  Tc  Tc5  1  0.500000  0.250972  0.749028  1
  Tc  Tc6  1  0.500000  0.749028  0.250972  1
  Tc  Tc7  1  0.250972  0.500000  0.749028  1
  Tc  Tc8  1  0.749028  0.500000  0.250972  1
  Tc  Tc9  1  0.250972  0.749028  0.500000  1
  Tc  Tc10  1  0.000000  0.000000  0.000000  1
  As  As11  1  0.305846  0.305846  0.994356  1
  As  As12  1  0.994356  0.305846  0.305846  1
  As  As13  1  0.005644  0.694154  0.694154  1
  As  As14  1  0.694154  0.005644  0.694154  1
  As  As15  1  0.305846  0.994356  0.305846  1
  As  As16  1  0.694154  0.694154  0.005644  1
