# generated using pymatgen
data_HoLu3Th6(Si3C)2
_symmetry_space_group_name_H-M   'P 1'
_cell_length_a   8.71171200
_cell_length_b   8.71136880
_cell_length_c   6.32484800
_cell_angle_alpha   90.00234993
_cell_angle_beta   90.00033654
_cell_angle_gamma   119.99960123
_symmetry_Int_Tables_number   1
_chemical_formula_structural   HoLu3Th6(Si3C)2
_chemical_formula_sum   'Ho1 Lu3 Th6 Si6 C2'
_cell_volume   415.69268234
_cell_formula_units_Z   1
loop_
 _symmetry_equiv_pos_site_id
 _symmetry_equiv_pos_as_xyz
  1  'x, y, z'
loop_
 _atom_site_type_symbol
 _atom_site_label
 _atom_site_symmetry_multiplicity
 _atom_site_fract_x
 _atom_site_fract_y
 _atom_site_fract_z
 _atom_site_occupancy
  Ho  Ho0  1  0.666662  0.333328  0.500002  1
  Lu  Lu1  1  0.333338  0.666673  0.499995  1
  Lu  Lu2  1  0.333331  0.666668  0.999999  1
  Lu  Lu3  1  0.666674  0.333345  0.000006  1
  Th  Th4  1  0.765573  0.765583  0.250522  1
  Th  Th5  1  0.234404  0.999961  0.250545  1
  Th  Th6  1  0.000019  0.234468  0.250540  1
  Th  Th7  1  0.234421  0.234452  0.749479  1
  Th  Th8  1  0.765547  0.999974  0.749455  1
  Th  Th9  1  0.000034  0.765534  0.749466  1
  Si  Si10  1  0.401903  0.403535  0.247746  1
  Si  Si11  1  0.596466  0.998372  0.247745  1
  Si  Si12  1  0.001624  0.598095  0.247764  1
  Si  Si13  1  0.596470  0.598097  0.752253  1
  Si  Si14  1  0.401904  0.998375  0.752255  1
  Si  Si15  1  0.001627  0.403539  0.752237  1
  C  C16  1  0.000000  0.999998  0.499999  1
  C  C17  1  0.000002  0.000000  0.999993  1
