# generated using pymatgen
data_Zr10Tl5CuPPb
_symmetry_space_group_name_H-M   'P 1'
_cell_length_a   8.77672735
_cell_length_b   8.78880933
_cell_length_c   5.92727556
_cell_angle_alpha   89.91678261
_cell_angle_beta   90.04165925
_cell_angle_gamma   120.04552911
_symmetry_Int_Tables_number   1
_chemical_formula_structural   Zr10Tl5CuPPb
_chemical_formula_sum   'Zr10 Tl5 Cu1 P1 Pb1'
_cell_volume   395.77514107
_cell_formula_units_Z   1
loop_
 _symmetry_equiv_pos_site_id
 _symmetry_equiv_pos_as_xyz
  1  'x, y, z'
loop_
 _atom_site_type_symbol
 _atom_site_label
 _atom_site_symmetry_multiplicity
 _atom_site_fract_x
 _atom_site_fract_y
 _atom_site_fract_z
 _atom_site_occupancy
  Zr  Zr0  1  0.665280  0.332766  0.499222  1
  Zr  Zr1  1  0.334720  0.667487  0.499222  1
  Zr  Zr2  1  0.334183  0.667607  0.000797  1
  Zr  Zr3  1  0.665817  0.333423  0.000797  1
  Zr  Zr4  1  0.748826  0.748969  0.256609  1
  Zr  Zr5  1  0.251174  0.000142  0.256609  1
  Zr  Zr6  1  0.000000  0.250772  0.256419  1
  Zr  Zr7  1  0.250712  0.250244  0.742926  1
  Zr  Zr8  1  0.749288  0.999533  0.742926  1
  Zr  Zr9  1  0.000000  0.749052  0.743897  1
  Tl  Tl10  1  0.390174  0.390331  0.245928  1
  Tl  Tl11  1  0.609826  0.000157  0.245928  1
  Tl  Tl12  1  0.000000  0.610621  0.246478  1
  Tl  Tl13  1  0.609621  0.609785  0.754115  1
  Tl  Tl14  1  0.390379  0.000164  0.754115  1
  Cu  Cu15  1  0.000000  0.999156  0.000554  1
  P  P16  1  0.000000  0.999438  0.499407  1
  Pb  Pb17  1  0.000000  0.390353  0.754051  1
