# generated using pymatgen
data_NaSr2NpO6
_symmetry_space_group_name_H-M   'P 1'
_cell_length_a   5.92685769
_cell_length_b   6.17965000
_cell_length_c   8.43037104
_cell_angle_alpha   90.00000000
_cell_angle_beta   89.05708540
_cell_angle_gamma   90.00000000
_symmetry_Int_Tables_number   1
_chemical_formula_structural   NaSr2NpO6
_chemical_formula_sum   'Na2 Sr4 Np2 O12'
_cell_volume   308.72816678
_cell_formula_units_Z   2
loop_
 _symmetry_equiv_pos_site_id
 _symmetry_equiv_pos_as_xyz
  1  'x, y, z'
loop_
 _atom_site_type_symbol
 _atom_site_label
 _atom_site_symmetry_multiplicity
 _atom_site_fract_x
 _atom_site_fract_y
 _atom_site_fract_z
 _atom_site_occupancy
  Na  Na0  1  0.500000  0.500000  0.000000  1
  Na  Na1  1  0.000000  0.000000  0.500000  1
  Sr  Sr2  1  0.515608  0.057549  0.754648  1
  Sr  Sr3  1  0.984392  0.557549  0.745352  1
  Sr  Sr4  1  0.484392  0.942451  0.245352  1
  Sr  Sr5  1  0.015608  0.442451  0.254648  1
  Np  Np6  1  0.500000  0.500000  0.500000  1
  Np  Np7  1  0.000000  0.000000  0.000000  1
  O  O8  1  0.669739  0.771519  0.566254  1
  O  O9  1  0.830261  0.271519  0.933746  1
  O  O10  1  0.330261  0.228481  0.433746  1
  O  O11  1  0.169739  0.728481  0.066254  1
  O  O12  1  0.391075  0.450438  0.726045  1
  O  O13  1  0.108925  0.950438  0.773955  1
  O  O14  1  0.608925  0.549562  0.273955  1
  O  O15  1  0.891075  0.049562  0.226045  1
  O  O16  1  0.779216  0.324139  0.547031  1
  O  O17  1  0.720784  0.824139  0.952969  1
  O  O18  1  0.220784  0.675861  0.452969  1
  O  O19  1  0.279216  0.175861  0.047031  1
