# generated using pymatgen
data_YHoLu2(WO6)2
_symmetry_space_group_name_H-M   'P 1'
_cell_length_a   5.36186600
_cell_length_b   7.64159324
_cell_length_c   11.34641722
_cell_angle_alpha   75.56656624
_cell_angle_beta   90.00000000
_cell_angle_gamma   90.00000000
_symmetry_Int_Tables_number   1
_chemical_formula_structural   YHoLu2(WO6)2
_chemical_formula_sum   'Y2 Ho2 Lu4 W4 O24'
_cell_volume   450.22581143
_cell_formula_units_Z   2
loop_
 _symmetry_equiv_pos_site_id
 _symmetry_equiv_pos_as_xyz
  1  'x, y, z'
loop_
 _atom_site_type_symbol
 _atom_site_label
 _atom_site_symmetry_multiplicity
 _atom_site_fract_x
 _atom_site_fract_y
 _atom_site_fract_z
 _atom_site_occupancy
  Y  Y0  1  0.315745  0.500000  0.750000  1
  Y  Y1  1  0.684255  0.500000  0.250000  1
  Ho  Ho2  1  0.257966  0.000000  0.750000  1
  Ho  Ho3  1  0.742034  0.000000  0.250000  1
  Lu  Lu4  1  0.184258  0.794898  0.078631  1
  Lu  Lu5  1  0.184258  0.205102  0.421369  1
  Lu  Lu6  1  0.815742  0.205102  0.921369  1
  Lu  Lu7  1  0.815742  0.794898  0.578631  1
  W  W8  1  0.744691  0.724800  0.885757  1
  W  W9  1  0.255309  0.724800  0.385757  1
  W  W10  1  0.744691  0.275200  0.614243  1
  W  W11  1  0.255309  0.275200  0.114243  1
  O  O12  1  0.855191  0.363142  0.450580  1
  O  O13  1  0.461599  0.845514  0.932379  1
  O  O14  1  0.855191  0.636858  0.049420  1
  O  O15  1  0.018705  0.286236  0.730337  1
  O  O16  1  0.981295  0.286236  0.230337  1
  O  O17  1  0.144809  0.363142  0.950580  1
  O  O18  1  0.643311  0.488008  0.886959  1
  O  O19  1  0.538401  0.154486  0.067621  1
  O  O20  1  0.144809  0.636858  0.549420  1
  O  O21  1  0.018705  0.713764  0.769663  1
  O  O22  1  0.455709  0.207063  0.274796  1
  O  O23  1  0.044757  0.942619  0.396889  1
  O  O24  1  0.461599  0.154486  0.567621  1
  O  O25  1  0.981295  0.713764  0.269663  1
  O  O26  1  0.955243  0.057381  0.603111  1
  O  O27  1  0.544291  0.207063  0.774796  1
  O  O28  1  0.544291  0.792937  0.725204  1
  O  O29  1  0.044757  0.057381  0.103111  1
  O  O30  1  0.643311  0.511992  0.613041  1
  O  O31  1  0.356689  0.511992  0.113041  1
  O  O32  1  0.455709  0.792937  0.225204  1
  O  O33  1  0.356689  0.488008  0.386959  1
  O  O34  1  0.538401  0.845514  0.432379  1
  O  O35  1  0.955243  0.942619  0.896889  1
