# generated using pymatgen
data_HoSi4Ir5Ru
_symmetry_space_group_name_H-M   'P 1'
_cell_length_a   7.03030098
_cell_length_b   7.03030259
_cell_length_c   3.83946300
_cell_angle_alpha   90.00000000
_cell_angle_beta   90.00000000
_cell_angle_gamma   120.13643352
_symmetry_Int_Tables_number   1
_chemical_formula_structural   HoSi4Ir5Ru
_chemical_formula_sum   'Ho1 Si4 Ir5 Ru1'
_cell_volume   164.11578181
_cell_formula_units_Z   1
loop_
 _symmetry_equiv_pos_site_id
 _symmetry_equiv_pos_as_xyz
  1  'x, y, z'
loop_
 _atom_site_type_symbol
 _atom_site_label
 _atom_site_symmetry_multiplicity
 _atom_site_fract_x
 _atom_site_fract_y
 _atom_site_fract_z
 _atom_site_occupancy
  Ho  Ho0  1  0.000879  0.999121  0.000000  1
  Si  Si1  1  0.802506  0.197494  0.500000  1
  Si  Si2  1  0.801482  0.605343  0.500000  1
  Si  Si3  1  0.394657  0.198518  0.500000  1
  Si  Si4  1  0.334959  0.665041  0.000000  1
  Ir  Ir5  1  0.531936  0.066672  0.000000  1
  Ir  Ir6  1  0.933328  0.468064  0.000000  1
  Ir  Ir7  1  0.197999  0.802001  0.500000  1
  Ir  Ir8  1  0.197368  0.395458  0.500000  1
  Ir  Ir9  1  0.604542  0.802632  0.500000  1
  Ru  Ru10  1  0.533676  0.466324  0.000000  1
