# generated using pymatgen
data_SrScSi4N7
_symmetry_space_group_name_H-M   'P 1'
_cell_length_a   5.93807100
_cell_length_b   5.93807083
_cell_length_c   9.67233500
_cell_angle_alpha   90.00000000
_cell_angle_beta   90.00000000
_cell_angle_gamma   119.99998426
_symmetry_Int_Tables_number   1
_chemical_formula_structural   SrScSi4N7
_chemical_formula_sum   'Sr2 Sc2 Si8 N14'
_cell_volume   295.36075517
_cell_formula_units_Z   2
loop_
 _symmetry_equiv_pos_site_id
 _symmetry_equiv_pos_as_xyz
  1  'x, y, z'
loop_
 _atom_site_type_symbol
 _atom_site_label
 _atom_site_symmetry_multiplicity
 _atom_site_fract_x
 _atom_site_fract_y
 _atom_site_fract_z
 _atom_site_occupancy
  Sr  Sr0  1  0.666667  0.333333  0.579594  1
  Sr  Sr1  1  0.333333  0.666667  0.079594  1
  Sc  Sc2  1  0.666667  0.333333  0.951329  1
  Sc  Sc3  1  0.333333  0.666667  0.451329  1
  Si  Si4  1  0.173789  0.347577  0.760662  1
  Si  Si5  1  0.826211  0.173789  0.260662  1
  Si  Si6  1  0.347577  0.173789  0.260662  1
  Si  Si7  1  0.652423  0.826211  0.760662  1
  Si  Si8  1  0.173789  0.826211  0.760662  1
  Si  Si9  1  0.826211  0.652423  0.260662  1
  Si  Si10  1  0.000000  0.000000  0.024536  1
  Si  Si11  1  0.000000  0.000000  0.524536  1
  N  N12  1  0.000000  0.000000  0.832786  1
  N  N13  1  0.000000  0.000000  0.332786  1
  N  N14  1  0.842691  0.685383  0.083149  1
  N  N15  1  0.157309  0.842691  0.583149  1
  N  N16  1  0.685383  0.842691  0.583149  1
  N  N17  1  0.314617  0.157309  0.083149  1
  N  N18  1  0.842691  0.157309  0.083149  1
  N  N19  1  0.157309  0.314617  0.583149  1
  N  N20  1  0.492322  0.507678  0.817715  1
  N  N21  1  0.984646  0.492322  0.317715  1
  N  N22  1  0.507678  0.015354  0.317715  1
  N  N23  1  0.492322  0.984646  0.817715  1
  N  N24  1  0.507678  0.492322  0.317715  1
  N  N25  1  0.015354  0.507678  0.817715  1
