# generated using pymatgen
data_YTm9(In2Pt)4
_symmetry_space_group_name_H-M   'P 1'
_cell_length_a   3.57641000
_cell_length_b   8.11530053
_cell_length_c   18.19570085
_cell_angle_alpha   89.85229652
_cell_angle_beta   90.00000000
_cell_angle_gamma   90.00000000
_symmetry_Int_Tables_number   1
_chemical_formula_structural   YTm9(In2Pt)4
_chemical_formula_sum   'Y1 Tm9 In8 Pt4'
_cell_volume   528.10375184
_cell_formula_units_Z   1
loop_
 _symmetry_equiv_pos_site_id
 _symmetry_equiv_pos_as_xyz
  1  'x, y, z'
loop_
 _atom_site_type_symbol
 _atom_site_label
 _atom_site_symmetry_multiplicity
 _atom_site_fract_x
 _atom_site_fract_y
 _atom_site_fract_z
 _atom_site_occupancy
  Y  Y0  1  0.000000  0.000000  0.000000  1
  Tm  Tm1  1  0.000000  0.115900  0.414768  1
  Tm  Tm2  1  0.000000  0.884100  0.585232  1
  Tm  Tm3  1  0.000000  0.382784  0.914093  1
  Tm  Tm4  1  0.000000  0.617216  0.085907  1
  Tm  Tm5  1  0.000000  0.243312  0.221399  1
  Tm  Tm6  1  0.000000  0.756688  0.778601  1
  Tm  Tm7  1  0.000000  0.256887  0.720730  1
  Tm  Tm8  1  0.000000  0.743113  0.279270  1
  Tm  Tm9  1  0.000000  0.500000  0.500000  1
  In  In10  1  0.500000  0.424913  0.352117  1
  In  In11  1  0.500000  0.575087  0.647883  1
  In  In12  1  0.500000  0.074575  0.850787  1
  In  In13  1  0.500000  0.925425  0.149213  1
  In  In14  1  0.500000  0.294200  0.067406  1
  In  In15  1  0.500000  0.705800  0.932594  1
  In  In16  1  0.500000  0.208611  0.566850  1
  In  In17  1  0.500000  0.791389  0.433150  1
  Pt  Pt18  1  0.500000  0.025182  0.303450  1
  Pt  Pt19  1  0.500000  0.974818  0.696550  1
  Pt  Pt20  1  0.500000  0.475271  0.802775  1
  Pt  Pt21  1  0.500000  0.524729  0.197225  1
