# generated using pymatgen
data_Eu2TiAlO6
_symmetry_space_group_name_H-M   'P 1'
_cell_length_a   5.44387794
_cell_length_b   5.44387767
_cell_length_c   5.44387884
_cell_angle_alpha   120.17440960
_cell_angle_beta   120.17440641
_cell_angle_gamma   89.69818451
_symmetry_Int_Tables_number   1
_chemical_formula_structural   Eu2TiAlO6
_chemical_formula_sum   'Eu2 Ti1 Al1 O6'
_cell_volume   113.77772838
_cell_formula_units_Z   1
loop_
 _symmetry_equiv_pos_site_id
 _symmetry_equiv_pos_as_xyz
  1  'x, y, z'
loop_
 _atom_site_type_symbol
 _atom_site_label
 _atom_site_symmetry_multiplicity
 _atom_site_fract_x
 _atom_site_fract_y
 _atom_site_fract_z
 _atom_site_occupancy
  Eu  Eu0  1  0.250000  0.750000  0.500000  1
  Eu  Eu1  1  0.750000  0.250000  0.500000  1
  Ti  Ti2  1  0.500000  0.500000  0.000000  1
  Al  Al3  1  0.000000  0.000000  0.000000  1
  O  O4  1  0.246605  0.246605  0.000000  1
  O  O5  1  0.753395  0.753395  0.000000  1
  O  O6  1  0.712480  0.205620  0.918100  1
  O  O7  1  0.287520  0.794380  0.081900  1
  O  O8  1  0.205620  0.287520  0.493141  1
  O  O9  1  0.794380  0.712480  0.506859  1
