# generated using pymatgen
data_Tb2Cr3Mo3P7Rh6
_symmetry_space_group_name_H-M   'P 1'
_cell_length_a   3.83857508
_cell_length_b   9.59191456
_cell_length_c   9.56917785
_cell_angle_alpha   119.85423511
_cell_angle_beta   90.06854972
_cell_angle_gamma   89.94655734
_symmetry_Int_Tables_number   1
_chemical_formula_structural   Tb2Cr3Mo3P7Rh6
_chemical_formula_sum   'Tb2 Cr3 Mo3 P7 Rh6'
_cell_volume   305.57392015
_cell_formula_units_Z   1
loop_
 _symmetry_equiv_pos_site_id
 _symmetry_equiv_pos_as_xyz
  1  'x, y, z'
loop_
 _atom_site_type_symbol
 _atom_site_label
 _atom_site_symmetry_multiplicity
 _atom_site_fract_x
 _atom_site_fract_y
 _atom_site_fract_z
 _atom_site_occupancy
  Tb  Tb0  1  0.261938  0.666967  0.333067  1
  Tb  Tb1  1  0.761982  0.332612  0.666395  1
  Cr  Cr2  1  0.260961  0.881821  0.159444  1
  Cr  Cr3  1  0.262576  0.840141  0.722601  1
  Cr  Cr4  1  0.261502  0.277843  0.117637  1
  Mo  Mo5  1  0.762075  0.089242  0.882058  1
  Mo  Mo6  1  0.761822  0.118337  0.207584  1
  Mo  Mo7  1  0.761949  0.793819  0.911358  1
  P  P8  1  0.261905  0.000481  0.000442  1
  P  P9  1  0.762227  0.881834  0.594876  1
  P  P10  1  0.761788  0.404937  0.287076  1
  P  P11  1  0.761635  0.712915  0.117920  1
  P  P12  1  0.261851  0.116227  0.409489  1
  P  P13  1  0.262117  0.589795  0.706424  1
  P  P14  1  0.261884  0.293275  0.883545  1
  Rh  Rh15  1  0.762419  0.617348  0.561277  1
  Rh  Rh16  1  0.761645  0.438660  0.055997  1
  Rh  Rh17  1  0.761645  0.943787  0.382815  1
  Rh  Rh18  1  0.262157  0.368588  0.432744  1
  Rh  Rh19  1  0.262001  0.567120  0.935542  1
  Rh  Rh20  1  0.261921  0.064248  0.631710  1
