# generated using pymatgen
data_Pr4Al17SiIr6
_symmetry_space_group_name_H-M   'P 1'
_cell_length_a   7.61628299
_cell_length_b   7.60736234
_cell_length_c   9.62454663
_cell_angle_alpha   89.99586195
_cell_angle_beta   89.94417732
_cell_angle_gamma   119.46907868
_symmetry_Int_Tables_number   1
_chemical_formula_structural   Pr4Al17SiIr6
_chemical_formula_sum   'Pr4 Al17 Si1 Ir6'
_cell_volume   485.49689882
_cell_formula_units_Z   1
loop_
 _symmetry_equiv_pos_site_id
 _symmetry_equiv_pos_as_xyz
  1  'x, y, z'
loop_
 _atom_site_type_symbol
 _atom_site_label
 _atom_site_symmetry_multiplicity
 _atom_site_fract_x
 _atom_site_fract_y
 _atom_site_fract_z
 _atom_site_occupancy
  Pr  Pr0  1  0.995062  0.665136  0.247440  1
  Pr  Pr1  1  0.005297  0.330463  0.753710  1
  Pr  Pr2  1  0.674004  0.000085  0.247267  1
  Pr  Pr3  1  0.329899  0.005461  0.750908  1
  Al  Al4  1  0.131336  0.130900  0.249698  1
  Al  Al5  1  0.869352  0.870633  0.749890  1
  Al  Al6  1  0.996418  0.669383  0.925563  1
  Al  Al7  1  0.997286  0.665560  0.571926  1
  Al  Al8  1  0.334410  0.001644  0.427819  1
  Al  Al9  1  0.003217  0.334937  0.431995  1
  Al  Al10  1  0.664563  0.997040  0.571915  1
  Al  Al11  1  0.660506  0.992496  0.925381  1
  Al  Al12  1  0.334147  0.001995  0.073221  1
  Al  Al13  1  0.334676  0.334132  0.548147  1
  Al  Al14  1  0.666386  0.666779  0.451798  1
  Al  Al15  1  0.665291  0.665644  0.049484  1
  Al  Al16  1  0.338004  0.334946  0.951677  1
  Al  Al17  1  0.340783  0.546014  0.250393  1
  Al  Al18  1  0.660866  0.453678  0.750487  1
  Al  Al19  1  0.543833  0.339699  0.249950  1
  Al  Al20  1  0.453021  0.658865  0.749711  1
  Si  Si21  1  0.003436  0.334590  0.071280  1
  Ir  Ir22  1  0.678496  0.329382  0.001816  1
  Ir  Ir23  1  0.320783  0.662884  0.000462  1
  Ir  Ir24  1  0.328754  0.670169  0.499500  1
  Ir  Ir25  1  0.670881  0.329334  0.499207  1
  Ir  Ir26  1  0.999493  0.007462  0.000182  1
  Ir  Ir27  1  0.999800  0.000688  0.499173  1
