# generated using pymatgen
data_Li2Dy3Tm(Co3P2)6
_symmetry_space_group_name_H-M   'P 1'
_cell_length_a   3.66698200
_cell_length_b   10.25204804
_cell_length_c   11.81374505
_cell_angle_alpha   90.01040327
_cell_angle_beta   90.00000000
_cell_angle_gamma   90.00000000
_symmetry_Int_Tables_number   1
_chemical_formula_structural   Li2Dy3Tm(Co3P2)6
_chemical_formula_sum   'Li2 Dy3 Tm1 Co18 P12'
_cell_volume   444.12681756
_cell_formula_units_Z   1
loop_
 _symmetry_equiv_pos_site_id
 _symmetry_equiv_pos_as_xyz
  1  'x, y, z'
loop_
 _atom_site_type_symbol
 _atom_site_label
 _atom_site_symmetry_multiplicity
 _atom_site_fract_x
 _atom_site_fract_y
 _atom_site_fract_z
 _atom_site_occupancy
  Li  Li0  1  0.250000  0.703062  0.991043  1
  Li  Li1  1  0.250000  0.797087  0.490675  1
  Dy  Dy2  1  0.250000  0.579833  0.702135  1
  Dy  Dy3  1  0.750000  0.419845  0.297534  1
  Dy  Dy4  1  0.750000  0.080009  0.797578  1
  Tm  Tm5  1  0.250000  0.920327  0.202252  1
  Co  Co6  1  0.750000  0.288085  0.009020  1
  Co  Co7  1  0.750000  0.211402  0.508208  1
  Co  Co8  1  0.250000  0.403740  0.487318  1
  Co  Co9  1  0.250000  0.095860  0.987764  1
  Co  Co10  1  0.750000  0.590792  0.514265  1
  Co  Co11  1  0.750000  0.908955  0.015990  1
  Co  Co12  1  0.250000  0.223498  0.174902  1
  Co  Co13  1  0.250000  0.276108  0.674895  1
  Co  Co14  1  0.750000  0.780514  0.826431  1
  Co  Co15  1  0.750000  0.720303  0.325859  1
  Co  Co16  1  0.250000  0.881344  0.698325  1
  Co  Co17  1  0.250000  0.619545  0.198631  1
  Co  Co18  1  0.750000  0.119766  0.299274  1
  Co  Co19  1  0.750000  0.379289  0.800129  1
  Co  Co20  1  0.250000  0.463846  0.931769  1
  Co  Co21  1  0.250000  0.035776  0.430653  1
  Co  Co22  1  0.750000  0.533578  0.066509  1
  Co  Co23  1  0.750000  0.966992  0.565553  1
  P  P24  1  0.250000  0.422120  0.112056  1
  P  P25  1  0.250000  0.078014  0.611417  1
  P  P26  1  0.750000  0.577620  0.884462  1
  P  P27  1  0.750000  0.922245  0.383115  1
  P  P28  1  0.250000  0.268229  0.867502  1
  P  P29  1  0.250000  0.231562  0.367135  1
  P  P30  1  0.750000  0.730855  0.138268  1
  P  P31  1  0.750000  0.770967  0.638034  1
  P  P32  1  0.250000  0.601319  0.393175  1
  P  P33  1  0.250000  0.898713  0.893244  1
  P  P34  1  0.750000  0.395617  0.607164  1
  P  P35  1  0.750000  0.103184  0.107711  1
