# generated using pymatgen
data_Y10In2Sn3Sb
_symmetry_space_group_name_H-M   'P 1'
_cell_length_a   6.61995800
_cell_length_b   8.97356872
_cell_length_c   8.99764866
_cell_angle_alpha   120.02528463
_cell_angle_beta   89.99993163
_cell_angle_gamma   89.99923367
_symmetry_Int_Tables_number   1
_chemical_formula_structural   Y10In2Sn3Sb
_chemical_formula_sum   'Y10 In2 Sn3 Sb1'
_cell_volume   462.77445905
_cell_formula_units_Z   1
loop_
 _symmetry_equiv_pos_site_id
 _symmetry_equiv_pos_as_xyz
  1  'x, y, z'
loop_
 _atom_site_type_symbol
 _atom_site_label
 _atom_site_symmetry_multiplicity
 _atom_site_fract_x
 _atom_site_fract_y
 _atom_site_fract_z
 _atom_site_occupancy
  Y  Y0  1  0.501119  0.335316  0.669012  1
  Y  Y1  1  0.501147  0.664537  0.331784  1
  Y  Y2  1  0.998855  0.664550  0.331798  1
  Y  Y3  1  0.998883  0.335310  0.668997  1
  Y  Y4  1  0.750002  0.239114  0.001180  1
  Y  Y5  1  0.750005  0.759788  0.762582  1
  Y  Y6  1  0.750007  0.998309  0.238962  1
  Y  Y7  1  0.250004  0.759289  0.996956  1
  Y  Y8  1  0.250007  0.241834  0.237175  1
  Y  Y9  1  0.250008  0.001976  0.762458  1
  In  In10  1  0.750003  0.602021  0.001315  1
  In  In11  1  0.249942  0.399279  0.999783  1
  Sn  Sn12  1  0.750004  0.394009  0.395898  1
  Sn  Sn13  1  0.750002  0.999146  0.605349  1
  Sn  Sn14  1  0.250004  0.604898  0.603756  1
  Sb  Sb15  1  0.250009  0.000624  0.392997  1
