# generated using pymatgen
data_Ce4Co8Si7P5Ru12
_symmetry_space_group_name_H-M   'P 1'
_cell_length_a   3.82171600
_cell_length_b   10.77563522
_cell_length_c   12.29715752
_cell_angle_alpha   89.92657204
_cell_angle_beta   90.00000000
_cell_angle_gamma   90.00000000
_symmetry_Int_Tables_number   1
_chemical_formula_structural   Ce4Co8Si7P5Ru12
_chemical_formula_sum   'Ce4 Co8 Si7 P5 Ru12'
_cell_volume   506.41396223
_cell_formula_units_Z   1
loop_
 _symmetry_equiv_pos_site_id
 _symmetry_equiv_pos_as_xyz
  1  'x, y, z'
loop_
 _atom_site_type_symbol
 _atom_site_label
 _atom_site_symmetry_multiplicity
 _atom_site_fract_x
 _atom_site_fract_y
 _atom_site_fract_z
 _atom_site_occupancy
  Ce  Ce0  1  0.250000  0.582914  0.705736  1
  Ce  Ce1  1  0.250000  0.918287  0.205613  1
  Ce  Ce2  1  0.750000  0.419045  0.294300  1
  Ce  Ce3  1  0.750000  0.082926  0.794626  1
  Co  Co4  1  0.250000  0.886165  0.696371  1
  Co  Co5  1  0.250000  0.610995  0.197556  1
  Co  Co6  1  0.750000  0.110760  0.302485  1
  Co  Co7  1  0.750000  0.389667  0.801895  1
  Co  Co8  1  0.250000  0.470013  0.931920  1
  Co  Co9  1  0.250000  0.029492  0.432861  1
  Co  Co10  1  0.750000  0.530558  0.068042  1
  Co  Co11  1  0.750000  0.964277  0.569518  1
  Si  Si12  1  0.250000  0.420046  0.107310  1
  Si  Si13  1  0.250000  0.079263  0.607855  1
  Si  Si14  1  0.750000  0.579568  0.892649  1
  Si  Si15  1  0.750000  0.920714  0.392280  1
  Si  Si16  1  0.250000  0.277797  0.869708  1
  Si  Si17  1  0.250000  0.222935  0.370652  1
  Si  Si18  1  0.750000  0.723069  0.129850  1
  P  P19  1  0.750000  0.777561  0.632086  1
  P  P20  1  0.250000  0.607839  0.389272  1
  P  P21  1  0.250000  0.892527  0.890387  1
  P  P22  1  0.750000  0.392645  0.609698  1
  P  P23  1  0.750000  0.107807  0.109072  1
  Ru  Ru24  1  0.250000  0.702800  0.989188  1
  Ru  Ru25  1  0.250000  0.796096  0.490009  1
  Ru  Ru26  1  0.750000  0.297529  0.009447  1
  Ru  Ru27  1  0.750000  0.201693  0.510156  1
  Ru  Ru28  1  0.250000  0.410000  0.482710  1
  Ru  Ru29  1  0.250000  0.091986  0.982154  1
  Ru  Ru30  1  0.750000  0.595785  0.520658  1
  Ru  Ru31  1  0.750000  0.907903  0.016129  1
  Ru  Ru32  1  0.250000  0.215894  0.175781  1
  Ru  Ru33  1  0.250000  0.283575  0.675342  1
  Ru  Ru34  1  0.750000  0.783124  0.821947  1
  Ru  Ru35  1  0.750000  0.716745  0.324737  1
