# generated using pymatgen
data_Tb3SmSn10(PtRh2)2
_symmetry_space_group_name_H-M   'P 1'
_cell_length_a   13.51320435
_cell_length_b   13.51320501
_cell_length_c   7.37981928
_cell_angle_alpha   89.95593653
_cell_angle_beta   90.04406287
_cell_angle_gamma   161.12929856
_symmetry_Int_Tables_number   1
_chemical_formula_structural   Tb3SmSn10(PtRh2)2
_chemical_formula_sum   'Tb3 Sm1 Sn10 Pt2 Rh4'
_cell_volume   435.86041198
_cell_formula_units_Z   1
loop_
 _symmetry_equiv_pos_site_id
 _symmetry_equiv_pos_as_xyz
  1  'x, y, z'
loop_
 _atom_site_type_symbol
 _atom_site_label
 _atom_site_symmetry_multiplicity
 _atom_site_fract_x
 _atom_site_fract_y
 _atom_site_fract_z
 _atom_site_occupancy
  Tb  Tb0  1  0.826246  0.173754  0.252404  1
  Tb  Tb1  1  0.475952  0.524048  0.738343  1
  Tb  Tb2  1  0.523594  0.476406  0.237827  1
  Sm  Sm3  1  0.174510  0.825490  0.751492  1
  Sn  Sn4  1  0.879632  0.120368  0.727364  1
  Sn  Sn5  1  0.120459  0.879541  0.228260  1
  Sn  Sn6  1  0.704296  0.295704  0.048368  1
  Sn  Sn7  1  0.295868  0.704132  0.547410  1
  Sn  Sn8  1  0.597892  0.402108  0.617705  1
  Sn  Sn9  1  0.401393  0.598607  0.117185  1
  Sn  Sn10  1  0.951198  0.048802  0.401076  1
  Sn  Sn11  1  0.048484  0.951516  0.900989  1
  Sn  Sn12  1  0.290156  0.709844  0.976596  1
  Sn  Sn13  1  0.710597  0.289403  0.474506  1
  Pt  Pt14  1  0.049257  0.950743  0.517544  1
  Pt  Pt15  1  0.950354  0.049646  0.018009  1
  Rh  Rh16  1  0.777611  0.222389  0.767069  1
  Rh  Rh17  1  0.223019  0.776981  0.265979  1
  Rh  Rh18  1  0.394935  0.605065  0.482938  1
  Rh  Rh19  1  0.604547  0.395453  0.984936  1
