# generated using pymatgen
data_AcNd5(BiO7)2
_symmetry_space_group_name_H-M   'P 1'
_cell_length_a   6.76533278
_cell_length_b   6.77520647
_cell_length_c   7.98045700
_cell_angle_alpha   106.90635152
_cell_angle_beta   89.83581924
_cell_angle_gamma   98.30872383
_symmetry_Int_Tables_number   1
_chemical_formula_structural   AcNd5(BiO7)2
_chemical_formula_sum   'Ac1 Nd5 Bi2 O14'
_cell_volume   346.01730925
_cell_formula_units_Z   1
loop_
 _symmetry_equiv_pos_site_id
 _symmetry_equiv_pos_as_xyz
  1  'x, y, z'
loop_
 _atom_site_type_symbol
 _atom_site_label
 _atom_site_symmetry_multiplicity
 _atom_site_fract_x
 _atom_site_fract_y
 _atom_site_fract_z
 _atom_site_occupancy
  Ac  Ac0  1  0.250118  0.511720  0.380641  1
  Nd  Nd1  1  0.463980  0.003701  0.251767  1
  Nd  Nd2  1  0.539739  0.996091  0.748001  1
  Nd  Nd3  1  0.269506  0.536924  0.882502  1
  Nd  Nd4  1  0.732405  0.464543  0.115212  1
  Nd  Nd5  1  0.737266  0.479035  0.618263  1
  Bi  Bi6  1  0.998166  0.000986  0.501415  1
  Bi  Bi7  1  0.999478  0.998103  0.998700  1
  O  O8  1  0.448476  0.646093  0.159373  1
  O  O9  1  0.558560  0.355185  0.833695  1
  O  O10  1  0.296259  0.928128  0.954174  1
  O  O11  1  0.704216  0.073245  0.045103  1
  O  O12  1  0.293215  0.934806  0.514251  1
  O  O13  1  0.706225  0.074213  0.490230  1
  O  O14  1  0.558252  0.362566  0.345473  1
  O  O15  1  0.455475  0.637782  0.660964  1
  O  O16  1  0.927256  0.673032  0.956346  1
  O  O17  1  0.074223  0.325013  0.041864  1
  O  O18  1  0.069200  0.336383  0.619930  1
  O  O19  1  0.918645  0.669222  0.383285  1
  O  O20  1  0.887786  0.910821  0.727580  1
  O  O21  1  0.111554  0.082410  0.271230  1
