# generated using pymatgen
data_TbNd7Sc12Si15Sb
_symmetry_space_group_name_H-M   'P 1'
_cell_length_a   7.27025020
_cell_length_b   7.51473683
_cell_length_c   14.22641334
_cell_angle_alpha   90.06891835
_cell_angle_beta   89.12888480
_cell_angle_gamma   90.28508551
_symmetry_Int_Tables_number   1
_chemical_formula_structural   TbNd7Sc12Si15Sb
_chemical_formula_sum   'Tb1 Nd7 Sc12 Si15 Sb1'
_cell_volume   777.14616277
_cell_formula_units_Z   1
loop_
 _symmetry_equiv_pos_site_id
 _symmetry_equiv_pos_as_xyz
  1  'x, y, z'
loop_
 _atom_site_type_symbol
 _atom_site_label
 _atom_site_symmetry_multiplicity
 _atom_site_fract_x
 _atom_site_fract_y
 _atom_site_fract_z
 _atom_site_occupancy
  Tb  Tb0  1  0.509221  0.681321  0.601625  1
  Nd  Nd1  1  0.010620  0.173336  0.097379  1
  Nd  Nd2  1  0.989770  0.827443  0.901192  1
  Nd  Nd3  1  0.489292  0.672207  0.903557  1
  Nd  Nd4  1  0.993044  0.828991  0.598631  1
  Nd  Nd5  1  0.511295  0.327450  0.098003  1
  Nd  Nd6  1  0.003623  0.170740  0.401275  1
  Nd  Nd7  1  0.508276  0.322547  0.399616  1
  Sc  Sc8  1  0.164915  0.499969  0.753907  1
  Sc  Sc9  1  0.834889  0.501810  0.251685  1
  Sc  Sc10  1  0.335427  0.997856  0.250515  1
  Sc  Sc11  1  0.666048  0.001750  0.750270  1
  Sc  Sc12  1  0.346359  0.161323  0.630771  1
  Sc  Sc13  1  0.659443  0.825859  0.372797  1
  Sc  Sc14  1  0.156146  0.679388  0.371852  1
  Sc  Sc15  1  0.666540  0.823775  0.124676  1
  Sc  Sc16  1  0.829439  0.327691  0.624504  1
  Sc  Sc17  1  0.332234  0.174526  0.873245  1
  Sc  Sc18  1  0.832076  0.324254  0.874252  1
  Sc  Sc19  1  0.166695  0.676412  0.125132  1
  Si  Si20  1  0.036700  0.127027  0.749278  1
  Si  Si21  1  0.959816  0.877084  0.248171  1
  Si  Si22  1  0.458001  0.624068  0.248328  1
  Si  Si23  1  0.538721  0.379063  0.751272  1
  Si  Si24  1  0.294882  0.872864  0.750716  1
  Si  Si25  1  0.708200  0.118165  0.248026  1
  Si  Si26  1  0.206847  0.382291  0.249579  1
  Si  Si27  1  0.792970  0.620504  0.749782  1
  Si  Si28  1  0.817623  0.543993  0.457276  1
  Si  Si29  1  0.340823  0.958989  0.462084  1
  Si  Si30  1  0.847274  0.536892  0.039078  1
  Si  Si31  1  0.659835  0.036062  0.540093  1
  Si  Si32  1  0.151160  0.463608  0.960230  1
  Si  Si33  1  0.652273  0.036554  0.959727  1
  Si  Si34  1  0.347066  0.964716  0.039513  1
  Sb  Sb35  1  0.182455  0.459477  0.541966  1
