# generated using pymatgen
data_LiMgSiB2Rh5
_symmetry_space_group_name_H-M   'P 1'
_cell_length_a   9.34669700
_cell_length_b   9.32762800
_cell_length_c   2.86311800
_cell_angle_alpha   90.00000000
_cell_angle_beta   90.00000000
_cell_angle_gamma   90.00000000
_symmetry_Int_Tables_number   1
_chemical_formula_structural   LiMgSiB2Rh5
_chemical_formula_sum   'Li2 Mg2 Si2 B4 Rh10'
_cell_volume   249.61382124
_cell_formula_units_Z   2
loop_
 _symmetry_equiv_pos_site_id
 _symmetry_equiv_pos_as_xyz
  1  'x, y, z'
loop_
 _atom_site_type_symbol
 _atom_site_label
 _atom_site_symmetry_multiplicity
 _atom_site_fract_x
 _atom_site_fract_y
 _atom_site_fract_z
 _atom_site_occupancy
  Li  Li0  1  0.325171  0.175605  0.000000  1
  Li  Li1  1  0.825171  0.324395  0.000000  1
  Mg  Mg2  1  0.174187  0.672722  0.000000  1
  Mg  Mg3  1  0.674186  0.827277  0.000000  1
  Si  Si4  1  0.999812  0.001349  0.000000  1
  Si  Si5  1  0.499812  0.498651  0.000000  1
  B  B6  1  0.626975  0.130283  0.000000  1
  B  B7  1  0.126975  0.369716  0.000000  1
  B  B8  1  0.874638  0.621366  0.000000  1
  B  B9  1  0.374637  0.878634  0.000000  1
  Rh  Rh10  1  0.498918  0.002594  0.500000  1
  Rh  Rh11  1  0.790611  0.071479  0.500000  1
  Rh  Rh12  1  0.072482  0.207958  0.500000  1
  Rh  Rh13  1  0.572482  0.292042  0.500000  1
  Rh  Rh14  1  0.290612  0.428520  0.500000  1
  Rh  Rh15  1  0.998918  0.497406  0.500000  1
  Rh  Rh16  1  0.708695  0.573013  0.500000  1
  Rh  Rh17  1  0.428509  0.710122  0.500000  1
  Rh  Rh18  1  0.928510  0.789877  0.500000  1
  Rh  Rh19  1  0.208695  0.926987  0.500000  1
