# generated using pymatgen
data_ScCr3(Se2O5)6
_symmetry_space_group_name_H-M   'P 1'
_cell_length_a   11.64486000
_cell_length_b   11.18337772
_cell_length_c   15.63951300
_cell_angle_alpha   49.69718803
_cell_angle_beta   90.00000000
_cell_angle_gamma   90.00000000
_symmetry_Int_Tables_number   1
_chemical_formula_structural   ScCr3(Se2O5)6
_chemical_formula_sum   'Sc2 Cr6 Se24 O60'
_cell_volume   1553.27419111
_cell_formula_units_Z   2
loop_
 _symmetry_equiv_pos_site_id
 _symmetry_equiv_pos_as_xyz
  1  'x, y, z'
loop_
 _atom_site_type_symbol
 _atom_site_label
 _atom_site_symmetry_multiplicity
 _atom_site_fract_x
 _atom_site_fract_y
 _atom_site_fract_z
 _atom_site_occupancy
  Sc  Sc0  1  0.000000  0.500000  0.500000  1
  Sc  Sc1  1  0.500000  0.500000  0.000000  1
  Cr  Cr2  1  0.000000  0.000000  0.500000  1
  Cr  Cr3  1  0.500000  0.000000  0.000000  1
  Cr  Cr4  1  0.500000  0.500000  0.500000  1
  Cr  Cr5  1  0.000000  0.500000  0.000000  1
  Cr  Cr6  1  0.500000  0.000000  0.500000  1
  Cr  Cr7  1  0.000000  0.000000  0.000000  1
  Se  Se8  1  0.031360  0.106722  0.748250  1
  Se  Se9  1  0.468640  0.106722  0.248250  1
  Se  Se10  1  0.968640  0.893278  0.251750  1
  Se  Se11  1  0.531360  0.893278  0.751750  1
  Se  Se12  1  0.954358  0.830908  0.753470  1
  Se  Se13  1  0.545642  0.830908  0.253470  1
  Se  Se14  1  0.045642  0.169092  0.246530  1
  Se  Se15  1  0.454358  0.169092  0.746530  1
  Se  Se16  1  0.604476  0.657855  0.607685  1
  Se  Se17  1  0.895524  0.657855  0.107685  1
  Se  Se18  1  0.395524  0.342145  0.392315  1
  Se  Se19  1  0.104476  0.342145  0.892315  1
  Se  Se20  1  0.865750  0.704477  0.552193  1
  Se  Se21  1  0.634250  0.704477  0.052193  1
  Se  Se22  1  0.134250  0.295523  0.447807  1
  Se  Se23  1  0.365750  0.295523  0.947807  1
  Se  Se24  1  0.741264  0.386249  0.482529  1
  Se  Se25  1  0.758736  0.386249  0.982529  1
  Se  Se26  1  0.258736  0.613751  0.517471  1
  Se  Se27  1  0.241264  0.613751  0.017471  1
  Se  Se28  1  0.745865  0.166041  0.420743  1
  Se  Se29  1  0.754135  0.166041  0.920743  1
  Se  Se30  1  0.254135  0.833959  0.579257  1
  Se  Se31  1  0.245865  0.833959  0.079257  1
  O  O32  1  0.923938  0.958724  0.786181  1
  O  O33  1  0.576062  0.958724  0.286181  1
  O  O34  1  0.076062  0.041276  0.213819  1
  O  O35  1  0.423938  0.041276  0.713819  1
  O  O36  1  0.975405  0.257833  0.621454  1
  O  O37  1  0.524595  0.257833  0.121454  1
  O  O38  1  0.024595  0.742167  0.378546  1
  O  O39  1  0.475405  0.742167  0.878546  1
  O  O40  1  0.981385  0.143968  0.831089  1
  O  O41  1  0.518615  0.143968  0.331089  1
  O  O42  1  0.018615  0.856032  0.168911  1
  O  O43  1  0.481385  0.856032  0.668911  1
  O  O44  1  0.052411  0.705178  0.854314  1
  O  O45  1  0.447589  0.705178  0.354314  1
  O  O46  1  0.947589  0.294822  0.145686  1
  O  O47  1  0.552411  0.294822  0.645686  1
  O  O48  1  0.047592  0.952163  0.643256  1
  O  O49  1  0.452408  0.952163  0.143256  1
  O  O50  1  0.952408  0.047837  0.356744  1
  O  O51  1  0.547592  0.047837  0.856744  1
  O  O52  1  0.750973  0.620074  0.659828  1
  O  O53  1  0.749027  0.620074  0.159828  1
  O  O54  1  0.249027  0.379926  0.340172  1
  O  O55  1  0.250973  0.379926  0.840172  1
  O  O56  1  0.616097  0.857791  0.513247  1
  O  O57  1  0.883903  0.857791  0.013247  1
  O  O58  1  0.383903  0.142209  0.486753  1
  O  O59  1  0.116097  0.142209  0.986753  1
  O  O60  1  0.618363  0.610932  0.523368  1
  O  O61  1  0.881637  0.610932  0.023368  1
  O  O62  1  0.381637  0.389068  0.476632  1
  O  O63  1  0.118363  0.389068  0.976632  1
  O  O64  1  0.955579  0.771479  0.599633  1
  O  O65  1  0.544421  0.771479  0.099633  1
  O  O66  1  0.044421  0.228521  0.400367  1
  O  O67  1  0.455579  0.228521  0.900367  1
  O  O68  1  0.928815  0.532161  0.607888  1
  O  O69  1  0.571185  0.532161  0.107888  1
  O  O70  1  0.071185  0.467839  0.392112  1
  O  O71  1  0.428815  0.467839  0.892112  1
  O  O72  1  0.786353  0.347495  0.389079  1
  O  O73  1  0.713647  0.347495  0.889079  1
  O  O74  1  0.213647  0.652505  0.610921  1
  O  O75  1  0.286353  0.652505  0.110921  1
  O  O76  1  0.617023  0.484181  0.413961  1
  O  O77  1  0.882977  0.484181  0.913961  1
  O  O78  1  0.382977  0.515819  0.586039  1
  O  O79  1  0.117023  0.515819  0.086039  1
  O  O80  1  0.835610  0.534328  0.429075  1
  O  O81  1  0.664390  0.534328  0.929075  1
  O  O82  1  0.164390  0.465672  0.570925  1
  O  O83  1  0.335610  0.465672  0.070925  1
  O  O84  1  0.839639  0.038037  0.525676  1
  O  O85  1  0.660361  0.038037  0.025676  1
  O  O86  1  0.160361  0.961963  0.474324  1
  O  O87  1  0.339639  0.961963  0.974324  1
  O  O88  1  0.624610  0.126821  0.497703  1
  O  O89  1  0.875390  0.126821  0.997703  1
  O  O90  1  0.375390  0.873179  0.502297  1
  O  O91  1  0.124610  0.873179  0.002297  1
