# generated using pymatgen
data_Y3Al7CuPd
_symmetry_space_group_name_H-M   'P 1'
_cell_length_a   9.13281158
_cell_length_b   9.13281229
_cell_length_c   9.13281169
_cell_angle_alpha   35.13465625
_cell_angle_beta   35.13465052
_cell_angle_gamma   35.13465125
_symmetry_Int_Tables_number   1
_chemical_formula_structural   Y3Al7CuPd
_chemical_formula_sum   'Y3 Al7 Cu1 Pd1'
_cell_volume   225.31891648
_cell_formula_units_Z   1
loop_
 _symmetry_equiv_pos_site_id
 _symmetry_equiv_pos_as_xyz
  1  'x, y, z'
loop_
 _atom_site_type_symbol
 _atom_site_label
 _atom_site_symmetry_multiplicity
 _atom_site_fract_x
 _atom_site_fract_y
 _atom_site_fract_z
 _atom_site_occupancy
  Y  Y0  1  0.999795  0.999795  0.999795  1
  Y  Y1  1  0.857638  0.857638  0.857638  1
  Y  Y2  1  0.142656  0.142656  0.142656  1
  Al  Al3  1  0.416660  0.416660  0.928666  1
  Al  Al4  1  0.928666  0.416660  0.416660  1
  Al  Al5  1  0.416660  0.928666  0.416660  1
  Al  Al6  1  0.500066  0.500066  0.500066  1
  Al  Al7  1  0.581155  0.075543  0.581155  1
  Al  Al8  1  0.075543  0.581155  0.581155  1
  Al  Al9  1  0.581155  0.581155  0.075543  1
  Cu  Cu10  1  0.335295  0.335295  0.335295  1
  Pd  Pd11  1  0.664710  0.664710  0.664710  1
