# generated using pymatgen
data_Tb16Tm4Ir11Rh
_symmetry_space_group_name_H-M   'P 1'
_cell_length_a   10.90992300
_cell_length_b   10.90992300
_cell_length_c   6.37084900
_cell_angle_alpha   90.00000000
_cell_angle_beta   90.00000000
_cell_angle_gamma   90.00000000
_symmetry_Int_Tables_number   1
_chemical_formula_structural   Tb16Tm4Ir11Rh
_chemical_formula_sum   'Tb16 Tm4 Ir11 Rh1'
_cell_volume   758.29934798
_cell_formula_units_Z   1
loop_
 _symmetry_equiv_pos_site_id
 _symmetry_equiv_pos_as_xyz
  1  'x, y, z'
loop_
 _atom_site_type_symbol
 _atom_site_label
 _atom_site_symmetry_multiplicity
 _atom_site_fract_x
 _atom_site_fract_y
 _atom_site_fract_z
 _atom_site_occupancy
  Tb  Tb0  1  0.290062  0.087691  0.378462  1
  Tb  Tb1  1  0.289932  0.912198  0.877205  1
  Tb  Tb2  1  0.710068  0.087802  0.877205  1
  Tb  Tb3  1  0.709938  0.912309  0.378462  1
  Tb  Tb4  1  0.587802  0.789932  0.877205  1
  Tb  Tb5  1  0.587691  0.209938  0.378462  1
  Tb  Tb6  1  0.412309  0.790062  0.378462  1
  Tb  Tb7  1  0.412198  0.210068  0.877205  1
  Tb  Tb8  1  0.209719  0.412306  0.622348  1
  Tb  Tb9  1  0.209749  0.587780  0.122338  1
  Tb  Tb10  1  0.790251  0.412220  0.122338  1
  Tb  Tb11  1  0.790281  0.587694  0.622348  1
  Tb  Tb12  1  0.912220  0.709749  0.122338  1
  Tb  Tb13  1  0.912306  0.290281  0.622348  1
  Tb  Tb14  1  0.087694  0.709719  0.622348  1
  Tb  Tb15  1  0.087780  0.290251  0.122338  1
  Tm  Tm16  1  0.000000  0.000000  0.500039  1
  Tm  Tm17  1  0.000000  0.000000  0.000066  1
  Tm  Tm18  1  0.500000  0.500000  0.000066  1
  Tm  Tm19  1  0.500000  0.500000  0.500039  1
  Ir  Ir20  1  0.847771  0.151747  0.249790  1
  Ir  Ir21  1  0.847860  0.848198  0.749852  1
  Ir  Ir22  1  0.152140  0.151802  0.749852  1
  Ir  Ir23  1  0.152229  0.848253  0.249790  1
  Ir  Ir24  1  0.651802  0.347860  0.749852  1
  Ir  Ir25  1  0.651747  0.652229  0.249790  1
  Ir  Ir26  1  0.348253  0.347771  0.249790  1
  Ir  Ir27  1  0.348198  0.652140  0.749852  1
  Ir  Ir28  1  0.500000  0.000000  0.621766  1
  Ir  Ir29  1  0.000000  0.500000  0.878256  1
  Ir  Ir30  1  0.000000  0.500000  0.378243  1
  Rh  Rh31  1  0.500000  0.000000  0.121547  1
