# generated using pymatgen
data_Ba4Sc(FeO4)3
_symmetry_space_group_name_H-M   'P 1'
_cell_length_a   10.15650246
_cell_length_b   10.15650287
_cell_length_c   10.15650286
_cell_angle_alpha   33.46594100
_cell_angle_beta   33.46593879
_cell_angle_gamma   33.46593128
_symmetry_Int_Tables_number   1
_chemical_formula_structural   Ba4Sc(FeO4)3
_chemical_formula_sum   'Ba4 Sc1 Fe3 O12'
_cell_volume   283.73220937
_cell_formula_units_Z   1
loop_
 _symmetry_equiv_pos_site_id
 _symmetry_equiv_pos_as_xyz
  1  'x, y, z'
loop_
 _atom_site_type_symbol
 _atom_site_label
 _atom_site_symmetry_multiplicity
 _atom_site_fract_x
 _atom_site_fract_y
 _atom_site_fract_z
 _atom_site_occupancy
  Ba  Ba0  1  0.712622  0.712622  0.712622  1
  Ba  Ba1  1  0.287378  0.287378  0.287378  1
  Ba  Ba2  1  0.872473  0.872473  0.872473  1
  Ba  Ba3  1  0.127527  0.127527  0.127527  1
  Sc  Sc4  1  0.000000  0.000000  0.000000  1
  Fe  Fe5  1  0.408423  0.408423  0.408423  1
  Fe  Fe6  1  0.500000  0.500000  0.500000  1
  Fe  Fe7  1  0.591577  0.591577  0.591577  1
  O  O8  1  0.212184  0.212184  0.702027  1
  O  O9  1  0.702027  0.212184  0.212184  1
  O  O10  1  0.212184  0.702027  0.212184  1
  O  O11  1  0.787816  0.297973  0.787816  1
  O  O12  1  0.787816  0.787816  0.297973  1
  O  O13  1  0.297973  0.787816  0.787816  1
  O  O14  1  0.393488  0.393488  0.834353  1
  O  O15  1  0.834353  0.393488  0.393488  1
  O  O16  1  0.165647  0.606512  0.606512  1
  O  O17  1  0.606512  0.606512  0.165647  1
  O  O18  1  0.606512  0.165647  0.606512  1
  O  O19  1  0.393488  0.834353  0.393488  1
