# generated using pymatgen
data_Dy2Bi2Ru2O11
_symmetry_space_group_name_H-M   'P 1'
_cell_length_a   6.51244716
_cell_length_b   7.51478074
_cell_length_c   9.66864886
_cell_angle_alpha   101.24260536
_cell_angle_beta   90.64334902
_cell_angle_gamma   90.05456356
_symmetry_Int_Tables_number   1
_chemical_formula_structural   Dy2Bi2Ru2O11
_chemical_formula_sum   'Dy4 Bi4 Ru4 O22'
_cell_volume   464.06818107
_cell_formula_units_Z   2
loop_
 _symmetry_equiv_pos_site_id
 _symmetry_equiv_pos_as_xyz
  1  'x, y, z'
loop_
 _atom_site_type_symbol
 _atom_site_label
 _atom_site_symmetry_multiplicity
 _atom_site_fract_x
 _atom_site_fract_y
 _atom_site_fract_z
 _atom_site_occupancy
  Dy  Dy0  1  0.746067  0.368866  0.482267  1
  Dy  Dy1  1  0.253933  0.631134  0.517733  1
  Dy  Dy2  1  0.757697  0.872858  0.490022  1
  Dy  Dy3  1  0.242303  0.127142  0.509978  1
  Bi  Bi4  1  0.459546  0.955826  0.819311  1
  Bi  Bi5  1  0.540454  0.044174  0.180689  1
  Bi  Bi6  1  0.388483  0.455690  0.826392  1
  Bi  Bi7  1  0.611517  0.544310  0.173608  1
  Ru  Ru8  1  0.924644  0.702645  0.809161  1
  Ru  Ru9  1  0.075356  0.297355  0.190839  1
  Ru  Ru10  1  0.926133  0.200828  0.808240  1
  Ru  Ru11  1  0.073867  0.799172  0.191760  1
  O  O12  1  0.222795  0.719947  0.759268  1
  O  O13  1  0.777205  0.280053  0.240732  1
  O  O14  1  0.630423  0.677223  0.841551  1
  O  O15  1  0.369577  0.322777  0.158449  1
  O  O16  1  0.631596  0.243215  0.839544  1
  O  O17  1  0.368404  0.756785  0.160456  1
  O  O18  1  0.893521  0.159684  0.592116  1
  O  O19  1  0.106479  0.840316  0.407884  1
  O  O20  1  0.221584  0.157612  0.755094  1
  O  O21  1  0.778416  0.842388  0.244906  1
  O  O22  1  0.894339  0.635999  0.597668  1
  O  O23  1  0.105661  0.364001  0.402332  1
  O  O24  1  0.014975  0.546165  0.183499  1
  O  O25  1  0.985025  0.453835  0.816501  1
  O  O26  1  0.998487  0.781493  0.001215  1
  O  O27  1  0.001513  0.218507  0.998785  1
  O  O28  1  0.572364  0.599676  0.396328  1
  O  O29  1  0.427636  0.400324  0.603672  1
  O  O30  1  0.162403  0.055630  0.221968  1
  O  O31  1  0.837597  0.944370  0.778032  1
  O  O32  1  0.546881  0.101705  0.402966  1
  O  O33  1  0.453119  0.898295  0.597034  1
