# generated using pymatgen
data_Na10ZrSnAs6
_symmetry_space_group_name_H-M   'P 1'
_cell_length_a   7.65376700
_cell_length_b   8.57858094
_cell_length_c   16.31351420
_cell_angle_alpha   57.47289556
_cell_angle_beta   90.00000000
_cell_angle_gamma   90.00000000
_symmetry_Int_Tables_number   1
_chemical_formula_structural   Na10ZrSnAs6
_chemical_formula_sum   'Na20 Zr2 Sn2 As12'
_cell_volume   903.10127222
_cell_formula_units_Z   2
loop_
 _symmetry_equiv_pos_site_id
 _symmetry_equiv_pos_as_xyz
  1  'x, y, z'
loop_
 _atom_site_type_symbol
 _atom_site_label
 _atom_site_symmetry_multiplicity
 _atom_site_fract_x
 _atom_site_fract_y
 _atom_site_fract_z
 _atom_site_occupancy
  Na  Na0  1  0.159882  0.993520  0.581067  1
  Na  Na1  1  0.490924  0.914000  0.756979  1
  Na  Na2  1  0.990924  0.086000  0.743021  1
  Na  Na3  1  0.509454  0.088064  0.240196  1
  Na  Na4  1  0.009454  0.911936  0.259804  1
  Na  Na5  1  0.031912  0.589116  0.586850  1
  Na  Na6  1  0.531912  0.410884  0.913150  1
  Na  Na7  1  0.958274  0.411707  0.412838  1
  Na  Na8  1  0.458274  0.588293  0.087162  1
  Na  Na9  1  0.525682  0.749223  0.588062  1
  Na  Na10  1  0.025682  0.250777  0.911938  1
  Na  Na11  1  0.482413  0.254412  0.410066  1
  Na  Na12  1  0.856400  0.687928  0.743277  1
  Na  Na13  1  0.356400  0.312072  0.756723  1
  Na  Na14  1  0.145779  0.316626  0.260256  1
  Na  Na15  1  0.645779  0.683374  0.239744  1
  Na  Na16  1  0.843708  0.011560  0.415771  1
  Na  Na17  1  0.343708  0.988440  0.084229  1
  Na  Na18  1  0.659882  0.006480  0.918933  1
  Na  Na19  1  0.982413  0.745588  0.089934  1
  Zr  Zr20  1  0.860035  0.349947  0.081978  1
  Zr  Zr21  1  0.360035  0.650053  0.418022  1
  Sn  Sn22  1  0.139592  0.654974  0.914572  1
  Sn  Sn23  1  0.639592  0.345026  0.585428  1
  As  As24  1  0.760633  0.362042  0.231880  1
  As  As25  1  0.706733  0.676074  0.422263  1
  As  As26  1  0.206733  0.323926  0.077737  1
  As  As27  1  0.283814  0.324705  0.575667  1
  As  As28  1  0.783814  0.675295  0.924333  1
  As  As29  1  0.764792  0.062043  0.579746  1
  As  As30  1  0.264792  0.937957  0.920254  1
  As  As31  1  0.238248  0.934175  0.420290  1
  As  As32  1  0.738248  0.065825  0.079710  1
  As  As33  1  0.741724  0.367991  0.733514  1
  As  As34  1  0.241724  0.632009  0.766486  1
  As  As35  1  0.260633  0.637958  0.268120  1
