# generated using pymatgen
data_YLu2In3CuAg2
_symmetry_space_group_name_H-M   'P 1'
_cell_length_a   7.75770594
_cell_length_b   7.75770622
_cell_length_c   3.84137300
_cell_angle_alpha   90.00000000
_cell_angle_beta   90.00000000
_cell_angle_gamma   120.27864350
_symmetry_Int_Tables_number   1
_chemical_formula_structural   YLu2In3CuAg2
_chemical_formula_sum   'Y1 Lu2 In3 Cu1 Ag2'
_cell_volume   199.64456064
_cell_formula_units_Z   1
loop_
 _symmetry_equiv_pos_site_id
 _symmetry_equiv_pos_as_xyz
  1  'x, y, z'
loop_
 _atom_site_type_symbol
 _atom_site_label
 _atom_site_symmetry_multiplicity
 _atom_site_fract_x
 _atom_site_fract_y
 _atom_site_fract_z
 _atom_site_occupancy
  Y  Y0  1  0.598503  0.598503  0.500000  1
  Lu  Lu1  1  0.400415  0.999705  0.500000  1
  Lu  Lu2  1  0.999705  0.400415  0.500000  1
  In  In3  1  0.749880  0.001260  0.000000  1
  In  In4  1  0.001260  0.749880  0.000000  1
  In  In5  1  0.250317  0.250317  0.000000  1
  Cu  Cu6  1  0.001855  0.001855  0.500000  1
  Ag  Ag7  1  0.330519  0.667545  0.000000  1
  Ag  Ag8  1  0.667545  0.330519  0.000000  1
