# generated using pymatgen
data_Tb2Ho10Os3Ru
_symmetry_space_group_name_H-M   'P 1'
_cell_length_a   6.31115210
_cell_length_b   7.35823530
_cell_length_c   9.06623700
_cell_angle_alpha   90.00000000
_cell_angle_beta   90.00000000
_cell_angle_gamma   89.95605342
_symmetry_Int_Tables_number   1
_chemical_formula_structural   Tb2Ho10Os3Ru
_chemical_formula_sum   'Tb2 Ho10 Os3 Ru1'
_cell_volume   421.02633183
_cell_formula_units_Z   1
loop_
 _symmetry_equiv_pos_site_id
 _symmetry_equiv_pos_as_xyz
  1  'x, y, z'
loop_
 _atom_site_type_symbol
 _atom_site_label
 _atom_site_symmetry_multiplicity
 _atom_site_fract_x
 _atom_site_fract_y
 _atom_site_fract_z
 _atom_site_occupancy
  Tb  Tb0  1  0.132977  0.460741  0.750000  1
  Tb  Tb1  1  0.369095  0.959119  0.750000  1
  Ho  Ho2  1  0.329827  0.675873  0.064779  1
  Ho  Ho3  1  0.169209  0.175426  0.436744  1
  Ho  Ho4  1  0.668345  0.324375  0.562920  1
  Ho  Ho5  1  0.832473  0.825368  0.937828  1
  Ho  Ho6  1  0.668345  0.324375  0.937080  1
  Ho  Ho7  1  0.832473  0.825368  0.562172  1
  Ho  Ho8  1  0.329827  0.675873  0.435221  1
  Ho  Ho9  1  0.169209  0.175426  0.063256  1
  Ho  Ho10  1  0.868405  0.538852  0.250000  1
  Ho  Ho11  1  0.631309  0.039305  0.250000  1
  Os  Os12  1  0.038816  0.883627  0.250000  1
  Os  Os13  1  0.461109  0.383945  0.250000  1
  Os  Os14  1  0.959809  0.116324  0.750000  1
  Ru  Ru15  1  0.538767  0.616004  0.750000  1
