# generated using pymatgen
data_Ca3Ac17Ge16
_symmetry_space_group_name_H-M   'P 1'
_cell_length_a   8.34088331
_cell_length_b   8.39502056
_cell_length_c   16.14234500
_cell_angle_alpha   90.00000000
_cell_angle_beta   90.00000000
_cell_angle_gamma   90.18024765
_symmetry_Int_Tables_number   1
_chemical_formula_structural   Ca3Ac17Ge16
_chemical_formula_sum   'Ca3 Ac17 Ge16'
_cell_volume   1130.31186195
_cell_formula_units_Z   1
loop_
 _symmetry_equiv_pos_site_id
 _symmetry_equiv_pos_as_xyz
  1  'x, y, z'
loop_
 _atom_site_type_symbol
 _atom_site_label
 _atom_site_symmetry_multiplicity
 _atom_site_fract_x
 _atom_site_fract_y
 _atom_site_fract_z
 _atom_site_occupancy
  Ca  Ca0  1  0.207894  0.497605  0.750000  1
  Ca  Ca1  1  0.708653  0.003804  0.750000  1
  Ca  Ca2  1  0.792201  0.499977  0.250000  1
  Ac  Ac3  1  0.373793  0.842670  0.884648  1
  Ac  Ac4  1  0.874285  0.660688  0.616849  1
  Ac  Ac5  1  0.630738  0.160204  0.385122  1
  Ac  Ac6  1  0.126199  0.342751  0.114781  1
  Ac  Ac7  1  0.630738  0.160204  0.114878  1
  Ac  Ac8  1  0.126199  0.342751  0.385219  1
  Ac  Ac9  1  0.373793  0.842670  0.615352  1
  Ac  Ac10  1  0.874285  0.660688  0.883151  1
  Ac  Ac11  1  0.513942  0.317716  0.899867  1
  Ac  Ac12  1  0.013826  0.181792  0.600081  1
  Ac  Ac13  1  0.486402  0.676178  0.400316  1
  Ac  Ac14  1  0.981635  0.816153  0.099534  1
  Ac  Ac15  1  0.486402  0.676178  0.099684  1
  Ac  Ac16  1  0.981635  0.816153  0.400466  1
  Ac  Ac17  1  0.513942  0.317716  0.600133  1
  Ac  Ac18  1  0.013826  0.181792  0.899919  1
  Ac  Ac19  1  0.295238  0.997585  0.250000  1
  Ge  Ge20  1  0.285073  0.034974  0.045418  1
  Ge  Ge21  1  0.785453  0.466171  0.456534  1
  Ge  Ge22  1  0.715136  0.966578  0.545980  1
  Ge  Ge23  1  0.214917  0.534360  0.953823  1
  Ge  Ge24  1  0.715136  0.966578  0.954020  1
  Ge  Ge25  1  0.214917  0.534360  0.546177  1
  Ge  Ge26  1  0.285073  0.034974  0.454582  1
  Ge  Ge27  1  0.785453  0.466171  0.043466  1
  Ge  Ge28  1  0.577926  0.594307  0.750000  1
  Ge  Ge29  1  0.079489  0.902617  0.750000  1
  Ge  Ge30  1  0.424269  0.402853  0.250000  1
  Ge  Ge31  1  0.917337  0.104688  0.250000  1
  Ge  Ge32  1  0.308972  0.131408  0.750000  1
  Ge  Ge33  1  0.810696  0.369083  0.750000  1
  Ge  Ge34  1  0.690474  0.865804  0.250000  1
  Ge  Ge35  1  0.184057  0.629801  0.250000  1
