# generated using pymatgen
data_Tb3HoAl24PdPt8
_symmetry_space_group_name_H-M   'P 1'
_cell_length_a   7.53640837
_cell_length_b   7.56083705
_cell_length_c   13.18805715
_cell_angle_alpha   84.54964754
_cell_angle_beta   79.09897159
_cell_angle_gamma   59.96759167
_symmetry_Int_Tables_number   1
_chemical_formula_structural   Tb3HoAl24PdPt8
_chemical_formula_sum   'Tb3 Ho1 Al24 Pd1 Pt8'
_cell_volume   638.84504084
_cell_formula_units_Z   1
loop_
 _symmetry_equiv_pos_site_id
 _symmetry_equiv_pos_as_xyz
  1  'x, y, z'
loop_
 _atom_site_type_symbol
 _atom_site_label
 _atom_site_symmetry_multiplicity
 _atom_site_fract_x
 _atom_site_fract_y
 _atom_site_fract_z
 _atom_site_occupancy
  Tb  Tb0  1  0.393594  0.168551  0.807823  1
  Tb  Tb1  1  0.606454  0.831474  0.192171  1
  Tb  Tb2  1  0.733800  0.498516  0.807697  1
  Ho  Ho3  1  0.265955  0.501475  0.192675  1
  Al  Al4  1  0.684826  0.833696  0.944451  1
  Al  Al5  1  0.315095  0.166698  0.055705  1
  Al  Al6  1  0.146449  0.832556  0.561398  1
  Al  Al7  1  0.853567  0.167439  0.438566  1
  Al  Al8  1  0.479431  0.166963  0.558471  1
  Al  Al9  1  0.520549  0.833064  0.441498  1
  Al  Al10  1  0.216906  0.165554  0.329988  1
  Al  Al11  1  0.783191  0.834722  0.669821  1
  Al  Al12  1  0.437286  0.506655  0.669929  1
  Al  Al13  1  0.562439  0.493343  0.329891  1
  Al  Al14  1  0.109592  0.159892  0.668884  1
  Al  Al15  1  0.890814  0.839781  0.330895  1
  Al  Al16  1  0.352420  0.499794  0.944802  1
  Al  Al17  1  0.647098  0.500205  0.055557  1
  Al  Al18  1  0.015422  0.167620  0.953131  1
  Al  Al19  1  0.984857  0.832067  0.047049  1
  Al  Al20  1  0.186783  0.499131  0.441267  1
  Al  Al21  1  0.813276  0.500872  0.558592  1
  Al  Al22  1  0.734198  0.164553  0.183474  1
  Al  Al23  1  0.265397  0.835764  0.816521  1
  Al  Al24  1  0.061582  0.631059  0.815536  1
  Al  Al25  1  0.938810  0.369014  0.184453  1
  Al  Al26  1  0.855800  0.040958  0.815956  1
  Al  Al27  1  0.144311  0.958538  0.184034  1
  Pd  Pd28  1  0.000047  0.500032  0.000081  1
  Pt  Pt29  1  0.119936  0.492248  0.638456  1
  Pt  Pt30  1  0.880327  0.507759  0.361412  1
  Pt  Pt31  1  0.657037  0.171444  0.999940  1
  Pt  Pt32  1  0.342854  0.828573  0.000179  1
  Pt  Pt33  1  0.537802  0.166828  0.361169  1
  Pt  Pt34  1  0.462016  0.833391  0.638687  1
  Pt  Pt35  1  0.778698  0.175025  0.637162  1
  Pt  Pt36  1  0.221383  0.824745  0.362682  1
