# generated using pymatgen
data_NdThSiPt8
_symmetry_space_group_name_H-M   'P 1'
_cell_length_a   4.31356800
_cell_length_b   9.23813809
_cell_length_c   9.20161333
_cell_angle_alpha   145.54648392
_cell_angle_beta   90.00000000
_cell_angle_gamma   90.00000000
_symmetry_Int_Tables_number   1
_chemical_formula_structural   NdThSiPt8
_chemical_formula_sum   'Nd1 Th1 Si1 Pt8'
_cell_volume   207.44357970
_cell_formula_units_Z   1
loop_
 _symmetry_equiv_pos_site_id
 _symmetry_equiv_pos_as_xyz
  1  'x, y, z'
loop_
 _atom_site_type_symbol
 _atom_site_label
 _atom_site_symmetry_multiplicity
 _atom_site_fract_x
 _atom_site_fract_y
 _atom_site_fract_z
 _atom_site_occupancy
  Nd  Nd0  1  0.500000  0.372165  0.616453  1
  Th  Th1  1  0.500000  0.620681  0.372094  1
  Si  Si2  1  0.000000  0.224849  0.227860  1
  Pt  Pt3  1  0.000000  0.882030  0.104526  1
  Pt  Pt4  1  0.500000  0.789549  0.191999  1
  Pt  Pt5  1  0.000000  0.983475  0.488845  1
  Pt  Pt6  1  0.000000  0.643864  0.637887  1
  Pt  Pt7  1  0.500000  0.193349  0.791180  1
  Pt  Pt8  1  0.000000  0.110993  0.889686  1
  Pt  Pt9  1  0.000000  0.489141  0.990937  1
  Pt  Pt10  1  0.500000  0.003487  0.002116  1
