# generated using pymatgen
data_Dy5Y3In3Ir
_symmetry_space_group_name_H-M   'P 1'
_cell_length_a   10.43626275
_cell_length_b   10.43626315
_cell_length_c   7.10349820
_cell_angle_alpha   90.05755601
_cell_angle_beta   89.94244380
_cell_angle_gamma   119.93980563
_symmetry_Int_Tables_number   1
_chemical_formula_structural   Dy5Y3In3Ir
_chemical_formula_sum   'Dy10 Y6 In6 Ir2'
_cell_volume   670.43355992
_cell_formula_units_Z   2
loop_
 _symmetry_equiv_pos_site_id
 _symmetry_equiv_pos_as_xyz
  1  'x, y, z'
loop_
 _atom_site_type_symbol
 _atom_site_label
 _atom_site_symmetry_multiplicity
 _atom_site_fract_x
 _atom_site_fract_y
 _atom_site_fract_z
 _atom_site_occupancy
  Dy  Dy0  1  0.465709  0.534291  0.481254  1
  Dy  Dy1  1  0.068316  0.534473  0.481394  1
  Dy  Dy2  1  0.465527  0.931684  0.481394  1
  Dy  Dy3  1  0.534271  0.465729  0.981811  1
  Dy  Dy4  1  0.931535  0.465873  0.981709  1
  Dy  Dy5  1  0.534127  0.068465  0.981709  1
  Dy  Dy6  1  0.823671  0.176329  0.275044  1
  Dy  Dy7  1  0.352793  0.176457  0.275156  1
  Dy  Dy8  1  0.823543  0.647207  0.275156  1
  Dy  Dy9  1  0.176543  0.823457  0.775342  1
  Y  Y10  1  0.648082  0.823998  0.775076  1
  Y  Y11  1  0.176002  0.351918  0.775076  1
  Y  Y12  1  0.333278  0.666722  0.101011  1
  Y  Y13  1  0.666635  0.333365  0.601304  1
  Y  Y14  1  0.000160  0.999840  0.496887  1
  Y  Y15  1  0.000284  0.999716  0.997114  1
  In  In16  1  0.162867  0.837133  0.233183  1
  In  In17  1  0.674238  0.837148  0.233247  1
  In  In18  1  0.162852  0.325762  0.233247  1
  In  In19  1  0.837101  0.162899  0.733309  1
  In  In20  1  0.325766  0.162721  0.733301  1
  In  In21  1  0.837279  0.674234  0.733301  1
  Ir  Ir22  1  0.332789  0.667211  0.703811  1
  Ir  Ir23  1  0.666632  0.333368  0.204726  1
