# generated using pymatgen
data_Hf3Al3GaCuNi
_symmetry_space_group_name_H-M   'P 1'
_cell_length_a   6.53888000
_cell_length_b   6.53888020
_cell_length_c   3.98377700
_cell_angle_alpha   90.00000000
_cell_angle_beta   90.00000000
_cell_angle_gamma   119.99998887
_symmetry_Int_Tables_number   1
_chemical_formula_structural   Hf3Al3GaCuNi
_chemical_formula_sum   'Hf3 Al3 Ga1 Cu1 Ni1'
_cell_volume   147.51373124
_cell_formula_units_Z   1
loop_
 _symmetry_equiv_pos_site_id
 _symmetry_equiv_pos_as_xyz
  1  'x, y, z'
loop_
 _atom_site_type_symbol
 _atom_site_label
 _atom_site_symmetry_multiplicity
 _atom_site_fract_x
 _atom_site_fract_y
 _atom_site_fract_z
 _atom_site_occupancy
  Hf  Hf0  1  0.407481  0.416643  0.500000  1
  Hf  Hf1  1  0.583357  0.990838  0.500000  1
  Hf  Hf2  1  0.009162  0.592519  0.500000  1
  Al  Al3  1  0.754040  0.764326  0.000000  1
  Al  Al4  1  0.235674  0.989714  0.000000  1
  Al  Al5  1  0.010286  0.245960  0.000000  1
  Ga  Ga6  1  0.666667  0.333333  0.000000  1
  Cu  Cu7  1  0.333333  0.666667  0.000000  1
  Ni  Ni8  1  0.000000  0.000000  0.500000  1
