# generated using pymatgen
data_Dy3Ag2Hg3Pd
_symmetry_space_group_name_H-M   'P 1'
_cell_length_a   7.93685000
_cell_length_b   7.93685024
_cell_length_c   3.79611700
_cell_angle_alpha   90.00000000
_cell_angle_beta   90.00000000
_cell_angle_gamma   119.99999901
_symmetry_Int_Tables_number   1
_chemical_formula_structural   Dy3Ag2Hg3Pd
_chemical_formula_sum   'Dy3 Ag2 Hg3 Pd1'
_cell_volume   207.09355507
_cell_formula_units_Z   1
loop_
 _symmetry_equiv_pos_site_id
 _symmetry_equiv_pos_as_xyz
  1  'x, y, z'
loop_
 _atom_site_type_symbol
 _atom_site_label
 _atom_site_symmetry_multiplicity
 _atom_site_fract_x
 _atom_site_fract_y
 _atom_site_fract_z
 _atom_site_occupancy
  Dy  Dy0  1  0.391876  0.410621  0.500000  1
  Dy  Dy1  1  0.589379  0.981256  0.500000  1
  Dy  Dy2  1  0.018744  0.608124  0.500000  1
  Ag  Ag3  1  0.666667  0.333333  0.000000  1
  Ag  Ag4  1  0.000000  0.000000  0.500000  1
  Hg  Hg5  1  0.726305  0.723388  0.000000  1
  Hg  Hg6  1  0.276612  0.002918  0.000000  1
  Hg  Hg7  1  0.997082  0.273695  0.000000  1
  Pd  Pd8  1  0.333333  0.666667  0.000000  1
