# generated using pymatgen
data_YLu2Pa(ReB6)2
_symmetry_space_group_name_H-M   'P 1'
_cell_length_a   3.67192700
_cell_length_b   9.10586741
_cell_length_c   11.48623600
_cell_angle_alpha   90.28123605
_cell_angle_beta   90.00000000
_cell_angle_gamma   90.00000000
_symmetry_Int_Tables_number   1
_chemical_formula_structural   YLu2Pa(ReB6)2
_chemical_formula_sum   'Y2 Lu4 Pa2 Re4 B24'
_cell_volume   384.05008381
_cell_formula_units_Z   2
loop_
 _symmetry_equiv_pos_site_id
 _symmetry_equiv_pos_as_xyz
  1  'x, y, z'
loop_
 _atom_site_type_symbol
 _atom_site_label
 _atom_site_symmetry_multiplicity
 _atom_site_fract_x
 _atom_site_fract_y
 _atom_site_fract_z
 _atom_site_occupancy
  Y  Y0  1  0.000000  0.822903  0.085672  1
  Y  Y1  1  0.000000  0.177097  0.914328  1
  Lu  Lu2  1  0.000000  0.945140  0.372380  1
  Lu  Lu3  1  0.000000  0.054860  0.627620  1
  Lu  Lu4  1  0.000000  0.444117  0.126506  1
  Lu  Lu5  1  0.000000  0.555883  0.873494  1
  Pa  Pa6  1  0.000000  0.320674  0.413408  1
  Pa  Pa7  1  0.000000  0.679326  0.586592  1
  Re  Re8  1  0.000000  0.635947  0.323840  1
  Re  Re9  1  0.000000  0.364053  0.676160  1
  Re  Re10  1  0.000000  0.141619  0.182646  1
  Re  Re11  1  0.000000  0.858381  0.817354  1
  B  B12  1  0.500000  0.554184  0.432795  1
  B  B13  1  0.500000  0.445816  0.567205  1
  B  B14  1  0.500000  0.054033  0.067537  1
  B  B15  1  0.500000  0.945967  0.932463  1
  B  B16  1  0.500000  0.750487  0.419183  1
  B  B17  1  0.500000  0.249513  0.580817  1
  B  B18  1  0.500000  0.249884  0.080625  1
  B  B19  1  0.500000  0.750116  0.919375  1
  B  B20  1  0.500000  0.792499  0.265260  1
  B  B21  1  0.500000  0.207501  0.734740  1
  B  B22  1  0.500000  0.293047  0.234093  1
  B  B23  1  0.500000  0.706953  0.765907  1
  B  B24  1  0.500000  0.630565  0.184685  1
  B  B25  1  0.500000  0.369435  0.815315  1
  B  B26  1  0.500000  0.131193  0.314936  1
  B  B27  1  0.500000  0.868807  0.685064  1
  B  B28  1  0.500000  0.982050  0.212742  1
  B  B29  1  0.500000  0.017950  0.787258  1
  B  B30  1  0.500000  0.482622  0.285989  1
  B  B31  1  0.500000  0.517378  0.714011  1
  B  B32  1  0.500000  0.601445  0.028211  1
  B  B33  1  0.500000  0.398555  0.971789  1
  B  B34  1  0.500000  0.105525  0.470923  1
  B  B35  1  0.500000  0.894475  0.529077  1
