# generated using pymatgen
data_GdY5Mn2(Co4P3)4
_symmetry_space_group_name_H-M   'P 1'
_cell_length_a   3.69917500
_cell_length_b   10.55652500
_cell_length_c   12.21813000
_cell_angle_alpha   90.00000000
_cell_angle_beta   90.00000000
_cell_angle_gamma   90.00000000
_symmetry_Int_Tables_number   1
_chemical_formula_structural   GdY5Mn2(Co4P3)4
_chemical_formula_sum   'Gd1 Y5 Mn2 Co16 P12'
_cell_volume   477.12327143
_cell_formula_units_Z   1
loop_
 _symmetry_equiv_pos_site_id
 _symmetry_equiv_pos_as_xyz
  1  'x, y, z'
loop_
 _atom_site_type_symbol
 _atom_site_label
 _atom_site_symmetry_multiplicity
 _atom_site_fract_x
 _atom_site_fract_y
 _atom_site_fract_z
 _atom_site_occupancy
  Gd  Gd0  1  0.000000  0.500000  0.523688  1
  Y  Y1  1  0.500000  0.000000  0.477532  1
  Y  Y2  1  0.500000  0.818620  0.205132  1
  Y  Y3  1  0.500000  0.181380  0.205132  1
  Y  Y4  1  0.000000  0.681820  0.795039  1
  Y  Y5  1  0.000000  0.318180  0.795039  1
  Mn  Mn6  1  0.500000  0.500000  0.158629  1
  Mn  Mn7  1  0.000000  0.000000  0.842384  1
  Co  Co8  1  0.500000  0.500000  0.702881  1
  Co  Co9  1  0.000000  0.000000  0.296683  1
  Co  Co10  1  0.000000  0.500000  0.986502  1
  Co  Co11  1  0.500000  0.000000  0.013460  1
  Co  Co12  1  0.500000  0.333423  0.993770  1
  Co  Co13  1  0.500000  0.666577  0.993770  1
  Co  Co14  1  0.000000  0.167083  0.006231  1
  Co  Co15  1  0.000000  0.832917  0.006231  1
  Co  Co16  1  0.500000  0.295914  0.430143  1
  Co  Co17  1  0.500000  0.704086  0.430143  1
  Co  Co18  1  0.000000  0.202796  0.569237  1
  Co  Co19  1  0.000000  0.797204  0.569237  1
  Co  Co20  1  0.500000  0.879026  0.709603  1
  Co  Co21  1  0.500000  0.120974  0.709603  1
  Co  Co22  1  0.000000  0.620341  0.290246  1
  Co  Co23  1  0.000000  0.379659  0.290246  1
  P  P24  1  0.500000  0.500000  0.882925  1
  P  P25  1  0.000000  0.000000  0.116775  1
  P  P26  1  0.500000  0.500000  0.344833  1
  P  P27  1  0.000000  0.000000  0.655166  1
  P  P28  1  0.500000  0.309460  0.616086  1
  P  P29  1  0.500000  0.690540  0.616086  1
  P  P30  1  0.000000  0.188953  0.383957  1
  P  P31  1  0.000000  0.811047  0.383957  1
  P  P32  1  0.500000  0.847020  0.893306  1
  P  P33  1  0.500000  0.152980  0.893306  1
  P  P34  1  0.000000  0.653150  0.106523  1
  P  P35  1  0.000000  0.346850  0.106523  1
