# generated using pymatgen
data_YHo3Co12(P3Rh2)4
_symmetry_space_group_name_H-M   'P 1'
_cell_length_a   3.72836300
_cell_length_b   10.46526824
_cell_length_c   12.07907727
_cell_angle_alpha   90.02438227
_cell_angle_beta   90.00000000
_cell_angle_gamma   90.00000000
_symmetry_Int_Tables_number   1
_chemical_formula_structural   YHo3Co12(P3Rh2)4
_chemical_formula_sum   'Y1 Ho3 Co12 P12 Rh8'
_cell_volume   471.30524615
_cell_formula_units_Z   1
loop_
 _symmetry_equiv_pos_site_id
 _symmetry_equiv_pos_as_xyz
  1  'x, y, z'
loop_
 _atom_site_type_symbol
 _atom_site_label
 _atom_site_symmetry_multiplicity
 _atom_site_fract_x
 _atom_site_fract_y
 _atom_site_fract_z
 _atom_site_occupancy
  Y  Y0  1  0.250000  0.584165  0.711058  1
  Ho  Ho1  1  0.250000  0.915881  0.210825  1
  Ho  Ho2  1  0.750000  0.084189  0.789103  1
  Ho  Ho3  1  0.750000  0.415745  0.289119  1
  Co  Co4  1  0.250000  0.278867  0.678512  1
  Co  Co5  1  0.750000  0.721048  0.321389  1
  Co  Co6  1  0.750000  0.779549  0.821644  1
  Co  Co7  1  0.250000  0.220895  0.178470  1
  Co  Co8  1  0.250000  0.617430  0.197168  1
  Co  Co9  1  0.750000  0.382028  0.803065  1
  Co  Co10  1  0.750000  0.117480  0.302848  1
  Co  Co11  1  0.250000  0.882851  0.697093  1
  Co  Co12  1  0.250000  0.037092  0.431185  1
  Co  Co13  1  0.750000  0.963191  0.568679  1
  Co  Co14  1  0.750000  0.537006  0.069007  1
  Co  Co15  1  0.250000  0.462679  0.931657  1
  P  P16  1  0.250000  0.078180  0.610845  1
  P  P17  1  0.750000  0.921862  0.389116  1
  P  P18  1  0.750000  0.578111  0.889803  1
  P  P19  1  0.250000  0.421777  0.110926  1
  P  P20  1  0.250000  0.225885  0.361893  1
  P  P21  1  0.750000  0.774612  0.637754  1
  P  P22  1  0.750000  0.725953  0.138075  1
  P  P23  1  0.250000  0.274093  0.861944  1
  P  P24  1  0.250000  0.896058  0.879110  1
  P  P25  1  0.750000  0.103986  0.120869  1
  P  P26  1  0.750000  0.395560  0.620672  1
  P  P27  1  0.250000  0.604005  0.379158  1
  Rh  Rh28  1  0.250000  0.788366  0.486339  1
  Rh  Rh29  1  0.750000  0.211586  0.513545  1
  Rh  Rh30  1  0.750000  0.288198  0.013687  1
  Rh  Rh31  1  0.250000  0.711708  0.986355  1
  Rh  Rh32  1  0.250000  0.093483  0.979054  1
  Rh  Rh33  1  0.750000  0.906597  0.020973  1
  Rh  Rh34  1  0.750000  0.593456  0.520043  1
  Rh  Rh35  1  0.250000  0.406428  0.479016  1
