# generated using pymatgen
data_Tb6Ho10In6CoPt
_symmetry_space_group_name_H-M   'P 1'
_cell_length_a   10.43972900
_cell_length_b   10.43972966
_cell_length_c   7.00706600
_cell_angle_alpha   90.00000000
_cell_angle_beta   90.00000000
_cell_angle_gamma   120.00000107
_symmetry_Int_Tables_number   1
_chemical_formula_structural   Tb6Ho10In6CoPt
_chemical_formula_sum   'Tb6 Ho10 In6 Co1 Pt1'
_cell_volume   661.37125158
_cell_formula_units_Z   1
loop_
 _symmetry_equiv_pos_site_id
 _symmetry_equiv_pos_as_xyz
  1  'x, y, z'
loop_
 _atom_site_type_symbol
 _atom_site_label
 _atom_site_symmetry_multiplicity
 _atom_site_fract_x
 _atom_site_fract_y
 _atom_site_fract_z
 _atom_site_occupancy
  Tb  Tb0  1  0.530403  0.060805  0.507870  1
  Tb  Tb1  1  0.939195  0.469597  0.507870  1
  Tb  Tb2  1  0.530403  0.469597  0.507870  1
  Tb  Tb3  1  0.464697  0.929395  0.005383  1
  Tb  Tb4  1  0.070605  0.535303  0.005383  1
  Tb  Tb5  1  0.464697  0.535303  0.005383  1
  Ho  Ho6  1  0.177950  0.355899  0.714010  1
  Ho  Ho7  1  0.644101  0.822050  0.714010  1
  Ho  Ho8  1  0.177950  0.822050  0.714010  1
  Ho  Ho9  1  0.824653  0.649307  0.212647  1
  Ho  Ho10  1  0.350693  0.175347  0.212647  1
  Ho  Ho11  1  0.824653  0.175347  0.212647  1
  Ho  Ho12  1  0.666667  0.333333  0.884605  1
  Ho  Ho13  1  0.333333  0.666667  0.396620  1
  Ho  Ho14  1  0.000000  0.000000  0.492282  1
  Ho  Ho15  1  0.000000  0.000000  0.990661  1
  In  In16  1  0.837862  0.675726  0.751352  1
  In  In17  1  0.324274  0.162138  0.751352  1
  In  In18  1  0.837862  0.162138  0.751352  1
  In  In19  1  0.162753  0.325505  0.252715  1
  In  In20  1  0.674495  0.837247  0.252715  1
  In  In21  1  0.162753  0.837247  0.252715  1
  Co  Co22  1  0.333333  0.666667  0.781310  1
  Pt  Pt23  1  0.666667  0.333333  0.280628  1
