# generated using pymatgen
data_EuH9W
_symmetry_space_group_name_H-M   'P 1'
_cell_length_a   4.82040100
_cell_length_b   4.82040149
_cell_length_c   8.99772600
_cell_angle_alpha   90.00000000
_cell_angle_beta   90.00000000
_cell_angle_gamma   120.00000350
_symmetry_Int_Tables_number   1
_chemical_formula_structural   EuH9W
_chemical_formula_sum   'Eu2 H18 W2'
_cell_volume   181.06302014
_cell_formula_units_Z   2
loop_
 _symmetry_equiv_pos_site_id
 _symmetry_equiv_pos_as_xyz
  1  'x, y, z'
loop_
 _atom_site_type_symbol
 _atom_site_label
 _atom_site_symmetry_multiplicity
 _atom_site_fract_x
 _atom_site_fract_y
 _atom_site_fract_z
 _atom_site_occupancy
  Eu  Eu0  1  0.000000  0.000000  0.000000  1
  Eu  Eu1  1  0.000000  0.000000  0.500000  1
  H  H2  1  0.477875  0.522125  0.396924  1
  H  H3  1  0.477875  0.955749  0.396924  1
  H  H4  1  0.044251  0.522125  0.396924  1
  H  H5  1  0.955749  0.477875  0.896924  1
  H  H6  1  0.127588  0.255175  0.250000  1
  H  H7  1  0.872412  0.127588  0.750000  1
  H  H8  1  0.255175  0.127588  0.750000  1
  H  H9  1  0.744825  0.872412  0.250000  1
  H  H10  1  0.127588  0.872412  0.250000  1
  H  H11  1  0.872412  0.744825  0.750000  1
  H  H12  1  0.477875  0.955749  0.103076  1
  H  H13  1  0.522125  0.477875  0.603076  1
  H  H14  1  0.955749  0.477875  0.603076  1
  H  H15  1  0.044251  0.522125  0.103076  1
  H  H16  1  0.477875  0.522125  0.103076  1
  H  H17  1  0.522125  0.044251  0.896924  1
  H  H18  1  0.522125  0.477875  0.896924  1
  H  H19  1  0.522125  0.044251  0.603076  1
  W  W20  1  0.333333  0.666667  0.250000  1
  W  W21  1  0.666667  0.333333  0.750000  1
