# generated using pymatgen
data_TbTh(Al3Ni)6
_symmetry_space_group_name_H-M   'P 1'
_cell_length_a   10.14396327
_cell_length_b   10.14396329
_cell_length_c   10.14396400
_cell_angle_alpha   42.39142908
_cell_angle_beta   42.39142897
_cell_angle_gamma   42.39142798
_symmetry_Int_Tables_number   1
_chemical_formula_structural   TbTh(Al3Ni)6
_chemical_formula_sum   'Tb1 Th1 Al18 Ni6'
_cell_volume   429.51094047
_cell_formula_units_Z   1
loop_
 _symmetry_equiv_pos_site_id
 _symmetry_equiv_pos_as_xyz
  1  'x, y, z'
loop_
 _atom_site_type_symbol
 _atom_site_label
 _atom_site_symmetry_multiplicity
 _atom_site_fract_x
 _atom_site_fract_y
 _atom_site_fract_z
 _atom_site_occupancy
  Tb  Tb0  1  0.833120  0.833120  0.833120  1
  Th  Th1  1  0.166790  0.166790  0.166790  1
  Al  Al2  1  0.101814  0.433721  0.756860  1
  Al  Al3  1  0.433721  0.756860  0.101814  1
  Al  Al4  1  0.572280  0.895053  0.240286  1
  Al  Al5  1  0.948656  0.948656  0.948656  1
  Al  Al6  1  0.050588  0.050588  0.050588  1
  Al  Al7  1  0.291430  0.702574  0.506010  1
  Al  Al8  1  0.895053  0.240286  0.572280  1
  Al  Al9  1  0.385909  0.385909  0.385909  1
  Al  Al10  1  0.506010  0.291430  0.702574  1
  Al  Al11  1  0.240286  0.572280  0.895053  1
  Al  Al12  1  0.717721  0.717721  0.717721  1
  Al  Al13  1  0.614211  0.614211  0.614211  1
  Al  Al14  1  0.334846  0.999292  0.665876  1
  Al  Al15  1  0.702574  0.506010  0.291430  1
  Al  Al16  1  0.665876  0.334846  0.999292  1
  Al  Al17  1  0.282883  0.282883  0.282883  1
  Al  Al18  1  0.999292  0.665876  0.334846  1
  Al  Al19  1  0.756860  0.101814  0.433721  1
  Ni  Ni20  1  0.416655  0.078669  0.759289  1
  Ni  Ni21  1  0.580067  0.242449  0.922951  1
  Ni  Ni22  1  0.078669  0.759289  0.416655  1
  Ni  Ni23  1  0.759289  0.416655  0.078669  1
  Ni  Ni24  1  0.922951  0.580067  0.242449  1
  Ni  Ni25  1  0.242449  0.922951  0.580067  1
