# generated using pymatgen
data_Sc6Al14Zn(Fe2Si3)3
_symmetry_space_group_name_H-M   'P 1'
_cell_length_a   8.28877106
_cell_length_b   8.28877166
_cell_length_c   8.99329400
_cell_angle_alpha   90.00000000
_cell_angle_beta   90.00000000
_cell_angle_gamma   120.22554560
_symmetry_Int_Tables_number   1
_chemical_formula_structural   Sc6Al14Zn(Fe2Si3)3
_chemical_formula_sum   'Sc6 Al14 Zn1 Fe6 Si9'
_cell_volume   533.87330783
_cell_formula_units_Z   1
loop_
 _symmetry_equiv_pos_site_id
 _symmetry_equiv_pos_as_xyz
  1  'x, y, z'
loop_
 _atom_site_type_symbol
 _atom_site_label
 _atom_site_symmetry_multiplicity
 _atom_site_fract_x
 _atom_site_fract_y
 _atom_site_fract_z
 _atom_site_occupancy
  Sc  Sc0  1  0.199462  0.800538  0.250000  1
  Sc  Sc1  1  0.198040  0.398419  0.250000  1
  Sc  Sc2  1  0.601581  0.801960  0.250000  1
  Sc  Sc3  1  0.800867  0.199133  0.750000  1
  Sc  Sc4  1  0.800596  0.600328  0.750000  1
  Sc  Sc5  1  0.399672  0.199404  0.750000  1
  Al  Al6  1  0.161326  0.838674  0.923760  1
  Al  Al7  1  0.161071  0.322941  0.922362  1
  Al  Al8  1  0.677059  0.838929  0.922362  1
  Al  Al9  1  0.838593  0.161407  0.076865  1
  Al  Al10  1  0.835521  0.674464  0.078490  1
  Al  Al11  1  0.325536  0.164479  0.078490  1
  Al  Al12  1  0.838593  0.161407  0.423135  1
  Al  Al13  1  0.835521  0.674464  0.421510  1
  Al  Al14  1  0.325536  0.164479  0.421510  1
  Al  Al15  1  0.161326  0.838674  0.576240  1
  Al  Al16  1  0.161071  0.322941  0.577638  1
  Al  Al17  1  0.677059  0.838929  0.577638  1
  Al  Al18  1  0.000139  0.999861  0.250000  1
  Al  Al19  1  0.000351  0.999649  0.750000  1
  Zn  Zn20  1  0.560794  0.439206  0.250000  1
  Fe  Fe21  1  0.498900  0.501100  0.513511  1
  Fe  Fe22  1  0.499956  0.999035  0.500783  1
  Fe  Fe23  1  0.000965  0.500044  0.500783  1
  Fe  Fe24  1  0.498900  0.501100  0.986489  1
  Fe  Fe25  1  0.499956  0.999035  0.999217  1
  Fe  Fe26  1  0.000965  0.500044  0.999217  1
  Si  Si27  1  0.563179  0.122517  0.250000  1
  Si  Si28  1  0.877483  0.436821  0.250000  1
  Si  Si29  1  0.438048  0.561952  0.750000  1
  Si  Si30  1  0.438893  0.877412  0.750000  1
  Si  Si31  1  0.122588  0.561107  0.750000  1
  Si  Si32  1  0.334212  0.665788  0.461140  1
  Si  Si33  1  0.666015  0.333985  0.538891  1
  Si  Si34  1  0.666015  0.333985  0.961109  1
  Si  Si35  1  0.334212  0.665788  0.038860  1
