# generated using pymatgen
data_Nd3ErTm4(CdIr)2
_symmetry_space_group_name_H-M   'P 1'
_cell_length_a   9.67641124
_cell_length_b   9.67641183
_cell_length_c   9.67826400
_cell_angle_alpha   59.99366797
_cell_angle_beta   59.99366597
_cell_angle_gamma   59.98676791
_symmetry_Int_Tables_number   1
_chemical_formula_structural   Nd3ErTm4(CdIr)2
_chemical_formula_sum   'Nd6 Er2 Tm8 Cd4 Ir4'
_cell_volume   640.65778528
_cell_formula_units_Z   2
loop_
 _symmetry_equiv_pos_site_id
 _symmetry_equiv_pos_as_xyz
  1  'x, y, z'
loop_
 _atom_site_type_symbol
 _atom_site_label
 _atom_site_symmetry_multiplicity
 _atom_site_fract_x
 _atom_site_fract_y
 _atom_site_fract_z
 _atom_site_occupancy
  Nd  Nd0  1  0.941110  0.558748  0.558775  1
  Nd  Nd1  1  0.558748  0.941110  0.941368  1
  Nd  Nd2  1  0.558748  0.941110  0.558775  1
  Nd  Nd3  1  0.941110  0.558748  0.941368  1
  Nd  Nd4  1  0.558915  0.558915  0.941085  1
  Nd  Nd5  1  0.941355  0.941355  0.558645  1
  Er  Er6  1  0.347064  0.347064  0.346700  1
  Er  Er7  1  0.347064  0.347064  0.959173  1
  Tm  Tm8  1  0.347144  0.959312  0.346772  1
  Tm  Tm9  1  0.959312  0.347144  0.346772  1
  Tm  Tm10  1  0.813106  0.186296  0.186965  1
  Tm  Tm11  1  0.186296  0.813106  0.813633  1
  Tm  Tm12  1  0.186296  0.813106  0.186965  1
  Tm  Tm13  1  0.813106  0.186296  0.813633  1
  Tm  Tm14  1  0.186603  0.186603  0.813397  1
  Tm  Tm15  1  0.813348  0.813348  0.186652  1
  Cd  Cd16  1  0.579261  0.579261  0.579094  1
  Cd  Cd17  1  0.579261  0.579261  0.262382  1
  Cd  Cd18  1  0.579384  0.262040  0.579287  1
  Cd  Cd19  1  0.262040  0.579384  0.579287  1
  Ir  Ir20  1  0.141265  0.141265  0.140941  1
  Ir  Ir21  1  0.141265  0.141265  0.576529  1
  Ir  Ir22  1  0.141213  0.576986  0.140900  1
  Ir  Ir23  1  0.576986  0.141213  0.140900  1
