# generated using pymatgen
data_Pa4NbRe3C8
_symmetry_space_group_name_H-M   'P 1'
_cell_length_a   3.30643300
_cell_length_b   5.71670939
_cell_length_c   11.11378463
_cell_angle_alpha   90.36973986
_cell_angle_beta   90.00000000
_cell_angle_gamma   90.00000000
_symmetry_Int_Tables_number   1
_chemical_formula_structural   Pa4NbRe3C8
_chemical_formula_sum   'Pa4 Nb1 Re3 C8'
_cell_volume   210.06745585
_cell_formula_units_Z   1
loop_
 _symmetry_equiv_pos_site_id
 _symmetry_equiv_pos_as_xyz
  1  'x, y, z'
loop_
 _atom_site_type_symbol
 _atom_site_label
 _atom_site_symmetry_multiplicity
 _atom_site_fract_x
 _atom_site_fract_y
 _atom_site_fract_z
 _atom_site_occupancy
  Pa  Pa0  1  0.250000  0.079579  0.856508  1
  Pa  Pa1  1  0.250000  0.585301  0.641505  1
  Pa  Pa2  1  0.750000  0.919374  0.140181  1
  Pa  Pa3  1  0.750000  0.417195  0.361278  1
  Nb  Nb4  1  0.250000  0.421247  0.101161  1
  Re  Re5  1  0.250000  0.917270  0.399361  1
  Re  Re6  1  0.750000  0.576210  0.896382  1
  Re  Re7  1  0.750000  0.082918  0.602963  1
  C  C8  1  0.250000  0.156530  0.248735  1
  C  C9  1  0.250000  0.667979  0.260521  1
  C  C10  1  0.750000  0.839625  0.753053  1
  C  C11  1  0.750000  0.339090  0.744551  1
  C  C12  1  0.250000  0.741553  0.987188  1
  C  C13  1  0.250000  0.239074  0.509885  1
  C  C14  1  0.750000  0.252150  0.004249  1
  C  C15  1  0.750000  0.764902  0.492479  1
