# generated using pymatgen
data_Tb2Sm2B4I5
_symmetry_space_group_name_H-M   'P 1'
_cell_length_a   9.70996972
_cell_length_b   9.70996894
_cell_length_c   9.78641662
_cell_angle_alpha   75.25009855
_cell_angle_beta   75.25009932
_cell_angle_gamma   25.61146715
_symmetry_Int_Tables_number   1
_chemical_formula_structural   Tb2Sm2B4I5
_chemical_formula_sum   'Tb2 Sm2 B4 I5'
_cell_volume   385.01619823
_cell_formula_units_Z   1
loop_
 _symmetry_equiv_pos_site_id
 _symmetry_equiv_pos_as_xyz
  1  'x, y, z'
loop_
 _atom_site_type_symbol
 _atom_site_label
 _atom_site_symmetry_multiplicity
 _atom_site_fract_x
 _atom_site_fract_y
 _atom_site_fract_z
 _atom_site_occupancy
  Tb  Tb0  1  0.503629  0.503629  0.754227  1
  Tb  Tb1  1  0.498203  0.498203  0.244636  1
  Sm  Sm2  1  0.132321  0.132321  0.932613  1
  Sm  Sm3  1  0.869339  0.869339  0.066043  1
  B  B4  1  0.315053  0.686612  0.999474  1
  B  B5  1  0.686612  0.315053  0.999474  1
  B  B6  1  0.000615  0.000615  0.098114  1
  B  B7  1  0.000996  0.000996  0.900841  1
  I  I8  1  0.674070  0.674070  0.677179  1
  I  I9  1  0.327757  0.327757  0.322058  1
  I  I10  1  0.329297  0.329297  0.846473  1
  I  I11  1  0.672838  0.672838  0.151025  1
  I  I12  1  0.003574  0.003574  0.498044  1
