# generated using pymatgen
data_Ce2Zn19Pt3
_symmetry_space_group_name_H-M   'P 1'
_cell_length_a   8.30396920
_cell_length_b   8.30780388
_cell_length_c   8.30161535
_cell_angle_alpha   99.45619884
_cell_angle_beta   100.27300958
_cell_angle_gamma   131.08384333
_symmetry_Int_Tables_number   1
_chemical_formula_structural   Ce2Zn19Pt3
_chemical_formula_sum   'Ce2 Zn19 Pt3'
_cell_volume   392.97674708
_cell_formula_units_Z   1
loop_
 _symmetry_equiv_pos_site_id
 _symmetry_equiv_pos_as_xyz
  1  'x, y, z'
loop_
 _atom_site_type_symbol
 _atom_site_label
 _atom_site_symmetry_multiplicity
 _atom_site_fract_x
 _atom_site_fract_y
 _atom_site_fract_z
 _atom_site_occupancy
  Ce  Ce0  1  0.248047  0.745549  0.497503  1
  Ce  Ce1  1  0.001953  0.004451  0.002497  1
  Zn  Zn2  1  0.903626  0.576391  0.084337  1
  Zn  Zn3  1  0.625000  0.875000  0.250000  1
  Zn  Zn4  1  0.426151  0.510255  0.326909  1
  Zn  Zn5  1  0.491935  0.576406  0.672690  1
  Zn  Zn6  1  0.424885  0.095989  0.915864  1
  Zn  Zn7  1  0.758065  0.173594  0.827310  1
  Zn  Zn8  1  0.490782  0.818305  0.914908  1
  Zn  Zn9  1  0.495849  0.492700  0.996841  1
  Zn  Zn10  1  0.759218  0.931695  0.585092  1
  Zn  Zn11  1  0.754151  0.257300  0.503159  1
  Zn  Zn12  1  0.069829  0.654111  0.828951  1
  Zn  Zn13  1  0.346374  0.173609  0.415663  1
  Zn  Zn14  1  0.825115  0.654011  0.584136  1
  Zn  Zn15  1  0.903550  0.818412  0.327590  1
  Zn  Zn16  1  0.180171  0.095889  0.671049  1
  Zn  Zn17  1  0.066637  0.239787  0.415962  1
  Zn  Zn18  1  0.346450  0.931588  0.172410  1
  Zn  Zn19  1  0.823849  0.239745  0.173091  1
  Zn  Zn20  1  0.183363  0.510213  0.084038  1
  Pt  Pt21  1  0.125000  0.375000  0.750000  1
  Pt  Pt22  1  0.625000  0.375000  0.250000  1
  Pt  Pt23  1  0.625000  0.375000  0.750000  1
