# generated using pymatgen
data_ZrNbSiTc2Ge
_symmetry_space_group_name_H-M   'P 1'
_cell_length_a   3.38385900
_cell_length_b   7.02707019
_cell_length_c   12.07088190
_cell_angle_alpha   89.60455420
_cell_angle_beta   90.00000000
_cell_angle_gamma   90.00000000
_symmetry_Int_Tables_number   1
_chemical_formula_structural   ZrNbSiTc2Ge
_chemical_formula_sum   'Zr3 Nb3 Si3 Tc6 Ge3'
_cell_volume   287.02201350
_cell_formula_units_Z   3
loop_
 _symmetry_equiv_pos_site_id
 _symmetry_equiv_pos_as_xyz
  1  'x, y, z'
loop_
 _atom_site_type_symbol
 _atom_site_label
 _atom_site_symmetry_multiplicity
 _atom_site_fract_x
 _atom_site_fract_y
 _atom_site_fract_z
 _atom_site_occupancy
  Zr  Zr0  1  0.500000  0.293503  0.301124  1
  Zr  Zr1  1  0.500000  0.297543  0.699017  1
  Zr  Zr2  1  0.500000  0.803882  0.202135  1
  Nb  Nb3  1  0.500000  0.402631  0.000209  1
  Nb  Nb4  1  0.500000  0.899612  0.498362  1
  Nb  Nb5  1  0.500000  0.797720  0.801446  1
  Si  Si6  1  0.000000  0.996458  0.338987  1
  Si  Si7  1  0.500000  0.004710  0.998376  1
  Si  Si8  1  0.500000  0.502890  0.499049  1
  Tc  Tc9  1  0.000000  0.751446  0.996831  1
  Tc  Tc10  1  0.000000  0.247493  0.499706  1
  Tc  Tc11  1  0.000000  0.626113  0.625131  1
  Tc  Tc12  1  0.000000  0.125689  0.124896  1
  Tc  Tc13  1  0.000000  0.126618  0.874117  1
  Tc  Tc14  1  0.000000  0.630209  0.375761  1
  Ge  Ge15  1  0.000000  0.991933  0.666895  1
  Ge  Ge16  1  0.000000  0.499366  0.162973  1
  Ge  Ge17  1  0.000000  0.502380  0.834985  1
