# generated using pymatgen
data_LaEu(AsPd)4
_symmetry_space_group_name_H-M   'P 1'
_cell_length_a   4.43397800
_cell_length_b   4.43397800
_cell_length_c   10.11282600
_cell_angle_alpha   90.00000000
_cell_angle_beta   90.00000000
_cell_angle_gamma   90.00000000
_symmetry_Int_Tables_number   1
_chemical_formula_structural   LaEu(AsPd)4
_chemical_formula_sum   'La1 Eu1 As4 Pd4'
_cell_volume   198.81978636
_cell_formula_units_Z   1
loop_
 _symmetry_equiv_pos_site_id
 _symmetry_equiv_pos_as_xyz
  1  'x, y, z'
loop_
 _atom_site_type_symbol
 _atom_site_label
 _atom_site_symmetry_multiplicity
 _atom_site_fract_x
 _atom_site_fract_y
 _atom_site_fract_z
 _atom_site_occupancy
  La  La0  1  0.500000  0.000000  0.752686  1
  Eu  Eu1  1  0.000000  0.500000  0.249207  1
  As  As2  1  0.000000  0.000000  0.000545  1
  As  As3  1  0.500000  0.500000  0.000545  1
  As  As4  1  0.500000  0.000000  0.365538  1
  As  As5  1  0.000000  0.500000  0.631348  1
  Pd  Pd6  1  0.500000  0.000000  0.120995  1
  Pd  Pd7  1  0.000000  0.000000  0.501406  1
  Pd  Pd8  1  0.500000  0.500000  0.501406  1
  Pd  Pd9  1  0.000000  0.500000  0.876323  1
