# generated using pymatgen
data_CoBi3IrRh3O14
_symmetry_space_group_name_H-M   'P 1'
_cell_length_a   7.32098632
_cell_length_b   7.17120726
_cell_length_c   7.31689700
_cell_angle_alpha   59.32565239
_cell_angle_beta   60.01848032
_cell_angle_gamma   59.28305919
_symmetry_Int_Tables_number   1
_chemical_formula_structural   CoBi3IrRh3O14
_chemical_formula_sum   'Co1 Bi3 Ir1 Rh3 O14'
_cell_volume   268.77297809
_cell_formula_units_Z   1
loop_
 _symmetry_equiv_pos_site_id
 _symmetry_equiv_pos_as_xyz
  1  'x, y, z'
loop_
 _atom_site_type_symbol
 _atom_site_label
 _atom_site_symmetry_multiplicity
 _atom_site_fract_x
 _atom_site_fract_y
 _atom_site_fract_z
 _atom_site_occupancy
  Co  Co0  1  0.125000  0.625000  0.125000  1
  Bi  Bi1  1  0.125000  0.125000  0.125000  1
  Bi  Bi2  1  0.625000  0.125000  0.125000  1
  Bi  Bi3  1  0.125000  0.125000  0.625000  1
  Ir  Ir4  1  0.125000  0.625000  0.625000  1
  Rh  Rh5  1  0.625000  0.625000  0.625000  1
  Rh  Rh6  1  0.625000  0.625000  0.125000  1
  Rh  Rh7  1  0.625000  0.125000  0.625000  1
  O  O8  1  0.239090  0.281944  0.239484  1
  O  O9  1  0.290995  0.704025  0.296091  1
  O  O10  1  0.959351  0.958775  0.540937  1
  O  O11  1  0.538242  0.962278  0.540230  1
  O  O12  1  0.713252  0.704800  0.290974  1
  O  O13  1  0.959005  0.545975  0.541110  1
  O  O14  1  0.711758  0.287722  0.709770  1
  O  O15  1  0.290649  0.291225  0.709063  1
  O  O16  1  0.711758  0.287722  0.290749  1
  O  O17  1  0.290995  0.704025  0.708890  1
  O  O18  1  0.959005  0.545975  0.953909  1
  O  O19  1  0.536748  0.545200  0.959026  1
  O  O20  1  0.010910  0.968056  0.010516  1
  O  O21  1  0.538242  0.962278  0.959251  1
