# generated using pymatgen
data_LiPa2Se5
_symmetry_space_group_name_H-M   'P 1'
_cell_length_a   7.71935600
_cell_length_b   8.62777516
_cell_length_c   12.14673342
_cell_angle_alpha   91.84019137
_cell_angle_beta   90.00000000
_cell_angle_gamma   90.00000000
_symmetry_Int_Tables_number   1
_chemical_formula_structural   LiPa2Se5
_chemical_formula_sum   'Li4 Pa8 Se20'
_cell_volume   808.56577989
_cell_formula_units_Z   4
loop_
 _symmetry_equiv_pos_site_id
 _symmetry_equiv_pos_as_xyz
  1  'x, y, z'
loop_
 _atom_site_type_symbol
 _atom_site_label
 _atom_site_symmetry_multiplicity
 _atom_site_fract_x
 _atom_site_fract_y
 _atom_site_fract_z
 _atom_site_occupancy
  Li  Li0  1  0.929527  0.526593  0.265668  1
  Li  Li1  1  0.429527  0.473407  0.234332  1
  Li  Li2  1  0.070473  0.473407  0.734332  1
  Li  Li3  1  0.570473  0.526593  0.765668  1
  Pa  Pa4  1  0.019597  0.999916  0.320499  1
  Pa  Pa5  1  0.519597  0.000084  0.179501  1
  Pa  Pa6  1  0.980403  0.000084  0.679501  1
  Pa  Pa7  1  0.480403  0.999916  0.820499  1
  Pa  Pa8  1  0.085240  0.746121  0.007736  1
  Pa  Pa9  1  0.585240  0.253879  0.492264  1
  Pa  Pa10  1  0.914760  0.253879  0.992264  1
  Pa  Pa11  1  0.414760  0.746121  0.507736  1
  Se  Se12  1  0.661106  0.949675  0.403267  1
  Se  Se13  1  0.161106  0.050325  0.096733  1
  Se  Se14  1  0.338894  0.050325  0.596733  1
  Se  Se15  1  0.838894  0.949675  0.903267  1
  Se  Se16  1  0.460446  0.780078  0.997722  1
  Se  Se17  1  0.960446  0.219922  0.502278  1
  Se  Se18  1  0.539554  0.219922  0.002278  1
  Se  Se19  1  0.039554  0.780078  0.497722  1
  Se  Se20  1  0.828387  0.784202  0.176633  1
  Se  Se21  1  0.328387  0.215798  0.323367  1
  Se  Se22  1  0.171613  0.215798  0.823367  1
  Se  Se23  1  0.671613  0.784202  0.676633  1
  Se  Se24  1  0.298442  0.771748  0.277662  1
  Se  Se25  1  0.798442  0.228252  0.222338  1
  Se  Se26  1  0.701558  0.228252  0.722338  1
  Se  Se27  1  0.201558  0.771748  0.777662  1
  Se  Se28  1  0.154691  0.459992  0.100489  1
  Se  Se29  1  0.654691  0.540008  0.399511  1
  Se  Se30  1  0.845309  0.540008  0.899511  1
  Se  Se31  1  0.345309  0.459992  0.600489  1
