# generated using pymatgen
data_DyMnH5
_symmetry_space_group_name_H-M   'P 1'
_cell_length_a   4.22932700
_cell_length_b   4.56547600
_cell_length_c   11.19839400
_cell_angle_alpha   90.00000000
_cell_angle_beta   90.00000000
_cell_angle_gamma   90.00000000
_symmetry_Int_Tables_number   1
_chemical_formula_structural   DyMnH5
_chemical_formula_sum   'Dy4 Mn4 H20'
_cell_volume   216.22856817
_cell_formula_units_Z   4
loop_
 _symmetry_equiv_pos_site_id
 _symmetry_equiv_pos_as_xyz
  1  'x, y, z'
loop_
 _atom_site_type_symbol
 _atom_site_label
 _atom_site_symmetry_multiplicity
 _atom_site_fract_x
 _atom_site_fract_y
 _atom_site_fract_z
 _atom_site_occupancy
  Dy  Dy0  1  0.268476  0.246732  0.645478  1
  Dy  Dy1  1  0.768476  0.253268  0.354522  1
  Dy  Dy2  1  0.231524  0.753268  0.145478  1
  Dy  Dy3  1  0.731524  0.746732  0.854522  1
  Mn  Mn4  1  0.286345  0.243118  0.919592  1
  Mn  Mn5  1  0.786345  0.256882  0.080408  1
  Mn  Mn6  1  0.213655  0.756882  0.419592  1
  Mn  Mn7  1  0.713655  0.743118  0.580408  1
  H  H8  1  0.485636  0.518845  0.496907  1
  H  H9  1  0.985636  0.981155  0.503093  1
  H  H10  1  0.014364  0.481155  0.996907  1
  H  H11  1  0.514364  0.018845  0.003093  1
  H  H12  1  0.199715  0.985549  0.824160  1
  H  H13  1  0.699715  0.514451  0.175840  1
  H  H14  1  0.300285  0.014451  0.324160  1
  H  H15  1  0.800285  0.485549  0.675840  1
  H  H16  1  0.172750  0.481787  0.820221  1
  H  H17  1  0.672750  0.018213  0.179779  1
  H  H18  1  0.327250  0.518213  0.320221  1
  H  H19  1  0.827250  0.981787  0.679779  1
  H  H20  1  0.581162  0.249688  0.827230  1
  H  H21  1  0.081162  0.250312  0.172770  1
  H  H22  1  0.918838  0.750312  0.327230  1
  H  H23  1  0.418838  0.749688  0.672770  1
  H  H24  1  0.008703  0.023543  0.996590  1
  H  H25  1  0.508703  0.476457  0.003410  1
  H  H26  1  0.491297  0.976457  0.496590  1
  H  H27  1  0.991297  0.523543  0.503410  1
