# generated using pymatgen
data_Tb5Tm6Lu5(Ga3Co)2
_symmetry_space_group_name_H-M   'P 1'
_cell_length_a   9.87022335
_cell_length_b   9.87022223
_cell_length_c   6.95338231
_cell_angle_alpha   89.97007753
_cell_angle_beta   90.02992140
_cell_angle_gamma   120.00517319
_symmetry_Int_Tables_number   1
_chemical_formula_structural   Tb5Tm6Lu5(Ga3Co)2
_chemical_formula_sum   'Tb5 Tm6 Lu5 Ga6 Co2'
_cell_volume   586.62143938
_cell_formula_units_Z   1
loop_
 _symmetry_equiv_pos_site_id
 _symmetry_equiv_pos_as_xyz
  1  'x, y, z'
loop_
 _atom_site_type_symbol
 _atom_site_label
 _atom_site_symmetry_multiplicity
 _atom_site_fract_x
 _atom_site_fract_y
 _atom_site_fract_z
 _atom_site_occupancy
  Tb  Tb0  1  0.465101  0.929323  0.291924  1
  Tb  Tb1  1  0.070677  0.534899  0.291924  1
  Tb  Tb2  1  0.464571  0.535429  0.291431  1
  Tb  Tb3  1  0.999940  0.000060  0.768133  1
  Tb  Tb4  1  0.999747  0.000253  0.269611  1
  Tm  Tm5  1  0.173687  0.826313  0.985431  1
  Tm  Tm6  1  0.666668  0.333332  0.173274  1
  Tm  Tm7  1  0.333611  0.666389  0.673771  1
  Tm  Tm8  1  0.537765  0.074750  0.792161  1
  Tm  Tm9  1  0.925250  0.462235  0.792161  1
  Tm  Tm10  1  0.537094  0.462906  0.792420  1
  Lu  Lu11  1  0.825675  0.651396  0.489665  1
  Lu  Lu12  1  0.348604  0.174325  0.489665  1
  Lu  Lu13  1  0.825742  0.174258  0.489654  1
  Lu  Lu14  1  0.174039  0.348093  0.985392  1
  Lu  Lu15  1  0.651907  0.825961  0.985392  1
  Ga  Ga16  1  0.835079  0.671865  0.042144  1
  Ga  Ga17  1  0.328135  0.164921  0.042144  1
  Ga  Ga18  1  0.836217  0.163783  0.042003  1
  Ga  Ga19  1  0.163042  0.326095  0.543845  1
  Ga  Ga20  1  0.673905  0.836958  0.543845  1
  Ga  Ga21  1  0.163096  0.836904  0.542816  1
  Co  Co22  1  0.666657  0.333343  0.554704  1
  Co  Co23  1  0.333791  0.666209  0.052564  1
