# generated using pymatgen
data_SmHo2Tm(Si3Rh)2
_symmetry_space_group_name_H-M   'P 1'
_cell_length_a   8.17293023
_cell_length_b   8.16956453
_cell_length_c   7.91769100
_cell_angle_alpha   90.00000000
_cell_angle_beta   90.00000000
_cell_angle_gamma   119.98638467
_symmetry_Int_Tables_number   1
_chemical_formula_structural   SmHo2Tm(Si3Rh)2
_chemical_formula_sum   'Sm2 Ho4 Tm2 Si12 Rh4'
_cell_volume   457.89452134
_cell_formula_units_Z   2
loop_
 _symmetry_equiv_pos_site_id
 _symmetry_equiv_pos_as_xyz
  1  'x, y, z'
loop_
 _atom_site_type_symbol
 _atom_site_label
 _atom_site_symmetry_multiplicity
 _atom_site_fract_x
 _atom_site_fract_y
 _atom_site_fract_z
 _atom_site_occupancy
  Sm  Sm0  1  0.000142  0.000071  0.250000  1
  Sm  Sm1  1  0.999899  0.999950  0.750000  1
  Ho  Ho2  1  0.981828  0.490914  0.250000  1
  Ho  Ho3  1  0.491270  0.508784  0.750000  1
  Ho  Ho4  1  0.491270  0.982485  0.750000  1
  Ho  Ho5  1  0.017568  0.508783  0.750000  1
  Tm  Tm6  1  0.508584  0.491190  0.250000  1
  Tm  Tm7  1  0.508584  0.017396  0.250000  1
  Si  Si8  1  0.168104  0.832195  0.500240  1
  Si  Si9  1  0.168104  0.335906  0.500240  1
  Si  Si10  1  0.664167  0.832083  0.500092  1
  Si  Si11  1  0.831944  0.167609  0.498684  1
  Si  Si12  1  0.831944  0.664337  0.498684  1
  Si  Si13  1  0.335857  0.167929  0.498095  1
  Si  Si14  1  0.831944  0.167609  0.001316  1
  Si  Si15  1  0.831944  0.664337  0.001316  1
  Si  Si16  1  0.335857  0.167929  0.001905  1
  Si  Si17  1  0.168104  0.832195  0.999760  1
  Si  Si18  1  0.168104  0.335906  0.999760  1
  Si  Si19  1  0.664167  0.832083  0.999908  1
  Rh  Rh20  1  0.333933  0.666967  0.463352  1
  Rh  Rh21  1  0.666375  0.333187  0.533075  1
  Rh  Rh22  1  0.666375  0.333187  0.966925  1
  Rh  Rh23  1  0.333933  0.666967  0.036648  1
