# generated using pymatgen
data_Nd5Zn2Rh3
_symmetry_space_group_name_H-M   'P 1'
_cell_length_a   8.54811057
_cell_length_b   8.54811048
_cell_length_c   8.54811000
_cell_angle_alpha   109.47121950
_cell_angle_beta   109.47121929
_cell_angle_gamma   109.47122220
_symmetry_Int_Tables_number   1
_chemical_formula_structural   Nd5Zn2Rh3
_chemical_formula_sum   'Nd10 Zn4 Rh6'
_cell_volume   480.82658725
_cell_formula_units_Z   2
loop_
 _symmetry_equiv_pos_site_id
 _symmetry_equiv_pos_as_xyz
  1  'x, y, z'
loop_
 _atom_site_type_symbol
 _atom_site_label
 _atom_site_symmetry_multiplicity
 _atom_site_fract_x
 _atom_site_fract_y
 _atom_site_fract_z
 _atom_site_occupancy
  Nd  Nd0  1  0.250000  0.685659  0.435659  1
  Nd  Nd1  1  0.750000  0.814341  0.064341  1
  Nd  Nd2  1  0.435659  0.250000  0.685659  1
  Nd  Nd3  1  0.685659  0.435659  0.250000  1
  Nd  Nd4  1  0.064341  0.750000  0.814341  1
  Nd  Nd5  1  0.814341  0.064341  0.750000  1
  Nd  Nd6  1  0.223507  0.223507  0.223507  1
  Nd  Nd7  1  0.500000  0.000000  0.276493  1
  Nd  Nd8  1  0.276493  0.500000  0.000000  1
  Nd  Nd9  1  0.000000  0.276493  0.500000  1
  Zn  Zn10  1  0.592004  0.592004  0.592004  1
  Zn  Zn11  1  0.500000  0.000000  0.907996  1
  Zn  Zn12  1  0.907996  0.500000  0.000000  1
  Zn  Zn13  1  0.000000  0.907996  0.500000  1
  Rh  Rh14  1  0.250000  0.130565  0.880565  1
  Rh  Rh15  1  0.750000  0.369435  0.619435  1
  Rh  Rh16  1  0.880564  0.250000  0.130565  1
  Rh  Rh17  1  0.130565  0.880564  0.250000  1
  Rh  Rh18  1  0.619435  0.750000  0.369435  1
  Rh  Rh19  1  0.369435  0.619435  0.750000  1
