# generated using pymatgen
data_ScNb6InSe12
_symmetry_space_group_name_H-M   'P 1'
_cell_length_a   6.07529000
_cell_length_b   6.07528959
_cell_length_c   14.85371000
_cell_angle_alpha   90.00000000
_cell_angle_beta   90.00000000
_cell_angle_gamma   120.00000224
_symmetry_Int_Tables_number   1
_chemical_formula_structural   ScNb6InSe12
_chemical_formula_sum   'Sc1 Nb6 In1 Se12'
_cell_volume   474.78781005
_cell_formula_units_Z   1
loop_
 _symmetry_equiv_pos_site_id
 _symmetry_equiv_pos_as_xyz
  1  'x, y, z'
loop_
 _atom_site_type_symbol
 _atom_site_label
 _atom_site_symmetry_multiplicity
 _atom_site_fract_x
 _atom_site_fract_y
 _atom_site_fract_z
 _atom_site_occupancy
  Sc  Sc0  1  0.666667  0.333333  0.750000  1
  Nb  Nb1  1  0.333333  0.666667  0.979823  1
  Nb  Nb2  1  0.000000  0.000000  0.980589  1
  Nb  Nb3  1  0.000000  0.000000  0.519411  1
  Nb  Nb4  1  0.333333  0.666667  0.520177  1
  Nb  Nb5  1  0.666667  0.333333  0.979294  1
  Nb  Nb6  1  0.666667  0.333333  0.520706  1
  In  In7  1  0.333333  0.666667  0.250000  1
  Se  Se8  1  0.333901  0.000671  0.091844  1
  Se  Se9  1  0.666984  0.994863  0.633286  1
  Se  Se10  1  0.999329  0.333229  0.091844  1
  Se  Se11  1  0.666771  0.000671  0.408156  1
  Se  Se12  1  0.333901  0.333229  0.408156  1
  Se  Se13  1  0.999329  0.666099  0.408156  1
  Se  Se14  1  0.666771  0.666099  0.091844  1
  Se  Se15  1  0.327879  0.333016  0.633286  1
  Se  Se16  1  0.005137  0.672121  0.633286  1
  Se  Se17  1  0.327879  0.994863  0.866714  1
  Se  Se18  1  0.666984  0.672121  0.866714  1
  Se  Se19  1  0.005137  0.333016  0.866714  1
