# generated using pymatgen
data_Nd11In9(CoNi)2
_symmetry_space_group_name_H-M   'P 1'
_cell_length_a   13.35823715
_cell_length_b   13.28701794
_cell_length_c   3.76057600
_cell_angle_alpha   90.00000000
_cell_angle_beta   90.00000000
_cell_angle_gamma   111.06798269
_symmetry_Int_Tables_number   1
_chemical_formula_structural   Nd11In9(CoNi)2
_chemical_formula_sum   'Nd11 In9 Co2 Ni2'
_cell_volume   622.85165452
_cell_formula_units_Z   1
loop_
 _symmetry_equiv_pos_site_id
 _symmetry_equiv_pos_as_xyz
  1  'x, y, z'
loop_
 _atom_site_type_symbol
 _atom_site_label
 _atom_site_symmetry_multiplicity
 _atom_site_fract_x
 _atom_site_fract_y
 _atom_site_fract_z
 _atom_site_occupancy
  Nd  Nd0  1  0.080729  0.419812  0.000000  1
  Nd  Nd1  1  0.919271  0.580188  0.000000  1
  Nd  Nd2  1  0.419360  0.078419  0.000000  1
  Nd  Nd3  1  0.580640  0.921581  0.000000  1
  Nd  Nd4  1  0.629274  0.377448  0.000000  1
  Nd  Nd5  1  0.370726  0.622552  0.000000  1
  Nd  Nd6  1  0.841161  0.160078  0.000000  1
  Nd  Nd7  1  0.158839  0.839922  0.000000  1
  Nd  Nd8  1  0.000000  0.000000  0.000000  1
  Nd  Nd9  1  0.310816  0.314801  0.000000  1
  Nd  Nd10  1  0.689184  0.685199  0.000000  1
  In  In11  1  0.834934  0.366437  0.500000  1
  In  In12  1  0.165066  0.633563  0.500000  1
  In  In13  1  0.367680  0.838292  0.500000  1
  In  In14  1  0.632320  0.161708  0.500000  1
  In  In15  1  0.080786  0.221559  0.500000  1
  In  In16  1  0.919214  0.778441  0.500000  1
  In  In17  1  0.220361  0.078706  0.500000  1
  In  In18  1  0.779639  0.921294  0.500000  1
  In  In19  1  0.500000  0.500000  0.500000  1
  Co  Co20  1  0.243087  0.449276  0.500000  1
  Co  Co21  1  0.756913  0.550724  0.500000  1
  Ni  Ni22  1  0.450245  0.245768  0.500000  1
  Ni  Ni23  1  0.549755  0.754232  0.500000  1
