# generated using pymatgen
data_Ho5Er5(InBi)3
_symmetry_space_group_name_H-M   'P 1'
_cell_length_a   9.00877605
_cell_length_b   9.01049649
_cell_length_c   6.52458000
_cell_angle_alpha   90.00000000
_cell_angle_beta   90.00000000
_cell_angle_gamma   120.00631369
_symmetry_Int_Tables_number   1
_chemical_formula_structural   Ho5Er5(InBi)3
_chemical_formula_sum   'Ho5 Er5 In3 Bi3'
_cell_volume   458.63803846
_cell_formula_units_Z   1
loop_
 _symmetry_equiv_pos_site_id
 _symmetry_equiv_pos_as_xyz
  1  'x, y, z'
loop_
 _atom_site_type_symbol
 _atom_site_label
 _atom_site_symmetry_multiplicity
 _atom_site_fract_x
 _atom_site_fract_y
 _atom_site_fract_z
 _atom_site_occupancy
  Ho  Ho0  1  0.763704  0.763677  0.750000  1
  Ho  Ho1  1  0.236296  0.999973  0.750000  1
  Ho  Ho2  1  0.000000  0.236355  0.750000  1
  Ho  Ho3  1  0.238064  0.238039  0.250000  1
  Ho  Ho4  1  0.761936  0.999975  0.250000  1
  Er  Er5  1  0.666693  0.333364  0.007297  1
  Er  Er6  1  0.333307  0.666671  0.007297  1
  Er  Er7  1  0.333307  0.666671  0.492703  1
  Er  Er8  1  0.666693  0.333364  0.492703  1
  Er  Er9  1  0.000000  0.761898  0.250000  1
  In  In10  1  0.606615  0.606554  0.250000  1
  In  In11  1  0.393385  0.999939  0.250000  1
  In  In12  1  0.000000  0.393524  0.250000  1
  Bi  Bi13  1  0.396053  0.396051  0.750000  1
  Bi  Bi14  1  0.603947  0.999998  0.750000  1
  Bi  Bi15  1  0.000000  0.603948  0.750000  1
