# generated using pymatgen
data_Yb3Al12Ir3Os
_symmetry_space_group_name_H-M   'P 1'
_cell_length_a   8.82373400
_cell_length_b   8.82373417
_cell_length_c   9.59153600
_cell_angle_alpha   90.00000000
_cell_angle_beta   90.00000000
_cell_angle_gamma   119.99999935
_symmetry_Int_Tables_number   1
_chemical_formula_structural   Yb3Al12Ir3Os
_chemical_formula_sum   'Yb6 Al24 Ir6 Os2'
_cell_volume   646.73091122
_cell_formula_units_Z   2
loop_
 _symmetry_equiv_pos_site_id
 _symmetry_equiv_pos_as_xyz
  1  'x, y, z'
loop_
 _atom_site_type_symbol
 _atom_site_label
 _atom_site_symmetry_multiplicity
 _atom_site_fract_x
 _atom_site_fract_y
 _atom_site_fract_z
 _atom_site_occupancy
  Yb  Yb0  1  0.192701  0.385403  0.250000  1
  Yb  Yb1  1  0.807299  0.614597  0.750000  1
  Yb  Yb2  1  0.614597  0.807299  0.250000  1
  Yb  Yb3  1  0.385403  0.192701  0.750000  1
  Yb  Yb4  1  0.192701  0.807299  0.250000  1
  Yb  Yb5  1  0.807299  0.192701  0.750000  1
  Al  Al6  1  0.333333  0.666667  0.007118  1
  Al  Al7  1  0.666667  0.333333  0.992882  1
  Al  Al8  1  0.666667  0.333333  0.507118  1
  Al  Al9  1  0.333333  0.666667  0.492882  1
  Al  Al10  1  0.161769  0.323537  0.579172  1
  Al  Al11  1  0.838231  0.676463  0.420828  1
  Al  Al12  1  0.676463  0.838231  0.579172  1
  Al  Al13  1  0.838231  0.676463  0.079172  1
  Al  Al14  1  0.323537  0.161769  0.420828  1
  Al  Al15  1  0.161769  0.323537  0.920828  1
  Al  Al16  1  0.161769  0.838231  0.579172  1
  Al  Al17  1  0.323537  0.161769  0.079172  1
  Al  Al18  1  0.838231  0.161769  0.420828  1
  Al  Al19  1  0.676463  0.838231  0.920828  1
  Al  Al20  1  0.838231  0.161769  0.079172  1
  Al  Al21  1  0.161769  0.838231  0.920828  1
  Al  Al22  1  0.562801  0.125601  0.250000  1
  Al  Al23  1  0.437199  0.874399  0.750000  1
  Al  Al24  1  0.874399  0.437199  0.250000  1
  Al  Al25  1  0.125601  0.562801  0.750000  1
  Al  Al26  1  0.562801  0.437199  0.250000  1
  Al  Al27  1  0.437199  0.562801  0.750000  1
  Al  Al28  1  0.000000  0.000000  0.250000  1
  Al  Al29  1  0.000000  0.000000  0.750000  1
  Ir  Ir30  1  0.500000  0.000000  0.000000  1
  Ir  Ir31  1  0.000000  0.500000  0.000000  1
  Ir  Ir32  1  0.500000  0.000000  0.500000  1
  Ir  Ir33  1  0.500000  0.500000  0.000000  1
  Ir  Ir34  1  0.000000  0.500000  0.500000  1
  Ir  Ir35  1  0.500000  0.500000  0.500000  1
  Os  Os36  1  0.000000  0.000000  0.000000  1
  Os  Os37  1  0.000000  0.000000  0.500000  1
