# generated using pymatgen
data_Zn2CoH
_symmetry_space_group_name_H-M   'P 1'
_cell_length_a   2.58441753
_cell_length_b   4.31706381
_cell_length_c   4.33559084
_cell_angle_alpha   101.36365649
_cell_angle_beta   90.06843477
_cell_angle_gamma   90.06886645
_symmetry_Int_Tables_number   1
_chemical_formula_structural   Zn2CoH
_chemical_formula_sum   'Zn2 Co1 H1'
_cell_volume   47.42423640
_cell_formula_units_Z   1
loop_
 _symmetry_equiv_pos_site_id
 _symmetry_equiv_pos_as_xyz
  1  'x, y, z'
loop_
 _atom_site_type_symbol
 _atom_site_label
 _atom_site_symmetry_multiplicity
 _atom_site_fract_x
 _atom_site_fract_y
 _atom_site_fract_z
 _atom_site_occupancy
  Zn  Zn0  1  0.942412  0.207938  0.414201  1
  Zn  Zn1  1  0.944893  0.786972  0.833666  1
  Co  Co2  1  0.442854  0.703379  0.329648  1
  H  H3  1  0.940865  0.512953  0.140591  1
