# generated using pymatgen
data_Na5Nd(MoO4)4
_symmetry_space_group_name_H-M   'P 1'
_cell_length_a   10.05847847
_cell_length_b   10.05847840
_cell_length_c   10.05847800
_cell_angle_alpha   109.54104794
_cell_angle_beta   109.43631994
_cell_angle_gamma   109.43631937
_symmetry_Int_Tables_number   1
_chemical_formula_structural   Na5Nd(MoO4)4
_chemical_formula_sum   'Na10 Nd2 Mo8 O32'
_cell_volume   783.38357044
_cell_formula_units_Z   2
loop_
 _symmetry_equiv_pos_site_id
 _symmetry_equiv_pos_as_xyz
  1  'x, y, z'
loop_
 _atom_site_type_symbol
 _atom_site_label
 _atom_site_symmetry_multiplicity
 _atom_site_fract_x
 _atom_site_fract_y
 _atom_site_fract_z
 _atom_site_occupancy
  Na  Na0  1  0.667270  0.702601  0.279176  1
  Na  Na1  1  0.332730  0.297399  0.720824  1
  Na  Na2  1  0.250000  0.375000  0.125000  1
  Na  Na3  1  0.423425  0.220824  0.388094  1
  Na  Na4  1  0.576575  0.779176  0.611906  1
  Na  Na5  1  0.832730  0.111906  0.035331  1
  Na  Na6  1  0.923425  0.535331  0.202601  1
  Na  Na7  1  0.167270  0.888094  0.964669  1
  Na  Na8  1  0.076575  0.464669  0.797399  1
  Na  Na9  1  0.750000  0.625000  0.875000  1
  Nd  Nd10  1  0.750000  0.125000  0.375000  1
  Nd  Nd11  1  0.250000  0.875000  0.625000  1
  Mo  Mo12  1  0.024964  0.954645  0.289597  1
  Mo  Mo13  1  0.834952  0.570319  0.545355  1
  Mo  Mo14  1  0.975036  0.045355  0.710403  1
  Mo  Mo15  1  0.665048  0.210403  0.735366  1
  Mo  Mo16  1  0.524964  0.235366  0.070319  1
  Mo  Mo17  1  0.475036  0.764634  0.929681  1
  Mo  Mo18  1  0.334952  0.789597  0.264634  1
  Mo  Mo19  1  0.165048  0.429681  0.454645  1
  O  O20  1  0.143675  0.984001  0.194412  1
  O  O21  1  0.423889  0.156425  0.852461  1
  O  O22  1  0.131415  0.255962  0.828707  1
  O  O23  1  0.652755  0.149122  0.130146  1
  O  O24  1  0.072745  0.375454  0.244038  1
  O  O25  1  0.868585  0.744038  0.171293  1
  O  O26  1  0.018975  0.369854  0.522608  1
  O  O27  1  0.856325  0.015999  0.805588  1
  O  O28  1  0.576111  0.843575  0.147539  1
  O  O29  1  0.847245  0.977392  0.496367  1
  O  O30  1  0.481025  0.003633  0.350878  1
  O  O31  1  0.518975  0.996367  0.649122  1
  O  O32  1  0.347245  0.850878  0.869854  1
  O  O33  1  0.152755  0.022608  0.503633  1
  O  O34  1  0.303964  0.647539  0.571428  1
  O  O35  1  0.572745  0.328707  0.697291  1
  O  O36  1  0.289589  0.340326  0.484001  1
  O  O37  1  0.196036  0.767464  0.343575  1
  O  O38  1  0.803964  0.232536  0.656425  1
  O  O39  1  0.923889  0.071428  0.267464  1
  O  O40  1  0.427255  0.671293  0.302709  1
  O  O41  1  0.210411  0.694412  0.050737  1
  O  O42  1  0.927255  0.624546  0.755962  1
  O  O43  1  0.696036  0.352461  0.428572  1
  O  O44  1  0.631415  0.802709  0.875454  1
  O  O45  1  0.789589  0.305588  0.949263  1
  O  O46  1  0.981025  0.630146  0.477392  1
  O  O47  1  0.643675  0.449263  0.159674  1
  O  O48  1  0.356325  0.550737  0.840326  1
  O  O49  1  0.710411  0.659674  0.515999  1
  O  O50  1  0.368585  0.197291  0.124546  1
  O  O51  1  0.076111  0.928572  0.732536  1
