# generated using pymatgen
data_LiLaTb5CoI12
_symmetry_space_group_name_H-M   'P 1'
_cell_length_a   9.87914188
_cell_length_b   9.87815870
_cell_length_c   9.77748200
_cell_angle_alpha   107.33224208
_cell_angle_beta   106.62218806
_cell_angle_gamma   106.76639889
_symmetry_Int_Tables_number   1
_chemical_formula_structural   LiLaTb5CoI12
_chemical_formula_sum   'Li1 La1 Tb5 Co1 I12'
_cell_volume   796.61752787
_cell_formula_units_Z   1
loop_
 _symmetry_equiv_pos_site_id
 _symmetry_equiv_pos_as_xyz
  1  'x, y, z'
loop_
 _atom_site_type_symbol
 _atom_site_label
 _atom_site_symmetry_multiplicity
 _atom_site_fract_x
 _atom_site_fract_y
 _atom_site_fract_z
 _atom_site_occupancy
  Li  Li0  1  0.500687  0.499883  0.499013  1
  La  La1  1  0.025142  0.091615  0.275381  1
  Tb  Tb2  1  0.104449  0.310176  0.030473  1
  Tb  Tb3  1  0.308035  0.030149  0.102203  1
  Tb  Tb4  1  0.974371  0.909612  0.732128  1
  Tb  Tb5  1  0.895158  0.689729  0.971435  1
  Tb  Tb6  1  0.690192  0.968836  0.894526  1
  Co  Co7  1  0.999520  0.003849  0.011978  1
  I  I8  1  0.163289  0.465128  0.377578  1
  I  I9  1  0.453364  0.376471  0.152547  1
  I  I10  1  0.388192  0.157763  0.453793  1
  I  I11  1  0.848034  0.552216  0.625369  1
  I  I12  1  0.545123  0.622700  0.842956  1
  I  I13  1  0.629518  0.846280  0.548379  1
  I  I14  1  0.670520  0.069864  0.215720  1
  I  I15  1  0.071317  0.216452  0.685885  1
  I  I16  1  0.221113  0.680310  0.069129  1
  I  I17  1  0.311068  0.925557  0.773359  1
  I  I18  1  0.923129  0.765365  0.311450  1
  I  I19  1  0.777779  0.318043  0.926698  1
