# generated using pymatgen
data_Ca(NdPd6)2
_symmetry_space_group_name_H-M   'P 1'
_cell_length_a   5.34248562
_cell_length_b   5.34248454
_cell_length_c   11.47387897
_cell_angle_alpha   94.82409920
_cell_angle_beta   94.82409952
_cell_angle_gamma   120.10266055
_symmetry_Int_Tables_number   1
_chemical_formula_structural   Ca(NdPd6)2
_chemical_formula_sum   'Ca1 Nd2 Pd12'
_cell_volume   279.27121714
_cell_formula_units_Z   1
loop_
 _symmetry_equiv_pos_site_id
 _symmetry_equiv_pos_as_xyz
  1  'x, y, z'
loop_
 _atom_site_type_symbol
 _atom_site_label
 _atom_site_symmetry_multiplicity
 _atom_site_fract_x
 _atom_site_fract_y
 _atom_site_fract_z
 _atom_site_occupancy
  Ca  Ca0  1  0.000000  0.000000  0.000000  1
  Nd  Nd1  1  0.133542  0.133542  0.354282  1
  Nd  Nd2  1  0.866458  0.866458  0.645717  1
  Pd  Pd3  1  0.669604  0.330395  0.000000  1
  Pd  Pd4  1  0.330395  0.669604  0.000000  1
  Pd  Pd5  1  0.577316  0.072546  0.203306  1
  Pd  Pd6  1  0.072546  0.577316  0.203306  1
  Pd  Pd7  1  0.567588  0.567588  0.200841  1
  Pd  Pd8  1  0.811135  0.485306  0.409505  1
  Pd  Pd9  1  0.485306  0.811135  0.409505  1
  Pd  Pd10  1  0.514694  0.188865  0.590495  1
  Pd  Pd11  1  0.188865  0.514694  0.590495  1
  Pd  Pd12  1  0.432412  0.432412  0.799159  1
  Pd  Pd13  1  0.927454  0.422684  0.796694  1
  Pd  Pd14  1  0.422684  0.927454  0.796694  1
