# generated using pymatgen
data_Ca9La3Ga12(SnO6)8
_symmetry_space_group_name_H-M   'P 1'
_cell_length_a   11.09464730
_cell_length_b   11.11133311
_cell_length_c   11.11133325
_cell_angle_alpha   109.22212290
_cell_angle_beta   109.62659302
_cell_angle_gamma   109.62658658
_symmetry_Int_Tables_number   1
_chemical_formula_structural   Ca9La3Ga12(SnO6)8
_chemical_formula_sum   'Ca9 La3 Ga12 Sn8 O48'
_cell_volume   1053.62902798
_cell_formula_units_Z   1
loop_
 _symmetry_equiv_pos_site_id
 _symmetry_equiv_pos_as_xyz
  1  'x, y, z'
loop_
 _atom_site_type_symbol
 _atom_site_label
 _atom_site_symmetry_multiplicity
 _atom_site_fract_x
 _atom_site_fract_y
 _atom_site_fract_z
 _atom_site_occupancy
  Ca  Ca0  1  0.126525  0.250379  0.376994  1
  Ca  Ca1  1  0.373475  0.750469  0.123855  1
  Ca  Ca2  1  0.250000  0.875000  0.625000  1
  Ca  Ca3  1  0.876718  0.751342  0.623440  1
  Ca  Ca4  1  0.623282  0.246722  0.874624  1
  Ca  Ca5  1  0.373475  0.123006  0.249621  1
  Ca  Ca6  1  0.623282  0.876560  0.748658  1
  Ca  Ca7  1  0.126525  0.376145  0.749531  1
  Ca  Ca8  1  0.876718  0.625376  0.253278  1
  La  La9  1  0.250000  0.375000  0.125000  1
  La  La10  1  0.750000  0.625000  0.875000  1
  La  La11  1  0.750000  0.125000  0.375000  1
  Ga  Ga12  1  0.250000  0.628654  0.378654  1
  Ga  Ga13  1  0.750000  0.374612  0.624612  1
  Ga  Ga14  1  0.750000  0.875388  0.125388  1
  Ga  Ga15  1  0.374180  0.248762  0.623908  1
  Ga  Ga16  1  0.625373  0.750528  0.375773  1
  Ga  Ga17  1  0.250000  0.121346  0.871346  1
  Ga  Ga18  1  0.125820  0.749728  0.874583  1
  Ga  Ga19  1  0.874627  0.250400  0.125156  1
  Ga  Ga20  1  0.625373  0.374844  0.249600  1
  Ga  Ga21  1  0.374180  0.625417  0.750272  1
  Ga  Ga22  1  0.874627  0.124227  0.749472  1
  Ga  Ga23  1  0.125820  0.876092  0.251238  1
  Sn  Sn24  1  0.000345  0.000061  0.999836  1
  Sn  Sn25  1  0.496941  0.998427  0.500692  1
  Sn  Sn26  1  0.003059  0.503751  0.501486  1
  Sn  Sn27  1  0.496941  0.998514  0.996249  1
  Sn  Sn28  1  0.499655  0.499491  0.999716  1
  Sn  Sn29  1  0.499655  0.500164  0.499939  1
  Sn  Sn30  1  0.003059  0.999308  0.501573  1
  Sn  Sn31  1  0.000345  0.500284  0.000509  1
  O  O32  1  0.476227  0.376992  0.294981  1
  O  O33  1  0.523585  0.622499  0.705130  1
  O  O34  1  0.581539  0.180638  0.203796  1
  O  O35  1  0.918461  0.122257  0.599099  1
  O  O36  1  0.295494  0.479801  0.379807  1
  O  O37  1  0.318712  0.918324  0.295942  1
  O  O38  1  0.417956  0.817919  0.794992  1
  O  O39  1  0.082044  0.877036  0.399963  1
  O  O40  1  0.704241  0.521067  0.620271  1
  O  O41  1  0.681624  0.082226  0.703216  1
  O  O42  1  0.023773  0.318753  0.900765  1
  O  O43  1  0.204506  0.584314  0.184308  1
  O  O44  1  0.121541  0.022087  0.202830  1
  O  O45  1  0.976415  0.681546  0.098914  1
  O  O46  1  0.795759  0.416031  0.816827  1
  O  O47  1  0.878242  0.978014  0.796938  1
  O  O48  1  0.598857  0.916844  0.120210  1
  O  O49  1  0.181288  0.477230  0.599612  1
  O  O50  1  0.401510  0.082478  0.876403  1
  O  O51  1  0.818376  0.521592  0.400602  1
  O  O52  1  0.901143  0.021353  0.317987  1
  O  O53  1  0.378459  0.581289  0.900546  1
  O  O54  1  0.098490  0.974893  0.680968  1
  O  O55  1  0.621758  0.418696  0.099772  1
  O  O56  1  0.378459  0.297170  0.477913  1
  O  O57  1  0.581539  0.900901  0.377743  1
  O  O58  1  0.621758  0.703062  0.521986  1
  O  O59  1  0.417956  0.100037  0.622964  1
  O  O60  1  0.121541  0.599454  0.918711  1
  O  O61  1  0.023773  0.205019  0.123008  1
  O  O62  1  0.878242  0.400228  0.081304  1
  O  O63  1  0.976415  0.794870  0.877501  1
  O  O64  1  0.318712  0.900388  0.022770  1
  O  O65  1  0.918461  0.296204  0.319362  1
  O  O66  1  0.681624  0.099398  0.978408  1
  O  O67  1  0.082044  0.705008  0.682081  1
  O  O68  1  0.181288  0.204058  0.581676  1
  O  O69  1  0.476227  0.599235  0.181247  1
  O  O70  1  0.818376  0.796784  0.417774  1
  O  O71  1  0.523585  0.401086  0.818454  1
  O  O72  1  0.295494  0.315692  0.915686  1
  O  O73  1  0.704241  0.683173  0.083969  1
  O  O74  1  0.204506  0.120193  0.020199  1
  O  O75  1  0.795759  0.879729  0.978933  1
  O  O76  1  0.901143  0.379790  0.583156  1
  O  O77  1  0.098490  0.623597  0.417522  1
  O  O78  1  0.598857  0.182013  0.478647  1
  O  O79  1  0.401510  0.819032  0.525107  1
