# generated using pymatgen
data_LiLa8Pr8Cd(AgIr2)2
_symmetry_space_group_name_H-M   'P 1'
_cell_length_a   10.09239503
_cell_length_b   10.09239426
_cell_length_c   10.14090400
_cell_angle_alpha   59.66964150
_cell_angle_beta   59.66964405
_cell_angle_gamma   60.30435232
_symmetry_Int_Tables_number   1
_chemical_formula_structural   LiLa8Pr8Cd(AgIr2)2
_chemical_formula_sum   'Li1 La8 Pr8 Cd1 Ag2 Ir4'
_cell_volume   728.35350336
_cell_formula_units_Z   1
loop_
 _symmetry_equiv_pos_site_id
 _symmetry_equiv_pos_as_xyz
  1  'x, y, z'
loop_
 _atom_site_type_symbol
 _atom_site_label
 _atom_site_symmetry_multiplicity
 _atom_site_fract_x
 _atom_site_fract_y
 _atom_site_fract_z
 _atom_site_occupancy
  Li  Li0  1  0.571090  0.570274  0.568135  1
  La  La1  1  0.347484  0.347411  0.349286  1
  La  La2  1  0.346397  0.346175  0.959260  1
  La  La3  1  0.348434  0.960312  0.345805  1
  La  La4  1  0.958846  0.349119  0.346403  1
  La  La5  1  0.809893  0.190692  0.191293  1
  La  La6  1  0.186372  0.812980  0.813550  1
  La  La7  1  0.190123  0.810551  0.190583  1
  La  La8  1  0.812709  0.186663  0.812859  1
  Pr  Pr9  1  0.194438  0.194231  0.807092  1
  Pr  Pr10  1  0.808568  0.808687  0.190405  1
  Pr  Pr11  1  0.936180  0.564228  0.564532  1
  Pr  Pr12  1  0.564138  0.935423  0.936106  1
  Pr  Pr13  1  0.564324  0.937055  0.564886  1
  Pr  Pr14  1  0.934838  0.564163  0.936647  1
  Pr  Pr15  1  0.562322  0.562454  0.939227  1
  Pr  Pr16  1  0.936951  0.938504  0.563127  1
  Cd  Cd17  1  0.258596  0.579885  0.580944  1
  Ag  Ag18  1  0.582555  0.583270  0.255165  1
  Ag  Ag19  1  0.581011  0.253944  0.583160  1
  Ir  Ir20  1  0.139182  0.139169  0.146811  1
  Ir  Ir21  1  0.139366  0.139663  0.577102  1
  Ir  Ir22  1  0.148385  0.576843  0.139004  1
  Ir  Ir23  1  0.577795  0.148300  0.138613  1
