# generated using pymatgen
data_ScV11Fe4(Si2C)4
_symmetry_space_group_name_H-M   'P 1'
_cell_length_a   7.68177283
_cell_length_b   7.68177217
_cell_length_c   7.67376400
_cell_angle_alpha   60.03447931
_cell_angle_beta   60.03448215
_cell_angle_gamma   60.56752636
_symmetry_Int_Tables_number   1
_chemical_formula_structural   ScV11Fe4(Si2C)4
_chemical_formula_sum   'Sc1 V11 Fe4 Si8 C4'
_cell_volume   321.71595125
_cell_formula_units_Z   1
loop_
 _symmetry_equiv_pos_site_id
 _symmetry_equiv_pos_as_xyz
  1  'x, y, z'
loop_
 _atom_site_type_symbol
 _atom_site_label
 _atom_site_symmetry_multiplicity
 _atom_site_fract_x
 _atom_site_fract_y
 _atom_site_fract_z
 _atom_site_occupancy
  Sc  Sc0  1  0.803998  0.803998  0.196002  1
  V  V1  1  0.183662  0.183662  0.816338  1
  V  V2  1  0.806690  0.195331  0.809022  1
  V  V3  1  0.195331  0.806690  0.188957  1
  V  V4  1  0.195331  0.806690  0.809022  1
  V  V5  1  0.806690  0.195331  0.188957  1
  V  V6  1  0.446090  0.446090  0.053910  1
  V  V7  1  0.061292  0.061292  0.438708  1
  V  V8  1  0.434368  0.066657  0.436160  1
  V  V9  1  0.066657  0.434368  0.062814  1
  V  V10  1  0.066657  0.434368  0.436160  1
  V  V11  1  0.434368  0.066657  0.062814  1
  Fe  Fe12  1  0.127039  0.622341  0.625310  1
  Fe  Fe13  1  0.622341  0.127039  0.625310  1
  Fe  Fe14  1  0.623617  0.623617  0.122975  1
  Fe  Fe15  1  0.623617  0.623617  0.629791  1
  Si  Si16  1  0.758540  0.409294  0.416084  1
  Si  Si17  1  0.409294  0.758540  0.416084  1
  Si  Si18  1  0.413021  0.413021  0.757953  1
  Si  Si19  1  0.413021  0.413021  0.416008  1
  Si  Si20  1  0.491884  0.840167  0.833973  1
  Si  Si21  1  0.840167  0.491884  0.833973  1
  Si  Si22  1  0.838047  0.838047  0.496521  1
  Si  Si23  1  0.838047  0.838047  0.827383  1
  C  C24  1  0.618288  0.137588  0.122062  1
  C  C25  1  0.137588  0.618288  0.122062  1
  C  C26  1  0.122176  0.122176  0.627472  1
  C  C27  1  0.122176  0.122176  0.128176  1
