# generated using pymatgen
data_Li2Tm3TlSi2Ag
_symmetry_space_group_name_H-M   'P 1'
_cell_length_a   7.12532138
_cell_length_b   7.20877653
_cell_length_c   4.16519500
_cell_angle_alpha   90.00000000
_cell_angle_beta   90.00000000
_cell_angle_gamma   120.38821329
_symmetry_Int_Tables_number   1
_chemical_formula_structural   Li2Tm3TlSi2Ag
_chemical_formula_sum   'Li2 Tm3 Tl1 Si2 Ag1'
_cell_volume   184.55242205
_cell_formula_units_Z   1
loop_
 _symmetry_equiv_pos_site_id
 _symmetry_equiv_pos_as_xyz
  1  'x, y, z'
loop_
 _atom_site_type_symbol
 _atom_site_label
 _atom_site_symmetry_multiplicity
 _atom_site_fract_x
 _atom_site_fract_y
 _atom_site_fract_z
 _atom_site_occupancy
  Li  Li0  1  0.743226  0.746181  0.000000  1
  Li  Li1  1  0.256774  0.002955  0.000000  1
  Tm  Tm2  1  0.433547  0.435581  0.500000  1
  Tm  Tm3  1  0.566453  0.002034  0.500000  1
  Tm  Tm4  1  0.000000  0.560721  0.500000  1
  Tl  Tl5  1  0.000000  0.983076  0.500000  1
  Si  Si6  1  0.660208  0.333246  0.000000  1
  Si  Si7  1  0.339792  0.673040  0.000000  1
  Ag  Ag8  1  0.000000  0.263166  0.000000  1
