# generated using pymatgen
data_Pr3Mn2Mo3O14
_symmetry_space_group_name_H-M   'P 1'
_cell_length_a   7.28299094
_cell_length_b   7.28297137
_cell_length_c   7.28298135
_cell_angle_alpha   63.24092718
_cell_angle_beta   63.24066055
_cell_angle_gamma   63.24074008
_symmetry_Int_Tables_number   1
_chemical_formula_structural   Pr3Mn2Mo3O14
_chemical_formula_sum   'Pr3 Mn2 Mo3 O14'
_cell_volume   292.77306996
_cell_formula_units_Z   1
loop_
 _symmetry_equiv_pos_site_id
 _symmetry_equiv_pos_as_xyz
  1  'x, y, z'
loop_
 _atom_site_type_symbol
 _atom_site_label
 _atom_site_symmetry_multiplicity
 _atom_site_fract_x
 _atom_site_fract_y
 _atom_site_fract_z
 _atom_site_occupancy
  Pr  Pr0  1  0.000159  0.999955  0.499973  1
  Pr  Pr1  1  0.500002  0.999985  0.000157  1
  Pr  Pr2  1  0.500015  0.500154  0.500014  1
  Mn  Mn3  1  0.999633  0.499963  0.999835  1
  Mn  Mn4  1  0.499651  0.000151  0.499919  1
  Mo  Mo5  1  0.499976  0.499947  0.999971  1
  Mo  Mo6  1  0.000024  0.499959  0.499977  1
  Mo  Mo7  1  0.000031  0.999984  0.999991  1
  O  O8  1  0.617438  0.117419  0.617426  1
  O  O9  1  0.382687  0.882663  0.382674  1
  O  O10  1  0.078974  0.180014  0.680034  1
  O  O11  1  0.680079  0.180031  0.078905  1
  O  O12  1  0.680087  0.578858  0.680060  1
  O  O13  1  0.921164  0.819950  0.319971  1
  O  O14  1  0.320012  0.819966  0.921098  1
  O  O15  1  0.320018  0.421060  0.319993  1
  O  O16  1  0.650777  0.589688  0.089712  1
  O  O17  1  0.089716  0.589673  0.650780  1
  O  O18  1  0.089711  0.150777  0.089685  1
  O  O19  1  0.349183  0.410314  0.910332  1
  O  O20  1  0.910340  0.410293  0.349187  1
  O  O21  1  0.910326  0.849192  0.910307  1
