# generated using pymatgen
data_Lu10MnCd3
_symmetry_space_group_name_H-M   'P 1'
_cell_length_a   9.30406113
_cell_length_b   9.30571986
_cell_length_c   9.72235604
_cell_angle_alpha   90.00000674
_cell_angle_beta   89.99898006
_cell_angle_gamma   120.00605316
_symmetry_Int_Tables_number   1
_chemical_formula_structural   Lu10MnCd3
_chemical_formula_sum   'Lu20 Mn2 Cd6'
_cell_volume   728.95075308
_cell_formula_units_Z   2
loop_
 _symmetry_equiv_pos_site_id
 _symmetry_equiv_pos_as_xyz
  1  'x, y, z'
loop_
 _atom_site_type_symbol
 _atom_site_label
 _atom_site_symmetry_multiplicity
 _atom_site_fract_x
 _atom_site_fract_y
 _atom_site_fract_z
 _atom_site_occupancy
  Lu  Lu0  1  0.000170  0.000340  0.500053  1
  Lu  Lu1  1  0.999736  0.999680  0.000083  1
  Lu  Lu2  1  0.211567  0.788259  0.439546  1
  Lu  Lu3  1  0.211767  0.423428  0.439592  1
  Lu  Lu4  1  0.576811  0.788441  0.439480  1
  Lu  Lu5  1  0.788284  0.211723  0.560346  1
  Lu  Lu6  1  0.788446  0.576730  0.560454  1
  Lu  Lu7  1  0.423367  0.211714  0.560484  1
  Lu  Lu8  1  0.788380  0.211636  0.939553  1
  Lu  Lu9  1  0.788424  0.576585  0.939632  1
  Lu  Lu10  1  0.423219  0.211587  0.939556  1
  Lu  Lu11  1  0.211596  0.788181  0.060401  1
  Lu  Lu12  1  0.211704  0.423204  0.060385  1
  Lu  Lu13  1  0.576717  0.788321  0.060417  1
  Lu  Lu14  1  0.539636  0.460551  0.249887  1
  Lu  Lu15  1  0.539302  0.078972  0.249878  1
  Lu  Lu16  1  0.921004  0.460391  0.249925  1
  Lu  Lu17  1  0.460658  0.539486  0.750081  1
  Lu  Lu18  1  0.460342  0.920944  0.749972  1
  Lu  Lu19  1  0.079035  0.539503  0.749939  1
  Mn  Mn20  1  0.333445  0.666702  0.249987  1
  Mn  Mn21  1  0.666641  0.333353  0.749986  1
  Cd  Cd22  1  0.887101  0.113378  0.249974  1
  Cd  Cd23  1  0.887316  0.773819  0.250379  1
  Cd  Cd24  1  0.226070  0.113293  0.249975  1
  Cd  Cd25  1  0.112594  0.886568  0.750009  1
  Cd  Cd26  1  0.112854  0.226192  0.750193  1
  Cd  Cd27  1  0.773812  0.887015  0.749834  1
