# generated using pymatgen
data_Gd7Y(Si3Ir)4
_symmetry_space_group_name_H-M   'P 1'
_cell_length_a   8.18711000
_cell_length_b   8.18641912
_cell_length_c   7.98019200
_cell_angle_alpha   90.00000000
_cell_angle_beta   90.00000000
_cell_angle_gamma   119.99719927
_symmetry_Int_Tables_number   1
_chemical_formula_structural   Gd7Y(Si3Ir)4
_chemical_formula_sum   'Gd7 Y1 Si12 Ir4'
_cell_volume   463.21309574
_cell_formula_units_Z   1
loop_
 _symmetry_equiv_pos_site_id
 _symmetry_equiv_pos_as_xyz
  1  'x, y, z'
loop_
 _atom_site_type_symbol
 _atom_site_label
 _atom_site_symmetry_multiplicity
 _atom_site_fract_x
 _atom_site_fract_y
 _atom_site_fract_z
 _atom_site_occupancy
  Gd  Gd0  1  0.999805  0.999902  0.250000  1
  Gd  Gd1  1  0.999614  0.999807  0.750000  1
  Gd  Gd2  1  0.508628  0.491108  0.250000  1
  Gd  Gd3  1  0.508628  0.017519  0.250000  1
  Gd  Gd4  1  0.981846  0.490923  0.250000  1
  Gd  Gd5  1  0.491175  0.508672  0.750000  1
  Gd  Gd6  1  0.491175  0.982503  0.750000  1
  Y  Y7  1  0.018574  0.509287  0.750000  1
  Si  Si8  1  0.166292  0.833293  0.500406  1
  Si  Si9  1  0.166292  0.332998  0.500406  1
  Si  Si10  1  0.667414  0.833706  0.500217  1
  Si  Si11  1  0.833416  0.166815  0.500836  1
  Si  Si12  1  0.833416  0.666604  0.500836  1
  Si  Si13  1  0.333195  0.166598  0.500796  1
  Si  Si14  1  0.833416  0.166815  0.999164  1
  Si  Si15  1  0.833416  0.666604  0.999164  1
  Si  Si16  1  0.333195  0.166598  0.999204  1
  Si  Si17  1  0.166292  0.833293  0.999594  1
  Si  Si18  1  0.166292  0.332998  0.999594  1
  Si  Si19  1  0.667414  0.833706  0.999783  1
  Ir  Ir20  1  0.333355  0.666678  0.471266  1
  Ir  Ir21  1  0.666895  0.333448  0.533269  1
  Ir  Ir22  1  0.666895  0.333448  0.966731  1
  Ir  Ir23  1  0.333355  0.666678  0.028734  1
