# generated using pymatgen
data_CeErZnInRh
_symmetry_space_group_name_H-M   'P 1'
_cell_length_a   7.80149391
_cell_length_b   7.80149364
_cell_length_c   3.69828800
_cell_angle_alpha   90.00000000
_cell_angle_beta   90.00000000
_cell_angle_gamma   88.18936144
_symmetry_Int_Tables_number   1
_chemical_formula_structural   CeErZnInRh
_chemical_formula_sum   'Ce2 Er2 Zn2 In2 Rh2'
_cell_volume   224.97764597
_cell_formula_units_Z   2
loop_
 _symmetry_equiv_pos_site_id
 _symmetry_equiv_pos_as_xyz
  1  'x, y, z'
loop_
 _atom_site_type_symbol
 _atom_site_label
 _atom_site_symmetry_multiplicity
 _atom_site_fract_x
 _atom_site_fract_y
 _atom_site_fract_z
 _atom_site_occupancy
  Ce  Ce0  1  0.190266  0.309734  0.500000  1
  Ce  Ce1  1  0.809734  0.690266  0.500000  1
  Er  Er2  1  0.663455  0.163455  0.500000  1
  Er  Er3  1  0.336545  0.836545  0.500000  1
  Zn  Zn4  1  0.121588  0.621588  0.000000  1
  Zn  Zn5  1  0.878412  0.378412  0.000000  1
  In  In6  1  0.000000  0.000000  0.000000  1
  In  In7  1  0.500000  0.500000  0.000000  1
  Rh  Rh8  1  0.633770  0.866230  0.000000  1
  Rh  Rh9  1  0.366230  0.133770  0.000000  1
