# generated using pymatgen
data_Dy5Lu5(In2Sb)2
_symmetry_space_group_name_H-M   'P 1'
_cell_length_a   6.45640800
_cell_length_b   8.90737845
_cell_length_c   8.92288300
_cell_angle_alpha   120.05755868
_cell_angle_beta   90.00258169
_cell_angle_gamma   89.99820822
_symmetry_Int_Tables_number   1
_chemical_formula_structural   Dy5Lu5(In2Sb)2
_chemical_formula_sum   'Dy5 Lu5 In4 Sb2'
_cell_volume   444.14473535
_cell_formula_units_Z   1
loop_
 _symmetry_equiv_pos_site_id
 _symmetry_equiv_pos_as_xyz
  1  'x, y, z'
loop_
 _atom_site_type_symbol
 _atom_site_label
 _atom_site_symmetry_multiplicity
 _atom_site_fract_x
 _atom_site_fract_y
 _atom_site_fract_z
 _atom_site_occupancy
  Dy  Dy0  1  0.750041  0.234831  0.995092  1
  Dy  Dy1  1  0.750044  0.765374  0.760376  1
  Dy  Dy2  1  0.750049  0.000096  0.239420  1
  Dy  Dy3  1  0.250054  0.761888  0.000602  1
  Dy  Dy4  1  0.250059  0.238360  0.238839  1
  Lu  Lu5  1  0.495943  0.334958  0.668974  1
  Lu  Lu6  1  0.495938  0.664947  0.333975  1
  Lu  Lu7  1  0.004102  0.664932  0.333998  1
  Lu  Lu8  1  0.004080  0.334977  0.668987  1
  Lu  Lu9  1  0.250023  0.000055  0.763679  1
  In  In10  1  0.749803  0.000267  0.596274  1
  In  In11  1  0.249977  0.394791  0.999301  1
  In  In12  1  0.250150  0.605084  0.604521  1
  In  In13  1  0.249688  0.999399  0.401260  1
  Sb  Sb14  1  0.750020  0.604311  0.999459  1
  Sb  Sb15  1  0.750028  0.395733  0.395242  1
