# generated using pymatgen
data_Pr2Nd2Ga4IrPd3
_symmetry_space_group_name_H-M   'P 1'
_cell_length_a   4.53633600
_cell_length_b   7.16539780
_cell_length_c   7.85860872
_cell_angle_alpha   90.41679443
_cell_angle_beta   90.00000000
_cell_angle_gamma   90.00000000
_symmetry_Int_Tables_number   1
_chemical_formula_structural   Pr2Nd2Ga4IrPd3
_chemical_formula_sum   'Pr2 Nd2 Ga4 Ir1 Pd3'
_cell_volume   255.43458288
_cell_formula_units_Z   1
loop_
 _symmetry_equiv_pos_site_id
 _symmetry_equiv_pos_as_xyz
  1  'x, y, z'
loop_
 _atom_site_type_symbol
 _atom_site_label
 _atom_site_symmetry_multiplicity
 _atom_site_fract_x
 _atom_site_fract_y
 _atom_site_fract_z
 _atom_site_occupancy
  Pr  Pr0  1  0.250000  0.028160  0.690970  1
  Pr  Pr1  1  0.250000  0.525133  0.805435  1
  Nd  Nd2  1  0.750000  0.983531  0.304598  1
  Nd  Nd3  1  0.750000  0.473139  0.199812  1
  Ga  Ga4  1  0.250000  0.171719  0.077102  1
  Ga  Ga5  1  0.250000  0.661333  0.425948  1
  Ga  Ga6  1  0.750000  0.832261  0.928549  1
  Ga  Ga7  1  0.750000  0.329434  0.570039  1
  Ir  Ir8  1  0.250000  0.278670  0.397281  1
  Pd  Pd9  1  0.250000  0.784113  0.101747  1
  Pd  Pd10  1  0.750000  0.716424  0.599026  1
  Pd  Pd11  1  0.750000  0.216083  0.899494  1
