# generated using pymatgen
data_NaSr21(Al4Sn3)2
_symmetry_space_group_name_H-M   'P 1'
_cell_length_a   12.28948903
_cell_length_b   12.28948980
_cell_length_c   12.28948800
_cell_angle_alpha   60.00000485
_cell_angle_beta   60.00000278
_cell_angle_gamma   60.00000392
_symmetry_Int_Tables_number   1
_chemical_formula_structural   NaSr21(Al4Sn3)2
_chemical_formula_sum   'Na1 Sr21 Al8 Sn6'
_cell_volume   1312.46131034
_cell_formula_units_Z   1
loop_
 _symmetry_equiv_pos_site_id
 _symmetry_equiv_pos_as_xyz
  1  'x, y, z'
loop_
 _atom_site_type_symbol
 _atom_site_label
 _atom_site_symmetry_multiplicity
 _atom_site_fract_x
 _atom_site_fract_y
 _atom_site_fract_z
 _atom_site_occupancy
  Na  Na0  1  0.500000  0.500000  0.500000  1
  Sr  Sr1  1  0.870904  0.870904  0.387286  1
  Sr  Sr2  1  0.612714  0.129096  0.129096  1
  Sr  Sr3  1  0.870904  0.387286  0.870904  1
  Sr  Sr4  1  0.129096  0.129096  0.129096  1
  Sr  Sr5  1  0.387286  0.870904  0.870904  1
  Sr  Sr6  1  0.870904  0.870904  0.870904  1
  Sr  Sr7  1  0.170600  0.829400  0.500000  1
  Sr  Sr8  1  0.829400  0.500000  0.500000  1
  Sr  Sr9  1  0.129096  0.129096  0.612714  1
  Sr  Sr10  1  0.829400  0.170600  0.500000  1
  Sr  Sr11  1  0.170600  0.500000  0.500000  1
  Sr  Sr12  1  0.129096  0.612714  0.129096  1
  Sr  Sr13  1  0.500000  0.500000  0.170600  1
  Sr  Sr14  1  0.500000  0.170600  0.829400  1
  Sr  Sr15  1  0.500000  0.829400  0.170600  1
  Sr  Sr16  1  0.500000  0.500000  0.829400  1
  Sr  Sr17  1  0.500000  0.170600  0.500000  1
  Sr  Sr18  1  0.170600  0.500000  0.829400  1
  Sr  Sr19  1  0.000000  0.000000  0.000000  1
  Sr  Sr20  1  0.500000  0.829400  0.500000  1
  Sr  Sr21  1  0.829400  0.500000  0.170600  1
  Al  Al22  1  0.694496  0.916513  0.694496  1
  Al  Al23  1  0.694496  0.694496  0.916513  1
  Al  Al24  1  0.694496  0.694496  0.694496  1
  Al  Al25  1  0.305504  0.083487  0.305504  1
  Al  Al26  1  0.916513  0.694496  0.694496  1
  Al  Al27  1  0.305504  0.305504  0.083487  1
  Al  Al28  1  0.083487  0.305504  0.305504  1
  Al  Al29  1  0.305504  0.305504  0.305504  1
  Sn  Sn30  1  0.784030  0.215970  0.784030  1
  Sn  Sn31  1  0.784030  0.215970  0.215970  1
  Sn  Sn32  1  0.215970  0.784030  0.215970  1
  Sn  Sn33  1  0.215970  0.784030  0.784030  1
  Sn  Sn34  1  0.784030  0.784030  0.215970  1
  Sn  Sn35  1  0.215970  0.215970  0.784030  1
