# generated using pymatgen
data_DyY2Cd3CuPt2
_symmetry_space_group_name_H-M   'P 1'
_cell_length_a   7.77104000
_cell_length_b   7.75152707
_cell_length_c   3.73553700
_cell_angle_alpha   90.00000000
_cell_angle_beta   90.00000000
_cell_angle_gamma   120.08330666
_symmetry_Int_Tables_number   1
_chemical_formula_structural   DyY2Cd3CuPt2
_chemical_formula_sum   'Dy1 Y2 Cd3 Cu1 Pt2'
_cell_volume   194.70849689
_cell_formula_units_Z   1
loop_
 _symmetry_equiv_pos_site_id
 _symmetry_equiv_pos_as_xyz
  1  'x, y, z'
loop_
 _atom_site_type_symbol
 _atom_site_label
 _atom_site_symmetry_multiplicity
 _atom_site_fract_x
 _atom_site_fract_y
 _atom_site_fract_z
 _atom_site_occupancy
  Dy  Dy0  1  0.412424  0.000000  0.500000  1
  Y  Y1  1  0.999897  0.411193  0.500000  1
  Y  Y2  1  0.588704  0.588807  0.500000  1
  Cd  Cd3  1  0.000100  0.750406  0.000000  1
  Cd  Cd4  1  0.249695  0.249594  0.000000  1
  Cd  Cd5  1  0.750305  0.000000  0.000000  1
  Cu  Cu6  1  0.000225  0.000000  0.500000  1
  Pt  Pt7  1  0.333670  0.668690  0.000000  1
  Pt  Pt8  1  0.664980  0.331310  0.000000  1
