# generated using pymatgen
data_Ac2Al2I
_symmetry_space_group_name_H-M   'P 1'
_cell_length_a   4.46860900
_cell_length_b   4.46860932
_cell_length_c   18.82300300
_cell_angle_alpha   90.00000000
_cell_angle_beta   90.00000000
_cell_angle_gamma   120.00000500
_symmetry_Int_Tables_number   1
_chemical_formula_structural   Ac2Al2I
_chemical_formula_sum   'Ac4 Al4 I2'
_cell_volume   325.50994717
_cell_formula_units_Z   2
loop_
 _symmetry_equiv_pos_site_id
 _symmetry_equiv_pos_as_xyz
  1  'x, y, z'
loop_
 _atom_site_type_symbol
 _atom_site_label
 _atom_site_symmetry_multiplicity
 _atom_site_fract_x
 _atom_site_fract_y
 _atom_site_fract_z
 _atom_site_occupancy
  Ac  Ac0  1  0.000000  0.000000  0.117361  1
  Ac  Ac1  1  0.000000  0.000000  0.382639  1
  Ac  Ac2  1  0.000000  0.000000  0.617361  1
  Ac  Ac3  1  0.000000  0.000000  0.882639  1
  Al  Al4  1  0.666668  0.333334  0.005199  1
  Al  Al5  1  0.666668  0.333334  0.494801  1
  Al  Al6  1  0.333333  0.666666  0.505199  1
  Al  Al7  1  0.333333  0.666666  0.994801  1
  I  I8  1  0.333333  0.666666  0.250000  1
  I  I9  1  0.666668  0.333334  0.750000  1
