# generated using pymatgen
data_EuZnGeRh2
_symmetry_space_group_name_H-M   'P 1'
_cell_length_a   4.20923400
_cell_length_b   4.20923400
_cell_length_c   10.56521900
_cell_angle_alpha   90.00000000
_cell_angle_beta   90.00000000
_cell_angle_gamma   90.00000000
_symmetry_Int_Tables_number   1
_chemical_formula_structural   EuZnGeRh2
_chemical_formula_sum   'Eu2 Zn2 Ge2 Rh4'
_cell_volume   187.19086157
_cell_formula_units_Z   2
loop_
 _symmetry_equiv_pos_site_id
 _symmetry_equiv_pos_as_xyz
  1  'x, y, z'
loop_
 _atom_site_type_symbol
 _atom_site_label
 _atom_site_symmetry_multiplicity
 _atom_site_fract_x
 _atom_site_fract_y
 _atom_site_fract_z
 _atom_site_occupancy
  Eu  Eu0  1  0.000000  0.500000  0.253054  1
  Eu  Eu1  1  0.500000  0.000000  0.746946  1
  Zn  Zn2  1  0.000000  0.000000  0.500000  1
  Zn  Zn3  1  0.500000  0.500000  0.500000  1
  Ge  Ge4  1  0.000000  0.500000  0.875131  1
  Ge  Ge5  1  0.500000  0.000000  0.124869  1
  Rh  Rh6  1  0.000000  0.000000  0.000000  1
  Rh  Rh7  1  0.500000  0.500000  0.000000  1
  Rh  Rh8  1  0.000000  0.500000  0.642234  1
  Rh  Rh9  1  0.500000  0.000000  0.357766  1
