# generated using pymatgen
data_SiNi4Mo6PC
_symmetry_space_group_name_H-M   'P 1'
_cell_length_a   7.71564095
_cell_length_b   7.69875428
_cell_length_c   7.71564031
_cell_angle_alpha   60.07236614
_cell_angle_beta   60.10735659
_cell_angle_gamma   60.07236812
_symmetry_Int_Tables_number   1
_chemical_formula_structural   SiNi4Mo6PC
_chemical_formula_sum   'Si2 Ni8 Mo12 P2 C2'
_cell_volume   324.69493789
_cell_formula_units_Z   2
loop_
 _symmetry_equiv_pos_site_id
 _symmetry_equiv_pos_as_xyz
  1  'x, y, z'
loop_
 _atom_site_type_symbol
 _atom_site_label
 _atom_site_symmetry_multiplicity
 _atom_site_fract_x
 _atom_site_fract_y
 _atom_site_fract_z
 _atom_site_occupancy
  Si  Si0  1  0.125000  0.125000  0.625000  1
  Si  Si1  1  0.625000  0.125000  0.125000  1
  Ni  Ni2  1  0.327993  0.333082  0.005842  1
  Ni  Ni3  1  0.328972  0.334745  0.328972  1
  Ni  Ni4  1  0.244158  0.916918  0.922007  1
  Ni  Ni5  1  0.921028  0.915255  0.921028  1
  Ni  Ni6  1  0.005842  0.333082  0.327993  1
  Ni  Ni7  1  0.328972  0.007309  0.328972  1
  Ni  Ni8  1  0.922007  0.916918  0.244158  1
  Ni  Ni9  1  0.921028  0.242691  0.921028  1
  Mo  Mo10  1  0.306028  0.694661  0.693415  1
  Mo  Mo11  1  0.693415  0.694661  0.306028  1
  Mo  Mo12  1  0.694577  0.305423  0.694577  1
  Mo  Mo13  1  0.305866  0.694134  0.305866  1
  Mo  Mo14  1  0.555423  0.944577  0.555423  1
  Mo  Mo15  1  0.556585  0.944105  0.943972  1
  Mo  Mo16  1  0.943972  0.555339  0.556585  1
  Mo  Mo17  1  0.944134  0.555866  0.944134  1
  Mo  Mo18  1  0.306028  0.305895  0.693415  1
  Mo  Mo19  1  0.556585  0.555339  0.943972  1
  Mo  Mo20  1  0.943972  0.944105  0.556585  1
  Mo  Mo21  1  0.693415  0.305895  0.306028  1
  P  P22  1  0.125000  0.625000  0.125000  1
  P  P23  1  0.125000  0.125000  0.125000  1
  C  C24  1  0.499943  0.500057  0.499943  1
  C  C25  1  0.750057  0.749943  0.750057  1
