# generated using pymatgen
data_Dy3Er(Tm2Rh)4
_symmetry_space_group_name_H-M   'P 1'
_cell_length_a   6.25284963
_cell_length_b   7.13515419
_cell_length_c   9.26739100
_cell_angle_alpha   90.00000000
_cell_angle_beta   90.00000000
_cell_angle_gamma   90.07580779
_symmetry_Int_Tables_number   1
_chemical_formula_structural   Dy3Er(Tm2Rh)4
_chemical_formula_sum   'Dy3 Er1 Tm8 Rh4'
_cell_volume   413.46471619
_cell_formula_units_Z   1
loop_
 _symmetry_equiv_pos_site_id
 _symmetry_equiv_pos_as_xyz
  1  'x, y, z'
loop_
 _atom_site_type_symbol
 _atom_site_label
 _atom_site_symmetry_multiplicity
 _atom_site_fract_x
 _atom_site_fract_y
 _atom_site_fract_z
 _atom_site_occupancy
  Dy  Dy0  1  0.631836  0.033123  0.250000  1
  Dy  Dy1  1  0.131542  0.466967  0.750000  1
  Dy  Dy2  1  0.369058  0.967006  0.750000  1
  Er  Er3  1  0.867684  0.533621  0.250000  1
  Tm  Tm4  1  0.327946  0.677171  0.063149  1
  Tm  Tm5  1  0.170231  0.177783  0.436753  1
  Tm  Tm6  1  0.671757  0.322998  0.562402  1
  Tm  Tm7  1  0.829522  0.822010  0.937408  1
  Tm  Tm8  1  0.671757  0.322998  0.937598  1
  Tm  Tm9  1  0.829522  0.822010  0.562592  1
  Tm  Tm10  1  0.327946  0.677171  0.436851  1
  Tm  Tm11  1  0.170231  0.177783  0.063247  1
  Rh  Rh12  1  0.054911  0.881200  0.250000  1
  Rh  Rh13  1  0.446165  0.383839  0.250000  1
  Rh  Rh14  1  0.942645  0.117403  0.750000  1
  Rh  Rh15  1  0.557245  0.616914  0.750000  1
