# generated using pymatgen
data_Y2Lu5ScAu4
_symmetry_space_group_name_H-M   'P 1'
_cell_length_a   4.81949900
_cell_length_b   7.05040600
_cell_length_c   8.73784851
_cell_angle_alpha   90.03528839
_cell_angle_beta   90.00000000
_cell_angle_gamma   90.00000000
_symmetry_Int_Tables_number   1
_chemical_formula_structural   Y2Lu5ScAu4
_chemical_formula_sum   'Y2 Lu5 Sc1 Au4'
_cell_volume   296.90700896
_cell_formula_units_Z   1
loop_
 _symmetry_equiv_pos_site_id
 _symmetry_equiv_pos_as_xyz
  1  'x, y, z'
loop_
 _atom_site_type_symbol
 _atom_site_label
 _atom_site_symmetry_multiplicity
 _atom_site_fract_x
 _atom_site_fract_y
 _atom_site_fract_z
 _atom_site_occupancy
  Y  Y0  1  0.250000  0.013813  0.180831  1
  Y  Y1  1  0.250000  0.521084  0.323792  1
  Lu  Lu2  1  0.250000  0.147392  0.578052  1
  Lu  Lu3  1  0.750000  0.487227  0.673864  1
  Lu  Lu4  1  0.750000  0.981950  0.820265  1
  Lu  Lu5  1  0.250000  0.648012  0.920066  1
  Lu  Lu6  1  0.750000  0.351018  0.076525  1
  Sc  Sc7  1  0.750000  0.853117  0.424092  1
  Au  Au8  1  0.250000  0.749129  0.602912  1
  Au  Au9  1  0.250000  0.246170  0.896479  1
  Au  Au10  1  0.750000  0.752213  0.101607  1
  Au  Au11  1  0.750000  0.248874  0.401516  1
