# generated using pymatgen
data_BaAlSnHg2
_symmetry_space_group_name_H-M   'P 1'
_cell_length_a   6.80719691
_cell_length_b   6.80719675
_cell_length_c   6.80719632
_cell_angle_alpha   137.74577210
_cell_angle_beta   137.74577365
_cell_angle_gamma   61.29258350
_symmetry_Int_Tables_number   1
_chemical_formula_structural   BaAlSnHg2
_chemical_formula_sum   'Ba1 Al1 Sn1 Hg2'
_cell_volume   141.02365277
_cell_formula_units_Z   1
loop_
 _symmetry_equiv_pos_site_id
 _symmetry_equiv_pos_as_xyz
  1  'x, y, z'
loop_
 _atom_site_type_symbol
 _atom_site_label
 _atom_site_symmetry_multiplicity
 _atom_site_fract_x
 _atom_site_fract_y
 _atom_site_fract_z
 _atom_site_occupancy
  Ba  Ba0  1  0.998191  0.998191  0.000000  1
  Al  Al1  1  0.371166  0.371166  0.000000  1
  Sn  Sn2  1  0.609090  0.609090  0.000000  1
  Hg  Hg3  1  0.760777  0.260777  0.500001  1
  Hg  Hg4  1  0.260777  0.760777  0.500001  1
