# generated using pymatgen
data_Tb3Mg(Co4P3)2
_symmetry_space_group_name_H-M   'P 1'
_cell_length_a   3.72684600
_cell_length_b   10.61224800
_cell_length_c   12.27516100
_cell_angle_alpha   90.00000000
_cell_angle_beta   90.00000000
_cell_angle_gamma   90.00000000
_symmetry_Int_Tables_number   1
_chemical_formula_structural   Tb3Mg(Co4P3)2
_chemical_formula_sum   'Tb6 Mg2 Co16 P12'
_cell_volume   485.48524455
_cell_formula_units_Z   2
loop_
 _symmetry_equiv_pos_site_id
 _symmetry_equiv_pos_as_xyz
  1  'x, y, z'
loop_
 _atom_site_type_symbol
 _atom_site_label
 _atom_site_symmetry_multiplicity
 _atom_site_fract_x
 _atom_site_fract_y
 _atom_site_fract_z
 _atom_site_occupancy
  Tb  Tb0  1  0.000000  0.500000  0.526037  1
  Tb  Tb1  1  0.500000  0.000000  0.473963  1
  Tb  Tb2  1  0.500000  0.822522  0.206549  1
  Tb  Tb3  1  0.500000  0.177478  0.206549  1
  Tb  Tb4  1  0.000000  0.677478  0.793451  1
  Tb  Tb5  1  0.000000  0.322522  0.793451  1
  Mg  Mg6  1  0.500000  0.500000  0.156500  1
  Mg  Mg7  1  0.000000  0.000000  0.843500  1
  Co  Co8  1  0.500000  0.500000  0.705306  1
  Co  Co9  1  0.000000  0.000000  0.294694  1
  Co  Co10  1  0.000000  0.500000  0.989244  1
  Co  Co11  1  0.500000  0.000000  0.010756  1
  Co  Co12  1  0.500000  0.332498  0.997197  1
  Co  Co13  1  0.500000  0.667502  0.997197  1
  Co  Co14  1  0.000000  0.167502  0.002803  1
  Co  Co15  1  0.000000  0.832498  0.002803  1
  Co  Co16  1  0.500000  0.296717  0.431945  1
  Co  Co17  1  0.500000  0.703283  0.431945  1
  Co  Co18  1  0.000000  0.203283  0.568055  1
  Co  Co19  1  0.000000  0.796717  0.568055  1
  Co  Co20  1  0.500000  0.878054  0.705258  1
  Co  Co21  1  0.500000  0.121946  0.705258  1
  Co  Co22  1  0.000000  0.621946  0.294742  1
  Co  Co23  1  0.000000  0.378054  0.294742  1
  P  P24  1  0.500000  0.500000  0.885991  1
  P  P25  1  0.000000  0.000000  0.114009  1
  P  P26  1  0.500000  0.500000  0.355002  1
  P  P27  1  0.000000  0.000000  0.644998  1
  P  P28  1  0.500000  0.308981  0.614923  1
  P  P29  1  0.500000  0.691019  0.614923  1
  P  P30  1  0.000000  0.191019  0.385077  1
  P  P31  1  0.000000  0.808981  0.385077  1
  P  P32  1  0.500000  0.838969  0.892985  1
  P  P33  1  0.500000  0.161031  0.892985  1
  P  P34  1  0.000000  0.661031  0.107015  1
  P  P35  1  0.000000  0.338969  0.107015  1
