# generated using pymatgen
data_Tb7Y(TcB6)4
_symmetry_space_group_name_H-M   'P 1'
_cell_length_a   3.70822600
_cell_length_b   9.19139402
_cell_length_c   11.58155406
_cell_angle_alpha   89.99827684
_cell_angle_beta   90.00000000
_cell_angle_gamma   90.00000000
_symmetry_Int_Tables_number   1
_chemical_formula_structural   Tb7Y(TcB6)4
_chemical_formula_sum   'Tb7 Y1 Tc4 B24'
_cell_volume   394.74298160
_cell_formula_units_Z   1
loop_
 _symmetry_equiv_pos_site_id
 _symmetry_equiv_pos_as_xyz
  1  'x, y, z'
loop_
 _atom_site_type_symbol
 _atom_site_label
 _atom_site_symmetry_multiplicity
 _atom_site_fract_x
 _atom_site_fract_y
 _atom_site_fract_z
 _atom_site_occupancy
  Tb  Tb0  1  0.000000  0.323462  0.414275  1
  Tb  Tb1  1  0.000000  0.676394  0.585832  1
  Tb  Tb2  1  0.000000  0.823492  0.085842  1
  Tb  Tb3  1  0.000000  0.176539  0.914141  1
  Tb  Tb4  1  0.000000  0.942492  0.368995  1
  Tb  Tb5  1  0.000000  0.057562  0.631129  1
  Tb  Tb6  1  0.000000  0.442531  0.130870  1
  Y  Y7  1  0.000000  0.557447  0.869007  1
  Tc  Tc8  1  0.000000  0.638546  0.320383  1
  Tc  Tc9  1  0.000000  0.361607  0.679601  1
  Tc  Tc10  1  0.000000  0.138631  0.179321  1
  Tc  Tc11  1  0.000000  0.861213  0.820587  1
  B  B12  1  0.500000  0.553563  0.432681  1
  B  B13  1  0.500000  0.446507  0.567420  1
  B  B14  1  0.500000  0.053553  0.067239  1
  B  B15  1  0.500000  0.946175  0.932707  1
  B  B16  1  0.500000  0.748275  0.418101  1
  B  B17  1  0.500000  0.251848  0.582025  1
  B  B18  1  0.500000  0.248359  0.081853  1
  B  B19  1  0.500000  0.751145  0.918213  1
  B  B20  1  0.500000  0.791120  0.265168  1
  B  B21  1  0.500000  0.209048  0.734902  1
  B  B22  1  0.500000  0.291225  0.234758  1
  B  B23  1  0.500000  0.708425  0.765126  1
  B  B24  1  0.500000  0.630837  0.185754  1
  B  B25  1  0.500000  0.369374  0.814408  1
  B  B26  1  0.500000  0.130987  0.314156  1
  B  B27  1  0.500000  0.868949  0.685886  1
  B  B28  1  0.500000  0.983088  0.211390  1
  B  B29  1  0.500000  0.016874  0.788705  1
  B  B30  1  0.500000  0.482949  0.288576  1
  B  B31  1  0.500000  0.517338  0.711555  1
  B  B32  1  0.500000  0.600049  0.027485  1
  B  B33  1  0.500000  0.400253  0.971837  1
  B  B34  1  0.500000  0.100492  0.472073  1
  B  B35  1  0.500000  0.899651  0.527997  1
