# generated using pymatgen
data_Ta6Al4IrRhC2
_symmetry_space_group_name_H-M   'P 1'
_cell_length_a   8.29634206
_cell_length_b   8.31414774
_cell_length_c   8.31414626
_cell_angle_alpha   60.15203482
_cell_angle_beta   60.07081766
_cell_angle_gamma   60.07081877
_symmetry_Int_Tables_number   1
_chemical_formula_structural   Ta6Al4IrRhC2
_chemical_formula_sum   'Ta12 Al8 Ir2 Rh2 C4'
_cell_volume   406.41402657
_cell_formula_units_Z   2
loop_
 _symmetry_equiv_pos_site_id
 _symmetry_equiv_pos_as_xyz
  1  'x, y, z'
loop_
 _atom_site_type_symbol
 _atom_site_label
 _atom_site_symmetry_multiplicity
 _atom_site_fract_x
 _atom_site_fract_y
 _atom_site_fract_z
 _atom_site_occupancy
  Ta  Ta0  1  0.563046  0.935303  0.565436  1
  Ta  Ta1  1  0.313601  0.686399  0.686399  1
  Ta  Ta2  1  0.685113  0.314887  0.314887  1
  Ta  Ta3  1  0.313784  0.684564  0.314697  1
  Ta  Ta4  1  0.686954  0.684564  0.314697  1
  Ta  Ta5  1  0.313784  0.314697  0.684564  1
  Ta  Ta6  1  0.563046  0.565436  0.935303  1
  Ta  Ta7  1  0.936399  0.563601  0.563601  1
  Ta  Ta8  1  0.564887  0.935113  0.935113  1
  Ta  Ta9  1  0.936216  0.935303  0.565436  1
  Ta  Ta10  1  0.686954  0.314697  0.684564  1
  Ta  Ta11  1  0.936216  0.565436  0.935303  1
  Al  Al12  1  0.915178  0.917606  0.917606  1
  Al  Al13  1  0.000390  0.332394  0.332394  1
  Al  Al14  1  0.334201  0.999808  0.331791  1
  Al  Al15  1  0.334201  0.331791  0.999808  1
  Al  Al16  1  0.915799  0.250192  0.918209  1
  Al  Al17  1  0.915799  0.918209  0.250192  1
  Al  Al18  1  0.249610  0.917606  0.917606  1
  Al  Al19  1  0.334822  0.332394  0.332394  1
  Ir  Ir20  1  0.125000  0.625000  0.125000  1
  Ir  Ir21  1  0.125000  0.125000  0.625000  1
  Rh  Rh22  1  0.125000  0.125000  0.125000  1
  Rh  Rh23  1  0.625000  0.125000  0.125000  1
  C  C24  1  0.625000  0.625000  0.625000  1
  C  C25  1  0.125000  0.625000  0.625000  1
  C  C26  1  0.625000  0.125000  0.625000  1
  C  C27  1  0.625000  0.625000  0.125000  1
