# generated using pymatgen
data_Ta3TiGa2(Co5B2)2
_symmetry_space_group_name_H-M   'P 1'
_cell_length_a   8.50504032
_cell_length_b   8.50504032
_cell_length_c   3.02521600
_cell_angle_alpha   90.00000000
_cell_angle_beta   90.00000000
_cell_angle_gamma   90.28511029
_symmetry_Int_Tables_number   1
_chemical_formula_structural   Ta3TiGa2(Co5B2)2
_chemical_formula_sum   'Ta3 Ti1 Ga2 Co10 B4'
_cell_volume   218.82844076
_cell_formula_units_Z   1
loop_
 _symmetry_equiv_pos_site_id
 _symmetry_equiv_pos_as_xyz
  1  'x, y, z'
loop_
 _atom_site_type_symbol
 _atom_site_label
 _atom_site_symmetry_multiplicity
 _atom_site_fract_x
 _atom_site_fract_y
 _atom_site_fract_z
 _atom_site_occupancy
  Ta  Ta0  1  0.824902  0.324902  0.000000  1
  Ta  Ta1  1  0.323537  0.175904  0.000000  1
  Ta  Ta2  1  0.675904  0.823537  0.000000  1
  Ti  Ti3  1  0.175748  0.675748  0.000000  1
  Ga  Ga4  1  0.000785  0.998672  0.000000  1
  Ga  Ga5  1  0.498672  0.500785  0.000000  1
  Co  Co6  1  0.499576  0.999576  0.500000  1
  Co  Co7  1  0.003155  0.503155  0.500000  1
  Co  Co8  1  0.068346  0.221192  0.500000  1
  Co  Co9  1  0.220481  0.929269  0.500000  1
  Co  Co10  1  0.779464  0.068411  0.500000  1
  Co  Co11  1  0.930863  0.779254  0.500000  1
  Co  Co12  1  0.429269  0.720481  0.500000  1
  Co  Co13  1  0.568411  0.279464  0.500000  1
  Co  Co14  1  0.721192  0.568346  0.500000  1
  Co  Co15  1  0.279254  0.430863  0.500000  1
  B  B16  1  0.620101  0.120101  0.000000  1
  B  B17  1  0.120591  0.381156  0.000000  1
  B  B18  1  0.881156  0.620591  0.000000  1
  B  B19  1  0.378593  0.878593  0.000000  1
