# generated using pymatgen
data_PaB3Os
_symmetry_space_group_name_H-M   'P 1'
_cell_length_a   5.07258700
_cell_length_b   5.07258830
_cell_length_c   5.25555800
_cell_angle_alpha   90.00000000
_cell_angle_beta   90.00000000
_cell_angle_gamma   119.99998497
_symmetry_Int_Tables_number   1
_chemical_formula_structural   PaB3Os
_chemical_formula_sum   'Pa2 B6 Os2'
_cell_volume   117.11395597
_cell_formula_units_Z   2
loop_
 _symmetry_equiv_pos_site_id
 _symmetry_equiv_pos_as_xyz
  1  'x, y, z'
loop_
 _atom_site_type_symbol
 _atom_site_label
 _atom_site_symmetry_multiplicity
 _atom_site_fract_x
 _atom_site_fract_y
 _atom_site_fract_z
 _atom_site_occupancy
  Pa  Pa0  1  0.666667  0.333333  0.750000  1
  Pa  Pa1  1  0.333333  0.666667  0.250000  1
  B  B2  1  0.218041  0.436083  0.750000  1
  B  B3  1  0.781959  0.218041  0.250000  1
  B  B4  1  0.436083  0.218041  0.250000  1
  B  B5  1  0.563917  0.781959  0.750000  1
  B  B6  1  0.781959  0.563917  0.250000  1
  B  B7  1  0.218041  0.781959  0.750000  1
  Os  Os8  1  0.000000  0.000000  0.500000  1
  Os  Os9  1  0.000000  0.000000  0.000000  1
