# generated using pymatgen
data_K3PSeO3
_symmetry_space_group_name_H-M   'P 1'
_cell_length_a   5.87064100
_cell_length_b   6.77668783
_cell_length_c   8.90941335
_cell_angle_alpha   103.93563140
_cell_angle_beta   90.00000000
_cell_angle_gamma   90.00000000
_symmetry_Int_Tables_number   1
_chemical_formula_structural   K3PSeO3
_chemical_formula_sum   'K6 P2 Se2 O6'
_cell_volume   344.01516477
_cell_formula_units_Z   2
loop_
 _symmetry_equiv_pos_site_id
 _symmetry_equiv_pos_as_xyz
  1  'x, y, z'
loop_
 _atom_site_type_symbol
 _atom_site_label
 _atom_site_symmetry_multiplicity
 _atom_site_fract_x
 _atom_site_fract_y
 _atom_site_fract_z
 _atom_site_occupancy
  K  K0  1  0.250001  0.777438  0.990145  1
  K  K1  1  0.750001  0.762546  0.261653  1
  K  K2  1  0.750001  0.326149  0.465883  1
  K  K3  1  0.250001  0.673854  0.534114  1
  K  K4  1  0.250001  0.237453  0.738351  1
  K  K5  1  0.750001  0.222564  0.009853  1
  P  P6  1  0.250001  0.322587  0.203984  1
  P  P7  1  0.750001  0.677411  0.796017  1
  Se  Se8  1  0.250001  0.080437  0.345505  1
  Se  Se9  1  0.750001  0.919562  0.654496  1
  O  O10  1  0.250001  0.208770  0.031281  1
  O  O11  1  0.031915  0.450510  0.251137  1
  O  O12  1  0.468086  0.450510  0.251137  1
  O  O13  1  0.531914  0.549488  0.748864  1
  O  O14  1  0.968088  0.549488  0.748864  1
  O  O15  1  0.750001  0.791228  0.968721  1
