# generated using pymatgen
data_HoEr15Cd2AgHgIr4
_symmetry_space_group_name_H-M   'P 1'
_cell_length_a   9.54280062
_cell_length_b   9.54280078
_cell_length_c   9.55318800
_cell_angle_alpha   59.96398660
_cell_angle_beta   59.96398601
_cell_angle_gamma   59.93562887
_symmetry_Int_Tables_number   1
_chemical_formula_structural   HoEr15Cd2AgHgIr4
_chemical_formula_sum   'Ho1 Er15 Cd2 Ag1 Hg1 Ir4'
_cell_volume   614.52127028
_cell_formula_units_Z   1
loop_
 _symmetry_equiv_pos_site_id
 _symmetry_equiv_pos_as_xyz
  1  'x, y, z'
loop_
 _atom_site_type_symbol
 _atom_site_label
 _atom_site_symmetry_multiplicity
 _atom_site_fract_x
 _atom_site_fract_y
 _atom_site_fract_z
 _atom_site_occupancy
  Ho  Ho0  1  0.187251  0.187251  0.812406  1
  Er  Er1  1  0.600052  0.600052  0.598540  1
  Er  Er2  1  0.599759  0.599759  0.201872  1
  Er  Er3  1  0.601259  0.199055  0.599515  1
  Er  Er4  1  0.199055  0.601259  0.599515  1
  Er  Er5  1  0.060037  0.438682  0.440562  1
  Er  Er6  1  0.438673  0.060117  0.061027  1
  Er  Er7  1  0.438682  0.060037  0.440562  1
  Er  Er8  1  0.060117  0.438673  0.061027  1
  Er  Er9  1  0.438868  0.438868  0.061235  1
  Er  Er10  1  0.059532  0.059532  0.440732  1
  Er  Er11  1  0.186194  0.811555  0.812728  1
  Er  Er12  1  0.811687  0.186916  0.188115  1
  Er  Er13  1  0.811555  0.186194  0.812728  1
  Er  Er14  1  0.186916  0.811687  0.188115  1
  Er  Er15  1  0.812207  0.812207  0.186760  1
  Cd  Cd16  1  0.829871  0.509587  0.831389  1
  Cd  Cd17  1  0.509587  0.829871  0.831389  1
  Ag  Ag18  1  0.833500  0.833500  0.835524  1
  Hg  Hg19  1  0.834332  0.834332  0.497129  1
  Ir  Ir20  1  0.392127  0.392127  0.391589  1
  Ir  Ir21  1  0.392124  0.392124  0.824173  1
  Ir  Ir22  1  0.391911  0.824706  0.391686  1
  Ir  Ir23  1  0.824706  0.391911  0.391686  1
