# generated using pymatgen
data_Ac4IrAu3
_symmetry_space_group_name_H-M   'P 1'
_cell_length_a   4.88513900
_cell_length_b   6.19917704
_cell_length_c   7.88484189
_cell_angle_alpha   91.19513974
_cell_angle_beta   90.00000000
_cell_angle_gamma   90.00000000
_symmetry_Int_Tables_number   1
_chemical_formula_structural   Ac4IrAu3
_chemical_formula_sum   'Ac4 Ir1 Au3'
_cell_volume   238.73135628
_cell_formula_units_Z   1
loop_
 _symmetry_equiv_pos_site_id
 _symmetry_equiv_pos_as_xyz
  1  'x, y, z'
loop_
 _atom_site_type_symbol
 _atom_site_label
 _atom_site_symmetry_multiplicity
 _atom_site_fract_x
 _atom_site_fract_y
 _atom_site_fract_z
 _atom_site_occupancy
  Ac  Ac0  1  0.250000  0.635154  0.178568  1
  Ac  Ac1  1  0.750000  0.343720  0.829003  1
  Ac  Ac2  1  0.750000  0.144398  0.297856  1
  Ac  Ac3  1  0.250000  0.862217  0.693805  1
  Ir  Ir4  1  0.250000  0.168274  0.040406  1
  Au  Au5  1  0.750000  0.842944  0.957792  1
  Au  Au6  1  0.750000  0.652532  0.461631  1
  Au  Au7  1  0.250000  0.350761  0.540939  1
