# generated using pymatgen
data_Hf4Zr2As3
_symmetry_space_group_name_H-M   'P 1'
_cell_length_a   3.69163300
_cell_length_b   12.58748800
_cell_length_c   15.55604300
_cell_angle_alpha   90.00000000
_cell_angle_beta   90.00000000
_cell_angle_gamma   90.00000000
_symmetry_Int_Tables_number   1
_chemical_formula_structural   Hf4Zr2As3
_chemical_formula_sum   'Hf16 Zr8 As12'
_cell_volume   722.86421212
_cell_formula_units_Z   4
loop_
 _symmetry_equiv_pos_site_id
 _symmetry_equiv_pos_as_xyz
  1  'x, y, z'
loop_
 _atom_site_type_symbol
 _atom_site_label
 _atom_site_symmetry_multiplicity
 _atom_site_fract_x
 _atom_site_fract_y
 _atom_site_fract_z
 _atom_site_occupancy
  Hf  Hf0  1  0.500000  0.082671  0.425814  1
  Hf  Hf1  1  0.500000  0.917329  0.574186  1
  Hf  Hf2  1  0.000000  0.417329  0.925814  1
  Hf  Hf3  1  0.000000  0.582671  0.074186  1
  Hf  Hf4  1  0.500000  0.972392  0.106871  1
  Hf  Hf5  1  0.500000  0.027608  0.893129  1
  Hf  Hf6  1  0.000000  0.527608  0.606871  1
  Hf  Hf7  1  0.000000  0.472392  0.393129  1
  Hf  Hf8  1  0.500000  0.310129  0.293155  1
  Hf  Hf9  1  0.500000  0.689871  0.706845  1
  Hf  Hf10  1  0.000000  0.189871  0.793155  1
  Hf  Hf11  1  0.000000  0.810129  0.206845  1
  Hf  Hf12  1  0.500000  0.384262  0.080518  1
  Hf  Hf13  1  0.500000  0.615738  0.919482  1
  Hf  Hf14  1  0.000000  0.115738  0.580518  1
  Hf  Hf15  1  0.000000  0.884262  0.419482  1
  Zr  Zr16  1  0.500000  0.652141  0.477584  1
  Zr  Zr17  1  0.500000  0.347859  0.522416  1
  Zr  Zr18  1  0.000000  0.847859  0.977584  1
  Zr  Zr19  1  0.000000  0.152141  0.022416  1
  Zr  Zr20  1  0.500000  0.595883  0.243362  1
  Zr  Zr21  1  0.500000  0.404117  0.756638  1
  Zr  Zr22  1  0.000000  0.904117  0.743362  1
  Zr  Zr23  1  0.000000  0.095883  0.256638  1
  As  As24  1  0.500000  0.936080  0.289531  1
  As  As25  1  0.500000  0.063920  0.710469  1
  As  As26  1  0.000000  0.563920  0.789531  1
  As  As27  1  0.000000  0.436080  0.210469  1
  As  As28  1  0.500000  0.742480  0.087816  1
  As  As29  1  0.500000  0.257520  0.912184  1
  As  As30  1  0.000000  0.757520  0.587816  1
  As  As31  1  0.000000  0.242480  0.412184  1
  As  As32  1  0.500000  0.188115  0.150135  1
  As  As33  1  0.500000  0.811885  0.849865  1
  As  As34  1  0.000000  0.311885  0.650135  1
  As  As35  1  0.000000  0.688115  0.349865  1
