# generated using pymatgen
data_La2Y3ErCoI10
_symmetry_space_group_name_H-M   'P 1'
_cell_length_a   7.83060239
_cell_length_b   9.85806387
_cell_length_c   9.80235171
_cell_angle_alpha   106.76502419
_cell_angle_beta   95.74547236
_cell_angle_gamma   105.59397771
_symmetry_Int_Tables_number   1
_chemical_formula_structural   La2Y3ErCoI10
_chemical_formula_sum   'La2 Y3 Er1 Co1 I10'
_cell_volume   684.78746665
_cell_formula_units_Z   1
loop_
 _symmetry_equiv_pos_site_id
 _symmetry_equiv_pos_as_xyz
  1  'x, y, z'
loop_
 _atom_site_type_symbol
 _atom_site_label
 _atom_site_symmetry_multiplicity
 _atom_site_fract_x
 _atom_site_fract_y
 _atom_site_fract_z
 _atom_site_occupancy
  La  La0  1  0.886359  0.957353  0.229204  1
  La  La1  1  0.113454  0.041878  0.770464  1
  Y  Y2  1  0.971795  0.283284  0.085425  1
  Y  Y3  1  0.655211  0.875176  0.838024  1
  Y  Y4  1  0.344887  0.124098  0.161895  1
  Er  Er5  1  0.027627  0.719786  0.915094  1
  Co  Co6  1  0.999862  0.999289  0.999746  1
  I  I7  1  0.654685  0.553445  0.732051  1
  I  I8  1  0.348263  0.446636  0.268947  1
  I  I9  1  0.730267  0.910308  0.542018  1
  I  I10  1  0.269402  0.089649  0.458057  1
  I  I11  1  0.081916  0.379720  0.824078  1
  I  I12  1  0.918580  0.621219  0.174448  1
  I  I13  1  0.443795  0.816469  0.088553  1
  I  I14  1  0.555105  0.182773  0.910575  1
  I  I15  1  0.226037  0.736466  0.659854  1
  I  I16  1  0.772755  0.262451  0.341567  1
