# generated using pymatgen
data_Lu3MgAl2Si2Rh
_symmetry_space_group_name_H-M   'P 1'
_cell_length_a   6.90125100
_cell_length_b   6.82792991
_cell_length_c   4.22505000
_cell_angle_alpha   90.00000000
_cell_angle_beta   90.00000000
_cell_angle_gamma   120.35585913
_symmetry_Int_Tables_number   1
_chemical_formula_structural   Lu3MgAl2Si2Rh
_chemical_formula_sum   'Lu3 Mg1 Al2 Si2 Rh1'
_cell_volume   171.79512730
_cell_formula_units_Z   1
loop_
 _symmetry_equiv_pos_site_id
 _symmetry_equiv_pos_as_xyz
  1  'x, y, z'
loop_
 _atom_site_type_symbol
 _atom_site_label
 _atom_site_symmetry_multiplicity
 _atom_site_fract_x
 _atom_site_fract_y
 _atom_site_fract_z
 _atom_site_occupancy
  Lu  Lu0  1  0.414865  0.000000  0.000000  1
  Lu  Lu1  1  0.998864  0.418222  0.000000  1
  Lu  Lu2  1  0.580643  0.581779  0.000000  1
  Mg  Mg3  1  0.761965  0.000000  0.500001  1
  Al  Al4  1  0.237304  0.237131  0.500001  1
  Al  Al5  1  0.000173  0.762869  0.500001  1
  Si  Si6  1  0.663829  0.339322  0.500001  1
  Si  Si7  1  0.324508  0.660678  0.500001  1
  Rh  Rh8  1  0.017848  0.000000  0.000000  1
