# generated using pymatgen
data_NdPu(NbN2)2
_symmetry_space_group_name_H-M   'P 1'
_cell_length_a   3.35249700
_cell_length_b   5.75040923
_cell_length_c   11.04096040
_cell_angle_alpha   90.19570636
_cell_angle_beta   90.00000000
_cell_angle_gamma   90.00000000
_symmetry_Int_Tables_number   1
_chemical_formula_structural   NdPu(NbN2)2
_chemical_formula_sum   'Nd2 Pu2 Nb4 N8'
_cell_volume   212.84892904
_cell_formula_units_Z   2
loop_
 _symmetry_equiv_pos_site_id
 _symmetry_equiv_pos_as_xyz
  1  'x, y, z'
loop_
 _atom_site_type_symbol
 _atom_site_label
 _atom_site_symmetry_multiplicity
 _atom_site_fract_x
 _atom_site_fract_y
 _atom_site_fract_z
 _atom_site_occupancy
  Nd  Nd0  1  0.750000  0.916155  0.357200  1
  Nd  Nd1  1  0.250000  0.083845  0.642800  1
  Pu  Pu2  1  0.250000  0.579659  0.861490  1
  Pu  Pu3  1  0.750000  0.420341  0.138510  1
  Nb  Nb4  1  0.250000  0.919180  0.101433  1
  Nb  Nb5  1  0.750000  0.080820  0.898567  1
  Nb  Nb6  1  0.750000  0.581476  0.606928  1
  Nb  Nb7  1  0.250000  0.418524  0.393072  1
  N  N8  1  0.250000  0.651698  0.240599  1
  N  N9  1  0.750000  0.348302  0.759401  1
  N  N10  1  0.750000  0.834062  0.751208  1
  N  N11  1  0.250000  0.165938  0.248792  1
  N  N12  1  0.250000  0.733878  0.510606  1
  N  N13  1  0.750000  0.266122  0.489394  1
  N  N14  1  0.750000  0.749131  0.008788  1
  N  N15  1  0.250000  0.250869  0.991212  1
