# generated using pymatgen
data_Sc6Nb4Co8Si19Ge
_symmetry_space_group_name_H-M   'P 1'
_cell_length_a   11.93917873
_cell_length_b   11.93917980
_cell_length_c   3.87638600
_cell_angle_alpha   90.00000000
_cell_angle_beta   90.00000000
_cell_angle_gamma   89.94030559
_symmetry_Int_Tables_number   1
_chemical_formula_structural   Sc6Nb4Co8Si19Ge
_chemical_formula_sum   'Sc6 Nb4 Co8 Si19 Ge1'
_cell_volume   552.55527181
_cell_formula_units_Z   1
loop_
 _symmetry_equiv_pos_site_id
 _symmetry_equiv_pos_as_xyz
  1  'x, y, z'
loop_
 _atom_site_type_symbol
 _atom_site_label
 _atom_site_symmetry_multiplicity
 _atom_site_fract_x
 _atom_site_fract_y
 _atom_site_fract_z
 _atom_site_occupancy
  Sc  Sc0  1  0.000192  0.000015  0.000000  1
  Sc  Sc1  1  0.500015  0.500192  0.000000  1
  Sc  Sc2  1  0.886701  0.386701  0.500000  1
  Sc  Sc3  1  0.383345  0.114684  0.500000  1
  Sc  Sc4  1  0.614684  0.883345  0.500000  1
  Sc  Sc5  1  0.113235  0.613235  0.500000  1
  Nb  Nb6  1  0.678494  0.178494  0.500000  1
  Nb  Nb7  1  0.175961  0.323971  0.500000  1
  Nb  Nb8  1  0.823971  0.675961  0.500000  1
  Nb  Nb9  1  0.322872  0.822872  0.500000  1
  Co  Co10  1  0.520908  0.256937  0.000000  1
  Co  Co11  1  0.253189  0.479219  0.000000  1
  Co  Co12  1  0.746715  0.521564  0.000000  1
  Co  Co13  1  0.479065  0.745757  0.000000  1
  Co  Co14  1  0.979219  0.753189  0.000000  1
  Co  Co15  1  0.021564  0.246715  0.000000  1
  Co  Co16  1  0.756937  0.020908  0.000000  1
  Co  Co17  1  0.245757  0.979065  0.000000  1
  Si  Si18  1  0.069049  0.431006  0.000000  1
  Si  Si19  1  0.931006  0.569049  0.000000  1
  Si  Si20  1  0.427960  0.927960  0.000000  1
  Si  Si21  1  0.194579  0.159294  0.000000  1
  Si  Si22  1  0.158761  0.805087  0.000000  1
  Si  Si23  1  0.841801  0.195442  0.000000  1
  Si  Si24  1  0.805916  0.840505  0.000000  1
  Si  Si25  1  0.305087  0.658761  0.000000  1
  Si  Si26  1  0.695442  0.341801  0.000000  1
  Si  Si27  1  0.659294  0.694579  0.000000  1
  Si  Si28  1  0.340505  0.305916  0.000000  1
  Si  Si29  1  0.011407  0.163096  0.500000  1
  Si  Si30  1  0.162351  0.987699  0.500000  1
  Si  Si31  1  0.838453  0.011467  0.500000  1
  Si  Si32  1  0.988663  0.836923  0.500000  1
  Si  Si33  1  0.487699  0.662351  0.500000  1
  Si  Si34  1  0.511467  0.338453  0.500000  1
  Si  Si35  1  0.663096  0.511407  0.500000  1
  Si  Si36  1  0.336923  0.488663  0.500000  1
  Ge  Ge37  1  0.567719  0.067719  0.000000  1
