# generated using pymatgen
data_Nb9SnSe16
_symmetry_space_group_name_H-M   'P 1'
_cell_length_a   7.01457800
_cell_length_b   7.01457872
_cell_length_c   14.18469400
_cell_angle_alpha   90.00000000
_cell_angle_beta   90.00000000
_cell_angle_gamma   120.00000603
_symmetry_Int_Tables_number   1
_chemical_formula_structural   Nb9SnSe16
_chemical_formula_sum   'Nb9 Sn1 Se16'
_cell_volume   604.44072657
_cell_formula_units_Z   1
loop_
 _symmetry_equiv_pos_site_id
 _symmetry_equiv_pos_as_xyz
  1  'x, y, z'
loop_
 _atom_site_type_symbol
 _atom_site_label
 _atom_site_symmetry_multiplicity
 _atom_site_fract_x
 _atom_site_fract_y
 _atom_site_fract_z
 _atom_site_occupancy
  Nb  Nb0  1  0.000000  0.000000  0.266865  1
  Nb  Nb1  1  0.000000  0.000000  0.733135  1
  Nb  Nb2  1  0.506809  0.013619  0.266643  1
  Nb  Nb3  1  0.493191  0.986381  0.733357  1
  Nb  Nb4  1  0.986381  0.493191  0.266643  1
  Nb  Nb5  1  0.013619  0.506809  0.733357  1
  Nb  Nb6  1  0.506809  0.493191  0.266643  1
  Nb  Nb7  1  0.493191  0.506809  0.733357  1
  Nb  Nb8  1  0.000000  0.000000  0.500000  1
  Sn  Sn9  1  0.000000  0.000000  0.000000  1
  Se  Se10  1  0.333333  0.666667  0.612481  1
  Se  Se11  1  0.666667  0.333333  0.387519  1
  Se  Se12  1  0.666667  0.333333  0.144887  1
  Se  Se13  1  0.333333  0.666667  0.855113  1
  Se  Se14  1  0.168849  0.337699  0.149702  1
  Se  Se15  1  0.831151  0.662301  0.850298  1
  Se  Se16  1  0.662301  0.831151  0.149702  1
  Se  Se17  1  0.831979  0.663958  0.616206  1
  Se  Se18  1  0.337699  0.168849  0.850298  1
  Se  Se19  1  0.168021  0.336042  0.383794  1
  Se  Se20  1  0.168849  0.831151  0.149702  1
  Se  Se21  1  0.336042  0.168021  0.616206  1
  Se  Se22  1  0.831151  0.168849  0.850298  1
  Se  Se23  1  0.663958  0.831979  0.383794  1
  Se  Se24  1  0.831979  0.168021  0.616206  1
  Se  Se25  1  0.168021  0.831979  0.383794  1
