# generated using pymatgen
data_K4Zr6AsBr18
_symmetry_space_group_name_H-M   'P 1'
_cell_length_a   10.64105374
_cell_length_b   10.78060512
_cell_length_c   10.87846438
_cell_angle_alpha   118.49917175
_cell_angle_beta   100.22217844
_cell_angle_gamma   103.83046034
_symmetry_Int_Tables_number   1
_chemical_formula_structural   K4Zr6AsBr18
_chemical_formula_sum   'K4 Zr6 As1 Br18'
_cell_volume   1000.85541203
_cell_formula_units_Z   1
loop_
 _symmetry_equiv_pos_site_id
 _symmetry_equiv_pos_as_xyz
  1  'x, y, z'
loop_
 _atom_site_type_symbol
 _atom_site_label
 _atom_site_symmetry_multiplicity
 _atom_site_fract_x
 _atom_site_fract_y
 _atom_site_fract_z
 _atom_site_occupancy
  K  K0  1  0.653417  0.537675  0.227726  1
  K  K1  1  0.346583  0.462325  0.772274  1
  K  K2  1  0.687937  0.225608  0.563618  1
  K  K3  1  0.312063  0.774392  0.436382  1
  Zr  Zr4  1  0.157265  0.058480  0.241035  1
  Zr  Zr5  1  0.842735  0.941520  0.758965  1
  Zr  Zr6  1  0.855696  0.132670  0.139213  1
  Zr  Zr7  1  0.144304  0.867330  0.860787  1
  Zr  Zr8  1  0.151696  0.249766  0.046771  1
  Zr  Zr9  1  0.848304  0.750234  0.953229  1
  As  As10  1  0.000000  0.000000  0.000000  1
  Br  Br11  1  0.008326  0.413197  0.198900  1
  Br  Br12  1  0.991674  0.586803  0.801100  1
  Br  Br13  1  0.331241  0.335785  0.313606  1
  Br  Br14  1  0.668759  0.664215  0.686394  1
  Br  Br15  1  0.323600  0.522164  0.100789  1
  Br  Br16  1  0.676400  0.477836  0.899211  1
  Br  Br17  1  0.004833  0.794183  0.211359  1
  Br  Br18  1  0.995167  0.205817  0.788641  1
  Br  Br19  1  0.702882  0.277374  0.289862  1
  Br  Br20  1  0.297118  0.722626  0.710138  1
  Br  Br21  1  0.318959  0.128192  0.902124  1
  Br  Br22  1  0.681041  0.871808  0.097876  1
  Br  Br23  1  0.015136  0.206346  0.411644  1
  Br  Br24  1  0.984864  0.793654  0.588356  1
  Br  Br25  1  0.322818  0.921137  0.110746  1
  Br  Br26  1  0.677182  0.078863  0.889254  1
  Br  Br27  1  0.334450  0.121396  0.502879  1
  Br  Br28  1  0.665550  0.878604  0.497121  1
