# generated using pymatgen
data_Nd10IrRh5
_symmetry_space_group_name_H-M   'P 1'
_cell_length_a   11.24896118
_cell_length_b   11.24960400
_cell_length_c   6.59737411
_cell_angle_alpha   90.00000000
_cell_angle_beta   89.97929298
_cell_angle_gamma   90.00000000
_symmetry_Int_Tables_number   1
_chemical_formula_structural   Nd10IrRh5
_chemical_formula_sum   'Nd20 Ir2 Rh10'
_cell_volume   834.87361597
_cell_formula_units_Z   2
loop_
 _symmetry_equiv_pos_site_id
 _symmetry_equiv_pos_as_xyz
  1  'x, y, z'
loop_
 _atom_site_type_symbol
 _atom_site_label
 _atom_site_symmetry_multiplicity
 _atom_site_fract_x
 _atom_site_fract_y
 _atom_site_fract_z
 _atom_site_occupancy
  Nd  Nd0  1  0.090690  0.291628  0.116617  1
  Nd  Nd1  1  0.790749  0.408896  0.115804  1
  Nd  Nd2  1  0.208302  0.590647  0.116781  1
  Nd  Nd3  1  0.908943  0.709208  0.115942  1
  Nd  Nd4  1  0.409310  0.791628  0.383383  1
  Nd  Nd5  1  0.591057  0.209208  0.384058  1
  Nd  Nd6  1  0.291698  0.090647  0.383219  1
  Nd  Nd7  1  0.709251  0.908896  0.384196  1
  Nd  Nd8  1  0.410645  0.208980  0.882516  1
  Nd  Nd9  1  0.708681  0.090739  0.882296  1
  Nd  Nd10  1  0.291624  0.909455  0.882800  1
  Nd  Nd11  1  0.591932  0.791871  0.882548  1
  Nd  Nd12  1  0.089355  0.708980  0.617484  1
  Nd  Nd13  1  0.908068  0.291871  0.617452  1
  Nd  Nd14  1  0.208376  0.409455  0.617200  1
  Nd  Nd15  1  0.791319  0.590739  0.617704  1
  Nd  Nd16  1  0.999895  0.999630  0.000249  1
  Nd  Nd17  1  0.500162  0.499882  0.000272  1
  Nd  Nd18  1  0.500105  0.499630  0.499751  1
  Nd  Nd19  1  0.999838  0.999882  0.499728  1
  Ir  Ir20  1  0.846172  0.845990  0.749982  1
  Ir  Ir21  1  0.653828  0.345990  0.750018  1
  Rh  Rh22  1  0.154413  0.845973  0.249787  1
  Rh  Rh23  1  0.345587  0.345973  0.250213  1
  Rh  Rh24  1  0.653480  0.653864  0.249808  1
  Rh  Rh25  1  0.846520  0.153864  0.250192  1
  Rh  Rh26  1  0.346062  0.653731  0.749975  1
  Rh  Rh27  1  0.153938  0.153731  0.750025  1
  Rh  Rh28  1  0.000776  0.499849  0.378691  1
  Rh  Rh29  1  0.499224  0.999849  0.121309  1
  Rh  Rh30  1  0.498878  0.999658  0.620648  1
  Rh  Rh31  1  0.001122  0.499658  0.879352  1
