# generated using pymatgen
data_Li2HoTmPt2
_symmetry_space_group_name_H-M   'P 1'
_cell_length_a   4.00468100
_cell_length_b   6.95273842
_cell_length_c   8.38533600
_cell_angle_alpha   90.86614406
_cell_angle_beta   90.00000000
_cell_angle_gamma   90.00000000
_symmetry_Int_Tables_number   1
_chemical_formula_structural   Li2HoTmPt2
_chemical_formula_sum   'Li4 Ho2 Tm2 Pt4'
_cell_volume   233.45042119
_cell_formula_units_Z   2
loop_
 _symmetry_equiv_pos_site_id
 _symmetry_equiv_pos_as_xyz
  1  'x, y, z'
loop_
 _atom_site_type_symbol
 _atom_site_label
 _atom_site_symmetry_multiplicity
 _atom_site_fract_x
 _atom_site_fract_y
 _atom_site_fract_z
 _atom_site_occupancy
  Li  Li0  1  0.250000  0.125463  0.057826  1
  Li  Li1  1  0.250000  0.625790  0.441697  1
  Li  Li2  1  0.750000  0.876321  0.941927  1
  Li  Li3  1  0.750000  0.374526  0.558176  1
  Ho  Ho4  1  0.750000  0.951394  0.322577  1
  Ho  Ho5  1  0.750000  0.452277  0.177888  1
  Tm  Tm6  1  0.250000  0.047046  0.680239  1
  Tm  Tm7  1  0.250000  0.547247  0.819584  1
  Pt  Pt8  1  0.250000  0.244946  0.375275  1
  Pt  Pt9  1  0.250000  0.745165  0.124870  1
  Pt  Pt10  1  0.750000  0.754567  0.628439  1
  Pt  Pt11  1  0.750000  0.255255  0.871501  1
