# generated using pymatgen
data_Ti8Al7Ga8Ir7
_symmetry_space_group_name_H-M   'P 1'
_cell_length_a   8.67435392
_cell_length_b   8.67142955
_cell_length_c   8.67143060
_cell_angle_alpha   120.27644737
_cell_angle_beta   119.75656923
_cell_angle_gamma   89.96242767
_symmetry_Int_Tables_number   1
_chemical_formula_structural   Ti8Al7Ga8Ir7
_chemical_formula_sum   'Ti8 Al7 Ga8 Ir7'
_cell_volume   461.12664586
_cell_formula_units_Z   1
loop_
 _symmetry_equiv_pos_site_id
 _symmetry_equiv_pos_as_xyz
  1  'x, y, z'
loop_
 _atom_site_type_symbol
 _atom_site_label
 _atom_site_symmetry_multiplicity
 _atom_site_fract_x
 _atom_site_fract_y
 _atom_site_fract_z
 _atom_site_occupancy
  Ti  Ti0  1  0.792764  0.291133  0.076066  1
  Ti  Ti1  1  0.213709  0.289156  0.495350  1
  Ti  Ti2  1  0.204722  0.706352  0.498370  1
  Ti  Ti3  1  0.213709  0.718360  0.924553  1
  Ti  Ti4  1  0.792764  0.716697  0.501629  1
  Ti  Ti5  1  0.783884  0.283878  0.500006  1
  Ti  Ti6  1  0.377056  0.124397  0.746680  1
  Ti  Ti7  1  0.377056  0.630376  0.252659  1
  Al  Al8  1  0.465864  0.654679  0.811184  1
  Al  Al9  1  0.379354  0.122072  0.257283  1
  Al  Al10  1  0.864923  0.121792  0.743130  1
  Al  Al11  1  0.620710  0.876940  0.255433  1
  Al  Al12  1  0.620710  0.365277  0.743770  1
  Al  Al13  1  0.620237  0.877428  0.742808  1
  Al  Al14  1  0.134099  0.877221  0.256879  1
  Ga  Ga15  1  0.997669  0.496403  0.501266  1
  Ga  Ga16  1  0.151505  0.348295  0.196283  1
  Ga  Ga17  1  0.151505  0.955222  0.803212  1
  Ga  Ga18  1  0.149752  0.350975  0.798777  1
  Ga  Ga19  1  0.551573  0.350500  0.201074  1
  Ga  Ga20  1  0.848044  0.649145  0.800064  1
  Ga  Ga21  1  0.848044  0.047981  0.198898  1
  Ga  Ga22  1  0.846065  0.651608  0.194457  1
  Ir  Ir23  1  0.000782  0.001154  0.502158  1
  Ir  Ir24  1  0.497921  0.997761  0.998365  1
  Ir  Ir25  1  0.497940  0.499290  0.998649  1
  Ir  Ir26  1  0.497921  0.499555  0.500160  1
  Ir  Ir27  1  0.000782  0.498622  0.999627  1
  Ir  Ir28  1  0.000413  0.999389  0.001024  1
  Ir  Ir29  1  0.498522  0.998340  0.500182  1
