# generated using pymatgen
data_Sc4Al6FePt
_symmetry_space_group_name_H-M   'P 1'
_cell_length_a   5.30895500
_cell_length_b   5.30895670
_cell_length_c   8.39003200
_cell_angle_alpha   90.00000000
_cell_angle_beta   90.00000000
_cell_angle_gamma   120.00000807
_symmetry_Int_Tables_number   1
_chemical_formula_structural   Sc4Al6FePt
_chemical_formula_sum   'Sc4 Al6 Fe1 Pt1'
_cell_volume   204.79174257
_cell_formula_units_Z   1
loop_
 _symmetry_equiv_pos_site_id
 _symmetry_equiv_pos_as_xyz
  1  'x, y, z'
loop_
 _atom_site_type_symbol
 _atom_site_label
 _atom_site_symmetry_multiplicity
 _atom_site_fract_x
 _atom_site_fract_y
 _atom_site_fract_z
 _atom_site_occupancy
  Sc  Sc0  1  0.333333  0.666667  0.061355  1
  Sc  Sc1  1  0.666667  0.333333  0.550990  1
  Sc  Sc2  1  0.333333  0.666667  0.449010  1
  Sc  Sc3  1  0.666667  0.333333  0.938645  1
  Al  Al4  1  0.834181  0.668362  0.242934  1
  Al  Al5  1  0.165819  0.834181  0.757066  1
  Al  Al6  1  0.668362  0.834181  0.757066  1
  Al  Al7  1  0.331638  0.165819  0.242934  1
  Al  Al8  1  0.834181  0.165819  0.242934  1
  Al  Al9  1  0.165819  0.331638  0.757066  1
  Fe  Fe10  1  0.000000  0.000000  0.000000  1
  Pt  Pt11  1  0.000000  0.000000  0.500000  1
