# generated using pymatgen
data_Tb4Hf3ZrF28
_symmetry_space_group_name_H-M   'P 1'
_cell_length_a   5.71663860
_cell_length_b   9.07543698
_cell_length_c   12.20899400
_cell_angle_alpha   62.36372569
_cell_angle_beta   90.02618914
_cell_angle_gamma   89.98491253
_symmetry_Int_Tables_number   1
_chemical_formula_structural   Tb4Hf3ZrF28
_chemical_formula_sum   'Tb4 Hf3 Zr1 F28'
_cell_volume   561.14836419
_cell_formula_units_Z   1
loop_
 _symmetry_equiv_pos_site_id
 _symmetry_equiv_pos_as_xyz
  1  'x, y, z'
loop_
 _atom_site_type_symbol
 _atom_site_label
 _atom_site_symmetry_multiplicity
 _atom_site_fract_x
 _atom_site_fract_y
 _atom_site_fract_z
 _atom_site_occupancy
  Tb  Tb0  1  0.256073  0.814820  0.265489  1
  Tb  Tb1  1  0.743252  0.184209  0.734279  1
  Tb  Tb2  1  0.757004  0.186261  0.234151  1
  Tb  Tb3  1  0.243026  0.814622  0.765858  1
  Hf  Hf4  1  0.755898  0.725831  0.044196  1
  Hf  Hf5  1  0.244089  0.273784  0.955598  1
  Hf  Hf6  1  0.256988  0.274482  0.455395  1
  Zr  Zr7  1  0.743341  0.726353  0.543881  1
  F  F8  1  0.953305  0.709122  0.416010  1
  F  F9  1  0.040309  0.289056  0.578831  1
  F  F10  1  0.461523  0.289160  0.078597  1
  F  F11  1  0.535873  0.710316  0.922525  1
  F  F12  1  0.488248  0.733421  0.147599  1
  F  F13  1  0.514301  0.265928  0.853770  1
  F  F14  1  0.986564  0.268749  0.352573  1
  F  F15  1  0.024760  0.732278  0.644497  1
  F  F16  1  0.966329  0.746198  0.169420  1
  F  F17  1  0.036458  0.252442  0.829569  1
  F  F18  1  0.464121  0.256728  0.327724  1
  F  F19  1  0.541797  0.745548  0.676035  1
  F  F20  1  0.771435  0.477355  0.139538  1
  F  F21  1  0.227820  0.522200  0.860182  1
  F  F22  1  0.272301  0.523331  0.359932  1
  F  F23  1  0.728943  0.473881  0.641948  1
  F  F24  1  0.954752  0.277840  0.049135  1
  F  F25  1  0.044055  0.721293  0.950257  1
  F  F26  1  0.441749  0.722535  0.453749  1
  F  F27  1  0.546636  0.279464  0.548390  1
  F  F28  1  0.740023  0.978268  0.443127  1
  F  F29  1  0.262133  0.026607  0.556021  1
  F  F30  1  0.241784  0.025846  0.057585  1
  F  F31  1  0.759366  0.973659  0.942457  1
  F  F32  1  0.574274  0.971619  0.235989  1
  F  F33  1  0.423870  0.028174  0.766132  1
  F  F34  1  0.074013  0.027052  0.267726  1
  F  F35  1  0.923582  0.971571  0.731833  1
