# generated using pymatgen
data_Gd5Dy5(SiSn3)2
_symmetry_space_group_name_H-M   'P 1'
_cell_length_a   9.23709200
_cell_length_b   9.23709214
_cell_length_c   6.47330900
_cell_angle_alpha   90.00000000
_cell_angle_beta   90.00000000
_cell_angle_gamma   119.98659244
_symmetry_Int_Tables_number   1
_chemical_formula_structural   Gd5Dy5(SiSn3)2
_chemical_formula_sum   'Gd5 Dy5 Si2 Sn6'
_cell_volume   478.39449535
_cell_formula_units_Z   1
loop_
 _symmetry_equiv_pos_site_id
 _symmetry_equiv_pos_as_xyz
  1  'x, y, z'
loop_
 _atom_site_type_symbol
 _atom_site_label
 _atom_site_symmetry_multiplicity
 _atom_site_fract_x
 _atom_site_fract_y
 _atom_site_fract_z
 _atom_site_occupancy
  Gd  Gd0  1  0.666710  0.333631  0.000037  1
  Gd  Gd1  1  0.333631  0.666710  0.000037  1
  Gd  Gd2  1  0.333631  0.666710  0.499963  1
  Gd  Gd3  1  0.666710  0.333631  0.499963  1
  Gd  Gd4  1  0.746533  0.746533  0.750000  1
  Dy  Dy5  1  0.252123  0.000170  0.750000  1
  Dy  Dy6  1  0.000170  0.252123  0.750000  1
  Dy  Dy7  1  0.251982  0.251982  0.250000  1
  Dy  Dy8  1  0.747891  0.000161  0.250000  1
  Dy  Dy9  1  0.000161  0.747891  0.250000  1
  Si  Si10  1  0.999654  0.999654  0.999795  1
  Si  Si11  1  0.999654  0.999654  0.500205  1
  Sn  Sn12  1  0.389524  0.389524  0.750000  1
  Sn  Sn13  1  0.609618  0.000867  0.750000  1
  Sn  Sn14  1  0.000867  0.609618  0.750000  1
  Sn  Sn15  1  0.610153  0.610153  0.250000  1
  Sn  Sn16  1  0.390556  0.000428  0.250000  1
  Sn  Sn17  1  0.000428  0.390556  0.250000  1
