# generated using pymatgen
data_Tb16Ni3Ag4Ru
_symmetry_space_group_name_H-M   'P 1'
_cell_length_a   9.49709263
_cell_length_b   9.49709290
_cell_length_c   9.49709242
_cell_angle_alpha   59.87538165
_cell_angle_beta   59.87537905
_cell_angle_gamma   59.87537837
_symmetry_Int_Tables_number   1
_chemical_formula_structural   Tb16Ni3Ag4Ru
_chemical_formula_sum   'Tb16 Ni3 Ag4 Ru1'
_cell_volume   603.98652455
_cell_formula_units_Z   1
loop_
 _symmetry_equiv_pos_site_id
 _symmetry_equiv_pos_as_xyz
  1  'x, y, z'
loop_
 _atom_site_type_symbol
 _atom_site_label
 _atom_site_symmetry_multiplicity
 _atom_site_fract_x
 _atom_site_fract_y
 _atom_site_fract_z
 _atom_site_occupancy
  Tb  Tb0  1  0.349130  0.349130  0.349130  1
  Tb  Tb1  1  0.352572  0.352572  0.950053  1
  Tb  Tb2  1  0.352572  0.950053  0.352572  1
  Tb  Tb3  1  0.950053  0.352572  0.352572  1
  Tb  Tb4  1  0.810737  0.187604  0.187604  1
  Tb  Tb5  1  0.187823  0.810355  0.810355  1
  Tb  Tb6  1  0.187604  0.810737  0.187604  1
  Tb  Tb7  1  0.810355  0.187823  0.810355  1
  Tb  Tb8  1  0.187604  0.187604  0.810737  1
  Tb  Tb9  1  0.810355  0.810355  0.187823  1
  Tb  Tb10  1  0.934896  0.564556  0.564556  1
  Tb  Tb11  1  0.560236  0.937127  0.937127  1
  Tb  Tb12  1  0.564556  0.934896  0.564556  1
  Tb  Tb13  1  0.937127  0.560236  0.937127  1
  Tb  Tb14  1  0.564556  0.564556  0.934896  1
  Tb  Tb15  1  0.937127  0.937127  0.560236  1
  Ni  Ni16  1  0.143141  0.143141  0.572662  1
  Ni  Ni17  1  0.143141  0.572662  0.143141  1
  Ni  Ni18  1  0.572662  0.143141  0.143141  1
  Ag  Ag19  1  0.582418  0.582418  0.582418  1
  Ag  Ag20  1  0.581467  0.581467  0.255539  1
  Ag  Ag21  1  0.581467  0.255539  0.581467  1
  Ag  Ag22  1  0.255539  0.581467  0.581467  1
  Ru  Ru23  1  0.142861  0.142861  0.142861  1
