# generated using pymatgen
data_Pr3Cd2Pd3Au
_symmetry_space_group_name_H-M   'P 1'
_cell_length_a   7.72248043
_cell_length_b   7.72247997
_cell_length_c   4.04041100
_cell_angle_alpha   90.00000000
_cell_angle_beta   90.00000000
_cell_angle_gamma   119.09575924
_symmetry_Int_Tables_number   1
_chemical_formula_structural   Pr3Cd2Pd3Au
_chemical_formula_sum   'Pr3 Cd2 Pd3 Au1'
_cell_volume   210.55001490
_cell_formula_units_Z   1
loop_
 _symmetry_equiv_pos_site_id
 _symmetry_equiv_pos_as_xyz
  1  'x, y, z'
loop_
 _atom_site_type_symbol
 _atom_site_label
 _atom_site_symmetry_multiplicity
 _atom_site_fract_x
 _atom_site_fract_y
 _atom_site_fract_z
 _atom_site_occupancy
  Pr  Pr0  1  0.416820  0.416820  0.500000  1
  Pr  Pr1  1  0.987700  0.601696  0.500000  1
  Pr  Pr2  1  0.601696  0.987700  0.500000  1
  Cd  Cd3  1  0.256089  0.003246  0.000000  1
  Cd  Cd4  1  0.003246  0.256089  0.000000  1
  Pd  Pd5  1  0.663397  0.322230  0.000000  1
  Pd  Pd6  1  0.008136  0.008136  0.500000  1
  Pd  Pd7  1  0.322230  0.663397  0.000000  1
  Au  Au8  1  0.740686  0.740686  0.000000  1
