# generated using pymatgen
data_Tm10In8Ir2PdPt
_symmetry_space_group_name_H-M   'P 1'
_cell_length_a   3.58478300
_cell_length_b   8.07778639
_cell_length_c   18.03322923
_cell_angle_alpha   90.02436187
_cell_angle_beta   90.00000000
_cell_angle_gamma   90.00000000
_symmetry_Int_Tables_number   1
_chemical_formula_structural   Tm10In8Ir2PdPt
_chemical_formula_sum   'Tm10 In8 Ir2 Pd1 Pt1'
_cell_volume   522.19017918
_cell_formula_units_Z   1
loop_
 _symmetry_equiv_pos_site_id
 _symmetry_equiv_pos_as_xyz
  1  'x, y, z'
loop_
 _atom_site_type_symbol
 _atom_site_label
 _atom_site_symmetry_multiplicity
 _atom_site_fract_x
 _atom_site_fract_y
 _atom_site_fract_z
 _atom_site_occupancy
  Tm  Tm0  1  0.000000  0.500316  0.500315  1
  Tm  Tm1  1  0.000000  0.999761  0.999822  1
  Tm  Tm2  1  0.000000  0.728734  0.277851  1
  Tm  Tm3  1  0.000000  0.266882  0.722139  1
  Tm  Tm4  1  0.000000  0.752014  0.778469  1
  Tm  Tm5  1  0.000000  0.251709  0.220484  1
  Tm  Tm6  1  0.000000  0.614397  0.086646  1
  Tm  Tm7  1  0.000000  0.385975  0.912889  1
  Tm  Tm8  1  0.000000  0.885118  0.586326  1
  Tm  Tm9  1  0.000000  0.115355  0.414860  1
  In  In10  1  0.500000  0.709143  0.932477  1
  In  In11  1  0.500000  0.290738  0.067390  1
  In  In12  1  0.500000  0.790800  0.432423  1
  In  In13  1  0.500000  0.209740  0.566766  1
  In  In14  1  0.500000  0.576403  0.648015  1
  In  In15  1  0.500000  0.421445  0.352114  1
  In  In16  1  0.500000  0.923236  0.149446  1
  In  In17  1  0.500000  0.077443  0.851523  1
  Ir  Ir18  1  0.500000  0.519572  0.195763  1
  Ir  Ir19  1  0.500000  0.480898  0.803986  1
  Pd  Pd20  1  0.500000  0.019211  0.304066  1
  Pt  Pt21  1  0.500000  0.981108  0.696232  1
