# generated using pymatgen
data_Ho3Zn3IrPdPt
_symmetry_space_group_name_H-M   'P 1'
_cell_length_a   7.22594400
_cell_length_b   7.22594344
_cell_length_c   3.87791800
_cell_angle_alpha   90.00000000
_cell_angle_beta   90.00000000
_cell_angle_gamma   119.99999341
_symmetry_Int_Tables_number   1
_chemical_formula_structural   Ho3Zn3IrPdPt
_chemical_formula_sum   'Ho3 Zn3 Ir1 Pd1 Pt1'
_cell_volume   175.35511213
_cell_formula_units_Z   1
loop_
 _symmetry_equiv_pos_site_id
 _symmetry_equiv_pos_as_xyz
  1  'x, y, z'
loop_
 _atom_site_type_symbol
 _atom_site_label
 _atom_site_symmetry_multiplicity
 _atom_site_fract_x
 _atom_site_fract_y
 _atom_site_fract_z
 _atom_site_occupancy
  Ho  Ho0  1  0.406743  0.414292  0.000000  1
  Ho  Ho1  1  0.585708  0.992451  0.000000  1
  Ho  Ho2  1  0.007549  0.593257  0.000000  1
  Zn  Zn3  1  0.746570  0.749266  0.500000  1
  Zn  Zn4  1  0.250734  0.997305  0.500000  1
  Zn  Zn5  1  0.002695  0.253430  0.500000  1
  Ir  Ir6  1  0.333333  0.666667  0.500000  1
  Pd  Pd7  1  0.000000  0.000000  0.000000  1
  Pt  Pt8  1  0.666667  0.333333  0.500000  1
