# generated using pymatgen
data_Ho10BiPb5S2
_symmetry_space_group_name_H-M   'P 1'
_cell_length_a   9.12307638
_cell_length_b   9.12307685
_cell_length_c   6.64684300
_cell_angle_alpha   90.00000000
_cell_angle_beta   90.00000000
_cell_angle_gamma   120.13553901
_symmetry_Int_Tables_number   1
_chemical_formula_structural   Ho10BiPb5S2
_chemical_formula_sum   'Ho10 Bi1 Pb5 S2'
_cell_volume   478.44709671
_cell_formula_units_Z   1
loop_
 _symmetry_equiv_pos_site_id
 _symmetry_equiv_pos_as_xyz
  1  'x, y, z'
loop_
 _atom_site_type_symbol
 _atom_site_label
 _atom_site_symmetry_multiplicity
 _atom_site_fract_x
 _atom_site_fract_y
 _atom_site_fract_z
 _atom_site_occupancy
  Ho  Ho0  1  0.757554  0.757554  0.750000  1
  Ho  Ho1  1  0.242542  0.997463  0.750000  1
  Ho  Ho2  1  0.997463  0.242542  0.750000  1
  Ho  Ho3  1  0.242996  0.242996  0.250000  1
  Ho  Ho4  1  0.755996  0.999907  0.250000  1
  Ho  Ho5  1  0.999907  0.755996  0.250000  1
  Ho  Ho6  1  0.667874  0.332946  0.000684  1
  Ho  Ho7  1  0.332946  0.667874  0.000684  1
  Ho  Ho8  1  0.332946  0.667874  0.499316  1
  Ho  Ho9  1  0.667874  0.332946  0.499316  1
  Bi  Bi10  1  0.396443  0.396443  0.750000  1
  Pb  Pb11  1  0.603317  0.000170  0.750000  1
  Pb  Pb12  1  0.000170  0.603317  0.750000  1
  Pb  Pb13  1  0.603727  0.603727  0.250000  1
  Pb  Pb14  1  0.396715  0.000221  0.250000  1
  Pb  Pb15  1  0.000221  0.396715  0.250000  1
  S  S16  1  0.000655  0.000655  0.999760  1
  S  S17  1  0.000655  0.000655  0.500240  1
