# generated using pymatgen
data_Dy5Tm(RuBr3)2
_symmetry_space_group_name_H-M   'P 1'
_cell_length_a   4.07755600
_cell_length_b   8.52761110
_cell_length_c   11.90267644
_cell_angle_alpha   87.32540339
_cell_angle_beta   90.00000000
_cell_angle_gamma   90.00000000
_symmetry_Int_Tables_number   1
_chemical_formula_structural   Dy5Tm(RuBr3)2
_chemical_formula_sum   'Dy5 Tm1 Ru2 Br6'
_cell_volume   413.42677279
_cell_formula_units_Z   1
loop_
 _symmetry_equiv_pos_site_id
 _symmetry_equiv_pos_as_xyz
  1  'x, y, z'
loop_
 _atom_site_type_symbol
 _atom_site_label
 _atom_site_symmetry_multiplicity
 _atom_site_fract_x
 _atom_site_fract_y
 _atom_site_fract_z
 _atom_site_occupancy
  Dy  Dy0  1  0.250000  0.273272  0.395754  1
  Dy  Dy1  1  0.750000  0.725384  0.603586  1
  Dy  Dy2  1  0.250000  0.861635  0.362026  1
  Dy  Dy3  1  0.750000  0.137774  0.636452  1
  Dy  Dy4  1  0.250000  0.889618  0.826393  1
  Tm  Tm5  1  0.750000  0.112144  0.176220  1
  Ru  Ru6  1  0.250000  0.941453  0.595088  1
  Ru  Ru7  1  0.750000  0.057714  0.403374  1
  Br  Br8  1  0.250000  0.428326  0.630761  1
  Br  Br9  1  0.750000  0.568606  0.371388  1
  Br  Br10  1  0.250000  0.883865  0.102294  1
  Br  Br11  1  0.750000  0.122909  0.897406  1
  Br  Br12  1  0.250000  0.347391  0.140308  1
  Br  Br13  1  0.750000  0.649905  0.858951  1
