# generated using pymatgen
data_Sm5Ho12Th3Sn16
_symmetry_space_group_name_H-M   'P 1'
_cell_length_a   8.10420834
_cell_length_b   8.23416473
_cell_length_c   15.53095874
_cell_angle_alpha   89.95533776
_cell_angle_beta   90.03075516
_cell_angle_gamma   90.09946528
_symmetry_Int_Tables_number   1
_chemical_formula_structural   Sm5Ho12Th3Sn16
_chemical_formula_sum   'Sm5 Ho12 Th3 Sn16'
_cell_volume   1036.40038486
_cell_formula_units_Z   1
loop_
 _symmetry_equiv_pos_site_id
 _symmetry_equiv_pos_as_xyz
  1  'x, y, z'
loop_
 _atom_site_type_symbol
 _atom_site_label
 _atom_site_symmetry_multiplicity
 _atom_site_fract_x
 _atom_site_fract_y
 _atom_site_fract_z
 _atom_site_occupancy
  Sm  Sm0  1  0.982694  0.822735  0.096635  1
  Sm  Sm1  1  0.480695  0.679172  0.098868  1
  Sm  Sm2  1  0.980130  0.821272  0.402359  1
  Sm  Sm3  1  0.521228  0.321036  0.598366  1
  Sm  Sm4  1  0.021313  0.179160  0.901967  1
  Ho  Ho5  1  0.361753  0.837863  0.876866  1
  Ho  Ho6  1  0.861515  0.661872  0.623310  1
  Ho  Ho7  1  0.639200  0.161791  0.376975  1
  Ho  Ho8  1  0.138531  0.338326  0.123561  1
  Ho  Ho9  1  0.637434  0.164509  0.123379  1
  Ho  Ho10  1  0.137400  0.335325  0.376642  1
  Ho  Ho11  1  0.362299  0.834119  0.623237  1
  Ho  Ho12  1  0.862365  0.665692  0.877064  1
  Ho  Ho13  1  0.192424  0.501479  0.749356  1
  Ho  Ho14  1  0.692900  0.998273  0.750343  1
  Ho  Ho15  1  0.805982  0.497373  0.248862  1
  Ho  Ho16  1  0.306173  0.000788  0.250274  1
  Th  Th17  1  0.516242  0.321443  0.903736  1
  Th  Th18  1  0.016468  0.178381  0.596544  1
  Th  Th19  1  0.483541  0.679945  0.402581  1
  Sn  Sn20  1  0.299578  0.041904  0.041498  1
  Sn  Sn21  1  0.798855  0.459419  0.458693  1
  Sn  Sn22  1  0.700318  0.957849  0.541563  1
  Sn  Sn23  1  0.201221  0.540280  0.958361  1
  Sn  Sn24  1  0.703087  0.965468  0.956998  1
  Sn  Sn25  1  0.203581  0.534816  0.542100  1
  Sn  Sn26  1  0.297578  0.036336  0.458148  1
  Sn  Sn27  1  0.797101  0.462916  0.041589  1
  Sn  Sn28  1  0.559270  0.621831  0.751622  1
  Sn  Sn29  1  0.059030  0.877244  0.748281  1
  Sn  Sn30  1  0.439742  0.377178  0.251921  1
  Sn  Sn31  1  0.940122  0.122330  0.249440  1
  Sn  Sn32  1  0.325864  0.144559  0.748697  1
  Sn  Sn33  1  0.825494  0.355015  0.750984  1
  Sn  Sn34  1  0.676122  0.856071  0.248925  1
  Sn  Sn35  1  0.172749  0.646230  0.250257  1
