# generated using pymatgen
data_Sr6Cr2ReO12
_symmetry_space_group_name_H-M   'P 1'
_cell_length_a   8.81058147
_cell_length_b   8.81058106
_cell_length_c   6.95347590
_cell_angle_alpha   67.76280396
_cell_angle_beta   67.76280689
_cell_angle_gamma   36.85742983
_symmetry_Int_Tables_number   1
_chemical_formula_structural   Sr6Cr2ReO12
_chemical_formula_sum   'Sr6 Cr2 Re1 O12'
_cell_volume   296.89533167
_cell_formula_units_Z   1
loop_
 _symmetry_equiv_pos_site_id
 _symmetry_equiv_pos_as_xyz
  1  'x, y, z'
loop_
 _atom_site_type_symbol
 _atom_site_label
 _atom_site_symmetry_multiplicity
 _atom_site_fract_x
 _atom_site_fract_y
 _atom_site_fract_z
 _atom_site_occupancy
  Sr  Sr0  1  0.871772  0.871772  0.715954  1
  Sr  Sr1  1  0.223316  0.223316  0.709546  1
  Sr  Sr2  1  0.548653  0.548653  0.701437  1
  Sr  Sr3  1  0.451347  0.451347  0.298563  1
  Sr  Sr4  1  0.776684  0.776684  0.290454  1
  Sr  Sr5  1  0.128228  0.128228  0.284046  1
  Cr  Cr6  1  0.667150  0.667150  0.998375  1
  Cr  Cr7  1  0.332850  0.332850  0.001625  1
  Re  Re8  1  0.000000  0.000000  0.000000  1
  O  O9  1  0.948522  0.948522  0.309970  1
  O  O10  1  0.281583  0.281583  0.323117  1
  O  O11  1  0.610695  0.610695  0.322701  1
  O  O12  1  0.389305  0.389305  0.677299  1
  O  O13  1  0.718417  0.718417  0.676883  1
  O  O14  1  0.051478  0.051478  0.690030  1
  O  O15  1  0.500000  0.000000  0.000000  1
  O  O16  1  0.835828  0.325633  0.000402  1
  O  O17  1  0.164172  0.674367  0.999598  1
  O  O18  1  0.000000  0.500000  0.000000  1
  O  O19  1  0.325633  0.835828  0.000402  1
  O  O20  1  0.674367  0.164172  0.999598  1
