# generated using pymatgen
data_KTe7Mo6
_symmetry_space_group_name_H-M   'P 1'
_cell_length_a   10.42807801
_cell_length_b   10.42807878
_cell_length_c   10.42807874
_cell_angle_alpha   59.49312023
_cell_angle_beta   59.49312238
_cell_angle_gamma   59.49312103
_symmetry_Int_Tables_number   1
_chemical_formula_structural   KTe7Mo6
_chemical_formula_sum   'K2 Te14 Mo12'
_cell_volume   792.61472197
_cell_formula_units_Z   2
loop_
 _symmetry_equiv_pos_site_id
 _symmetry_equiv_pos_as_xyz
  1  'x, y, z'
loop_
 _atom_site_type_symbol
 _atom_site_label
 _atom_site_symmetry_multiplicity
 _atom_site_fract_x
 _atom_site_fract_y
 _atom_site_fract_z
 _atom_site_occupancy
  K  K0  1  0.620448  0.620448  0.620448  1
  K  K1  1  0.379553  0.379553  0.379553  1
  Te  Te2  1  0.426382  0.796675  0.166498  1
  Te  Te3  1  0.166498  0.426382  0.796675  1
  Te  Te4  1  0.796675  0.166498  0.426382  1
  Te  Te5  1  0.573618  0.203325  0.833502  1
  Te  Te6  1  0.833502  0.573618  0.203325  1
  Te  Te7  1  0.203325  0.833502  0.573618  1
  Te  Te8  1  0.628244  0.976845  0.253655  1
  Te  Te9  1  0.253655  0.628244  0.976845  1
  Te  Te10  1  0.976845  0.253655  0.628244  1
  Te  Te11  1  0.371756  0.023155  0.746345  1
  Te  Te12  1  0.746345  0.371756  0.023155  1
  Te  Te13  1  0.023155  0.746345  0.371756  1
  Te  Te14  1  0.775492  0.775492  0.775492  1
  Te  Te15  1  0.224508  0.224508  0.224508  1
  Mo  Mo16  1  0.708014  0.882843  0.002008  1
  Mo  Mo17  1  0.002008  0.708014  0.882843  1
  Mo  Mo18  1  0.882843  0.002008  0.708014  1
  Mo  Mo19  1  0.291986  0.117157  0.997992  1
  Mo  Mo20  1  0.997992  0.291986  0.117157  1
  Mo  Mo21  1  0.117157  0.997992  0.291986  1
  Mo  Mo22  1  0.945298  0.811222  0.111062  1
  Mo  Mo23  1  0.111062  0.945298  0.811222  1
  Mo  Mo24  1  0.811222  0.111062  0.945298  1
  Mo  Mo25  1  0.054702  0.188778  0.888938  1
  Mo  Mo26  1  0.888938  0.054702  0.188778  1
  Mo  Mo27  1  0.188778  0.888938  0.054702  1
