# generated using pymatgen
data_Ho3Zn3IrAu2
_symmetry_space_group_name_H-M   'P 1'
_cell_length_a   7.46652000
_cell_length_b   7.46652000
_cell_length_c   3.80274000
_cell_angle_alpha   90.00000000
_cell_angle_beta   90.00000000
_cell_angle_gamma   119.99999232
_symmetry_Int_Tables_number   1
_chemical_formula_structural   Ho3Zn3IrAu2
_chemical_formula_sum   'Ho3 Zn3 Ir1 Au2'
_cell_volume   183.59623203
_cell_formula_units_Z   1
loop_
 _symmetry_equiv_pos_site_id
 _symmetry_equiv_pos_as_xyz
  1  'x, y, z'
loop_
 _atom_site_type_symbol
 _atom_site_label
 _atom_site_symmetry_multiplicity
 _atom_site_fract_x
 _atom_site_fract_y
 _atom_site_fract_z
 _atom_site_occupancy
  Ho  Ho0  1  0.414801  0.396727  0.000000  1
  Ho  Ho1  1  0.603273  0.018075  0.000000  1
  Ho  Ho2  1  0.981925  0.585199  0.000000  1
  Zn  Zn3  1  0.739521  0.732212  0.500000  1
  Zn  Zn4  1  0.267788  0.007309  0.500000  1
  Zn  Zn5  1  0.992691  0.260479  0.500000  1
  Ir  Ir6  1  0.666667  0.333333  0.500000  1
  Au  Au7  1  0.000000  0.000000  0.000000  1
  Au  Au8  1  0.333333  0.666667  0.500000  1
