# generated using pymatgen
data_TaAg4P16W3O52
_symmetry_space_group_name_H-M   'P 1'
_cell_length_a   7.22195337
_cell_length_b   8.27888667
_cell_length_c   17.50307500
_cell_angle_alpha   89.96518190
_cell_angle_beta   89.95357282
_cell_angle_gamma   89.71956432
_symmetry_Int_Tables_number   1
_chemical_formula_structural   TaAg4P16W3O52
_chemical_formula_sum   'Ta1 Ag4 P16 W3 O52'
_cell_volume   1046.49112069
_cell_formula_units_Z   1
loop_
 _symmetry_equiv_pos_site_id
 _symmetry_equiv_pos_as_xyz
  1  'x, y, z'
loop_
 _atom_site_type_symbol
 _atom_site_label
 _atom_site_symmetry_multiplicity
 _atom_site_fract_x
 _atom_site_fract_y
 _atom_site_fract_z
 _atom_site_occupancy
  Ta  Ta0  1  0.231125  0.268144  0.715190  1
  Ag  Ag1  1  0.204215  0.721236  0.480523  1
  Ag  Ag2  1  0.296887  0.280369  0.979553  1
  Ag  Ag3  1  0.701117  0.776104  0.520690  1
  Ag  Ag4  1  0.799394  0.220549  0.021555  1
  P  P5  1  0.064196  0.316478  0.424085  1
  P  P6  1  0.087565  0.893072  0.922282  1
  P  P7  1  0.098437  0.891640  0.661990  1
  P  P8  1  0.100443  0.355610  0.170472  1
  P  P9  1  0.399938  0.644679  0.671415  1
  P  P10  1  0.396652  0.105942  0.162385  1
  P  P11  1  0.414397  0.109080  0.423254  1
  P  P12  1  0.437977  0.685860  0.925321  1
  P  P13  1  0.566271  0.182508  0.575621  1
  P  P14  1  0.587960  0.607069  0.077613  1
  P  P15  1  0.600826  0.607156  0.337435  1
  P  P16  1  0.598868  0.146657  0.830483  1
  P  P17  1  0.897504  0.855330  0.328794  1
  P  P18  1  0.897361  0.393987  0.838285  1
  P  P19  1  0.912655  0.390783  0.576482  1
  P  P20  1  0.937022  0.814986  0.074818  1
  W  W21  1  0.269578  0.728393  0.215247  1
  W  W22  1  0.729828  0.230654  0.283781  1
  W  W23  1  0.770036  0.772185  0.785183  1
  O  O24  1  0.003769  0.779755  0.988346  1
  O  O25  1  0.023006  0.333035  0.646581  1
  O  O26  1  0.079066  0.067926  0.938816  1
  O  O27  1  0.091670  0.373572  0.086418  1
  O  O28  1  0.075517  0.807550  0.286681  1
  O  O29  1  0.077272  0.321887  0.803948  1
  O  O30  1  0.107232  0.771857  0.122775  1
  O  O31  1  0.114016  0.910391  0.578344  1
  O  O32  1  0.131852  0.049728  0.708532  1
  O  O33  1  0.152378  0.475556  0.415054  1
  O  O34  1  0.172619  0.510968  0.213385  1
  O  O35  1  0.203565  0.166869  0.412752  1
  O  O36  1  0.241653  0.220454  0.200991  1
  O  O37  1  0.250792  0.774635  0.700251  1
  O  O38  1  0.298760  0.835214  0.913003  1
  O  O39  1  0.331254  0.486749  0.711147  1
  O  O40  1  0.352324  0.526607  0.912865  1
  O  O41  1  0.364175  0.946001  0.209557  1
  O  O42  1  0.379489  0.085193  0.079077  1
  O  O43  1  0.398702  0.220601  0.626682  1
  O  O44  1  0.414385  0.677655  0.309069  1
  O  O45  1  0.420161  0.633270  0.587242  1
  O  O46  1  0.420851  0.190829  0.786195  1
  O  O47  1  0.422434  0.934307  0.439589  1
  O  O48  1  0.489683  0.660561  0.151188  1
  O  O49  1  0.493811  0.222233  0.490512  1
  O  O50  1  0.500830  0.720600  0.012402  1
  O  O51  1  0.514246  0.166584  0.351031  1
  O  O52  1  0.583407  0.432578  0.060327  1
  O  O53  1  0.579896  0.132838  0.914352  1
  O  O54  1  0.574615  0.696178  0.715205  1
  O  O55  1  0.581125  0.176539  0.191630  1
  O  O56  1  0.609955  0.729313  0.878786  1
  O  O57  1  0.619674  0.583660  0.420535  1
  O  O58  1  0.634492  0.448617  0.289221  1
  O  O59  1  0.655844  0.023724  0.585391  1
  O  O60  1  0.675967  0.991754  0.789154  1
  O  O61  1  0.703686  0.331538  0.589635  1
  O  O62  1  0.738876  0.282457  0.801359  1
  O  O63  1  0.753018  0.723306  0.298997  1
  O  O64  1  0.797992  0.666622  0.087046  1
  O  O65  1  0.825336  0.012604  0.286806  1
  O  O66  1  0.849768  0.974514  0.086603  1
  O  O67  1  0.863606  0.553488  0.791503  1
  O  O68  1  0.888658  0.412383  0.921880  1
  O  O69  1  0.898426  0.276760  0.373531  1
  O  O70  1  0.912190  0.821161  0.691224  1
  O  O71  1  0.910642  0.871489  0.412756  1
  O  O72  1  0.918855  0.309044  0.209937  1
  O  O73  1  0.917489  0.565684  0.560876  1
  O  O74  1  0.990841  0.836904  0.849201  1
  O  O75  1  0.989868  0.277788  0.509151  1
