# generated using pymatgen
data_Sr2DyLu(Si4N7)2
_symmetry_space_group_name_H-M   'P 1'
_cell_length_a   6.03457200
_cell_length_b   6.03457180
_cell_length_c   9.83936100
_cell_angle_alpha   90.00000000
_cell_angle_beta   90.00000000
_cell_angle_gamma   119.99999013
_symmetry_Int_Tables_number   1
_chemical_formula_structural   Sr2DyLu(Si4N7)2
_chemical_formula_sum   'Sr2 Dy1 Lu1 Si8 N14'
_cell_volume   310.30623506
_cell_formula_units_Z   1
loop_
 _symmetry_equiv_pos_site_id
 _symmetry_equiv_pos_as_xyz
  1  'x, y, z'
loop_
 _atom_site_type_symbol
 _atom_site_label
 _atom_site_symmetry_multiplicity
 _atom_site_fract_x
 _atom_site_fract_y
 _atom_site_fract_z
 _atom_site_occupancy
  Sr  Sr0  1  0.666667  0.333333  0.582488  1
  Sr  Sr1  1  0.333333  0.666667  0.079193  1
  Dy  Dy2  1  0.333333  0.666667  0.450150  1
  Lu  Lu3  1  0.666667  0.333333  0.950593  1
  Si  Si4  1  0.173816  0.347630  0.761951  1
  Si  Si5  1  0.825819  0.174181  0.258034  1
  Si  Si6  1  0.348361  0.174181  0.258034  1
  Si  Si7  1  0.652370  0.826184  0.761951  1
  Si  Si8  1  0.173816  0.826184  0.761951  1
  Si  Si9  1  0.825819  0.651639  0.258034  1
  Si  Si10  1  0.000000  0.000000  0.026202  1
  Si  Si11  1  0.000000  0.000000  0.528023  1
  N  N12  1  0.000000  0.000000  0.836731  1
  N  N13  1  0.000000  0.000000  0.335191  1
  N  N14  1  0.845534  0.691067  0.084244  1
  N  N15  1  0.153380  0.846620  0.588433  1
  N  N16  1  0.693240  0.846620  0.588433  1
  N  N17  1  0.308933  0.154466  0.084244  1
  N  N18  1  0.845534  0.154466  0.084244  1
  N  N19  1  0.153380  0.306760  0.588433  1
  N  N20  1  0.489725  0.510275  0.815419  1
  N  N21  1  0.977525  0.488761  0.310943  1
  N  N22  1  0.511239  0.022475  0.310943  1
  N  N23  1  0.489725  0.979453  0.815419  1
  N  N24  1  0.511239  0.488761  0.310943  1
  N  N25  1  0.020547  0.510275  0.815419  1
