# generated using pymatgen
data_Tb5Er3Al4
_symmetry_space_group_name_H-M   'P 1'
_cell_length_a   5.10882400
_cell_length_b   6.54589181
_cell_length_c   9.43313291
_cell_angle_alpha   89.80243288
_cell_angle_beta   90.00000000
_cell_angle_gamma   90.00000000
_symmetry_Int_Tables_number   1
_chemical_formula_structural   Tb5Er3Al4
_chemical_formula_sum   'Tb5 Er3 Al4'
_cell_volume   315.45915511
_cell_formula_units_Z   1
loop_
 _symmetry_equiv_pos_site_id
 _symmetry_equiv_pos_as_xyz
  1  'x, y, z'
loop_
 _atom_site_type_symbol
 _atom_site_label
 _atom_site_symmetry_multiplicity
 _atom_site_fract_x
 _atom_site_fract_y
 _atom_site_fract_z
 _atom_site_occupancy
  Tb  Tb0  1  0.250000  0.808545  0.926328  1
  Tb  Tb1  1  0.250000  0.310163  0.573625  1
  Tb  Tb2  1  0.750000  0.191705  0.071587  1
  Tb  Tb3  1  0.750000  0.689307  0.428499  1
  Tb  Tb4  1  0.250000  0.970479  0.288597  1
  Er  Er5  1  0.250000  0.471186  0.211410  1
  Er  Er6  1  0.750000  0.028562  0.709201  1
  Er  Er7  1  0.750000  0.528761  0.789366  1
  Al  Al8  1  0.250000  0.293422  0.897633  1
  Al  Al9  1  0.250000  0.793012  0.604287  1
  Al  Al10  1  0.750000  0.706461  0.101953  1
  Al  Al11  1  0.750000  0.208398  0.397514  1
