# generated using pymatgen
data_TmCo3As3Rh2
_symmetry_space_group_name_H-M   'P 1'
_cell_length_a   3.82083900
_cell_length_b   10.90676400
_cell_length_c   12.53418300
_cell_angle_alpha   90.00000000
_cell_angle_beta   90.00000000
_cell_angle_gamma   90.00000000
_symmetry_Int_Tables_number   1
_chemical_formula_structural   TmCo3As3Rh2
_chemical_formula_sum   'Tm4 Co12 As12 Rh8'
_cell_volume   522.33687348
_cell_formula_units_Z   4
loop_
 _symmetry_equiv_pos_site_id
 _symmetry_equiv_pos_as_xyz
  1  'x, y, z'
loop_
 _atom_site_type_symbol
 _atom_site_label
 _atom_site_symmetry_multiplicity
 _atom_site_fract_x
 _atom_site_fract_y
 _atom_site_fract_z
 _atom_site_occupancy
  Tm  Tm0  1  0.250000  0.581472  0.707448  1
  Tm  Tm1  1  0.250000  0.918528  0.207448  1
  Tm  Tm2  1  0.750000  0.418528  0.292552  1
  Tm  Tm3  1  0.750000  0.081472  0.792552  1
  Co  Co4  1  0.250000  0.217311  0.178519  1
  Co  Co5  1  0.250000  0.282689  0.678519  1
  Co  Co6  1  0.750000  0.782689  0.821481  1
  Co  Co7  1  0.750000  0.717311  0.321481  1
  Co  Co8  1  0.250000  0.885156  0.695660  1
  Co  Co9  1  0.250000  0.614844  0.195660  1
  Co  Co10  1  0.750000  0.114844  0.304340  1
  Co  Co11  1  0.750000  0.385156  0.804340  1
  Co  Co12  1  0.250000  0.465703  0.930389  1
  Co  Co13  1  0.250000  0.034297  0.430389  1
  Co  Co14  1  0.750000  0.534297  0.069611  1
  Co  Co15  1  0.750000  0.965703  0.569611  1
  As  As16  1  0.250000  0.417165  0.112218  1
  As  As17  1  0.250000  0.082835  0.612218  1
  As  As18  1  0.750000  0.582835  0.887782  1
  As  As19  1  0.750000  0.917165  0.387782  1
  As  As20  1  0.250000  0.272751  0.862788  1
  As  As21  1  0.250000  0.227249  0.362788  1
  As  As22  1  0.750000  0.727249  0.137212  1
  As  As23  1  0.750000  0.772751  0.637212  1
  As  As24  1  0.250000  0.603697  0.379619  1
  As  As25  1  0.250000  0.896303  0.879619  1
  As  As26  1  0.750000  0.396303  0.620381  1
  As  As27  1  0.750000  0.103697  0.120381  1
  Rh  Rh28  1  0.250000  0.710752  0.991180  1
  Rh  Rh29  1  0.250000  0.789248  0.491180  1
  Rh  Rh30  1  0.750000  0.289248  0.008820  1
  Rh  Rh31  1  0.750000  0.210752  0.508820  1
  Rh  Rh32  1  0.250000  0.407580  0.478667  1
  Rh  Rh33  1  0.250000  0.092420  0.978667  1
  Rh  Rh34  1  0.750000  0.592420  0.521333  1
  Rh  Rh35  1  0.750000  0.907580  0.021333  1
