# generated using pymatgen
data_Tm5Co4Si5P7Ru15
_symmetry_space_group_name_H-M   'P 1'
_cell_length_a   12.54302854
_cell_length_b   12.56156285
_cell_length_c   3.85508400
_cell_angle_alpha   90.00000000
_cell_angle_beta   90.00000000
_cell_angle_gamma   120.16336208
_symmetry_Int_Tables_number   1
_chemical_formula_structural   Tm5Co4Si5P7Ru15
_chemical_formula_sum   'Tm5 Co4 Si5 P7 Ru15'
_cell_volume   525.16200215
_cell_formula_units_Z   1
loop_
 _symmetry_equiv_pos_site_id
 _symmetry_equiv_pos_as_xyz
  1  'x, y, z'
loop_
 _atom_site_type_symbol
 _atom_site_label
 _atom_site_symmetry_multiplicity
 _atom_site_fract_x
 _atom_site_fract_y
 _atom_site_fract_z
 _atom_site_occupancy
  Tm  Tm0  1  0.667742  0.334851  0.000000  1
  Tm  Tm1  1  0.333150  0.666090  0.000000  1
  Tm  Tm2  1  0.181117  0.179908  0.500000  1
  Tm  Tm3  1  0.819916  0.002486  0.500000  1
  Tm  Tm4  1  0.997879  0.819338  0.500000  1
  Co  Co5  1  0.723645  0.730078  0.500000  1
  Co  Co6  1  0.275597  0.997427  0.500000  1
  Co  Co7  1  0.005075  0.276131  0.500000  1
  Co  Co8  1  0.001121  0.001047  0.000000  1
  Si  Si9  1  0.375231  0.373368  0.000000  1
  Si  Si10  1  0.624043  0.999517  0.000000  1
  Si  Si11  1  0.000299  0.623149  0.000000  1
  Si  Si12  1  0.843745  0.314696  0.500000  1
  Si  Si13  1  0.684640  0.530763  0.500000  1
  P  P14  1  0.470226  0.158444  0.500000  1
  P  P15  1  0.309196  0.837440  0.500000  1
  P  P16  1  0.527876  0.690757  0.500000  1
  P  P17  1  0.162846  0.471517  0.500000  1
  P  P18  1  0.822674  0.825826  0.000000  1
  P  P19  1  0.175628  0.998373  0.000000  1
  P  P20  1  0.001737  0.177667  0.000000  1
  Ru  Ru21  1  0.822267  0.189490  0.000000  1
  Ru  Ru22  1  0.811657  0.635701  0.000000  1
  Ru  Ru23  1  0.369896  0.174155  0.000000  1
  Ru  Ru24  1  0.190708  0.820358  0.000000  1
  Ru  Ru25  1  0.627383  0.806970  0.000000  1
  Ru  Ru26  1  0.180021  0.371928  0.000000  1
  Ru  Ru27  1  0.566557  0.563915  0.000000  1
  Ru  Ru28  1  0.433729  0.996670  0.000000  1
  Ru  Ru29  1  0.999310  0.433494  0.000000  1
  Ru  Ru30  1  0.636068  0.127634  0.500000  1
  Ru  Ru31  1  0.872864  0.515685  0.500000  1
  Ru  Ru32  1  0.485016  0.355938  0.500000  1
  Ru  Ru33  1  0.130251  0.637025  0.500000  1
  Ru  Ru34  1  0.507150  0.870227  0.500000  1
  Ru  Ru35  1  0.363740  0.491939  0.500000  1
