# generated using pymatgen
data_TbEr2Pa2Ga15
_symmetry_space_group_name_H-M   'P 1'
_cell_length_a   12.41103583
_cell_length_b   12.41103707
_cell_length_c   12.41103600
_cell_angle_alpha   28.68230234
_cell_angle_beta   28.68230147
_cell_angle_gamma   28.68230325
_symmetry_Int_Tables_number   1
_chemical_formula_structural   TbEr2Pa2Ga15
_chemical_formula_sum   'Tb1 Er2 Pa2 Ga15'
_cell_volume   389.32897463
_cell_formula_units_Z   1
loop_
 _symmetry_equiv_pos_site_id
 _symmetry_equiv_pos_as_xyz
  1  'x, y, z'
loop_
 _atom_site_type_symbol
 _atom_site_label
 _atom_site_symmetry_multiplicity
 _atom_site_fract_x
 _atom_site_fract_y
 _atom_site_fract_z
 _atom_site_occupancy
  Tb  Tb0  1  0.000000  0.000000  0.000000  1
  Er  Er1  1  0.400356  0.400356  0.400356  1
  Er  Er2  1  0.599644  0.599644  0.599644  1
  Pa  Pa3  1  0.129979  0.129979  0.129979  1
  Pa  Pa4  1  0.870021  0.870021  0.870021  1
  Ga  Ga5  1  0.435015  0.881123  0.881123  1
  Ga  Ga6  1  0.881123  0.881123  0.435015  1
  Ga  Ga7  1  0.881123  0.435015  0.881123  1
  Ga  Ga8  1  0.118877  0.564985  0.118877  1
  Ga  Ga9  1  0.118877  0.118877  0.564985  1
  Ga  Ga10  1  0.564985  0.118877  0.118877  1
  Ga  Ga11  1  0.130075  0.634887  0.634887  1
  Ga  Ga12  1  0.634887  0.634887  0.130075  1
  Ga  Ga13  1  0.634887  0.130075  0.634887  1
  Ga  Ga14  1  0.365113  0.869925  0.365113  1
  Ga  Ga15  1  0.365113  0.365113  0.869925  1
  Ga  Ga16  1  0.869925  0.365113  0.365113  1
  Ga  Ga17  1  0.500000  0.500000  0.000000  1
  Ga  Ga18  1  0.500000  0.000000  0.500000  1
  Ga  Ga19  1  0.000000  0.500000  0.500000  1
