# generated using pymatgen
data_Be8MoRu3
_symmetry_space_group_name_H-M   'P 1'
_cell_length_a   4.36900600
_cell_length_b   4.36900721
_cell_length_c   7.12193500
_cell_angle_alpha   90.00000000
_cell_angle_beta   90.00000000
_cell_angle_gamma   120.00000602
_symmetry_Int_Tables_number   1
_chemical_formula_structural   Be8MoRu3
_chemical_formula_sum   'Be8 Mo1 Ru3'
_cell_volume   117.73186212
_cell_formula_units_Z   1
loop_
 _symmetry_equiv_pos_site_id
 _symmetry_equiv_pos_as_xyz
  1  'x, y, z'
loop_
 _atom_site_type_symbol
 _atom_site_label
 _atom_site_symmetry_multiplicity
 _atom_site_fract_x
 _atom_site_fract_y
 _atom_site_fract_z
 _atom_site_occupancy
  Be  Be0  1  0.000000  0.000000  0.501609  1
  Be  Be1  1  0.000000  0.000000  0.999818  1
  Be  Be2  1  0.830702  0.169298  0.256080  1
  Be  Be3  1  0.830702  0.661404  0.256080  1
  Be  Be4  1  0.338596  0.169298  0.256080  1
  Be  Be5  1  0.168378  0.831622  0.744198  1
  Be  Be6  1  0.168378  0.336758  0.744198  1
  Be  Be7  1  0.663242  0.831622  0.744198  1
  Mo  Mo8  1  0.333333  0.666667  0.062644  1
  Ru  Ru9  1  0.333333  0.666667  0.427366  1
  Ru  Ru10  1  0.666667  0.333333  0.561157  1
  Ru  Ru11  1  0.666667  0.333333  0.946570  1
