# generated using pymatgen
data_Y2LuIn3Pt2Rh
_symmetry_space_group_name_H-M   'P 1'
_cell_length_a   7.66280276
_cell_length_b   7.66280228
_cell_length_c   3.81375800
_cell_angle_alpha   90.00000000
_cell_angle_beta   90.00000000
_cell_angle_gamma   119.60834230
_symmetry_Int_Tables_number   1
_chemical_formula_structural   Y2LuIn3Pt2Rh
_chemical_formula_sum   'Y2 Lu1 In3 Pt2 Rh1'
_cell_volume   194.69711864
_cell_formula_units_Z   1
loop_
 _symmetry_equiv_pos_site_id
 _symmetry_equiv_pos_as_xyz
  1  'x, y, z'
loop_
 _atom_site_type_symbol
 _atom_site_label
 _atom_site_symmetry_multiplicity
 _atom_site_fract_x
 _atom_site_fract_y
 _atom_site_fract_z
 _atom_site_occupancy
  Y  Y0  1  0.000602  0.596537  0.500000  1
  Y  Y1  1  0.596537  0.000602  0.500000  1
  Lu  Lu2  1  0.402422  0.402422  0.500000  1
  In  In3  1  0.000438  0.259021  0.000000  1
  In  In4  1  0.259021  0.000438  0.000000  1
  In  In5  1  0.741587  0.741587  0.000000  1
  Pt  Pt6  1  0.661238  0.334800  0.000000  1
  Pt  Pt7  1  0.334800  0.661238  0.000000  1
  Rh  Rh8  1  0.003355  0.003355  0.500000  1
