# generated using pymatgen
data_TbDy2Sc3MnBi2
_symmetry_space_group_name_H-M   'P 1'
_cell_length_a   4.28363200
_cell_length_b   7.95480131
_cell_length_c   7.95480100
_cell_angle_alpha   120.00191615
_cell_angle_beta   90.00000000
_cell_angle_gamma   90.00000000
_symmetry_Int_Tables_number   1
_chemical_formula_structural   TbDy2Sc3MnBi2
_chemical_formula_sum   'Tb1 Dy2 Sc3 Mn1 Bi2'
_cell_volume   234.74321939
_cell_formula_units_Z   1
loop_
 _symmetry_equiv_pos_site_id
 _symmetry_equiv_pos_as_xyz
  1  'x, y, z'
loop_
 _atom_site_type_symbol
 _atom_site_label
 _atom_site_symmetry_multiplicity
 _atom_site_fract_x
 _atom_site_fract_y
 _atom_site_fract_z
 _atom_site_occupancy
  Tb  Tb0  1  0.000000  0.389887  0.389887  1
  Dy  Dy1  1  0.000000  0.000061  0.610407  1
  Dy  Dy2  1  0.000000  0.610407  0.000061  1
  Sc  Sc3  1  0.500000  0.776644  0.776644  1
  Sc  Sc4  1  0.500000  0.999766  0.223345  1
  Sc  Sc5  1  0.500000  0.223345  0.999766  1
  Mn  Mn6  1  0.000000  0.999682  0.999682  1
  Bi  Bi7  1  0.500000  0.666931  0.333277  1
  Bi  Bi8  1  0.500000  0.333277  0.666931  1
