# generated using pymatgen
data_VW15
_symmetry_space_group_name_H-M   'P 1'
_cell_length_a   4.49602672
_cell_length_b   4.49602785
_cell_length_c   14.89270769
_cell_angle_alpha   90.00000002
_cell_angle_beta   81.31818018
_cell_angle_gamma   119.99998379
_symmetry_Int_Tables_number   1
_chemical_formula_structural   VW15
_chemical_formula_sum   'V1 W15'
_cell_volume   256.72195737
_cell_formula_units_Z   1
loop_
 _symmetry_equiv_pos_site_id
 _symmetry_equiv_pos_as_xyz
  1  'x, y, z'
loop_
 _atom_site_type_symbol
 _atom_site_label
 _atom_site_symmetry_multiplicity
 _atom_site_fract_x
 _atom_site_fract_y
 _atom_site_fract_z
 _atom_site_occupancy
  V  V0  1  0.875000  0.937500  0.187500  1
  W  W1  1  0.000549  0.500274  0.499177  1
  W  W2  1  0.499819  0.749909  0.750271  1
  W  W3  1  0.998775  0.999389  0.001836  1
  W  W4  1  0.500735  0.250368  0.248897  1
  W  W5  1  0.250181  0.125091  0.624729  1
  W  W6  1  0.749451  0.374726  0.875823  1
  W  W7  1  0.249265  0.624632  0.126103  1
  W  W8  1  0.751225  0.875611  0.373164  1
  W  W9  1  0.375698  0.187849  0.436452  1
  W  W10  1  0.875000  0.437500  0.687500  1
  W  W11  1  0.374302  0.687151  0.938548  1
  W  W12  1  0.625492  0.812747  0.561760  1
  W  W13  1  0.124508  0.062253  0.813240  1
  W  W14  1  0.623887  0.311943  0.064171  1
  W  W15  1  0.126113  0.563057  0.310829  1
