# generated using pymatgen
data_ScTaFe3P7Ru9
_symmetry_space_group_name_H-M   'P 1'
_cell_length_a   9.22865000
_cell_length_b   9.22864920
_cell_length_c   3.79262600
_cell_angle_alpha   90.00000000
_cell_angle_beta   90.00000000
_cell_angle_gamma   119.99999569
_symmetry_Int_Tables_number   1
_chemical_formula_structural   ScTaFe3P7Ru9
_chemical_formula_sum   'Sc1 Ta1 Fe3 P7 Ru9'
_cell_volume   279.73511214
_cell_formula_units_Z   1
loop_
 _symmetry_equiv_pos_site_id
 _symmetry_equiv_pos_as_xyz
  1  'x, y, z'
loop_
 _atom_site_type_symbol
 _atom_site_label
 _atom_site_symmetry_multiplicity
 _atom_site_fract_x
 _atom_site_fract_y
 _atom_site_fract_z
 _atom_site_occupancy
  Sc  Sc0  1  0.333333  0.666667  0.000000  1
  Ta  Ta1  1  0.666667  0.333333  0.500000  1
  Fe  Fe2  1  0.727811  0.886319  0.000000  1
  Fe  Fe3  1  0.113681  0.841492  0.000000  1
  Fe  Fe4  1  0.158508  0.272189  0.000000  1
  P  P5  1  0.598771  0.721917  0.500000  1
  P  P6  1  0.000000  0.000000  0.000000  1
  P  P7  1  0.278083  0.876855  0.500000  1
  P  P8  1  0.123145  0.401229  0.500000  1
  P  P9  1  0.891174  0.584492  0.000000  1
  P  P10  1  0.415508  0.306683  0.000000  1
  P  P11  1  0.693317  0.108826  0.000000  1
  Ru  Ru12  1  0.558495  0.950130  0.500000  1
  Ru  Ru13  1  0.391636  0.441505  0.500000  1
  Ru  Ru14  1  0.912162  0.119492  0.500000  1
  Ru  Ru15  1  0.207330  0.087838  0.500000  1
  Ru  Ru16  1  0.880508  0.792670  0.500000  1
  Ru  Ru17  1  0.429098  0.073242  0.000000  1
  Ru  Ru18  1  0.926758  0.355857  0.000000  1
  Ru  Ru19  1  0.644143  0.570902  0.000000  1
  Ru  Ru20  1  0.049870  0.608364  0.500000  1
