# generated using pymatgen
data_PuZrF7
_symmetry_space_group_name_H-M   'P 1'
_cell_length_a   6.04897200
_cell_length_b   9.22424859
_cell_length_c   12.41159074
_cell_angle_alpha   63.24067744
_cell_angle_beta   90.00000000
_cell_angle_gamma   90.00000000
_symmetry_Int_Tables_number   1
_chemical_formula_structural   PuZrF7
_chemical_formula_sum   'Pu4 Zr4 F28'
_cell_volume   618.36601508
_cell_formula_units_Z   4
loop_
 _symmetry_equiv_pos_site_id
 _symmetry_equiv_pos_as_xyz
  1  'x, y, z'
loop_
 _atom_site_type_symbol
 _atom_site_label
 _atom_site_symmetry_multiplicity
 _atom_site_fract_x
 _atom_site_fract_y
 _atom_site_fract_z
 _atom_site_occupancy
  Pu  Pu0  1  0.742548  0.814778  0.264882  1
  Pu  Pu1  1  0.242548  0.185222  0.235118  1
  Pu  Pu2  1  0.257452  0.185222  0.735118  1
  Pu  Pu3  1  0.757452  0.814778  0.764882  1
  Zr  Zr4  1  0.742858  0.273857  0.455885  1
  Zr  Zr5  1  0.242858  0.726143  0.044115  1
  Zr  Zr6  1  0.257142  0.726143  0.544115  1
  Zr  Zr7  1  0.757142  0.273857  0.955885  1
  F  F8  1  0.459928  0.712658  0.923922  1
  F  F9  1  0.959928  0.287342  0.576078  1
  F  F10  1  0.540072  0.287342  0.076078  1
  F  F11  1  0.040072  0.712658  0.423922  1
  F  F12  1  0.463125  0.284002  0.545713  1
  F  F13  1  0.963125  0.715998  0.954287  1
  F  F14  1  0.536875  0.715998  0.454287  1
  F  F15  1  0.036875  0.284002  0.045713  1
  F  F16  1  0.768414  0.519916  0.859068  1
  F  F17  1  0.268414  0.480084  0.640932  1
  F  F18  1  0.231586  0.480084  0.140932  1
  F  F19  1  0.731586  0.519916  0.359068  1
  F  F20  1  0.759888  0.026616  0.055593  1
  F  F21  1  0.259888  0.973384  0.444407  1
  F  F22  1  0.240112  0.973384  0.944407  1
  F  F23  1  0.740112  0.026616  0.555593  1
  F  F24  1  0.993306  0.735773  0.644105  1
  F  F25  1  0.493306  0.264227  0.855895  1
  F  F26  1  0.006694  0.264227  0.355895  1
  F  F27  1  0.506694  0.735773  0.144105  1
  F  F28  1  0.042556  0.744221  0.172052  1
  F  F29  1  0.542556  0.255779  0.327948  1
  F  F30  1  0.957444  0.255779  0.827948  1
  F  F31  1  0.457444  0.744221  0.672052  1
  F  F32  1  0.428174  0.967925  0.238848  1
  F  F33  1  0.928174  0.032075  0.261152  1
  F  F34  1  0.571826  0.032075  0.761152  1
  F  F35  1  0.071826  0.967925  0.738848  1
