# generated using pymatgen
data_CeSm7(Tm3Sn4)4
_symmetry_space_group_name_H-M   'P 1'
_cell_length_a   8.02525180
_cell_length_b   8.21898813
_cell_length_c   15.50066600
_cell_angle_alpha   89.97027503
_cell_angle_beta   89.21313078
_cell_angle_gamma   90.48501555
_symmetry_Int_Tables_number   1
_chemical_formula_structural   CeSm7(Tm3Sn4)4
_chemical_formula_sum   'Ce1 Sm7 Tm12 Sn16'
_cell_volume   1022.28214261
_cell_formula_units_Z   1
loop_
 _symmetry_equiv_pos_site_id
 _symmetry_equiv_pos_as_xyz
  1  'x, y, z'
loop_
 _atom_site_type_symbol
 _atom_site_label
 _atom_site_symmetry_multiplicity
 _atom_site_fract_x
 _atom_site_fract_y
 _atom_site_fract_z
 _atom_site_occupancy
  Ce  Ce0  1  0.510553  0.322211  0.906687  1
  Sm  Sm1  1  0.014345  0.178180  0.596640  1
  Sm  Sm2  1  0.485483  0.679205  0.402841  1
  Sm  Sm3  1  0.988261  0.823013  0.095956  1
  Sm  Sm4  1  0.489591  0.678099  0.095823  1
  Sm  Sm5  1  0.985478  0.821850  0.402546  1
  Sm  Sm6  1  0.513987  0.320001  0.596739  1
  Sm  Sm7  1  0.013160  0.176702  0.904223  1
  Tm  Tm8  1  0.352291  0.835803  0.876179  1
  Tm  Tm9  1  0.857421  0.662515  0.623914  1
  Tm  Tm10  1  0.642291  0.162398  0.376391  1
  Tm  Tm11  1  0.146393  0.334939  0.125061  1
  Tm  Tm12  1  0.647145  0.164693  0.123793  1
  Tm  Tm13  1  0.141421  0.336944  0.375717  1
  Tm  Tm14  1  0.358211  0.837215  0.623279  1
  Tm  Tm15  1  0.853484  0.666053  0.875398  1
  Tm  Tm16  1  0.187403  0.503493  0.748672  1
  Tm  Tm17  1  0.688018  0.997182  0.748990  1
  Tm  Tm18  1  0.812475  0.497192  0.250797  1
  Tm  Tm19  1  0.311576  0.002601  0.250625  1
  Sn  Sn20  1  0.308996  0.041423  0.041231  1
  Sn  Sn21  1  0.802951  0.460150  0.458198  1
  Sn  Sn22  1  0.698241  0.958124  0.541284  1
  Sn  Sn23  1  0.189473  0.539076  0.958549  1
  Sn  Sn24  1  0.691109  0.960565  0.957983  1
  Sn  Sn25  1  0.197027  0.539459  0.541606  1
  Sn  Sn26  1  0.301803  0.041204  0.458244  1
  Sn  Sn27  1  0.811852  0.460401  0.041265  1
  Sn  Sn28  1  0.551957  0.621180  0.751361  1
  Sn  Sn29  1  0.053435  0.878618  0.749541  1
  Sn  Sn30  1  0.447569  0.377111  0.249738  1
  Sn  Sn31  1  0.946077  0.121799  0.249956  1
  Sn  Sn32  1  0.321699  0.146932  0.751977  1
  Sn  Sn33  1  0.820637  0.353389  0.751695  1
  Sn  Sn34  1  0.678826  0.853928  0.248562  1
  Sn  Sn35  1  0.179364  0.646349  0.248538  1
