# generated using pymatgen
data_Pr2Rh2O7
_symmetry_space_group_name_H-M   'P 1'
_cell_length_a   7.42511283
_cell_length_b   7.42511390
_cell_length_c   7.42511300
_cell_angle_alpha   59.99999957
_cell_angle_beta   59.99999479
_cell_angle_gamma   59.99999616
_symmetry_Int_Tables_number   1
_chemical_formula_structural   Pr2Rh2O7
_chemical_formula_sum   'Pr4 Rh4 O14'
_cell_volume   289.46377146
_cell_formula_units_Z   2
loop_
 _symmetry_equiv_pos_site_id
 _symmetry_equiv_pos_as_xyz
  1  'x, y, z'
loop_
 _atom_site_type_symbol
 _atom_site_label
 _atom_site_symmetry_multiplicity
 _atom_site_fract_x
 _atom_site_fract_y
 _atom_site_fract_z
 _atom_site_occupancy
  Pr  Pr0  1  0.125000  0.125000  0.125000  1
  Pr  Pr1  1  0.125000  0.625000  0.125000  1
  Pr  Pr2  1  0.625000  0.125000  0.125000  1
  Pr  Pr3  1  0.125000  0.125000  0.625000  1
  Rh  Rh4  1  0.625000  0.625000  0.625000  1
  Rh  Rh5  1  0.625000  0.625000  0.125000  1
  Rh  Rh6  1  0.125000  0.625000  0.625000  1
  Rh  Rh7  1  0.625000  0.125000  0.625000  1
  O  O8  1  0.250000  0.250000  0.250000  1
  O  O9  1  0.294362  0.705638  0.294362  1
  O  O10  1  0.955638  0.955638  0.544362  1
  O  O11  1  0.544362  0.955638  0.544362  1
  O  O12  1  0.705638  0.705638  0.294362  1
  O  O13  1  0.955638  0.544362  0.544362  1
  O  O14  1  0.705638  0.294362  0.705638  1
  O  O15  1  0.294362  0.294362  0.705638  1
  O  O16  1  0.705638  0.294362  0.294362  1
  O  O17  1  0.294362  0.705638  0.705638  1
  O  O18  1  0.955638  0.544362  0.955638  1
  O  O19  1  0.544362  0.544362  0.955638  1
  O  O20  1  0.000000  0.000000  0.000000  1
  O  O21  1  0.544362  0.955638  0.955638  1
