# generated using pymatgen
data_Tb4Sc16Bi11Pb
_symmetry_space_group_name_H-M   'P 1'
_cell_length_a   7.89535914
_cell_length_b   9.06939162
_cell_length_c   11.58169377
_cell_angle_alpha   90.03920481
_cell_angle_beta   89.98597528
_cell_angle_gamma   89.98406610
_symmetry_Int_Tables_number   1
_chemical_formula_structural   Tb4Sc16Bi11Pb
_chemical_formula_sum   'Tb4 Sc16 Bi11 Pb1'
_cell_volume   829.31971675
_cell_formula_units_Z   1
loop_
 _symmetry_equiv_pos_site_id
 _symmetry_equiv_pos_as_xyz
  1  'x, y, z'
loop_
 _atom_site_type_symbol
 _atom_site_label
 _atom_site_symmetry_multiplicity
 _atom_site_fract_x
 _atom_site_fract_y
 _atom_site_fract_z
 _atom_site_occupancy
  Tb  Tb0  1  0.316560  0.249748  0.219477  1
  Tb  Tb1  1  0.814319  0.248800  0.281182  1
  Tb  Tb2  1  0.684301  0.749998  0.781048  1
  Tb  Tb3  1  0.184233  0.750198  0.719193  1
  Sc  Sc4  1  0.349507  0.751255  0.221596  1
  Sc  Sc5  1  0.846884  0.750980  0.279232  1
  Sc  Sc6  1  0.651864  0.249936  0.779315  1
  Sc  Sc7  1  0.151835  0.249775  0.720831  1
  Sc  Sc8  1  0.693258  0.566733  0.062274  1
  Sc  Sc9  1  0.194919  0.932735  0.437214  1
  Sc  Sc10  1  0.306567  0.067459  0.937382  1
  Sc  Sc11  1  0.807089  0.432884  0.562717  1
  Sc  Sc12  1  0.306745  0.432631  0.937302  1
  Sc  Sc13  1  0.805899  0.067466  0.562403  1
  Sc  Sc14  1  0.693293  0.932931  0.063343  1
  Sc  Sc15  1  0.193010  0.566883  0.437626  1
  Sc  Sc16  1  0.483181  0.248435  0.487823  1
  Sc  Sc17  1  0.981946  0.250044  0.010940  1
  Sc  Sc18  1  0.517954  0.750759  0.510297  1
  Sc  Sc19  1  0.018201  0.749911  0.988850  1
  Bi  Bi20  1  0.402538  0.749899  0.967509  1
  Bi  Bi21  1  0.902500  0.750033  0.532503  1
  Bi  Bi22  1  0.597630  0.250095  0.032504  1
  Bi  Bi23  1  0.097476  0.250079  0.467320  1
  Bi  Bi24  1  0.063566  0.510619  0.171346  1
  Bi  Bi25  1  0.436264  0.489224  0.671325  1
  Bi  Bi26  1  0.936359  0.010784  0.828614  1
  Bi  Bi27  1  0.436459  0.010782  0.671492  1
  Bi  Bi28  1  0.936208  0.489228  0.828667  1
  Bi  Bi29  1  0.563422  0.510431  0.328795  1
  Bi  Bi30  1  0.063275  0.989364  0.171175  1
  Pb  Pb31  1  0.562739  0.989904  0.328707  1
