# generated using pymatgen
data_Hf18Re8RuPt
_symmetry_space_group_name_H-M   'P 1'
_cell_length_a   8.64397500
_cell_length_b   8.64397530
_cell_length_c   8.55982600
_cell_angle_alpha   90.00000000
_cell_angle_beta   90.00000000
_cell_angle_gamma   120.00000267
_symmetry_Int_Tables_number   1
_chemical_formula_structural   Hf18Re8RuPt
_chemical_formula_sum   'Hf18 Re8 Ru1 Pt1'
_cell_volume   553.88879059
_cell_formula_units_Z   1
loop_
 _symmetry_equiv_pos_site_id
 _symmetry_equiv_pos_as_xyz
  1  'x, y, z'
loop_
 _atom_site_type_symbol
 _atom_site_label
 _atom_site_symmetry_multiplicity
 _atom_site_fract_x
 _atom_site_fract_y
 _atom_site_fract_z
 _atom_site_occupancy
  Hf  Hf0  1  0.197395  0.802605  0.444914  1
  Hf  Hf1  1  0.197395  0.394790  0.444914  1
  Hf  Hf2  1  0.605210  0.802605  0.444914  1
  Hf  Hf3  1  0.806400  0.193600  0.553010  1
  Hf  Hf4  1  0.806400  0.612799  0.553010  1
  Hf  Hf5  1  0.387201  0.193600  0.553010  1
  Hf  Hf6  1  0.806400  0.193600  0.946990  1
  Hf  Hf7  1  0.806400  0.612799  0.946990  1
  Hf  Hf8  1  0.387201  0.193600  0.946990  1
  Hf  Hf9  1  0.197395  0.802605  0.055086  1
  Hf  Hf10  1  0.197395  0.394790  0.055086  1
  Hf  Hf11  1  0.605210  0.802605  0.055086  1
  Hf  Hf12  1  0.542186  0.457814  0.250000  1
  Hf  Hf13  1  0.542186  0.084374  0.250000  1
  Hf  Hf14  1  0.915626  0.457814  0.250000  1
  Hf  Hf15  1  0.457687  0.542313  0.750000  1
  Hf  Hf16  1  0.457687  0.915373  0.750000  1
  Hf  Hf17  1  0.084627  0.542313  0.750000  1
  Re  Re18  1  0.890103  0.109897  0.250000  1
  Re  Re19  1  0.890103  0.780205  0.250000  1
  Re  Re20  1  0.219795  0.109897  0.250000  1
  Re  Re21  1  0.110439  0.889561  0.750000  1
  Re  Re22  1  0.110439  0.220878  0.750000  1
  Re  Re23  1  0.779122  0.889561  0.750000  1
  Re  Re24  1  0.000000  0.000000  0.500158  1
  Re  Re25  1  0.000000  0.000000  0.999842  1
  Ru  Ru26  1  0.333333  0.666667  0.250000  1
  Pt  Pt27  1  0.666667  0.333333  0.750000  1
