# generated using pymatgen
data_La18Tb2Si15Pt
_symmetry_space_group_name_H-M   'P 1'
_cell_length_a   8.03268861
_cell_length_b   8.04762271
_cell_length_c   15.30335100
_cell_angle_alpha   90.30810889
_cell_angle_beta   89.38641535
_cell_angle_gamma   89.98637007
_symmetry_Int_Tables_number   1
_chemical_formula_structural   La18Tb2Si15Pt
_chemical_formula_sum   'La18 Tb2 Si15 Pt1'
_cell_volume   989.19947290
_cell_formula_units_Z   1
loop_
 _symmetry_equiv_pos_site_id
 _symmetry_equiv_pos_as_xyz
  1  'x, y, z'
loop_
 _atom_site_type_symbol
 _atom_site_label
 _atom_site_symmetry_multiplicity
 _atom_site_fract_x
 _atom_site_fract_y
 _atom_site_fract_z
 _atom_site_occupancy
  La  La0  1  0.979198  0.130344  0.129366  1
  La  La1  1  0.028489  0.870701  0.618341  1
  La  La2  1  0.627216  0.519439  0.873588  1
  La  La3  1  0.485713  0.377380  0.623071  1
  La  La4  1  0.512785  0.624487  0.130000  1
  La  La5  1  0.126303  0.978742  0.876585  1
  La  La6  1  0.989650  0.620597  0.056769  1
  La  La7  1  0.019271  0.366769  0.541804  1
  La  La8  1  0.622078  0.987398  0.949408  1
  La  La9  1  0.121625  0.507757  0.801768  1
  La  La10  1  0.867965  0.481821  0.299179  1
  La  La11  1  0.505559  0.121921  0.201629  1
  La  La12  1  0.495040  0.878589  0.695309  1
  La  La13  1  0.384118  0.023249  0.451891  1
  La  La14  1  0.705924  0.694721  0.496195  1
  La  La15  1  0.813149  0.190846  0.747667  1
  La  La16  1  0.181882  0.801879  0.263411  1
  La  La17  1  0.300925  0.305911  0.001409  1
  Tb  Tb18  1  0.376894  0.480361  0.375105  1
  Tb  Tb19  1  0.861062  0.020441  0.371442  1
  Si  Si20  1  0.918254  0.288735  0.941028  1
  Si  Si21  1  0.716186  0.083919  0.555053  1
  Si  Si22  1  0.214300  0.417032  0.197993  1
  Si  Si23  1  0.795718  0.578110  0.687870  1
  Si  Si24  1  0.423159  0.208892  0.808189  1
  Si  Si25  1  0.572791  0.789844  0.311903  1
  Si  Si26  1  0.286867  0.921531  0.063171  1
  Si  Si27  1  0.832592  0.804482  0.795044  1
  Si  Si28  1  0.160908  0.203307  0.311154  1
  Si  Si29  1  0.796430  0.835459  0.203331  1
  Si  Si30  1  0.313398  0.668891  0.538316  1
  Si  Si31  1  0.694035  0.331275  0.048786  1
  Si  Si32  1  0.667859  0.303632  0.445611  1
  Si  Si33  1  0.328948  0.694526  0.956159  1
  Si  Si34  1  0.202282  0.167913  0.698278  1
  Pt  Pt35  1  0.071425  0.719101  0.434174  1
