# generated using pymatgen
data_La2Tb3Si4
_symmetry_space_group_name_H-M   'P 1'
_cell_length_a   7.81508600
_cell_length_b   7.81508600
_cell_length_c   14.85076600
_cell_angle_alpha   90.00000000
_cell_angle_beta   90.00000000
_cell_angle_gamma   90.00000000
_symmetry_Int_Tables_number   1
_chemical_formula_structural   La2Tb3Si4
_chemical_formula_sum   'La8 Tb12 Si16'
_cell_volume   907.01898632
_cell_formula_units_Z   4
loop_
 _symmetry_equiv_pos_site_id
 _symmetry_equiv_pos_as_xyz
  1  'x, y, z'
loop_
 _atom_site_type_symbol
 _atom_site_label
 _atom_site_symmetry_multiplicity
 _atom_site_fract_x
 _atom_site_fract_y
 _atom_site_fract_z
 _atom_site_occupancy
  La  La0  1  0.985946  0.629202  0.048179  1
  La  La1  1  0.014054  0.370798  0.548179  1
  La  La2  1  0.629202  0.985946  0.951821  1
  La  La3  1  0.129202  0.514054  0.798179  1
  La  La4  1  0.870798  0.485946  0.298179  1
  La  La5  1  0.514054  0.129202  0.201821  1
  La  La6  1  0.485946  0.870798  0.701821  1
  La  La7  1  0.370798  0.014054  0.451821  1
  Tb  Tb8  1  0.368469  0.485200  0.373745  1
  Tb  Tb9  1  0.868469  0.014800  0.376255  1
  Tb  Tb10  1  0.985200  0.131531  0.123745  1
  Tb  Tb11  1  0.014800  0.868469  0.623745  1
  Tb  Tb12  1  0.631531  0.514800  0.873745  1
  Tb  Tb13  1  0.485200  0.368469  0.626255  1
  Tb  Tb14  1  0.514800  0.631531  0.126255  1
  Tb  Tb15  1  0.131531  0.985200  0.876255  1
  Tb  Tb16  1  0.687908  0.687908  0.500000  1
  Tb  Tb17  1  0.812092  0.187908  0.750000  1
  Tb  Tb18  1  0.187908  0.812092  0.250000  1
  Tb  Tb19  1  0.312092  0.312092  0.000000  1
  Si  Si20  1  0.074646  0.716269  0.437763  1
  Si  Si21  1  0.925354  0.283731  0.937763  1
  Si  Si22  1  0.716269  0.074646  0.562237  1
  Si  Si23  1  0.216270  0.425354  0.187763  1
  Si  Si24  1  0.783731  0.574646  0.687763  1
  Si  Si25  1  0.425354  0.216270  0.812237  1
  Si  Si26  1  0.574646  0.783731  0.312237  1
  Si  Si27  1  0.283731  0.925354  0.062237  1
  Si  Si28  1  0.835886  0.805094  0.800469  1
  Si  Si29  1  0.164114  0.194906  0.300469  1
  Si  Si30  1  0.805094  0.835886  0.199531  1
  Si  Si31  1  0.305094  0.664114  0.550469  1
  Si  Si32  1  0.694906  0.335886  0.050469  1
  Si  Si33  1  0.664114  0.305094  0.449531  1
  Si  Si34  1  0.335886  0.694906  0.949531  1
  Si  Si35  1  0.194906  0.164114  0.699531  1
