# generated using pymatgen
data_Dy4Y4Re3B24Ru
_symmetry_space_group_name_H-M   'P 1'
_cell_length_a   3.68279700
_cell_length_b   9.17868683
_cell_length_c   11.57161880
_cell_angle_alpha   89.89546434
_cell_angle_beta   90.00000000
_cell_angle_gamma   90.00000000
_symmetry_Int_Tables_number   1
_chemical_formula_structural   Dy4Y4Re3B24Ru
_chemical_formula_sum   'Dy4 Y4 Re3 B24 Ru1'
_cell_volume   391.15756021
_cell_formula_units_Z   1
loop_
 _symmetry_equiv_pos_site_id
 _symmetry_equiv_pos_as_xyz
  1  'x, y, z'
loop_
 _atom_site_type_symbol
 _atom_site_label
 _atom_site_symmetry_multiplicity
 _atom_site_fract_x
 _atom_site_fract_y
 _atom_site_fract_z
 _atom_site_occupancy
  Dy  Dy0  1  0.000000  0.943331  0.371146  1
  Dy  Dy1  1  0.000000  0.056599  0.630569  1
  Dy  Dy2  1  0.000000  0.443816  0.129196  1
  Dy  Dy3  1  0.000000  0.558192  0.869682  1
  Y  Y4  1  0.000000  0.323405  0.413674  1
  Y  Y5  1  0.000000  0.675013  0.584238  1
  Y  Y6  1  0.000000  0.822905  0.087712  1
  Y  Y7  1  0.000000  0.177941  0.914062  1
  Re  Re8  1  0.000000  0.638433  0.320718  1
  Re  Re9  1  0.000000  0.361610  0.679691  1
  Re  Re10  1  0.000000  0.137945  0.178152  1
  B  B11  1  0.500000  0.552964  0.432601  1
  B  B12  1  0.500000  0.446606  0.567027  1
  B  B13  1  0.500000  0.052860  0.066892  1
  B  B14  1  0.500000  0.945974  0.932503  1
  B  B15  1  0.500000  0.748374  0.418811  1
  B  B16  1  0.500000  0.250900  0.581463  1
  B  B17  1  0.500000  0.249039  0.081103  1
  B  B18  1  0.500000  0.751911  0.918484  1
  B  B19  1  0.500000  0.792067  0.266219  1
  B  B20  1  0.500000  0.208295  0.734659  1
  B  B21  1  0.500000  0.291879  0.233840  1
  B  B22  1  0.500000  0.709195  0.765774  1
  B  B23  1  0.500000  0.631533  0.185869  1
  B  B24  1  0.500000  0.368960  0.814583  1
  B  B25  1  0.500000  0.130799  0.313698  1
  B  B26  1  0.500000  0.868240  0.686099  1
  B  B27  1  0.500000  0.982271  0.212220  1
  B  B28  1  0.500000  0.015919  0.788137  1
  B  B29  1  0.500000  0.482830  0.287477  1
  B  B30  1  0.500000  0.517094  0.711908  1
  B  B31  1  0.500000  0.603105  0.028226  1
  B  B32  1  0.500000  0.399218  0.971253  1
  B  B33  1  0.500000  0.101945  0.472138  1
  B  B34  1  0.500000  0.897402  0.529165  1
  Ru  Ru35  1  0.000000  0.861430  0.821013  1
