# generated using pymatgen
data_Tb7Se8
_symmetry_space_group_name_H-M   'P 1'
_cell_length_a   8.16896731
_cell_length_b   8.15337352
_cell_length_c   8.16857118
_cell_angle_alpha   119.96007124
_cell_angle_beta   90.17390450
_cell_angle_gamma   119.95743552
_symmetry_Int_Tables_number   1
_chemical_formula_structural   Tb7Se8
_chemical_formula_sum   'Tb7 Se8'
_cell_volume   384.60542848
_cell_formula_units_Z   1
loop_
 _symmetry_equiv_pos_site_id
 _symmetry_equiv_pos_as_xyz
  1  'x, y, z'
loop_
 _atom_site_type_symbol
 _atom_site_label
 _atom_site_symmetry_multiplicity
 _atom_site_fract_x
 _atom_site_fract_y
 _atom_site_fract_z
 _atom_site_occupancy
  Tb  Tb0  1  0.249854  0.000012  0.249856  1
  Tb  Tb1  1  0.249854  0.499687  0.249850  1
  Tb  Tb2  1  0.750125  0.999995  0.249865  1
  Tb  Tb3  1  0.250008  0.500006  0.749992  1
  Tb  Tb4  1  0.249859  0.999989  0.750126  1
  Tb  Tb5  1  0.750147  0.999998  0.750152  1
  Tb  Tb6  1  0.750153  0.500297  0.750147  1
  Se  Se7  1  0.999997  0.999997  0.999994  1
  Se  Se8  1  0.499994  0.999989  0.499997  1
  Se  Se9  1  0.996328  0.992689  0.496302  1
  Se  Se10  1  0.996214  0.499896  0.496219  1
  Se  Se11  1  0.503968  0.499984  0.496019  1
  Se  Se12  1  0.996023  0.500010  0.004003  1
  Se  Se13  1  0.503768  0.500093  0.003756  1
  Se  Se14  1  0.503709  0.007363  0.003729  1
