# generated using pymatgen
data_Dy4RhPb2Au3
_symmetry_space_group_name_H-M   'P 1'
_cell_length_a   8.10358360
_cell_length_b   8.10358316
_cell_length_c   3.63507300
_cell_angle_alpha   90.00000000
_cell_angle_beta   90.00000000
_cell_angle_gamma   89.90753290
_symmetry_Int_Tables_number   1
_chemical_formula_structural   Dy4RhPb2Au3
_chemical_formula_sum   'Dy4 Rh1 Pb2 Au3'
_cell_volume   238.70789397
_cell_formula_units_Z   1
loop_
 _symmetry_equiv_pos_site_id
 _symmetry_equiv_pos_as_xyz
  1  'x, y, z'
loop_
 _atom_site_type_symbol
 _atom_site_label
 _atom_site_symmetry_multiplicity
 _atom_site_fract_x
 _atom_site_fract_y
 _atom_site_fract_z
 _atom_site_occupancy
  Dy  Dy0  1  0.650265  0.172853  0.500000  1
  Dy  Dy1  1  0.184117  0.315883  0.500000  1
  Dy  Dy2  1  0.832311  0.667689  0.500000  1
  Dy  Dy3  1  0.327147  0.849735  0.500000  1
  Rh  Rh4  1  0.374357  0.125643  0.000000  1
  Pb  Pb5  1  0.003166  0.002621  0.000000  1
  Pb  Pb6  1  0.497379  0.496834  0.000000  1
  Au  Au7  1  0.128672  0.622626  0.000000  1
  Au  Au8  1  0.625212  0.874788  0.000000  1
  Au  Au9  1  0.877374  0.371328  0.000000  1
