# generated using pymatgen
data_La3HoSn10PdRh5
_symmetry_space_group_name_H-M   'P 1'
_cell_length_a   13.63421280
_cell_length_b   13.63421369
_cell_length_c   7.32990939
_cell_angle_alpha   90.14905897
_cell_angle_beta   89.85094198
_cell_angle_gamma   160.78618090
_symmetry_Int_Tables_number   1
_chemical_formula_structural   La3HoSn10PdRh5
_chemical_formula_sum   'La3 Ho1 Sn10 Pd1 Rh5'
_cell_volume   448.41255548
_cell_formula_units_Z   1
loop_
 _symmetry_equiv_pos_site_id
 _symmetry_equiv_pos_as_xyz
  1  'x, y, z'
loop_
 _atom_site_type_symbol
 _atom_site_label
 _atom_site_symmetry_multiplicity
 _atom_site_fract_x
 _atom_site_fract_y
 _atom_site_fract_z
 _atom_site_occupancy
  La  La0  1  0.173127  0.826873  0.744430  1
  La  La1  1  0.827141  0.172859  0.243930  1
  La  La2  1  0.475294  0.524706  0.762234  1
  Ho  Ho3  1  0.523942  0.476058  0.268061  1
  Sn  Sn4  1  0.877968  0.122032  0.767405  1
  Sn  Sn5  1  0.121590  0.878410  0.271690  1
  Sn  Sn6  1  0.704600  0.295400  0.448396  1
  Sn  Sn7  1  0.295560  0.704440  0.947001  1
  Sn  Sn8  1  0.596880  0.403120  0.886259  1
  Sn  Sn9  1  0.404495  0.595505  0.388172  1
  Sn  Sn10  1  0.951912  0.048088  0.107501  1
  Sn  Sn11  1  0.048047  0.951953  0.593120  1
  Sn  Sn12  1  0.290178  0.709822  0.525275  1
  Sn  Sn13  1  0.710052  0.289948  0.026012  1
  Pd  Pd14  1  0.050371  0.949629  0.988442  1
  Rh  Rh15  1  0.949602  0.050398  0.480989  1
  Rh  Rh16  1  0.776579  0.223421  0.733664  1
  Rh  Rh17  1  0.222856  0.777144  0.234536  1
  Rh  Rh18  1  0.395735  0.604265  0.016061  1
  Rh  Rh19  1  0.604074  0.395926  0.510823  1
