# generated using pymatgen
data_Tb2Ce(InRh)3
_symmetry_space_group_name_H-M   'P 1'
_cell_length_a   7.54214649
_cell_length_b   7.54214588
_cell_length_c   3.89859700
_cell_angle_alpha   90.00000000
_cell_angle_beta   90.00000000
_cell_angle_gamma   117.75956227
_symmetry_Int_Tables_number   1
_chemical_formula_structural   Tb2Ce(InRh)3
_chemical_formula_sum   'Tb2 Ce1 In3 Rh3'
_cell_volume   196.24441164
_cell_formula_units_Z   1
loop_
 _symmetry_equiv_pos_site_id
 _symmetry_equiv_pos_as_xyz
  1  'x, y, z'
loop_
 _atom_site_type_symbol
 _atom_site_label
 _atom_site_symmetry_multiplicity
 _atom_site_fract_x
 _atom_site_fract_y
 _atom_site_fract_z
 _atom_site_occupancy
  Tb  Tb0  1  0.406300  0.999991  0.500000  1
  Tb  Tb1  1  0.999991  0.406300  0.500000  1
  Ce  Ce2  1  0.581934  0.581934  0.500000  1
  In  In3  1  0.743060  0.006545  0.000000  1
  In  In4  1  0.006545  0.743060  0.000000  1
  In  In5  1  0.247751  0.247751  0.000000  1
  Rh  Rh6  1  0.351876  0.665217  0.000000  1
  Rh  Rh7  1  0.665217  0.351876  0.000000  1
  Rh  Rh8  1  0.997328  0.997328  0.500000  1
