# generated using pymatgen
data_Lu4Al18(CoPt)3
_symmetry_space_group_name_H-M   'P 1'
_cell_length_a   7.47590976
_cell_length_b   7.47592735
_cell_length_c   9.26972725
_cell_angle_alpha   89.88668477
_cell_angle_beta   89.88623221
_cell_angle_gamma   119.49859755
_symmetry_Int_Tables_number   1
_chemical_formula_structural   Lu4Al18(CoPt)3
_chemical_formula_sum   'Lu4 Al18 Co3 Pt3'
_cell_volume   450.91585766
_cell_formula_units_Z   1
loop_
 _symmetry_equiv_pos_site_id
 _symmetry_equiv_pos_as_xyz
  1  'x, y, z'
loop_
 _atom_site_type_symbol
 _atom_site_label
 _atom_site_symmetry_multiplicity
 _atom_site_fract_x
 _atom_site_fract_y
 _atom_site_fract_z
 _atom_site_occupancy
  Lu  Lu0  1  0.000535  0.323326  0.749105  1
  Lu  Lu1  1  0.331298  0.010373  0.748908  1
  Lu  Lu2  1  0.989627  0.668702  0.251091  1
  Lu  Lu3  1  0.676670  0.999459  0.250895  1
  Al  Al4  1  0.655032  0.988833  0.922343  1
  Al  Al5  1  0.014043  0.672478  0.573609  1
  Al  Al6  1  0.126798  0.123857  0.258434  1
  Al  Al7  1  0.658991  0.667418  0.054244  1
  Al  Al8  1  0.323728  0.330993  0.549015  1
  Al  Al9  1  0.332582  0.341010  0.945757  1
  Al  Al10  1  0.669008  0.676272  0.450985  1
  Al  Al11  1  0.334395  0.985921  0.077291  1
  Al  Al12  1  0.007677  0.336943  0.426289  1
  Al  Al13  1  0.341208  0.563356  0.251935  1
  Al  Al14  1  0.011168  0.344969  0.077657  1
  Al  Al15  1  0.541321  0.339682  0.250796  1
  Al  Al16  1  0.660319  0.458680  0.749204  1
  Al  Al17  1  0.876143  0.873203  0.741566  1
  Al  Al18  1  0.014079  0.665605  0.922709  1
  Al  Al19  1  0.663057  0.992325  0.573712  1
  Al  Al20  1  0.327522  0.985956  0.426391  1
  Al  Al21  1  0.436644  0.658792  0.748064  1
  Co  Co22  1  0.329458  0.670540  0.500000  1
  Co  Co23  1  0.000758  0.999243  0.500000  1
  Co  Co24  1  0.329878  0.670122  0.999999  1
  Pt  Pt25  1  0.673390  0.326611  0.500001  1
  Pt  Pt26  1  0.673800  0.326200  0.000000  1
  Pt  Pt27  1  0.000872  0.999130  0.000001  1
