# generated using pymatgen
data_Dy10IrOs3
_symmetry_space_group_name_H-M   'P 1'
_cell_length_a   6.42284791
_cell_length_b   7.33739365
_cell_length_c   8.46356435
_cell_angle_alpha   96.72630769
_cell_angle_beta   112.46242724
_cell_angle_gamma   90.04443208
_symmetry_Int_Tables_number   1
_chemical_formula_structural   Dy10IrOs3
_chemical_formula_sum   'Dy10 Ir1 Os3'
_cell_volume   365.61277292
_cell_formula_units_Z   1
loop_
 _symmetry_equiv_pos_site_id
 _symmetry_equiv_pos_as_xyz
  1  'x, y, z'
loop_
 _atom_site_type_symbol
 _atom_site_label
 _atom_site_symmetry_multiplicity
 _atom_site_fract_x
 _atom_site_fract_y
 _atom_site_fract_z
 _atom_site_occupancy
  Dy  Dy0  1  0.792885  0.085226  0.818502  1
  Dy  Dy1  1  0.975909  0.416041  0.182960  1
  Dy  Dy2  1  0.207933  0.916059  0.185979  1
  Dy  Dy3  1  0.024530  0.582744  0.818581  1
  Dy  Dy4  1  0.208993  0.184294  0.561692  1
  Dy  Dy5  1  0.646747  0.316735  0.437333  1
  Dy  Dy6  1  0.788524  0.816373  0.435372  1
  Dy  Dy7  1  0.354941  0.681867  0.561725  1
  Dy  Dy8  1  0.426472  0.251490  0.001271  1
  Dy  Dy9  1  0.575451  0.749609  0.000247  1
  Ir  Ir10  1  0.174239  0.924063  0.777305  1
  Os  Os11  1  0.604849  0.424460  0.780869  1
  Os  Os12  1  0.825102  0.074627  0.219726  1
  Os  Os13  1  0.393426  0.576411  0.218439  1
