# generated using pymatgen
data_Yb3Pa5(Pt2Pb)4
_symmetry_space_group_name_H-M   'P 1'
_cell_length_a   7.92578786
_cell_length_b   7.92578786
_cell_length_c   7.28637400
_cell_angle_alpha   90.00000000
_cell_angle_beta   90.00000000
_cell_angle_gamma   92.18506417
_symmetry_Int_Tables_number   1
_chemical_formula_structural   Yb3Pa5(Pt2Pb)4
_chemical_formula_sum   'Yb3 Pa5 Pt8 Pb4'
_cell_volume   457.38345664
_cell_formula_units_Z   1
loop_
 _symmetry_equiv_pos_site_id
 _symmetry_equiv_pos_as_xyz
  1  'x, y, z'
loop_
 _atom_site_type_symbol
 _atom_site_label
 _atom_site_symmetry_multiplicity
 _atom_site_fract_x
 _atom_site_fract_y
 _atom_site_fract_z
 _atom_site_occupancy
  Yb  Yb0  1  0.175698  0.824302  0.500000  1
  Yb  Yb1  1  0.840074  0.159926  0.000000  1
  Yb  Yb2  1  0.160709  0.839291  0.000000  1
  Pa  Pa3  1  0.679930  0.677447  0.000000  1
  Pa  Pa4  1  0.337456  0.337371  0.500000  1
  Pa  Pa5  1  0.825418  0.174582  0.500000  1
  Pa  Pa6  1  0.662629  0.662544  0.500000  1
  Pa  Pa7  1  0.322553  0.320070  0.000000  1
  Pt  Pt8  1  0.861875  0.871048  0.730714  1
  Pt  Pt9  1  0.128952  0.138125  0.730714  1
  Pt  Pt10  1  0.629778  0.370222  0.759573  1
  Pt  Pt11  1  0.629778  0.370222  0.240427  1
  Pt  Pt12  1  0.380969  0.619031  0.232602  1
  Pt  Pt13  1  0.128952  0.138125  0.269286  1
  Pt  Pt14  1  0.861875  0.871048  0.269286  1
  Pt  Pt15  1  0.380969  0.619031  0.767398  1
  Pb  Pb16  1  0.492970  0.996777  0.752833  1
  Pb  Pb17  1  0.492970  0.996777  0.247167  1
  Pb  Pb18  1  0.003223  0.507030  0.752833  1
  Pb  Pb19  1  0.003223  0.507030  0.247167  1
