# generated using pymatgen
data_Sc5Tc5(P6Ir7)2
_symmetry_space_group_name_H-M   'P 1'
_cell_length_a   12.52581498
_cell_length_b   12.64528055
_cell_length_c   3.92549100
_cell_angle_alpha   90.00000000
_cell_angle_beta   90.00000000
_cell_angle_gamma   120.21848714
_symmetry_Int_Tables_number   1
_chemical_formula_structural   Sc5Tc5(P6Ir7)2
_chemical_formula_sum   'Sc5 Tc5 P12 Ir14'
_cell_volume   537.27757051
_cell_formula_units_Z   1
loop_
 _symmetry_equiv_pos_site_id
 _symmetry_equiv_pos_as_xyz
  1  'x, y, z'
loop_
 _atom_site_type_symbol
 _atom_site_label
 _atom_site_symmetry_multiplicity
 _atom_site_fract_x
 _atom_site_fract_y
 _atom_site_fract_z
 _atom_site_occupancy
  Sc  Sc0  1  0.335643  0.669947  0.500000  1
  Sc  Sc1  1  0.666725  0.333293  0.500000  1
  Sc  Sc2  1  0.000087  0.810327  0.000000  1
  Sc  Sc3  1  0.185893  0.183746  0.000000  1
  Sc  Sc4  1  0.809416  0.997333  0.000000  1
  Tc  Tc5  1  0.995184  0.448730  0.500000  1
  Tc  Tc6  1  0.549215  0.545009  0.500000  1
  Tc  Tc7  1  0.457511  0.011055  0.500000  1
  Tc  Tc8  1  0.621396  0.800547  0.500000  1
  Tc  Tc9  1  0.199838  0.821361  0.500000  1
  P  P10  1  0.006552  0.641082  0.500000  1
  P  P11  1  0.361714  0.363593  0.500000  1
  P  P12  1  0.635166  0.993732  0.500000  1
  P  P13  1  0.518832  0.694026  0.000000  1
  P  P14  1  0.308893  0.829635  0.000000  1
  P  P15  1  0.170794  0.484123  0.000000  1
  P  P16  1  0.484137  0.170759  0.000000  1
  P  P17  1  0.685272  0.515798  0.000000  1
  P  P18  1  0.832942  0.315736  0.000000  1
  P  P19  1  0.999338  0.174223  0.500000  1
  P  P20  1  0.819034  0.822401  0.500000  1
  P  P21  1  0.174254  0.992310  0.500000  1
  Ir  Ir22  1  0.507419  0.874324  0.000000  1
  Ir  Ir23  1  0.129497  0.636212  0.000000  1
  Ir  Ir24  1  0.361851  0.496012  0.000000  1
  Ir  Ir25  1  0.491376  0.358090  0.000000  1
  Ir  Ir26  1  0.863541  0.505056  0.000000  1
  Ir  Ir27  1  0.644524  0.139784  0.000000  1
  Ir  Ir28  1  0.000378  0.282866  0.000000  1
  Ir  Ir29  1  0.719307  0.713389  0.000000  1
  Ir  Ir30  1  0.285039  0.005752  0.000000  1
  Ir  Ir31  1  0.180471  0.373253  0.500000  1
  Ir  Ir32  1  0.369398  0.183735  0.500000  1
  Ir  Ir33  1  0.811316  0.626002  0.500000  1
  Ir  Ir34  1  0.818571  0.187840  0.500000  1
  Ir  Ir35  1  0.999475  0.998916  0.500000  1
