# generated using pymatgen
data_Ce2Th(ZnPt)4
_symmetry_space_group_name_H-M   'P 1'
_cell_length_a   8.32746527
_cell_length_b   8.32746493
_cell_length_c   8.32746461
_cell_angle_alpha   151.84004603
_cell_angle_beta   125.88391872
_cell_angle_gamma   62.10980362
_symmetry_Int_Tables_number   1
_chemical_formula_structural   Ce2Th(ZnPt)4
_chemical_formula_sum   'Ce2 Th1 Zn4 Pt4'
_cell_volume   218.98894577
_cell_formula_units_Z   1
loop_
 _symmetry_equiv_pos_site_id
 _symmetry_equiv_pos_as_xyz
  1  'x, y, z'
loop_
 _atom_site_type_symbol
 _atom_site_label
 _atom_site_symmetry_multiplicity
 _atom_site_fract_x
 _atom_site_fract_y
 _atom_site_fract_z
 _atom_site_occupancy
  Ce  Ce0  1  0.873424  0.873424  0.000000  1
  Ce  Ce1  1  0.126576  0.126576  0.000000  1
  Th  Th2  1  0.500000  0.000000  0.500000  1
  Zn  Zn3  1  0.476975  0.675704  0.801272  1
  Zn  Zn4  1  0.874432  0.675704  0.198728  1
  Zn  Zn5  1  0.125568  0.324296  0.801272  1
  Zn  Zn6  1  0.523025  0.324296  0.198728  1
  Pt  Pt7  1  0.280331  0.780331  0.500000  1
  Pt  Pt8  1  0.719669  0.219669  0.500000  1
  Pt  Pt9  1  0.798216  0.500000  0.298216  1
  Pt  Pt10  1  0.201784  0.500000  0.701784  1
