# generated using pymatgen
data_Li2Tm2LuSi3Ag
_symmetry_space_group_name_H-M   'P 1'
_cell_length_a   6.90711078
_cell_length_b   6.89537132
_cell_length_c   4.17353100
_cell_angle_alpha   90.00000000
_cell_angle_beta   90.00000000
_cell_angle_gamma   119.94379421
_symmetry_Int_Tables_number   1
_chemical_formula_structural   Li2Tm2LuSi3Ag
_chemical_formula_sum   'Li2 Tm2 Lu1 Si3 Ag1'
_cell_volume   172.24001171
_cell_formula_units_Z   1
loop_
 _symmetry_equiv_pos_site_id
 _symmetry_equiv_pos_as_xyz
  1  'x, y, z'
loop_
 _atom_site_type_symbol
 _atom_site_label
 _atom_site_symmetry_multiplicity
 _atom_site_fract_x
 _atom_site_fract_y
 _atom_site_fract_z
 _atom_site_occupancy
  Li  Li0  1  0.762692  0.765591  0.000000  1
  Li  Li1  1  0.237308  0.002900  0.000000  1
  Tm  Tm2  1  0.423840  0.423901  0.500000  1
  Tm  Tm3  1  0.576160  0.000061  0.500000  1
  Lu  Lu4  1  0.000000  0.573193  0.500000  1
  Si  Si5  1  0.665333  0.332672  0.000000  1
  Si  Si6  1  0.334667  0.667340  0.000000  1
  Si  Si7  1  0.000000  0.995151  0.500000  1
  Ag  Ag8  1  0.000000  0.239189  0.000000  1
