# generated using pymatgen
data_HoSi4PdRh5
_symmetry_space_group_name_H-M   'P 1'
_cell_length_a   7.01084100
_cell_length_b   7.08015251
_cell_length_c   3.79441400
_cell_angle_alpha   90.00000000
_cell_angle_beta   90.00000000
_cell_angle_gamma   119.67669388
_symmetry_Int_Tables_number   1
_chemical_formula_structural   HoSi4PdRh5
_chemical_formula_sum   'Ho1 Si4 Pd1 Rh5'
_cell_volume   163.64160943
_cell_formula_units_Z   1
loop_
 _symmetry_equiv_pos_site_id
 _symmetry_equiv_pos_as_xyz
  1  'x, y, z'
loop_
 _atom_site_type_symbol
 _atom_site_label
 _atom_site_symmetry_multiplicity
 _atom_site_fract_x
 _atom_site_fract_y
 _atom_site_fract_z
 _atom_site_occupancy
  Ho  Ho0  1  0.996230  0.992459  0.000000  1
  Si  Si1  1  0.337939  0.675878  0.000000  1
  Si  Si2  1  0.402245  0.197340  0.499999  1
  Si  Si3  1  0.795096  0.197340  0.499999  1
  Si  Si4  1  0.800755  0.601510  0.499999  1
  Pd  Pd5  1  0.196641  0.393282  0.499999  1
  Rh  Rh6  1  0.533840  0.067679  0.000000  1
  Rh  Rh7  1  0.935308  0.467133  0.000000  1
  Rh  Rh8  1  0.531825  0.467133  0.000000  1
  Rh  Rh9  1  0.197734  0.803454  0.499999  1
  Rh  Rh10  1  0.605721  0.803454  0.499999  1
