# generated using pymatgen
data_Dy3YTc2(B8W)2
_symmetry_space_group_name_H-M   'P 1'
_cell_length_a   6.00505400
_cell_length_b   11.61697326
_cell_length_c   3.61339300
_cell_angle_alpha   90.00000000
_cell_angle_beta   90.00000000
_cell_angle_gamma   89.91153810
_symmetry_Int_Tables_number   1
_chemical_formula_structural   Dy3YTc2(B8W)2
_chemical_formula_sum   'Dy3 Y1 Tc2 B16 W2'
_cell_volume   252.07198900
_cell_formula_units_Z   1
loop_
 _symmetry_equiv_pos_site_id
 _symmetry_equiv_pos_as_xyz
  1  'x, y, z'
loop_
 _atom_site_type_symbol
 _atom_site_label
 _atom_site_symmetry_multiplicity
 _atom_site_fract_x
 _atom_site_fract_y
 _atom_site_fract_z
 _atom_site_occupancy
  Dy  Dy0  1  0.372836  0.651644  0.000000  1
  Dy  Dy1  1  0.127348  0.148368  0.000000  1
  Dy  Dy2  1  0.872729  0.851612  0.000000  1
  Y  Y3  1  0.627127  0.348408  0.000000  1
  Tc  Tc4  1  0.633848  0.086573  0.000000  1
  Tc  Tc5  1  0.366104  0.913301  0.000000  1
  B  B6  1  0.784649  0.183994  0.500000  1
  B  B7  1  0.215517  0.815945  0.500000  1
  B  B8  1  0.288883  0.312529  0.500000  1
  B  B9  1  0.710913  0.687418  0.500000  1
  B  B10  1  0.863391  0.031001  0.500000  1
  B  B11  1  0.136699  0.968959  0.500000  1
  B  B12  1  0.366948  0.467640  0.500000  1
  B  B13  1  0.632919  0.532579  0.500000  1
  B  B14  1  0.885380  0.452673  0.500000  1
  B  B15  1  0.114784  0.547424  0.500000  1
  B  B16  1  0.387023  0.046872  0.500000  1
  B  B17  1  0.612858  0.953042  0.500000  1
  B  B18  1  0.975448  0.305565  0.500000  1
  B  B19  1  0.024779  0.694388  0.500000  1
  B  B20  1  0.476910  0.190884  0.500000  1
  B  B21  1  0.522916  0.809069  0.500000  1
  W  W22  1  0.130262  0.414524  0.000000  1
  W  W23  1  0.869730  0.585589  0.000000  1
