# generated using pymatgen
data_Tb4Al18Ir5Au
_symmetry_space_group_name_H-M   'P 1'
_cell_length_a   7.59900635
_cell_length_b   7.59900542
_cell_length_c   9.48748201
_cell_angle_alpha   89.99713333
_cell_angle_beta   89.99713328
_cell_angle_gamma   119.72038882
_symmetry_Int_Tables_number   1
_chemical_formula_structural   Tb4Al18Ir5Au
_chemical_formula_sum   'Tb4 Al18 Ir5 Au1'
_cell_volume   475.78628629
_cell_formula_units_Z   1
loop_
 _symmetry_equiv_pos_site_id
 _symmetry_equiv_pos_as_xyz
  1  'x, y, z'
loop_
 _atom_site_type_symbol
 _atom_site_label
 _atom_site_symmetry_multiplicity
 _atom_site_fract_x
 _atom_site_fract_y
 _atom_site_fract_z
 _atom_site_occupancy
  Tb  Tb0  1  0.993359  0.668360  0.250960  1
  Tb  Tb1  1  0.002988  0.329174  0.749270  1
  Tb  Tb2  1  0.670826  0.997012  0.250730  1
  Tb  Tb3  1  0.331640  0.006641  0.749040  1
  Al  Al4  1  0.127956  0.125945  0.251419  1
  Al  Al5  1  0.874055  0.872044  0.748581  1
  Al  Al6  1  0.010762  0.334997  0.078603  1
  Al  Al7  1  0.008086  0.674869  0.922051  1
  Al  Al8  1  0.001244  0.665374  0.573107  1
  Al  Al9  1  0.334626  0.998756  0.426893  1
  Al  Al10  1  0.000762  0.334416  0.425573  1
  Al  Al11  1  0.665584  0.999238  0.574427  1
  Al  Al12  1  0.665003  0.989238  0.921397  1
  Al  Al13  1  0.325131  0.991914  0.077949  1
  Al  Al14  1  0.331888  0.332332  0.550952  1
  Al  Al15  1  0.667668  0.668112  0.449048  1
  Al  Al16  1  0.665590  0.672880  0.058479  1
  Al  Al17  1  0.327120  0.334410  0.941521  1
  Al  Al18  1  0.340975  0.550092  0.251575  1
  Al  Al19  1  0.659905  0.457699  0.742137  1
  Al  Al20  1  0.542301  0.340095  0.257863  1
  Al  Al21  1  0.449908  0.659025  0.748425  1
  Ir  Ir22  1  0.328649  0.671351  0.000000  1
  Ir  Ir23  1  0.328501  0.671499  0.500000  1
  Ir  Ir24  1  0.672210  0.327790  0.500000  1
  Ir  Ir25  1  0.999663  0.000337  0.000000  1
  Ir  Ir26  1  0.000333  0.999667  0.500000  1
  Au  Au27  1  0.673269  0.326731  0.000000  1
