# generated using pymatgen
data_Sm5Y(WO7)2
_symmetry_space_group_name_H-M   'P 1'
_cell_length_a   6.62139485
_cell_length_b   6.55745294
_cell_length_c   7.62242900
_cell_angle_alpha   90.00000000
_cell_angle_beta   90.00000000
_cell_angle_gamma   109.02535887
_symmetry_Int_Tables_number   1
_chemical_formula_structural   Sm5Y(WO7)2
_chemical_formula_sum   'Sm5 Y1 W2 O14'
_cell_volume   312.88294367
_cell_formula_units_Z   1
loop_
 _symmetry_equiv_pos_site_id
 _symmetry_equiv_pos_as_xyz
  1  'x, y, z'
loop_
 _atom_site_type_symbol
 _atom_site_label
 _atom_site_symmetry_multiplicity
 _atom_site_fract_x
 _atom_site_fract_y
 _atom_site_fract_z
 _atom_site_occupancy
  Sm  Sm0  1  0.524886  0.520290  0.499557  1
  Sm  Sm1  1  0.524886  0.520290  0.000443  1
  Sm  Sm2  1  0.004426  0.459901  0.750000  1
  Sm  Sm3  1  0.528275  0.004095  0.750000  1
  Sm  Sm4  1  0.464599  0.002694  0.250000  1
  Y  Y5  1  0.005363  0.531937  0.250000  1
  W  W6  1  0.998707  0.998479  0.498832  1
  W  W7  1  0.998707  0.998479  0.001168  1
  O  O8  1  0.926231  0.064507  0.750000  1
  O  O9  1  0.068848  0.925693  0.250000  1
  O  O10  1  0.358341  0.632829  0.250000  1
  O  O11  1  0.642275  0.369665  0.750000  1
  O  O12  1  0.369701  0.630266  0.750000  1
  O  O13  1  0.643371  0.376411  0.250000  1
  O  O14  1  0.315992  0.078193  0.972428  1
  O  O15  1  0.675448  0.915541  0.471947  1
  O  O16  1  0.315992  0.078193  0.527572  1
  O  O17  1  0.675448  0.915541  0.028053  1
  O  O18  1  0.050477  0.307760  0.465120  1
  O  O19  1  0.928774  0.680740  0.972290  1
  O  O20  1  0.928774  0.680740  0.527710  1
  O  O21  1  0.050477  0.307760  0.034880  1
