# generated using pymatgen
data_La3Th2P12Ru19
_symmetry_space_group_name_H-M   'P 1'
_cell_length_a   12.68315600
_cell_length_b   12.68315611
_cell_length_c   4.04249100
_cell_angle_alpha   90.00000000
_cell_angle_beta   90.00000000
_cell_angle_gamma   119.99999450
_symmetry_Int_Tables_number   1
_chemical_formula_structural   La3Th2P12Ru19
_chemical_formula_sum   'La3 Th2 P12 Ru19'
_cell_volume   563.16335772
_cell_formula_units_Z   1
loop_
 _symmetry_equiv_pos_site_id
 _symmetry_equiv_pos_as_xyz
  1  'x, y, z'
loop_
 _atom_site_type_symbol
 _atom_site_label
 _atom_site_symmetry_multiplicity
 _atom_site_fract_x
 _atom_site_fract_y
 _atom_site_fract_z
 _atom_site_occupancy
  La  La0  1  0.000000  0.184034  0.500000  1
  La  La1  1  0.815966  0.815966  0.500000  1
  La  La2  1  0.184034  0.000000  0.500000  1
  Th  Th3  1  0.666667  0.333333  0.000000  1
  Th  Th4  1  0.333333  0.666667  0.000000  1
  P  P5  1  0.000000  0.810745  0.000000  1
  P  P6  1  0.189255  0.189255  0.000000  1
  P  P7  1  0.810745  0.000000  0.000000  1
  P  P8  1  0.696568  0.171634  0.500000  1
  P  P9  1  0.828366  0.524933  0.500000  1
  P  P10  1  0.475067  0.303432  0.500000  1
  P  P11  1  0.171634  0.696568  0.500000  1
  P  P12  1  0.524933  0.828366  0.500000  1
  P  P13  1  0.303432  0.475067  0.500000  1
  P  P14  1  0.000000  0.374861  0.000000  1
  P  P15  1  0.625139  0.625139  0.000000  1
  P  P16  1  0.374861  0.000000  0.000000  1
  Ru  Ru17  1  0.000000  0.554010  0.000000  1
  Ru  Ru18  1  0.445990  0.445990  0.000000  1
  Ru  Ru19  1  0.554010  0.000000  0.000000  1
  Ru  Ru20  1  0.000000  0.713787  0.500000  1
  Ru  Ru21  1  0.286213  0.286213  0.500000  1
  Ru  Ru22  1  0.713787  0.000000  0.500000  1
  Ru  Ru23  1  0.805329  0.185130  0.000000  1
  Ru  Ru24  1  0.814870  0.620200  0.000000  1
  Ru  Ru25  1  0.379800  0.194671  0.000000  1
  Ru  Ru26  1  0.185130  0.805329  0.000000  1
  Ru  Ru27  1  0.620200  0.814870  0.000000  1
  Ru  Ru28  1  0.194671  0.379800  0.000000  1
  Ru  Ru29  1  0.873867  0.368215  0.500000  1
  Ru  Ru30  1  0.631785  0.505651  0.500000  1
  Ru  Ru31  1  0.494349  0.126133  0.500000  1
  Ru  Ru32  1  0.368215  0.873867  0.500000  1
  Ru  Ru33  1  0.505651  0.631785  0.500000  1
  Ru  Ru34  1  0.126133  0.494349  0.500000  1
  Ru  Ru35  1  0.000000  0.000000  0.000000  1
