# generated using pymatgen
data_DyEr2Tm2CoSb2
_symmetry_space_group_name_H-M   'P 1'
_cell_length_a   7.79215100
_cell_length_b   8.73472000
_cell_length_c   12.09478100
_cell_angle_alpha   90.00000000
_cell_angle_beta   90.00000000
_cell_angle_gamma   90.00000000
_symmetry_Int_Tables_number   1
_chemical_formula_structural   DyEr2Tm2CoSb2
_chemical_formula_sum   'Dy4 Er8 Tm8 Co4 Sb8'
_cell_volume   823.19809499
_cell_formula_units_Z   4
loop_
 _symmetry_equiv_pos_site_id
 _symmetry_equiv_pos_as_xyz
  1  'x, y, z'
loop_
 _atom_site_type_symbol
 _atom_site_label
 _atom_site_symmetry_multiplicity
 _atom_site_fract_x
 _atom_site_fract_y
 _atom_site_fract_z
 _atom_site_occupancy
  Dy  Dy0  1  0.622221  0.750000  0.307676  1
  Dy  Dy1  1  0.877779  0.750000  0.807676  1
  Dy  Dy2  1  0.377779  0.250000  0.692324  1
  Dy  Dy3  1  0.122221  0.250000  0.192324  1
  Er  Er4  1  0.153961  0.750000  0.203360  1
  Er  Er5  1  0.346039  0.750000  0.703360  1
  Er  Er6  1  0.846039  0.250000  0.796640  1
  Er  Er7  1  0.653961  0.250000  0.296640  1
  Er  Er8  1  0.452380  0.750000  0.997916  1
  Er  Er9  1  0.047620  0.750000  0.497916  1
  Er  Er10  1  0.547620  0.250000  0.002084  1
  Er  Er11  1  0.952380  0.250000  0.502084  1
  Tm  Tm12  1  0.823275  0.535784  0.065167  1
  Tm  Tm13  1  0.676725  0.964216  0.565167  1
  Tm  Tm14  1  0.176725  0.035784  0.934833  1
  Tm  Tm15  1  0.323275  0.464216  0.434833  1
  Tm  Tm16  1  0.176725  0.464216  0.934833  1
  Tm  Tm17  1  0.323275  0.035784  0.434833  1
  Tm  Tm18  1  0.823275  0.964216  0.065167  1
  Tm  Tm19  1  0.676725  0.535784  0.565167  1
  Co  Co20  1  0.434854  0.750000  0.491632  1
  Co  Co21  1  0.065146  0.750000  0.991632  1
  Co  Co22  1  0.565146  0.250000  0.508368  1
  Co  Co23  1  0.934854  0.250000  0.008368  1
  Sb  Sb24  1  0.929825  0.508081  0.327512  1
  Sb  Sb25  1  0.570175  0.991919  0.827512  1
  Sb  Sb26  1  0.070175  0.008081  0.672488  1
  Sb  Sb27  1  0.429825  0.491919  0.172488  1
  Sb  Sb28  1  0.070175  0.491919  0.672488  1
  Sb  Sb29  1  0.429825  0.008081  0.172488  1
  Sb  Sb30  1  0.929825  0.991919  0.327512  1
  Sb  Sb31  1  0.570175  0.508081  0.827512  1
