# generated using pymatgen
data_Y7Er9CdIn3Ir4
_symmetry_space_group_name_H-M   'P 1'
_cell_length_a   9.61307693
_cell_length_b   9.62134679
_cell_length_c   9.63169500
_cell_angle_alpha   59.96441137
_cell_angle_beta   59.93590886
_cell_angle_gamma   60.07461910
_symmetry_Int_Tables_number   1
_chemical_formula_structural   Y7Er9CdIn3Ir4
_chemical_formula_sum   'Y7 Er9 Cd1 In3 Ir4'
_cell_volume   629.79951668
_cell_formula_units_Z   1
loop_
 _symmetry_equiv_pos_site_id
 _symmetry_equiv_pos_as_xyz
  1  'x, y, z'
loop_
 _atom_site_type_symbol
 _atom_site_label
 _atom_site_symmetry_multiplicity
 _atom_site_fract_x
 _atom_site_fract_y
 _atom_site_fract_z
 _atom_site_occupancy
  Y  Y0  1  0.808593  0.808948  0.191230  1
  Y  Y1  1  0.941133  0.560404  0.561040  1
  Y  Y2  1  0.560721  0.939806  0.939204  1
  Y  Y3  1  0.560721  0.939806  0.560271  1
  Y  Y4  1  0.941133  0.560404  0.937423  1
  Y  Y5  1  0.561633  0.559771  0.939299  1
  Y  Y6  1  0.941273  0.938654  0.560036  1
  Er  Er7  1  0.349283  0.348899  0.348155  1
  Er  Er8  1  0.349283  0.348899  0.953663  1
  Er  Er9  1  0.349175  0.952939  0.348943  1
  Er  Er10  1  0.952771  0.349204  0.349013  1
  Er  Er11  1  0.808597  0.190497  0.191285  1
  Er  Er12  1  0.189409  0.810036  0.810518  1
  Er  Er13  1  0.189409  0.810036  0.190037  1
  Er  Er14  1  0.808597  0.190497  0.809621  1
  Er  Er15  1  0.189734  0.189501  0.810383  1
  Cd  Cd16  1  0.253972  0.581782  0.582124  1
  In  In17  1  0.581451  0.583270  0.583345  1
  In  In18  1  0.581451  0.583270  0.251936  1
  In  In19  1  0.581310  0.252016  0.583338  1
  Ir  Ir20  1  0.141355  0.141357  0.141319  1
  Ir  Ir21  1  0.141355  0.141357  0.575970  1
  Ir  Ir22  1  0.143356  0.574965  0.140840  1
  Ir  Ir23  1  0.574291  0.143686  0.141012  1
