# generated using pymatgen
data_Ho4Sn5AsRh7
_symmetry_space_group_name_H-M   'P 1'
_cell_length_a   7.54019010
_cell_length_b   7.54019093
_cell_length_c   7.54018991
_cell_angle_alpha   109.71853266
_cell_angle_beta   108.97772284
_cell_angle_gamma   109.71853212
_symmetry_Int_Tables_number   1
_chemical_formula_structural   Ho4Sn5AsRh7
_chemical_formula_sum   'Ho4 Sn5 As1 Rh7'
_cell_volume   329.99007975
_cell_formula_units_Z   1
loop_
 _symmetry_equiv_pos_site_id
 _symmetry_equiv_pos_as_xyz
  1  'x, y, z'
loop_
 _atom_site_type_symbol
 _atom_site_label
 _atom_site_symmetry_multiplicity
 _atom_site_fract_x
 _atom_site_fract_y
 _atom_site_fract_z
 _atom_site_occupancy
  Ho  Ho0  1  0.475908  0.467481  0.475908  1
  Ho  Ho1  1  0.008427  0.532519  0.008427  1
  Ho  Ho2  1  0.475908  0.000000  0.008427  1
  Ho  Ho3  1  0.008427  0.000000  0.475908  1
  Sn  Sn4  1  0.707584  0.000000  0.707584  1
  Sn  Sn5  1  0.671269  0.684511  0.986759  1
  Sn  Sn6  1  0.302248  0.315489  0.986759  1
  Sn  Sn7  1  0.986759  0.684511  0.671269  1
  Sn  Sn8  1  0.986759  0.315489  0.302248  1
  As  As9  1  0.342170  0.000000  0.342170  1
  Rh  Rh10  1  0.505046  0.755104  0.260150  1
  Rh  Rh11  1  0.749942  0.244896  0.505046  1
  Rh  Rh12  1  0.260150  0.755104  0.505046  1
  Rh  Rh13  1  0.240470  0.500000  0.740470  1
  Rh  Rh14  1  0.033414  0.000000  0.033414  1
  Rh  Rh15  1  0.505046  0.244896  0.749942  1
  Rh  Rh16  1  0.740470  0.500000  0.240470  1
