# generated using pymatgen
data_Pr5Co11(P3Ru2)4
_symmetry_space_group_name_H-M   'P 1'
_cell_length_a   12.40697094
_cell_length_b   12.44136150
_cell_length_c   3.80442900
_cell_angle_alpha   90.00000000
_cell_angle_beta   90.00000000
_cell_angle_gamma   119.98032925
_symmetry_Int_Tables_number   1
_chemical_formula_structural   Pr5Co11(P3Ru2)4
_chemical_formula_sum   'Pr5 Co11 P12 Ru8'
_cell_volume   508.67435082
_cell_formula_units_Z   1
loop_
 _symmetry_equiv_pos_site_id
 _symmetry_equiv_pos_as_xyz
  1  'x, y, z'
loop_
 _atom_site_type_symbol
 _atom_site_label
 _atom_site_symmetry_multiplicity
 _atom_site_fract_x
 _atom_site_fract_y
 _atom_site_fract_z
 _atom_site_occupancy
  Pr  Pr0  1  0.667564  0.333599  0.000000  1
  Pr  Pr1  1  0.328998  0.663085  0.000000  1
  Pr  Pr2  1  0.817100  0.816747  0.500000  1
  Pr  Pr3  1  0.182466  0.000856  0.500000  1
  Pr  Pr4  1  0.999901  0.183299  0.500000  1
  Co  Co5  1  0.127148  0.482047  0.500000  1
  Co  Co6  1  0.799433  0.171844  0.000000  1
  Co  Co7  1  0.829627  0.626569  0.000000  1
  Co  Co8  1  0.371842  0.201213  0.000000  1
  Co  Co9  1  0.172301  0.799826  0.000000  1
  Co  Co10  1  0.626652  0.827543  0.000000  1
  Co  Co11  1  0.197217  0.374868  0.000000  1
  Co  Co12  1  0.282005  0.283642  0.500000  1
  Co  Co13  1  0.716612  0.999691  0.500000  1
  Co  Co14  1  0.000790  0.716412  0.500000  1
  Co  Co15  1  0.999787  0.999438  0.000000  1
  P  P16  1  0.688312  0.161141  0.500000  1
  P  P17  1  0.841486  0.526368  0.500000  1
  P  P18  1  0.472911  0.314390  0.500000  1
  P  P19  1  0.158695  0.682734  0.500000  1
  P  P20  1  0.525317  0.839789  0.500000  1
  P  P21  1  0.308582  0.472518  0.500000  1
  P  P22  1  0.182633  0.184386  0.000000  1
  P  P23  1  0.816370  0.999487  0.000000  1
  P  P24  1  0.000172  0.816056  0.000000  1
  P  P25  1  0.630910  0.631997  0.000000  1
  P  P26  1  0.367246  0.999782  0.000000  1
  P  P27  1  0.005824  0.369730  0.000000  1
  Ru  Ru28  1  0.879825  0.356756  0.500000  1
  Ru  Ru29  1  0.646062  0.519534  0.500000  1
  Ru  Ru30  1  0.481331  0.127080  0.500000  1
  Ru  Ru31  1  0.353161  0.871914  0.500000  1
  Ru  Ru32  1  0.515924  0.644567  0.500000  1
  Ru  Ru33  1  0.444051  0.445014  0.000000  1
  Ru  Ru34  1  0.554709  0.999675  0.000000  1
  Ru  Ru35  1  0.007036  0.556407  0.000000  1
