# generated using pymatgen
data_CaCd2Ru4PbO14
_symmetry_space_group_name_H-M   'P 1'
_cell_length_a   7.23703102
_cell_length_b   7.29139963
_cell_length_c   7.27000023
_cell_angle_alpha   60.46603594
_cell_angle_beta   60.14990306
_cell_angle_gamma   60.24636025
_symmetry_Int_Tables_number   1
_chemical_formula_structural   CaCd2Ru4PbO14
_chemical_formula_sum   'Ca1 Cd2 Ru4 Pb1 O14'
_cell_volume   273.02333558
_cell_formula_units_Z   1
loop_
 _symmetry_equiv_pos_site_id
 _symmetry_equiv_pos_as_xyz
  1  'x, y, z'
loop_
 _atom_site_type_symbol
 _atom_site_label
 _atom_site_symmetry_multiplicity
 _atom_site_fract_x
 _atom_site_fract_y
 _atom_site_fract_z
 _atom_site_occupancy
  Ca  Ca0  1  0.625000  0.125000  0.625000  1
  Cd  Cd1  1  0.125000  0.625000  0.625000  1
  Cd  Cd2  1  0.625000  0.625000  0.625000  1
  Ru  Ru3  1  0.625000  0.125000  0.125000  1
  Ru  Ru4  1  0.125000  0.625000  0.125000  1
  Ru  Ru5  1  0.125000  0.125000  0.625000  1
  Ru  Ru6  1  0.125000  0.125000  0.125000  1
  Pb  Pb7  1  0.625000  0.625000  0.125000  1
  O  O8  1  0.195217  0.191835  0.807947  1
  O  O9  1  0.201755  0.804336  0.190892  1
  O  O10  1  0.450114  0.046152  0.053619  1
  O  O11  1  0.189812  0.809601  0.810774  1
  O  O12  1  0.060188  0.440399  0.439226  1
  O  O13  1  0.803016  0.804336  0.190892  1
  O  O14  1  0.446984  0.445664  0.059108  1
  O  O15  1  0.488035  0.508170  0.515761  1
  O  O16  1  0.054783  0.058165  0.442053  1
  O  O17  1  0.444998  0.058165  0.442053  1
  O  O18  1  0.048245  0.445664  0.059108  1
  O  O19  1  0.761965  0.741830  0.734239  1
  O  O20  1  0.805002  0.191835  0.807947  1
  O  O21  1  0.799886  0.203848  0.196381  1
