# generated using pymatgen
data_DyHo2In3BiIr2
_symmetry_space_group_name_H-M   'P 1'
_cell_length_a   7.77468011
_cell_length_b   7.75055157
_cell_length_c   4.03716700
_cell_angle_alpha   90.00000000
_cell_angle_beta   90.00000000
_cell_angle_gamma   120.08390666
_symmetry_Int_Tables_number   1
_chemical_formula_structural   DyHo2In3BiIr2
_chemical_formula_sum   'Dy1 Ho2 In3 Bi1 Ir2'
_cell_volume   210.50124492
_cell_formula_units_Z   1
loop_
 _symmetry_equiv_pos_site_id
 _symmetry_equiv_pos_as_xyz
  1  'x, y, z'
loop_
 _atom_site_type_symbol
 _atom_site_label
 _atom_site_symmetry_multiplicity
 _atom_site_fract_x
 _atom_site_fract_y
 _atom_site_fract_z
 _atom_site_occupancy
  Dy  Dy0  1  0.582940  0.613540  0.000000  1
  Ho  Ho1  1  0.385097  0.967852  0.000000  1
  Ho  Ho2  1  0.031992  0.417514  0.000000  1
  In  In3  1  0.020747  0.764314  0.500000  1
  In  In4  1  0.235783  0.256208  0.500000  1
  In  In5  1  0.743875  0.979960  0.500000  1
  Bi  Bi6  1  0.666736  0.332913  0.500000  1
  Ir  Ir7  1  0.000517  0.000740  0.000000  1
  Ir  Ir8  1  0.332314  0.666960  0.500000  1
