# generated using pymatgen
data_Rb4AlGa3H16
_symmetry_space_group_name_H-M   'P 1'
_cell_length_a   5.82721800
_cell_length_b   7.67795399
_cell_length_c   9.56693673
_cell_angle_alpha   90.10116698
_cell_angle_beta   90.00000000
_cell_angle_gamma   90.00000000
_symmetry_Int_Tables_number   1
_chemical_formula_structural   Rb4AlGa3H16
_chemical_formula_sum   'Rb4 Al1 Ga3 H16'
_cell_volume   428.03471761
_cell_formula_units_Z   1
loop_
 _symmetry_equiv_pos_site_id
 _symmetry_equiv_pos_as_xyz
  1  'x, y, z'
loop_
 _atom_site_type_symbol
 _atom_site_label
 _atom_site_symmetry_multiplicity
 _atom_site_fract_x
 _atom_site_fract_y
 _atom_site_fract_z
 _atom_site_occupancy
  Rb  Rb0  1  0.250000  0.337780  0.682565  1
  Rb  Rb1  1  0.250000  0.162885  0.182881  1
  Rb  Rb2  1  0.750000  0.662704  0.317785  1
  Rb  Rb3  1  0.750000  0.837642  0.817317  1
  Al  Al4  1  0.250000  0.692230  0.062055  1
  Ga  Ga5  1  0.250000  0.806786  0.562051  1
  Ga  Ga6  1  0.750000  0.306880  0.937674  1
  Ga  Ga7  1  0.750000  0.193123  0.437958  1
  H  H8  1  0.250000  0.610848  0.904613  1
  H  H9  1  0.250000  0.887132  0.408618  1
  H  H10  1  0.750000  0.387714  0.091114  1
  H  H11  1  0.750000  0.112784  0.591235  1
  H  H12  1  0.250000  0.544375  0.184787  1
  H  H13  1  0.250000  0.951986  0.681726  1
  H  H14  1  0.750000  0.451972  0.818362  1
  H  H15  1  0.750000  0.048070  0.318342  1
  H  H16  1  0.972552  0.185424  0.917885  1
  H  H17  1  0.527525  0.314669  0.417892  1
  H  H18  1  0.477138  0.817084  0.082574  1
  H  H19  1  0.027404  0.685368  0.582108  1
  H  H20  1  0.022862  0.817084  0.082574  1
  H  H21  1  0.472596  0.685368  0.582108  1
  H  H22  1  0.527448  0.185424  0.917885  1
  H  H23  1  0.972475  0.314669  0.417892  1
