# generated using pymatgen
data_Hf12Al4FeRh7
_symmetry_space_group_name_H-M   'P 1'
_cell_length_a   8.47514266
_cell_length_b   8.47514199
_cell_length_c   8.47514212
_cell_angle_alpha   59.92561455
_cell_angle_beta   59.92561648
_cell_angle_gamma   59.92562527
_symmetry_Int_Tables_number   1
_chemical_formula_structural   Hf12Al4FeRh7
_chemical_formula_sum   'Hf12 Al4 Fe1 Rh7'
_cell_volume   429.72699197
_cell_formula_units_Z   1
loop_
 _symmetry_equiv_pos_site_id
 _symmetry_equiv_pos_as_xyz
  1  'x, y, z'
loop_
 _atom_site_type_symbol
 _atom_site_label
 _atom_site_symmetry_multiplicity
 _atom_site_fract_x
 _atom_site_fract_y
 _atom_site_fract_z
 _atom_site_occupancy
  Hf  Hf0  1  0.808773  0.808773  0.183787  1
  Hf  Hf1  1  0.192418  0.192418  0.807378  1
  Hf  Hf2  1  0.808773  0.183787  0.808773  1
  Hf  Hf3  1  0.192418  0.807378  0.192418  1
  Hf  Hf4  1  0.183787  0.808773  0.808773  1
  Hf  Hf5  1  0.807378  0.192418  0.192418  1
  Hf  Hf6  1  0.443446  0.443446  0.055994  1
  Hf  Hf7  1  0.055652  0.055652  0.445471  1
  Hf  Hf8  1  0.443446  0.055994  0.443446  1
  Hf  Hf9  1  0.055652  0.445471  0.055652  1
  Hf  Hf10  1  0.055994  0.443446  0.443446  1
  Hf  Hf11  1  0.445471  0.055652  0.055652  1
  Al  Al12  1  0.121393  0.628249  0.628249  1
  Al  Al13  1  0.628249  0.121393  0.628249  1
  Al  Al14  1  0.628249  0.628249  0.121393  1
  Al  Al15  1  0.625162  0.625162  0.625162  1
  Fe  Fe16  1  0.841591  0.841591  0.841591  1
  Rh  Rh17  1  0.768514  0.410414  0.410414  1
  Rh  Rh18  1  0.410414  0.768514  0.410414  1
  Rh  Rh19  1  0.410414  0.410414  0.768514  1
  Rh  Rh20  1  0.410052  0.410052  0.410052  1
  Rh  Rh21  1  0.482364  0.840195  0.840195  1
  Rh  Rh22  1  0.840195  0.482364  0.840195  1
  Rh  Rh23  1  0.840195  0.840195  0.482364  1
