# generated using pymatgen
data_Tb2Ho10ZnGaCo4
_symmetry_space_group_name_H-M   'P 1'
_cell_length_a   8.23583414
_cell_length_b   8.23583395
_cell_length_c   8.25320921
_cell_angle_alpha   106.82732262
_cell_angle_beta   109.53222086
_cell_angle_gamma   112.01557337
_symmetry_Int_Tables_number   1
_chemical_formula_structural   Tb2Ho10ZnGaCo4
_chemical_formula_sum   'Tb2 Ho10 Zn1 Ga1 Co4'
_cell_volume   430.48139180
_cell_formula_units_Z   1
loop_
 _symmetry_equiv_pos_site_id
 _symmetry_equiv_pos_as_xyz
  1  'x, y, z'
loop_
 _atom_site_type_symbol
 _atom_site_label
 _atom_site_symmetry_multiplicity
 _atom_site_fract_x
 _atom_site_fract_y
 _atom_site_fract_z
 _atom_site_occupancy
  Tb  Tb0  1  0.304695  0.262748  0.567441  1
  Tb  Tb1  1  0.695305  0.737252  0.432559  1
  Ho  Ho2  1  0.304257  0.737583  0.041839  1
  Ho  Ho3  1  0.695743  0.262417  0.958161  1
  Ho  Ho4  1  0.187241  0.515107  0.325910  1
  Ho  Ho5  1  0.189197  0.861331  0.674090  1
  Ho  Ho6  1  0.812759  0.484893  0.674090  1
  Ho  Ho7  1  0.810803  0.138669  0.325910  1
  Ho  Ho8  1  0.398464  0.218521  0.178982  1
  Ho  Ho9  1  0.039538  0.219482  0.821018  1
  Ho  Ho10  1  0.960462  0.780518  0.178982  1
  Ho  Ho11  1  0.601536  0.781479  0.821018  1
  Zn  Zn12  1  0.500000  0.500000  0.000000  1
  Ga  Ga13  1  0.500000  0.000000  0.500000  1
  Co  Co14  1  0.164581  0.500330  0.664911  1
  Co  Co15  1  0.835419  0.499670  0.335089  1
  Co  Co16  1  0.998231  0.115323  0.113554  1
  Co  Co17  1  0.001769  0.884677  0.886446  1
