# generated using pymatgen
data_Ho3LuMnTc7
_symmetry_space_group_name_H-M   'P 1'
_cell_length_a   5.33171850
_cell_length_b   5.33149341
_cell_length_c   8.91384300
_cell_angle_alpha   89.99735604
_cell_angle_beta   90.00144283
_cell_angle_gamma   120.05796699
_symmetry_Int_Tables_number   1
_chemical_formula_structural   Ho3LuMnTc7
_chemical_formula_sum   'Ho3 Lu1 Mn1 Tc7'
_cell_volume   219.30964222
_cell_formula_units_Z   1
loop_
 _symmetry_equiv_pos_site_id
 _symmetry_equiv_pos_as_xyz
  1  'x, y, z'
loop_
 _atom_site_type_symbol
 _atom_site_label
 _atom_site_symmetry_multiplicity
 _atom_site_fract_x
 _atom_site_fract_y
 _atom_site_fract_z
 _atom_site_occupancy
  Ho  Ho0  1  0.333390  0.666607  0.435826  1
  Ho  Ho1  1  0.333362  0.666647  0.063708  1
  Ho  Ho2  1  0.666643  0.333358  0.935926  1
  Lu  Lu3  1  0.666599  0.333417  0.564804  1
  Mn  Mn4  1  0.000009  0.999983  0.999845  1
  Tc  Tc5  1  0.000013  0.999994  0.500134  1
  Tc  Tc6  1  0.170534  0.340993  0.751474  1
  Tc  Tc7  1  0.170365  0.829650  0.751481  1
  Tc  Tc8  1  0.659000  0.829441  0.751470  1
  Tc  Tc9  1  0.829414  0.658922  0.248442  1
  Tc  Tc10  1  0.829585  0.170404  0.248445  1
  Tc  Tc11  1  0.341088  0.170585  0.248446  1
