# generated using pymatgen
data_YHo11(TcRu)2
_symmetry_space_group_name_H-M   'P 1'
_cell_length_a   6.27855770
_cell_length_b   7.36873917
_cell_length_c   9.09551500
_cell_angle_alpha   90.00000000
_cell_angle_beta   90.00000000
_cell_angle_gamma   89.89372998
_symmetry_Int_Tables_number   1
_chemical_formula_structural   YHo11(TcRu)2
_chemical_formula_sum   'Y1 Ho11 Tc2 Ru2'
_cell_volume   420.80376924
_cell_formula_units_Z   1
loop_
 _symmetry_equiv_pos_site_id
 _symmetry_equiv_pos_as_xyz
  1  'x, y, z'
loop_
 _atom_site_type_symbol
 _atom_site_label
 _atom_site_symmetry_multiplicity
 _atom_site_fract_x
 _atom_site_fract_y
 _atom_site_fract_z
 _atom_site_occupancy
  Y  Y0  1  0.874945  0.539504  0.250000  1
  Ho  Ho1  1  0.334391  0.676079  0.063282  1
  Ho  Ho2  1  0.166016  0.175682  0.436711  1
  Ho  Ho3  1  0.664320  0.324243  0.562890  1
  Ho  Ho4  1  0.835493  0.824714  0.937111  1
  Ho  Ho5  1  0.664320  0.324243  0.937110  1
  Ho  Ho6  1  0.835493  0.824714  0.562889  1
  Ho  Ho7  1  0.334391  0.676079  0.436718  1
  Ho  Ho8  1  0.166016  0.175682  0.063289  1
  Ho  Ho9  1  0.625761  0.039891  0.250000  1
  Ho  Ho10  1  0.132208  0.456747  0.750000  1
  Ho  Ho11  1  0.367701  0.956731  0.750000  1
  Tc  Tc12  1  0.038897  0.887296  0.250000  1
  Tc  Tc13  1  0.460012  0.385269  0.250000  1
  Ru  Ru14  1  0.960953  0.116517  0.750000  1
  Ru  Ru15  1  0.539083  0.616611  0.750000  1
