# generated using pymatgen
data_Dy6Hf3Zr(Si5Ir2)4
_symmetry_space_group_name_H-M   'P 1'
_cell_length_a   12.54942700
_cell_length_b   12.54942697
_cell_length_c   4.19386900
_cell_angle_alpha   90.00000000
_cell_angle_beta   90.00000000
_cell_angle_gamma   90.06455773
_symmetry_Int_Tables_number   1
_chemical_formula_structural   Dy6Hf3Zr(Si5Ir2)4
_chemical_formula_sum   'Dy6 Hf3 Zr1 Si20 Ir8'
_cell_volume   660.48411502
_cell_formula_units_Z   1
loop_
 _symmetry_equiv_pos_site_id
 _symmetry_equiv_pos_as_xyz
  1  'x, y, z'
loop_
 _atom_site_type_symbol
 _atom_site_label
 _atom_site_symmetry_multiplicity
 _atom_site_fract_x
 _atom_site_fract_y
 _atom_site_fract_z
 _atom_site_occupancy
  Dy  Dy0  1  0.499956  0.501004  0.000000  1
  Dy  Dy1  1  0.998996  0.000044  0.000000  1
  Dy  Dy2  1  0.885416  0.384705  0.500000  1
  Dy  Dy3  1  0.115295  0.614584  0.500000  1
  Dy  Dy4  1  0.384663  0.115337  0.500000  1
  Dy  Dy5  1  0.613957  0.886043  0.500000  1
  Hf  Hf6  1  0.673400  0.174198  0.500000  1
  Hf  Hf7  1  0.325802  0.826600  0.500000  1
  Hf  Hf8  1  0.173620  0.326380  0.500000  1
  Zr  Zr9  1  0.825596  0.674404  0.500000  1
  Si  Si10  1  0.566284  0.067374  0.000000  1
  Si  Si11  1  0.432626  0.933716  0.000000  1
  Si  Si12  1  0.067042  0.432958  0.000000  1
  Si  Si13  1  0.933113  0.566887  0.000000  1
  Si  Si14  1  0.664728  0.700033  0.000000  1
  Si  Si15  1  0.334607  0.300143  0.000000  1
  Si  Si16  1  0.165680  0.800087  0.000000  1
  Si  Si17  1  0.834897  0.200097  0.000000  1
  Si  Si18  1  0.299903  0.665103  0.000000  1
  Si  Si19  1  0.699913  0.334320  0.000000  1
  Si  Si20  1  0.199857  0.165393  0.000000  1
  Si  Si21  1  0.799967  0.835272  0.000000  1
  Si  Si22  1  0.658040  0.504218  0.500000  1
  Si  Si23  1  0.342696  0.489992  0.500000  1
  Si  Si24  1  0.156801  0.991731  0.500000  1
  Si  Si25  1  0.841482  0.006928  0.500000  1
  Si  Si26  1  0.493072  0.658518  0.500000  1
  Si  Si27  1  0.508269  0.343199  0.500000  1
  Si  Si28  1  0.010008  0.157304  0.500000  1
  Si  Si29  1  0.995782  0.841960  0.500000  1
  Ir  Ir30  1  0.745287  0.520386  0.000000  1
  Ir  Ir31  1  0.254297  0.478743  0.000000  1
  Ir  Ir32  1  0.245440  0.979203  0.000000  1
  Ir  Ir33  1  0.753609  0.021768  0.000000  1
  Ir  Ir34  1  0.478232  0.746391  0.000000  1
  Ir  Ir35  1  0.520797  0.254560  0.000000  1
  Ir  Ir36  1  0.021257  0.245703  0.000000  1
  Ir  Ir37  1  0.979614  0.754713  0.000000  1
