# generated using pymatgen
data_Sc6C2Br7
_symmetry_space_group_name_H-M   'P 1'
_cell_length_a   9.93528215
_cell_length_b   9.93528298
_cell_length_c   11.66263167
_cell_angle_alpha   57.65502256
_cell_angle_beta   57.65502034
_cell_angle_gamma   20.91854029
_symmetry_Int_Tables_number   1
_chemical_formula_structural   Sc6C2Br7
_chemical_formula_sum   'Sc6 C2 Br7'
_cell_volume   344.87491979
_cell_formula_units_Z   1
loop_
 _symmetry_equiv_pos_site_id
 _symmetry_equiv_pos_as_xyz
  1  'x, y, z'
loop_
 _atom_site_type_symbol
 _atom_site_label
 _atom_site_symmetry_multiplicity
 _atom_site_fract_x
 _atom_site_fract_y
 _atom_site_fract_z
 _atom_site_occupancy
  Sc  Sc0  1  0.236695  0.236695  0.811583  1
  Sc  Sc1  1  0.309822  0.309822  0.373420  1
  Sc  Sc2  1  0.133295  0.133295  0.448306  1
  Sc  Sc3  1  0.866705  0.866705  0.551694  1
  Sc  Sc4  1  0.690178  0.690178  0.626580  1
  Sc  Sc5  1  0.763305  0.763305  0.188417  1
  C  C6  1  0.280646  0.280646  0.597250  1
  C  C7  1  0.719354  0.719354  0.402750  1
  Br  Br8  1  0.162252  0.162252  0.180945  1
  Br  Br9  1  0.837748  0.837748  0.819055  1
  Br  Br10  1  0.060212  0.060212  0.716546  1
  Br  Br11  1  0.939788  0.939788  0.283454  1
  Br  Br12  1  0.500000  0.500000  0.500000  1
  Br  Br13  1  0.383061  0.383061  0.078202  1
  Br  Br14  1  0.616939  0.616939  0.921798  1
