# generated using pymatgen
data_Th3Ga2RuRh2Au
_symmetry_space_group_name_H-M   'P 1'
_cell_length_a   7.35690879
_cell_length_b   7.67313598
_cell_length_c   3.89927100
_cell_angle_alpha   90.00000000
_cell_angle_beta   90.00000000
_cell_angle_gamma   121.18409482
_symmetry_Int_Tables_number   1
_chemical_formula_structural   Th3Ga2RuRh2Au
_chemical_formula_sum   'Th3 Ga2 Ru1 Rh2 Au1'
_cell_volume   188.31103782
_cell_formula_units_Z   1
loop_
 _symmetry_equiv_pos_site_id
 _symmetry_equiv_pos_as_xyz
  1  'x, y, z'
loop_
 _atom_site_type_symbol
 _atom_site_label
 _atom_site_symmetry_multiplicity
 _atom_site_fract_x
 _atom_site_fract_y
 _atom_site_fract_z
 _atom_site_occupancy
  Th  Th0  1  0.004283  0.409219  0.500000  1
  Th  Th1  1  0.597810  0.601361  0.500000  1
  Th  Th2  1  0.398758  0.994362  0.500000  1
  Ga  Ga3  1  0.254012  0.254345  0.000000  1
  Ga  Ga4  1  0.744932  0.998004  0.000000  1
  Ru  Ru5  1  0.346242  0.651606  0.000000  1
  Rh  Rh6  1  0.654215  0.306760  0.000000  1
  Rh  Rh7  1  0.000381  0.036501  0.500000  1
  Au  Au8  1  0.999369  0.747845  0.000000  1
