# generated using pymatgen
data_Ac2Al3Ir2
_symmetry_space_group_name_H-M   'P 1'
_cell_length_a   6.02624274
_cell_length_b   6.02624370
_cell_length_c   7.61383197
_cell_angle_alpha   117.34072451
_cell_angle_beta   117.34072864
_cell_angle_gamma   40.48662625
_symmetry_Int_Tables_number   1
_chemical_formula_structural   Ac2Al3Ir2
_chemical_formula_sum   'Ac2 Al3 Ir2'
_cell_volume   156.54365263
_cell_formula_units_Z   1
loop_
 _symmetry_equiv_pos_site_id
 _symmetry_equiv_pos_as_xyz
  1  'x, y, z'
loop_
 _atom_site_type_symbol
 _atom_site_label
 _atom_site_symmetry_multiplicity
 _atom_site_fract_x
 _atom_site_fract_y
 _atom_site_fract_z
 _atom_site_occupancy
  Ac  Ac0  1  0.861551  0.861551  0.235342  1
  Ac  Ac1  1  0.138449  0.138449  0.764657  1
  Al  Al2  1  0.500000  0.500000  0.000000  1
  Al  Al3  1  0.654896  0.654896  0.431617  1
  Al  Al4  1  0.345104  0.345104  0.568384  1
  Ir  Ir5  1  0.128954  0.128954  0.211695  1
  Ir  Ir6  1  0.871046  0.871046  0.788305  1
