# generated using pymatgen
data_Ca4CeDy3Hg8
_symmetry_space_group_name_H-M   'P 1'
_cell_length_a   7.56708158
_cell_length_b   7.55392400
_cell_length_c   7.52390500
_cell_angle_alpha   90.00000000
_cell_angle_beta   89.85697774
_cell_angle_gamma   90.00000000
_symmetry_Int_Tables_number   1
_chemical_formula_structural   Ca4CeDy3Hg8
_chemical_formula_sum   'Ca4 Ce1 Dy3 Hg8'
_cell_volume   430.07379102
_cell_formula_units_Z   1
loop_
 _symmetry_equiv_pos_site_id
 _symmetry_equiv_pos_as_xyz
  1  'x, y, z'
loop_
 _atom_site_type_symbol
 _atom_site_label
 _atom_site_symmetry_multiplicity
 _atom_site_fract_x
 _atom_site_fract_y
 _atom_site_fract_z
 _atom_site_occupancy
  Ca  Ca0  1  0.749515  0.250000  0.000099  1
  Ca  Ca1  1  0.249870  0.750000  0.499871  1
  Ca  Ca2  1  0.750321  0.250000  0.500127  1
  Ca  Ca3  1  0.250327  0.750000  0.999896  1
  Ce  Ce4  1  0.751501  0.750000  0.499945  1
  Dy  Dy5  1  0.251307  0.250000  0.000008  1
  Dy  Dy6  1  0.748883  0.750000  0.000011  1
  Dy  Dy7  1  0.248720  0.250000  0.499976  1
  Hg  Hg8  1  0.004245  0.496029  0.244846  1
  Hg  Hg9  1  0.004245  0.003970  0.244846  1
  Hg  Hg10  1  0.495868  0.004090  0.248095  1
  Hg  Hg11  1  0.495868  0.495911  0.248095  1
  Hg  Hg12  1  0.495666  0.496042  0.752034  1
  Hg  Hg13  1  0.495666  0.003957  0.752034  1
  Hg  Hg14  1  0.003998  0.004184  0.755056  1
  Hg  Hg15  1  0.003998  0.495817  0.755056  1
