# generated using pymatgen
data_Ti9Cu(TcSn3)3
_symmetry_space_group_name_H-M   'P 1'
_cell_length_a   9.19020100
_cell_length_b   9.19020166
_cell_length_c   5.51499900
_cell_angle_alpha   90.00000000
_cell_angle_beta   90.00000000
_cell_angle_gamma   120.00000124
_symmetry_Int_Tables_number   1
_chemical_formula_structural   Ti9Cu(TcSn3)3
_chemical_formula_sum   'Ti9 Cu1 Tc3 Sn9'
_cell_volume   403.39091711
_cell_formula_units_Z   1
loop_
 _symmetry_equiv_pos_site_id
 _symmetry_equiv_pos_as_xyz
  1  'x, y, z'
loop_
 _atom_site_type_symbol
 _atom_site_label
 _atom_site_symmetry_multiplicity
 _atom_site_fract_x
 _atom_site_fract_y
 _atom_site_fract_z
 _atom_site_occupancy
  Ti  Ti0  1  0.849286  0.698571  0.746362  1
  Ti  Ti1  1  0.150714  0.849286  0.253638  1
  Ti  Ti2  1  0.698571  0.849286  0.253638  1
  Ti  Ti3  1  0.301429  0.150714  0.746362  1
  Ti  Ti4  1  0.849286  0.150714  0.746362  1
  Ti  Ti5  1  0.150714  0.301429  0.253638  1
  Ti  Ti6  1  0.500000  0.500000  0.000000  1
  Ti  Ti7  1  0.000000  0.500000  0.000000  1
  Ti  Ti8  1  0.500000  0.000000  0.000000  1
  Cu  Cu9  1  0.000000  0.000000  0.500000  1
  Tc  Tc10  1  0.500000  0.000000  0.500000  1
  Tc  Tc11  1  0.000000  0.500000  0.500000  1
  Tc  Tc12  1  0.500000  0.500000  0.500000  1
  Sn  Sn13  1  0.200841  0.401683  0.746084  1
  Sn  Sn14  1  0.799159  0.200841  0.253916  1
  Sn  Sn15  1  0.401683  0.200841  0.253916  1
  Sn  Sn16  1  0.598317  0.799159  0.746084  1
  Sn  Sn17  1  0.200841  0.799159  0.746084  1
  Sn  Sn18  1  0.799159  0.598317  0.253916  1
  Sn  Sn19  1  0.666667  0.333333  0.730457  1
  Sn  Sn20  1  0.333333  0.666667  0.269543  1
  Sn  Sn21  1  0.000000  0.000000  0.000000  1
