# generated using pymatgen
data_Ho3Er2P12Ru16Pt3
_symmetry_space_group_name_H-M   'P 1'
_cell_length_a   12.57769200
_cell_length_b   12.57769268
_cell_length_c   3.97799200
_cell_angle_alpha   90.00000000
_cell_angle_beta   90.00000000
_cell_angle_gamma   120.00000347
_symmetry_Int_Tables_number   1
_chemical_formula_structural   Ho3Er2P12Ru16Pt3
_chemical_formula_sum   'Ho3 Er2 P12 Ru16 Pt3'
_cell_volume   544.99994263
_cell_formula_units_Z   1
loop_
 _symmetry_equiv_pos_site_id
 _symmetry_equiv_pos_as_xyz
  1  'x, y, z'
loop_
 _atom_site_type_symbol
 _atom_site_label
 _atom_site_symmetry_multiplicity
 _atom_site_fract_x
 _atom_site_fract_y
 _atom_site_fract_z
 _atom_site_occupancy
  Ho  Ho0  1  0.181898  0.181898  0.500000  1
  Ho  Ho1  1  0.818102  0.000000  0.500000  1
  Ho  Ho2  1  0.000000  0.818102  0.500000  1
  Er  Er3  1  0.333333  0.666667  0.000000  1
  Er  Er4  1  0.666667  0.333333  0.000000  1
  P  P5  1  0.815592  0.815592  0.000000  1
  P  P6  1  0.184408  0.000000  0.000000  1
  P  P7  1  0.000000  0.184408  0.000000  1
  P  P8  1  0.180201  0.480648  0.500000  1
  P  P9  1  0.519352  0.699555  0.500000  1
  P  P10  1  0.300445  0.819799  0.500000  1
  P  P11  1  0.699555  0.519352  0.500000  1
  P  P12  1  0.819799  0.300445  0.500000  1
  P  P13  1  0.480648  0.180201  0.500000  1
  P  P14  1  0.364956  0.364956  0.000000  1
  P  P15  1  0.635044  0.000000  0.000000  1
  P  P16  1  0.000000  0.635044  0.000000  1
  Ru  Ru17  1  0.711680  0.711680  0.500000  1
  Ru  Ru18  1  0.288320  0.000000  0.500000  1
  Ru  Ru19  1  0.000000  0.288320  0.500000  1
  Ru  Ru20  1  0.184897  0.378218  0.000000  1
  Ru  Ru21  1  0.621782  0.806679  0.000000  1
  Ru  Ru22  1  0.193321  0.815103  0.000000  1
  Ru  Ru23  1  0.806679  0.621782  0.000000  1
  Ru  Ru24  1  0.815103  0.193321  0.000000  1
  Ru  Ru25  1  0.378218  0.184897  0.000000  1
  Ru  Ru26  1  0.369193  0.494328  0.500000  1
  Ru  Ru27  1  0.505672  0.874864  0.500000  1
  Ru  Ru28  1  0.125136  0.630807  0.500000  1
  Ru  Ru29  1  0.874864  0.505672  0.500000  1
  Ru  Ru30  1  0.630807  0.125136  0.500000  1
  Ru  Ru31  1  0.494328  0.369193  0.500000  1
  Ru  Ru32  1  0.000000  0.000000  0.000000  1
  Pt  Pt33  1  0.551568  0.551568  0.000000  1
  Pt  Pt34  1  0.448432  0.000000  0.000000  1
  Pt  Pt35  1  0.000000  0.448432  0.000000  1
