# generated using pymatgen
data_NdSm3(GaRu)4
_symmetry_space_group_name_H-M   'P 1'
_cell_length_a   4.58400400
_cell_length_b   7.37810441
_cell_length_c   7.12999810
_cell_angle_alpha   89.97107666
_cell_angle_beta   90.00000000
_cell_angle_gamma   90.00000000
_symmetry_Int_Tables_number   1
_chemical_formula_structural   NdSm3(GaRu)4
_chemical_formula_sum   'Nd1 Sm3 Ga4 Ru4'
_cell_volume   241.14548989
_cell_formula_units_Z   1
loop_
 _symmetry_equiv_pos_site_id
 _symmetry_equiv_pos_as_xyz
  1  'x, y, z'
loop_
 _atom_site_type_symbol
 _atom_site_label
 _atom_site_symmetry_multiplicity
 _atom_site_fract_x
 _atom_site_fract_y
 _atom_site_fract_z
 _atom_site_occupancy
  Nd  Nd0  1  0.750000  0.476937  0.308619  1
  Sm  Sm1  1  0.250000  0.023622  0.806177  1
  Sm  Sm2  1  0.250000  0.524286  0.694778  1
  Sm  Sm3  1  0.750000  0.976745  0.193400  1
  Ga  Ga4  1  0.250000  0.191002  0.393333  1
  Ga  Ga5  1  0.250000  0.693545  0.105529  1
  Ga  Ga6  1  0.750000  0.808134  0.607803  1
  Ga  Ga7  1  0.750000  0.307543  0.891995  1
  Ru  Ru8  1  0.250000  0.844209  0.436435  1
  Ru  Ru9  1  0.250000  0.343897  0.062142  1
  Ru  Ru10  1  0.750000  0.154362  0.563919  1
  Ru  Ru11  1  0.750000  0.655718  0.935869  1
