# generated using pymatgen
data_Cs5BaVAs4
_symmetry_space_group_name_H-M   'P 1'
_cell_length_a   11.12283319
_cell_length_b   11.12283197
_cell_length_c   8.50892775
_cell_angle_alpha   87.92975288
_cell_angle_beta   87.92975418
_cell_angle_gamma   121.27749884
_symmetry_Int_Tables_number   1
_chemical_formula_structural   Cs5BaVAs4
_chemical_formula_sum   'Cs10 Ba2 V2 As8'
_cell_volume   897.26037903
_cell_formula_units_Z   2
loop_
 _symmetry_equiv_pos_site_id
 _symmetry_equiv_pos_as_xyz
  1  'x, y, z'
loop_
 _atom_site_type_symbol
 _atom_site_label
 _atom_site_symmetry_multiplicity
 _atom_site_fract_x
 _atom_site_fract_y
 _atom_site_fract_z
 _atom_site_occupancy
  Cs  Cs0  1  0.462437  0.525883  0.493187  1
  Cs  Cs1  1  0.065761  0.529344  0.498618  1
  Cs  Cs2  1  0.525883  0.462437  0.993187  1
  Cs  Cs3  1  0.529344  0.065761  0.998618  1
  Cs  Cs4  1  0.866279  0.140745  0.680128  1
  Cs  Cs5  1  0.290602  0.149904  0.721311  1
  Cs  Cs6  1  0.856181  0.715834  0.652824  1
  Cs  Cs7  1  0.140745  0.866279  0.180128  1
  Cs  Cs8  1  0.715834  0.856181  0.152824  1
  Cs  Cs9  1  0.149904  0.290602  0.221311  1
  Ba  Ba10  1  0.466083  0.937792  0.494961  1
  Ba  Ba11  1  0.937792  0.466083  0.994961  1
  V  V12  1  0.671247  0.328372  0.394037  1
  V  V13  1  0.328372  0.671247  0.894037  1
  As  As14  1  0.686621  0.337408  0.675657  1
  As  As15  1  0.337408  0.686621  0.175657  1
  As  As16  1  0.783709  0.206516  0.295285  1
  As  As17  1  0.426580  0.198471  0.334296  1
  As  As18  1  0.790772  0.563458  0.273982  1
  As  As19  1  0.206516  0.783709  0.795285  1
  As  As20  1  0.563458  0.790772  0.773982  1
  As  As21  1  0.198471  0.426580  0.834296  1
