# generated using pymatgen
data_Nd5MnPtO12
_symmetry_space_group_name_H-M   'P 1'
_cell_length_a   7.08320828
_cell_length_b   7.08320824
_cell_length_c   7.56472427
_cell_angle_alpha   74.54808252
_cell_angle_beta   74.54808477
_cell_angle_gamma   50.36288291
_symmetry_Int_Tables_number   1
_chemical_formula_structural   Nd5MnPtO12
_chemical_formula_sum   'Nd5 Mn1 Pt1 O12'
_cell_volume   279.32682561
_cell_formula_units_Z   1
loop_
 _symmetry_equiv_pos_site_id
 _symmetry_equiv_pos_as_xyz
  1  'x, y, z'
loop_
 _atom_site_type_symbol
 _atom_site_label
 _atom_site_symmetry_multiplicity
 _atom_site_fract_x
 _atom_site_fract_y
 _atom_site_fract_z
 _atom_site_occupancy
  Nd  Nd0  1  0.299698  0.309350  0.357671  1
  Nd  Nd1  1  0.690650  0.700302  0.642329  1
  Nd  Nd2  1  0.694711  0.694164  0.164667  1
  Nd  Nd3  1  0.305836  0.305289  0.835333  1
  Nd  Nd4  1  0.001635  0.998365  0.500000  1
  Mn  Mn5  1  0.246912  0.753088  0.000000  1
  Pt  Pt6  1  0.756126  0.243874  0.000000  1
  O  O7  1  0.094441  0.597769  0.577100  1
  O  O8  1  0.010011  0.988705  0.173496  1
  O  O9  1  0.402231  0.905559  0.422900  1
  O  O10  1  0.493132  0.507418  0.173491  1
  O  O11  1  0.102692  0.583060  0.077938  1
  O  O12  1  0.902739  0.402935  0.423884  1
  O  O13  1  0.011295  0.989989  0.826504  1
  O  O14  1  0.597065  0.097260  0.576116  1
  O  O15  1  0.492582  0.506868  0.826509  1
  O  O16  1  0.578660  0.097355  0.079872  1
  O  O17  1  0.416940  0.897308  0.922062  1
  O  O18  1  0.902645  0.421340  0.920128  1
