# generated using pymatgen
data_Pr2Ga12Cu
_symmetry_space_group_name_H-M   'P 1'
_cell_length_a   6.19214300
_cell_length_b   6.19214300
_cell_length_c   15.34539000
_cell_angle_alpha   90.00000000
_cell_angle_beta   90.00000000
_cell_angle_gamma   90.00000000
_symmetry_Int_Tables_number   1
_chemical_formula_structural   Pr2Ga12Cu
_chemical_formula_sum   'Pr4 Ga24 Cu2'
_cell_volume   588.38268667
_cell_formula_units_Z   2
loop_
 _symmetry_equiv_pos_site_id
 _symmetry_equiv_pos_as_xyz
  1  'x, y, z'
loop_
 _atom_site_type_symbol
 _atom_site_label
 _atom_site_symmetry_multiplicity
 _atom_site_fract_x
 _atom_site_fract_y
 _atom_site_fract_z
 _atom_site_occupancy
  Pr  Pr0  1  0.750000  0.250000  0.246757  1
  Pr  Pr1  1  0.250000  0.750000  0.246757  1
  Pr  Pr2  1  0.250000  0.750000  0.753243  1
  Pr  Pr3  1  0.750000  0.250000  0.753243  1
  Ga  Ga4  1  0.250000  0.250000  0.179427  1
  Ga  Ga5  1  0.750000  0.750000  0.179427  1
  Ga  Ga6  1  0.750000  0.750000  0.820573  1
  Ga  Ga7  1  0.250000  0.250000  0.820573  1
  Ga  Ga8  1  0.250000  0.250000  0.341234  1
  Ga  Ga9  1  0.750000  0.750000  0.341234  1
  Ga  Ga10  1  0.750000  0.750000  0.658766  1
  Ga  Ga11  1  0.250000  0.250000  0.658766  1
  Ga  Ga12  1  0.500070  0.000070  0.915109  1
  Ga  Ga13  1  0.000070  0.999930  0.915109  1
  Ga  Ga14  1  0.499930  0.500070  0.915109  1
  Ga  Ga15  1  0.999930  0.499930  0.915109  1
  Ga  Ga16  1  0.499930  0.999930  0.084891  1
  Ga  Ga17  1  0.999930  0.000070  0.084891  1
  Ga  Ga18  1  0.500070  0.499930  0.084891  1
  Ga  Ga19  1  0.000070  0.500070  0.084891  1
  Ga  Ga20  1  0.576226  0.076226  0.429529  1
  Ga  Ga21  1  0.076226  0.923774  0.429529  1
  Ga  Ga22  1  0.423774  0.576226  0.429529  1
  Ga  Ga23  1  0.923774  0.423774  0.429529  1
  Ga  Ga24  1  0.423774  0.923774  0.570471  1
  Ga  Ga25  1  0.923774  0.076226  0.570471  1
  Ga  Ga26  1  0.576226  0.423774  0.570471  1
  Ga  Ga27  1  0.076226  0.576226  0.570471  1
  Cu  Cu28  1  0.750000  0.250000  0.000000  1
  Cu  Cu29  1  0.250000  0.750000  0.000000  1
