# generated using pymatgen
data_La5Ga6Mo5O24
_symmetry_space_group_name_H-M   'P 1'
_cell_length_a   11.13102138
_cell_length_b   11.13101966
_cell_length_c   11.11544300
_cell_angle_alpha   109.36530059
_cell_angle_beta   109.36529747
_cell_angle_gamma   109.73975000
_symmetry_Int_Tables_number   1
_chemical_formula_structural   La5Ga6Mo5O24
_chemical_formula_sum   'La10 Ga12 Mo10 O48'
_cell_volume   1059.41474553
_cell_formula_units_Z   2
loop_
 _symmetry_equiv_pos_site_id
 _symmetry_equiv_pos_as_xyz
  1  'x, y, z'
loop_
 _atom_site_type_symbol
 _atom_site_label
 _atom_site_symmetry_multiplicity
 _atom_site_fract_x
 _atom_site_fract_y
 _atom_site_fract_z
 _atom_site_occupancy
  La  La0  1  0.250861  0.375544  0.122461  1
  La  La1  1  0.749139  0.624456  0.877539  1
  La  La2  1  0.753084  0.128400  0.377539  1
  La  La3  1  0.124456  0.249139  0.377539  1
  La  La4  1  0.371600  0.746916  0.122461  1
  La  La5  1  0.246916  0.871600  0.622461  1
  La  La6  1  0.875544  0.750861  0.622461  1
  La  La7  1  0.628400  0.253084  0.877539  1
  La  La8  1  0.375000  0.125000  0.250000  1
  La  La9  1  0.625000  0.875000  0.750000  1
  Ga  Ga10  1  0.248655  0.623829  0.373427  1
  Ga  Ga11  1  0.751345  0.376171  0.626573  1
  Ga  Ga12  1  0.750402  0.875228  0.126573  1
  Ga  Ga13  1  0.375228  0.250402  0.626573  1
  Ga  Ga14  1  0.624772  0.749598  0.373427  1
  Ga  Ga15  1  0.249598  0.124772  0.873427  1
  Ga  Ga16  1  0.123829  0.748655  0.873427  1
  Ga  Ga17  1  0.876171  0.251345  0.126573  1
  Ga  Ga18  1  0.630899  0.380899  0.250000  1
  Ga  Ga19  1  0.369101  0.619101  0.750000  1
  Ga  Ga20  1  0.880899  0.130899  0.750000  1
  Ga  Ga21  1  0.119101  0.869101  0.250000  1
  Mo  Mo22  1  0.125000  0.375000  0.750000  1
  Mo  Mo23  1  0.875000  0.625000  0.250000  1
  Mo  Mo24  1  0.000000  0.000000  0.000000  1
  Mo  Mo25  1  0.500000  0.000000  0.500000  1
  Mo  Mo26  1  0.000000  0.500000  0.500000  1
  Mo  Mo27  1  0.500000  0.000000  0.000000  1
  Mo  Mo28  1  0.500000  0.500000  0.000000  1
  Mo  Mo29  1  0.500000  0.500000  0.500000  1
  Mo  Mo30  1  0.000000  0.000000  0.500000  1
  Mo  Mo31  1  0.000000  0.500000  0.000000  1
  O  O32  1  0.479426  0.380267  0.288856  1
  O  O33  1  0.520574  0.619733  0.711144  1
  O  O34  1  0.591411  0.190570  0.211144  1
  O  O35  1  0.930896  0.144813  0.606994  1
  O  O36  1  0.288018  0.474532  0.379130  1
  O  O37  1  0.309430  0.908589  0.288856  1
  O  O38  1  0.408589  0.809430  0.788856  1
  O  O39  1  0.069104  0.855187  0.393006  1
  O  O40  1  0.711982  0.525468  0.620870  1
  O  O41  1  0.690570  0.091411  0.711144  1
  O  O42  1  0.037820  0.323901  0.893006  1
  O  O43  1  0.211570  0.588170  0.185066  1
  O  O44  1  0.119733  0.020574  0.211144  1
  O  O45  1  0.962180  0.676099  0.106994  1
  O  O46  1  0.788430  0.411830  0.814934  1
  O  O47  1  0.880267  0.979426  0.788856  1
  O  O48  1  0.595403  0.908888  0.120870  1
  O  O49  1  0.176099  0.462180  0.606994  1
  O  O50  1  0.404597  0.091112  0.879130  1
  O  O51  1  0.823901  0.537820  0.393006  1
  O  O52  1  0.903105  0.026504  0.314934  1
  O  O53  1  0.355187  0.569104  0.893006  1
  O  O54  1  0.096895  0.973496  0.685066  1
  O  O55  1  0.644813  0.430896  0.106994  1
  O  O56  1  0.376668  0.288162  0.474448  1
  O  O57  1  0.591112  0.904597  0.379130  1
  O  O58  1  0.623332  0.711838  0.525552  1
  O  O59  1  0.408888  0.095403  0.620870  1
  O  O60  1  0.118824  0.595967  0.908309  1
  O  O61  1  0.025468  0.211982  0.120870  1
  O  O62  1  0.881176  0.404033  0.091691  1
  O  O63  1  0.974532  0.788018  0.879130  1
  O  O64  1  0.313715  0.902220  0.025552  1
  O  O65  1  0.911830  0.288430  0.314934  1
  O  O66  1  0.686285  0.097780  0.974448  1
  O  O67  1  0.088170  0.711570  0.685066  1
  O  O68  1  0.187658  0.210515  0.591691  1
  O  O69  1  0.473496  0.596895  0.185066  1
  O  O70  1  0.812342  0.789485  0.408309  1
  O  O71  1  0.526504  0.403105  0.814934  1
  O  O72  1  0.289485  0.312342  0.908309  1
  O  O73  1  0.710515  0.687658  0.091691  1
  O  O74  1  0.211838  0.123332  0.025552  1
  O  O75  1  0.788162  0.876668  0.974448  1
  O  O76  1  0.904033  0.381176  0.591691  1
  O  O77  1  0.095967  0.618824  0.408309  1
  O  O78  1  0.597780  0.186285  0.474448  1
  O  O79  1  0.402220  0.813715  0.525552  1
