# generated using pymatgen
data_ErTm2Ni9
_symmetry_space_group_name_H-M   'P 1'
_cell_length_a   8.58404192
_cell_length_b   8.58464158
_cell_length_c   8.58282847
_cell_angle_alpha   33.33531052
_cell_angle_beta   33.32901220
_cell_angle_gamma   33.34734688
_symmetry_Int_Tables_number   1
_chemical_formula_structural   ErTm2Ni9
_chemical_formula_sum   'Er1 Tm2 Ni9'
_cell_volume   170.08648899
_cell_formula_units_Z   1
loop_
 _symmetry_equiv_pos_site_id
 _symmetry_equiv_pos_as_xyz
  1  'x, y, z'
loop_
 _atom_site_type_symbol
 _atom_site_label
 _atom_site_symmetry_multiplicity
 _atom_site_fract_x
 _atom_site_fract_y
 _atom_site_fract_z
 _atom_site_occupancy
  Er  Er0  1  0.000000  0.000000  0.000000  1
  Tm  Tm1  1  0.139038  0.139037  0.139040  1
  Tm  Tm2  1  0.860962  0.860963  0.860960  1
  Ni  Ni3  1  0.582930  0.582930  0.080746  1
  Ni  Ni4  1  0.333177  0.333177  0.333195  1
  Ni  Ni5  1  0.919254  0.417069  0.417073  1
  Ni  Ni6  1  0.417070  0.919253  0.417074  1
  Ni  Ni7  1  0.500000  0.500000  0.500000  1
  Ni  Ni8  1  0.582930  0.080747  0.582926  1
  Ni  Ni9  1  0.080746  0.582931  0.582927  1
  Ni  Ni10  1  0.666823  0.666823  0.666805  1
  Ni  Ni11  1  0.417070  0.417070  0.919254  1
