# generated using pymatgen
data_Tb5Er12(TmBi4)3
_symmetry_space_group_name_H-M   'P 1'
_cell_length_a   8.22954961
_cell_length_b   9.47626558
_cell_length_c   11.99113903
_cell_angle_alpha   89.98052343
_cell_angle_beta   90.07655986
_cell_angle_gamma   90.01032034
_symmetry_Int_Tables_number   1
_chemical_formula_structural   Tb5Er12(TmBi4)3
_chemical_formula_sum   'Tb5 Er12 Tm3 Bi12'
_cell_volume   935.13284217
_cell_formula_units_Z   1
loop_
 _symmetry_equiv_pos_site_id
 _symmetry_equiv_pos_as_xyz
  1  'x, y, z'
loop_
 _atom_site_type_symbol
 _atom_site_label
 _atom_site_symmetry_multiplicity
 _atom_site_fract_x
 _atom_site_fract_y
 _atom_site_fract_z
 _atom_site_occupancy
  Tb  Tb0  1  0.192462  0.563564  0.440466  1
  Tb  Tb1  1  0.312837  0.250028  0.218545  1
  Tb  Tb2  1  0.813041  0.250009  0.281349  1
  Tb  Tb3  1  0.687260  0.750140  0.781625  1
  Tb  Tb4  1  0.187177  0.750438  0.718935  1
  Er  Er5  1  0.353582  0.750639  0.216820  1
  Er  Er6  1  0.852354  0.750424  0.282664  1
  Er  Er7  1  0.647262  0.250142  0.782928  1
  Er  Er8  1  0.147383  0.250414  0.717130  1
  Er  Er9  1  0.693162  0.565564  0.059370  1
  Er  Er10  1  0.193059  0.934389  0.440392  1
  Er  Er11  1  0.306729  0.065514  0.940692  1
  Er  Er12  1  0.807424  0.434506  0.559333  1
  Er  Er13  1  0.306914  0.434421  0.940549  1
  Er  Er14  1  0.806398  0.065278  0.559733  1
  Er  Er15  1  0.693201  0.934471  0.059343  1
  Er  Er16  1  0.476051  0.250048  0.488768  1
  Tm  Tm17  1  0.975830  0.250235  0.011116  1
  Tm  Tm18  1  0.524711  0.750244  0.511484  1
  Tm  Tm19  1  0.024072  0.750061  0.988612  1
  Bi  Bi20  1  0.405552  0.749928  0.958771  1
  Bi  Bi21  1  0.905072  0.750700  0.541481  1
  Bi  Bi22  1  0.594493  0.250028  0.041200  1
  Bi  Bi23  1  0.093371  0.247267  0.459277  1
  Bi  Bi24  1  0.565595  0.994673  0.325982  1
  Bi  Bi25  1  0.065263  0.505683  0.173207  1
  Bi  Bi26  1  0.434562  0.494937  0.674173  1
  Bi  Bi27  1  0.934504  0.005823  0.826386  1
  Bi  Bi28  1  0.434644  0.005512  0.673957  1
  Bi  Bi29  1  0.934335  0.494598  0.826445  1
  Bi  Bi30  1  0.566237  0.505780  0.325859  1
  Bi  Bi31  1  0.065461  0.994543  0.173409  1
