# generated using pymatgen
data_La7MnPt15
_symmetry_space_group_name_H-M   'P 1'
_cell_length_a   9.51477697
_cell_length_b   9.69528370
_cell_length_c   9.62565400
_cell_angle_alpha   132.05803407
_cell_angle_beta   131.57967730
_cell_angle_gamma   70.34187108
_symmetry_Int_Tables_number   1
_chemical_formula_structural   La7MnPt15
_chemical_formula_sum   'La7 Mn1 Pt15'
_cell_volume   483.71593213
_cell_formula_units_Z   1
loop_
 _symmetry_equiv_pos_site_id
 _symmetry_equiv_pos_as_xyz
  1  'x, y, z'
loop_
 _atom_site_type_symbol
 _atom_site_label
 _atom_site_symmetry_multiplicity
 _atom_site_fract_x
 _atom_site_fract_y
 _atom_site_fract_z
 _atom_site_occupancy
  La  La0  1  0.097943  0.101303  0.411198  1
  La  La1  1  0.686744  0.690104  0.588802  1
  La  La2  1  0.903126  0.295396  0.000000  1
  La  La3  1  0.760891  0.256779  0.521382  1
  La  La4  1  0.505495  0.506947  0.000000  1
  La  La5  1  0.321004  0.893952  0.000000  1
  La  La6  1  0.239509  0.735397  0.478618  1
  Mn  Mn7  1  0.432855  0.195421  0.000000  1
  Pt  Pt8  1  0.688394  0.937794  0.497367  1
  Pt  Pt9  1  0.935748  0.683741  0.488206  1
  Pt  Pt10  1  0.203735  0.431583  0.000000  1
  Pt  Pt11  1  0.317409  0.805176  0.250816  1
  Pt  Pt12  1  0.938689  0.676150  0.000000  1
  Pt  Pt13  1  0.806854  0.815047  0.244693  1
  Pt  Pt14  1  0.066592  0.554359  0.749184  1
  Pt  Pt15  1  0.075611  0.055128  0.736699  1
  Pt  Pt16  1  0.653718  0.946922  0.000000  1
  Pt  Pt17  1  0.562160  0.570353  0.755307  1
  Pt  Pt18  1  0.789861  0.323869  0.253682  1
  Pt  Pt19  1  0.536177  0.070185  0.746318  1
  Pt  Pt20  1  0.191028  0.440428  0.502633  1
  Pt  Pt21  1  0.338912  0.318430  0.263301  1
  Pt  Pt22  1  0.447543  0.195536  0.511794  1
