# generated using pymatgen
data_Nd2Ho8In8PdAu3
_symmetry_space_group_name_H-M   'P 1'
_cell_length_a   3.67971600
_cell_length_b   8.20112228
_cell_length_c   18.46571402
_cell_angle_alpha   89.98786112
_cell_angle_beta   90.00000000
_cell_angle_gamma   90.00000000
_symmetry_Int_Tables_number   1
_chemical_formula_structural   Nd2Ho8In8PdAu3
_chemical_formula_sum   'Nd2 Ho8 In8 Pd1 Au3'
_cell_volume   557.25462839
_cell_formula_units_Z   1
loop_
 _symmetry_equiv_pos_site_id
 _symmetry_equiv_pos_as_xyz
  1  'x, y, z'
loop_
 _atom_site_type_symbol
 _atom_site_label
 _atom_site_symmetry_multiplicity
 _atom_site_fract_x
 _atom_site_fract_y
 _atom_site_fract_z
 _atom_site_occupancy
  Nd  Nd0  1  0.000000  0.501134  0.499506  1
  Nd  Nd1  1  0.000000  0.000329  0.000474  1
  Ho  Ho2  1  0.000000  0.746432  0.282322  1
  Ho  Ho3  1  0.000000  0.262814  0.718220  1
  Ho  Ho4  1  0.000000  0.762685  0.781411  1
  Ho  Ho5  1  0.000000  0.231543  0.220286  1
  Ho  Ho6  1  0.000000  0.618725  0.081004  1
  Ho  Ho7  1  0.000000  0.381144  0.919789  1
  Ho  Ho8  1  0.000000  0.880828  0.579779  1
  Ho  Ho9  1  0.000000  0.115183  0.416350  1
  In  In10  1  0.500000  0.707076  0.931887  1
  In  In11  1  0.500000  0.292153  0.069113  1
  In  In12  1  0.500000  0.794883  0.430380  1
  In  In13  1  0.500000  0.206721  0.567321  1
  In  In14  1  0.500000  0.582072  0.648591  1
  In  In15  1  0.500000  0.415613  0.350324  1
  In  In16  1  0.500000  0.919867  0.150735  1
  In  In17  1  0.500000  0.082267  0.851381  1
  Pd  Pd18  1  0.500000  0.025306  0.304016  1
  Au  Au19  1  0.500000  0.526320  0.197225  1
  Au  Au20  1  0.500000  0.473465  0.803526  1
  Au  Au21  1  0.500000  0.973440  0.696358  1
