# generated using pymatgen
data_Hf2Zr2(B5Ir4)3
_symmetry_space_group_name_H-M   'P 1'
_cell_length_a   3.52868817
_cell_length_b   7.59743805
_cell_length_c   13.15218213
_cell_angle_alpha   90.03145237
_cell_angle_beta   90.06791708
_cell_angle_gamma   90.01726837
_symmetry_Int_Tables_number   1
_chemical_formula_structural   Hf2Zr2(B5Ir4)3
_chemical_formula_sum   'Hf2 Zr2 B15 Ir12'
_cell_volume   352.59639978
_cell_formula_units_Z   1
loop_
 _symmetry_equiv_pos_site_id
 _symmetry_equiv_pos_as_xyz
  1  'x, y, z'
loop_
 _atom_site_type_symbol
 _atom_site_label
 _atom_site_symmetry_multiplicity
 _atom_site_fract_x
 _atom_site_fract_y
 _atom_site_fract_z
 _atom_site_occupancy
  Hf  Hf0  1  0.256711  0.497772  0.831669  1
  Hf  Hf1  1  0.259544  0.002118  0.334516  1
  Zr  Zr2  1  0.757520  0.999306  0.663991  1
  Zr  Zr3  1  0.757143  0.500479  0.169389  1
  B  B4  1  0.504608  0.000495  0.999616  1
  B  B5  1  0.277763  0.498539  0.500346  1
  B  B6  1  0.005070  0.999840  0.999722  1
  B  B7  1  0.761754  0.327645  0.721625  1
  B  B8  1  0.758443  0.828364  0.224563  1
  B  B9  1  0.754234  0.750772  0.799807  1
  B  B10  1  0.760768  0.252230  0.305406  1
  B  B11  1  0.755973  0.423413  0.974170  1
  B  B12  1  0.763975  0.918187  0.474655  1
  B  B13  1  0.252615  0.173973  0.774839  1
  B  B14  1  0.257220  0.674471  0.276521  1
  B  B15  1  0.259028  0.748187  0.698268  1
  B  B16  1  0.256524  0.250756  0.200473  1
  B  B17  1  0.254621  0.076778  0.524624  1
  B  B18  1  0.256031  0.575919  0.025034  1
  Ir  Ir19  1  0.759126  0.592266  0.667538  1
  Ir  Ir20  1  0.757046  0.092661  0.165979  1
  Ir  Ir21  1  0.755890  0.705585  0.961793  1
  Ir  Ir22  1  0.754910  0.202394  0.464287  1
  Ir  Ir23  1  0.753626  0.201665  0.871886  1
  Ir  Ir24  1  0.758271  0.705279  0.368770  1
  Ir  Ir25  1  0.253888  0.909628  0.836532  1
  Ir  Ir26  1  0.260803  0.410828  0.339856  1
  Ir  Ir27  1  0.263257  0.783913  0.535411  1
  Ir  Ir28  1  0.255595  0.292312  0.036802  1
  Ir  Ir29  1  0.261210  0.302979  0.625501  1
  Ir  Ir30  1  0.256834  0.801245  0.126413  1
