# generated using pymatgen
data_Na3Yb(CdAu)4
_symmetry_space_group_name_H-M   'P 1'
_cell_length_a   4.47010200
_cell_length_b   7.37277716
_cell_length_c   8.69853654
_cell_angle_alpha   89.93377306
_cell_angle_beta   90.00000000
_cell_angle_gamma   90.00000000
_symmetry_Int_Tables_number   1
_chemical_formula_structural   Na3Yb(CdAu)4
_chemical_formula_sum   'Na3 Yb1 Cd4 Au4'
_cell_volume   286.67805069
_cell_formula_units_Z   1
loop_
 _symmetry_equiv_pos_site_id
 _symmetry_equiv_pos_as_xyz
  1  'x, y, z'
loop_
 _atom_site_type_symbol
 _atom_site_label
 _atom_site_symmetry_multiplicity
 _atom_site_fract_x
 _atom_site_fract_y
 _atom_site_fract_z
 _atom_site_occupancy
  Na  Na0  1  0.750000  0.959431  0.681402  1
  Na  Na1  1  0.250000  0.537252  0.176547  1
  Na  Na2  1  0.750000  0.461568  0.823150  1
  Yb  Yb3  1  0.250000  0.039495  0.321580  1
  Cd  Cd4  1  0.250000  0.149728  0.936282  1
  Cd  Cd5  1  0.250000  0.647897  0.561226  1
  Cd  Cd6  1  0.750000  0.845454  0.056109  1
  Cd  Cd7  1  0.750000  0.363621  0.441298  1
  Au  Au8  1  0.250000  0.250349  0.622870  1
  Au  Au9  1  0.250000  0.755820  0.869413  1
  Au  Au10  1  0.750000  0.231135  0.138403  1
  Au  Au11  1  0.750000  0.758250  0.371720  1
