# generated using pymatgen
data_Al4Fe6Si5Ge
_symmetry_space_group_name_H-M   'P 1'
_cell_length_a   4.63304920
_cell_length_b   6.34233055
_cell_length_c   7.48961125
_cell_angle_alpha   101.76483205
_cell_angle_beta   106.65304423
_cell_angle_gamma   100.41693011
_symmetry_Int_Tables_number   1
_chemical_formula_structural   Al4Fe6Si5Ge
_chemical_formula_sum   'Al4 Fe6 Si5 Ge1'
_cell_volume   199.58941933
_cell_formula_units_Z   1
loop_
 _symmetry_equiv_pos_site_id
 _symmetry_equiv_pos_as_xyz
  1  'x, y, z'
loop_
 _atom_site_type_symbol
 _atom_site_label
 _atom_site_symmetry_multiplicity
 _atom_site_fract_x
 _atom_site_fract_y
 _atom_site_fract_z
 _atom_site_occupancy
  Al  Al0  1  0.410984  0.674322  0.047921  1
  Al  Al1  1  0.948362  0.354637  0.727857  1
  Al  Al2  1  0.054051  0.648573  0.271500  1
  Al  Al3  1  0.583750  0.324042  0.945383  1
  Fe  Fe4  1  0.636601  0.972378  0.767764  1
  Fe  Fe5  1  0.359917  0.021632  0.230850  1
  Fe  Fe6  1  0.863261  0.681113  0.942823  1
  Fe  Fe7  1  0.128828  0.315334  0.053406  1
  Fe  Fe8  1  0.971131  0.713445  0.588365  1
  Fe  Fe9  1  0.042052  0.290032  0.417477  1
  Si  Si10  1  0.275438  0.039891  0.533159  1
  Si  Si11  1  0.454883  0.589149  0.657001  1
  Si  Si12  1  0.819873  0.022865  0.114023  1
  Si  Si13  1  0.178108  0.976880  0.886727  1
  Si  Si14  1  0.725855  0.960022  0.468244  1
  Ge  Ge15  1  0.546907  0.415686  0.347502  1
