# generated using pymatgen
data_DyLu4Ag5
_symmetry_space_group_name_H-M   'P 1'
_cell_length_a   3.58634200
_cell_length_b   3.58634200
_cell_length_c   17.82485600
_cell_angle_alpha   90.00000000
_cell_angle_beta   90.00000000
_cell_angle_gamma   90.00000000
_symmetry_Int_Tables_number   1
_chemical_formula_structural   DyLu4Ag5
_chemical_formula_sum   'Dy1 Lu4 Ag5'
_cell_volume   229.26060527
_cell_formula_units_Z   1
loop_
 _symmetry_equiv_pos_site_id
 _symmetry_equiv_pos_as_xyz
  1  'x, y, z'
loop_
 _atom_site_type_symbol
 _atom_site_label
 _atom_site_symmetry_multiplicity
 _atom_site_fract_x
 _atom_site_fract_y
 _atom_site_fract_z
 _atom_site_occupancy
  Dy  Dy0  1  0.000000  0.000000  0.000000  1
  Lu  Lu1  1  0.000000  0.000000  0.200621  1
  Lu  Lu2  1  0.000000  0.000000  0.399616  1
  Lu  Lu3  1  0.000000  0.000000  0.600384  1
  Lu  Lu4  1  0.000000  0.000000  0.799379  1
  Ag  Ag5  1  0.500000  0.500000  0.101906  1
  Ag  Ag6  1  0.500000  0.500000  0.300179  1
  Ag  Ag7  1  0.500000  0.500000  0.500000  1
  Ag  Ag8  1  0.500000  0.500000  0.699821  1
  Ag  Ag9  1  0.500000  0.500000  0.898094  1
