# generated using pymatgen
data_Y9Lu(GeB4)4
_symmetry_space_group_name_H-M   'P 1'
_cell_length_a   7.25994000
_cell_length_b   7.25994000
_cell_length_c   8.12720300
_cell_angle_alpha   90.00000000
_cell_angle_beta   90.00000000
_cell_angle_gamma   90.00000000
_symmetry_Int_Tables_number   1
_chemical_formula_structural   Y9Lu(GeB4)4
_chemical_formula_sum   'Y9 Lu1 Ge4 B16'
_cell_volume   428.35828445
_cell_formula_units_Z   1
loop_
 _symmetry_equiv_pos_site_id
 _symmetry_equiv_pos_as_xyz
  1  'x, y, z'
loop_
 _atom_site_type_symbol
 _atom_site_label
 _atom_site_symmetry_multiplicity
 _atom_site_fract_x
 _atom_site_fract_y
 _atom_site_fract_z
 _atom_site_occupancy
  Y  Y0  1  0.680797  0.180108  0.222192  1
  Y  Y1  1  0.319203  0.819892  0.777808  1
  Y  Y2  1  0.319203  0.819892  0.222192  1
  Y  Y3  1  0.819892  0.680797  0.222192  1
  Y  Y4  1  0.819892  0.680797  0.777808  1
  Y  Y5  1  0.680797  0.180108  0.777808  1
  Y  Y6  1  0.180108  0.319203  0.777808  1
  Y  Y7  1  0.180108  0.319203  0.222192  1
  Y  Y8  1  0.500000  0.500000  0.500000  1
  Lu  Lu9  1  0.000000  0.000000  0.500000  1
  Ge  Ge10  1  0.118205  0.622734  0.500000  1
  Ge  Ge11  1  0.881795  0.377266  0.500000  1
  Ge  Ge12  1  0.377266  0.118205  0.500000  1
  Ge  Ge13  1  0.622734  0.881795  0.500000  1
  B  B14  1  0.172249  0.039162  0.000000  1
  B  B15  1  0.827751  0.960838  0.000000  1
  B  B16  1  0.960838  0.172249  0.000000  1
  B  B17  1  0.327749  0.539186  0.000000  1
  B  B18  1  0.039162  0.827751  0.000000  1
  B  B19  1  0.672251  0.460814  0.000000  1
  B  B20  1  0.539186  0.672251  0.000000  1
  B  B21  1  0.460814  0.327749  0.000000  1
  B  B22  1  0.090136  0.590032  0.000000  1
  B  B23  1  0.909864  0.409968  0.000000  1
  B  B24  1  0.409968  0.090136  0.000000  1
  B  B25  1  0.590032  0.909864  0.000000  1
  B  B26  1  0.000000  0.000000  0.162632  1
  B  B27  1  0.000000  0.000000  0.837368  1
  B  B28  1  0.500000  0.500000  0.838130  1
  B  B29  1  0.500000  0.500000  0.161870  1
