# generated using pymatgen
data_Lu3Ir2Pb
_symmetry_space_group_name_H-M   'P 1'
_cell_length_a   3.30892400
_cell_length_b   3.30892400
_cell_length_c   11.91240900
_cell_angle_alpha   90.00000000
_cell_angle_beta   90.00000000
_cell_angle_gamma   90.00000000
_symmetry_Int_Tables_number   1
_chemical_formula_structural   Lu3Ir2Pb
_chemical_formula_sum   'Lu3 Ir2 Pb1'
_cell_volume   130.42870452
_cell_formula_units_Z   1
loop_
 _symmetry_equiv_pos_site_id
 _symmetry_equiv_pos_as_xyz
  1  'x, y, z'
loop_
 _atom_site_type_symbol
 _atom_site_label
 _atom_site_symmetry_multiplicity
 _atom_site_fract_x
 _atom_site_fract_y
 _atom_site_fract_z
 _atom_site_occupancy
  Lu  Lu0  1  0.499999  0.499999  0.000000  1
  Lu  Lu1  1  0.499999  0.499999  0.289937  1
  Lu  Lu2  1  0.499999  0.499999  0.710063  1
  Ir  Ir3  1  0.000000  0.000000  0.151093  1
  Ir  Ir4  1  0.000000  0.000000  0.848907  1
  Pb  Pb5  1  0.000000  0.000000  0.500000  1
