# generated using pymatgen
data_Ho5MnFeO12
_symmetry_space_group_name_H-M   'P 1'
_cell_length_a   6.75941221
_cell_length_b   6.75941182
_cell_length_c   7.16309429
_cell_angle_alpha   74.57314936
_cell_angle_beta   74.57314903
_cell_angle_gamma   50.62749468
_symmetry_Int_Tables_number   1
_chemical_formula_structural   Ho5MnFeO12
_chemical_formula_sum   'Ho5 Mn1 Fe1 O12'
_cell_volume   241.79766171
_cell_formula_units_Z   1
loop_
 _symmetry_equiv_pos_site_id
 _symmetry_equiv_pos_as_xyz
  1  'x, y, z'
loop_
 _atom_site_type_symbol
 _atom_site_label
 _atom_site_symmetry_multiplicity
 _atom_site_fract_x
 _atom_site_fract_y
 _atom_site_fract_z
 _atom_site_occupancy
  Ho  Ho0  1  0.305261  0.300064  0.358169  1
  Ho  Ho1  1  0.699936  0.694739  0.641831  1
  Ho  Ho2  1  0.303894  0.307399  0.835363  1
  Ho  Ho3  1  0.692601  0.696106  0.164637  1
  Ho  Ho4  1  0.005526  0.994474  0.500000  1
  Mn  Mn5  1  0.753616  0.246384  0.000000  1
  Fe  Fe6  1  0.242321  0.757679  0.000000  1
  O  O7  1  0.900532  0.424595  0.919799  1
  O  O8  1  0.418712  0.900131  0.919342  1
  O  O9  1  0.099869  0.581288  0.080658  1
  O  O10  1  0.575405  0.099468  0.080201  1
  O  O11  1  0.099388  0.596528  0.573643  1
  O  O12  1  0.599353  0.095834  0.576694  1
  O  O13  1  0.904166  0.400647  0.423306  1
  O  O14  1  0.403472  0.900612  0.426357  1
  O  O15  1  0.002189  0.998598  0.821892  1
  O  O16  1  0.001402  0.997811  0.178108  1
  O  O17  1  0.496216  0.503860  0.819723  1
  O  O18  1  0.496140  0.503784  0.180277  1
