# generated using pymatgen
data_NaTh2(P3Pd10)2
_symmetry_space_group_name_H-M   'P 1'
_cell_length_a   8.71321205
_cell_length_b   8.71321226
_cell_length_c   8.71321200
_cell_angle_alpha   60.00000099
_cell_angle_beta   60.00000020
_cell_angle_gamma   59.99999873
_symmetry_Int_Tables_number   1
_chemical_formula_structural   NaTh2(P3Pd10)2
_chemical_formula_sum   'Na1 Th2 P6 Pd20'
_cell_volume   467.75653116
_cell_formula_units_Z   1
loop_
 _symmetry_equiv_pos_site_id
 _symmetry_equiv_pos_as_xyz
  1  'x, y, z'
loop_
 _atom_site_type_symbol
 _atom_site_label
 _atom_site_symmetry_multiplicity
 _atom_site_fract_x
 _atom_site_fract_y
 _atom_site_fract_z
 _atom_site_occupancy
  Na  Na0  1  0.000000  0.000000  0.000000  1
  Th  Th1  1  0.250000  0.250000  0.250000  1
  Th  Th2  1  0.750000  0.750000  0.750000  1
  P  P3  1  0.739346  0.260654  0.260654  1
  P  P4  1  0.260654  0.739346  0.739346  1
  P  P5  1  0.260654  0.739346  0.260654  1
  P  P6  1  0.739346  0.260654  0.739346  1
  P  P7  1  0.260654  0.260654  0.739346  1
  P  P8  1  0.739346  0.739346  0.260654  1
  Pd  Pd9  1  0.384629  0.384629  0.384629  1
  Pd  Pd10  1  0.615371  0.615371  0.615371  1
  Pd  Pd11  1  0.384629  0.384629  0.846114  1
  Pd  Pd12  1  0.384629  0.846114  0.384629  1
  Pd  Pd13  1  0.615371  0.615371  0.153886  1
  Pd  Pd14  1  0.615371  0.153886  0.615371  1
  Pd  Pd15  1  0.846114  0.384629  0.384629  1
  Pd  Pd16  1  0.153886  0.615371  0.615371  1
  Pd  Pd17  1  0.345950  0.000000  0.000000  1
  Pd  Pd18  1  0.654050  0.000000  0.000000  1
  Pd  Pd19  1  0.000000  0.345950  0.654050  1
  Pd  Pd20  1  0.000000  0.654050  0.345950  1
  Pd  Pd21  1  0.000000  0.345950  0.000000  1
  Pd  Pd22  1  0.654050  0.000000  0.345950  1
  Pd  Pd23  1  0.000000  0.654050  0.000000  1
  Pd  Pd24  1  0.345950  0.000000  0.654050  1
  Pd  Pd25  1  0.000000  0.000000  0.345950  1
  Pd  Pd26  1  0.000000  0.000000  0.654050  1
  Pd  Pd27  1  0.654050  0.345950  0.000000  1
  Pd  Pd28  1  0.345950  0.654050  0.000000  1
