# generated using pymatgen
data_Ac8Be3Si13
_symmetry_space_group_name_H-M   'P 1'
_cell_length_a   8.18799100
_cell_length_b   8.18799143
_cell_length_c   9.40990900
_cell_angle_alpha   90.00000000
_cell_angle_beta   90.00000000
_cell_angle_gamma   119.99999421
_symmetry_Int_Tables_number   1
_chemical_formula_structural   Ac8Be3Si13
_chemical_formula_sum   'Ac8 Be3 Si13'
_cell_volume   546.34983562
_cell_formula_units_Z   1
loop_
 _symmetry_equiv_pos_site_id
 _symmetry_equiv_pos_as_xyz
  1  'x, y, z'
loop_
 _atom_site_type_symbol
 _atom_site_label
 _atom_site_symmetry_multiplicity
 _atom_site_fract_x
 _atom_site_fract_y
 _atom_site_fract_z
 _atom_site_occupancy
  Ac  Ac0  1  0.500178  0.499822  0.749373  1
  Ac  Ac1  1  0.500252  0.499748  0.250652  1
  Ac  Ac2  1  0.999645  0.499822  0.749373  1
  Ac  Ac3  1  0.999497  0.499748  0.250652  1
  Ac  Ac4  1  0.500178  0.000355  0.749373  1
  Ac  Ac5  1  0.500252  0.000503  0.250652  1
  Ac  Ac6  1  0.000000  0.000000  0.751686  1
  Ac  Ac7  1  0.000000  0.000000  0.248423  1
  Be  Be8  1  0.666667  0.333333  0.999311  1
  Be  Be9  1  0.333333  0.666667  0.000665  1
  Be  Be10  1  0.333333  0.666667  0.499633  1
  Si  Si11  1  0.827997  0.172003  0.000137  1
  Si  Si12  1  0.172004  0.827996  0.999916  1
  Si  Si13  1  0.344006  0.172003  0.000137  1
  Si  Si14  1  0.172840  0.827160  0.499839  1
  Si  Si15  1  0.655992  0.827996  0.999916  1
  Si  Si16  1  0.835600  0.164400  0.500174  1
  Si  Si17  1  0.827997  0.655994  0.000137  1
  Si  Si18  1  0.654320  0.827160  0.499839  1
  Si  Si19  1  0.172004  0.344008  0.999916  1
  Si  Si20  1  0.328799  0.164400  0.500174  1
  Si  Si21  1  0.172840  0.345680  0.499839  1
  Si  Si22  1  0.835600  0.671201  0.500174  1
  Si  Si23  1  0.666667  0.333333  0.500014  1
