# generated using pymatgen
data_HoHf7(V3Ge4)4
_symmetry_space_group_name_H-M   'P 1'
_cell_length_a   6.63481902
_cell_length_b   6.77533306
_cell_length_c   12.81168238
_cell_angle_alpha   89.91375364
_cell_angle_beta   90.04487616
_cell_angle_gamma   89.89743362
_symmetry_Int_Tables_number   1
_chemical_formula_structural   HoHf7(V3Ge4)4
_chemical_formula_sum   'Ho1 Hf7 V12 Ge16'
_cell_volume   575.92319728
_cell_formula_units_Z   1
loop_
 _symmetry_equiv_pos_site_id
 _symmetry_equiv_pos_as_xyz
  1  'x, y, z'
loop_
 _atom_site_type_symbol
 _atom_site_label
 _atom_site_symmetry_multiplicity
 _atom_site_fract_x
 _atom_site_fract_y
 _atom_site_fract_z
 _atom_site_occupancy
  Ho  Ho0  1  0.991548  0.828673  0.091448  1
  Hf  Hf1  1  0.489843  0.671648  0.091280  1
  Hf  Hf2  1  0.987558  0.826425  0.408089  1
  Hf  Hf3  1  0.511710  0.326657  0.590728  1
  Hf  Hf4  1  0.012742  0.176085  0.906015  1
  Hf  Hf5  1  0.513179  0.326777  0.907063  1
  Hf  Hf6  1  0.012165  0.172938  0.591121  1
  Hf  Hf7  1  0.488417  0.673097  0.410545  1
  V  V8  1  0.339636  0.010362  0.251807  1
  V  V9  1  0.838022  0.490389  0.252189  1
  V  V10  1  0.660917  0.991681  0.748896  1
  V  V11  1  0.161105  0.506667  0.749258  1
  V  V12  1  0.659515  0.161827  0.126816  1
  V  V13  1  0.163927  0.340753  0.376211  1
  V  V14  1  0.336815  0.841409  0.625294  1
  V  V15  1  0.833445  0.655302  0.872913  1
  V  V16  1  0.336055  0.841746  0.874018  1
  V  V17  1  0.835939  0.658059  0.625146  1
  V  V18  1  0.661915  0.160316  0.375514  1
  V  V19  1  0.164025  0.340422  0.126337  1
  Ge  Ge20  1  0.688392  0.853601  0.251298  1
  Ge  Ge21  1  0.194421  0.644460  0.252215  1
  Ge  Ge22  1  0.308919  0.146544  0.749194  1
  Ge  Ge23  1  0.807920  0.352775  0.748548  1
  Ge  Ge24  1  0.675396  0.955047  0.954130  1
  Ge  Ge25  1  0.177666  0.546927  0.543921  1
  Ge  Ge26  1  0.321238  0.045404  0.456978  1
  Ge  Ge27  1  0.821235  0.450095  0.042983  1
  Ge  Ge28  1  0.327929  0.050042  0.042392  1
  Ge  Ge29  1  0.822325  0.453823  0.457019  1
  Ge  Ge30  1  0.678861  0.953984  0.543482  1
  Ge  Ge31  1  0.180051  0.543398  0.954607  1
  Ge  Ge32  1  0.468692  0.375207  0.251090  1
  Ge  Ge33  1  0.967895  0.128598  0.251795  1
  Ge  Ge34  1  0.529951  0.625696  0.749401  1
  Ge  Ge35  1  0.030627  0.873170  0.750259  1
