# generated using pymatgen
data_Dy4Ho12MgNi4Hg3
_symmetry_space_group_name_H-M   'P 1'
_cell_length_a   9.54327194
_cell_length_b   9.48004775
_cell_length_c   9.48004900
_cell_angle_alpha   60.00000611
_cell_angle_beta   60.21891841
_cell_angle_gamma   60.21891758
_symmetry_Int_Tables_number   1
_chemical_formula_structural   Dy4Ho12MgNi4Hg3
_chemical_formula_sum   'Dy4 Ho12 Mg1 Ni4 Hg3'
_cell_volume   608.46077683
_cell_formula_units_Z   1
loop_
 _symmetry_equiv_pos_site_id
 _symmetry_equiv_pos_as_xyz
  1  'x, y, z'
loop_
 _atom_site_type_symbol
 _atom_site_label
 _atom_site_symmetry_multiplicity
 _atom_site_fract_x
 _atom_site_fract_y
 _atom_site_fract_z
 _atom_site_occupancy
  Dy  Dy0  1  0.349054  0.347179  0.347179  1
  Dy  Dy1  1  0.349054  0.347179  0.956587  1
  Dy  Dy2  1  0.349054  0.956587  0.347179  1
  Dy  Dy3  1  0.950471  0.349843  0.349843  1
  Ho  Ho4  1  0.808981  0.189968  0.189968  1
  Ho  Ho5  1  0.184620  0.813567  0.813567  1
  Ho  Ho6  1  0.184620  0.813567  0.188245  1
  Ho  Ho7  1  0.808981  0.189968  0.811085  1
  Ho  Ho8  1  0.184620  0.188245  0.813567  1
  Ho  Ho9  1  0.808981  0.811085  0.189968  1
  Ho  Ho10  1  0.932532  0.565490  0.565489  1
  Ho  Ho11  1  0.562086  0.936616  0.936615  1
  Ho  Ho12  1  0.562087  0.936616  0.564682  1
  Ho  Ho13  1  0.932532  0.565490  0.936488  1
  Ho  Ho14  1  0.562086  0.564683  0.936615  1
  Ho  Ho15  1  0.932532  0.936489  0.565489  1
  Mg  Mg16  1  0.283431  0.572190  0.572190  1
  Ni  Ni17  1  0.141386  0.142554  0.142554  1
  Ni  Ni18  1  0.141386  0.142554  0.573506  1
  Ni  Ni19  1  0.141386  0.573506  0.142554  1
  Ni  Ni20  1  0.575416  0.141528  0.141528  1
  Hg  Hg21  1  0.584900  0.585836  0.585836  1
  Hg  Hg22  1  0.584900  0.585836  0.243428  1
  Hg  Hg23  1  0.584900  0.243428  0.585836  1
