# generated using pymatgen
data_CeErLu8(Al2Ru3)2
_symmetry_space_group_name_H-M   'P 1'
_cell_length_a   8.28223923
_cell_length_b   8.28623423
_cell_length_c   8.18306507
_cell_angle_alpha   109.96411498
_cell_angle_beta   109.38567460
_cell_angle_gamma   109.55072135
_symmetry_Int_Tables_number   1
_chemical_formula_structural   CeErLu8(Al2Ru3)2
_chemical_formula_sum   'Ce1 Er1 Lu8 Al4 Ru6'
_cell_volume   429.68795889
_cell_formula_units_Z   1
loop_
 _symmetry_equiv_pos_site_id
 _symmetry_equiv_pos_as_xyz
  1  'x, y, z'
loop_
 _atom_site_type_symbol
 _atom_site_label
 _atom_site_symmetry_multiplicity
 _atom_site_fract_x
 _atom_site_fract_y
 _atom_site_fract_z
 _atom_site_occupancy
  Ce  Ce0  1  0.192743  0.942593  0.249929  1
  Er  Er1  1  0.929628  0.252121  0.182067  1
  Lu  Lu2  1  0.780368  0.786794  0.783445  1
  Lu  Lu3  1  0.318508  0.568401  0.750173  1
  Lu  Lu4  1  0.754452  0.322540  0.571633  1
  Lu  Lu5  1  0.570636  0.747627  0.318603  1
  Lu  Lu6  1  0.713980  0.499239  0.996675  1
  Lu  Lu7  1  0.002113  0.717780  0.503419  1
  Lu  Lu8  1  0.502884  0.996277  0.715538  1
  Lu  Lu9  1  0.251127  0.182913  0.928383  1
  Al  Al10  1  0.414702  0.415418  0.409425  1
  Al  Al11  1  0.092599  0.496203  0.003972  1
  Al  Al12  1  0.991721  0.087705  0.496080  1
  Al  Al13  1  0.505438  0.004652  0.090730  1
  Ru  Ru14  1  0.873894  0.123909  0.749434  1
  Ru  Ru15  1  0.739212  0.867841  0.116071  1
  Ru  Ru16  1  0.126870  0.761002  0.901501  1
  Ru  Ru17  1  0.252926  0.623911  0.384243  1
  Ru  Ru18  1  0.359329  0.225587  0.598581  1
  Ru  Ru19  1  0.626871  0.377487  0.250101  1
