# generated using pymatgen
data_Th3Fe4P6Rh5
_symmetry_space_group_name_H-M   'P 1'
_cell_length_a   3.85471200
_cell_length_b   11.17357100
_cell_length_c   12.61346700
_cell_angle_alpha   90.00000000
_cell_angle_beta   90.00000000
_cell_angle_gamma   90.00000000
_symmetry_Int_Tables_number   1
_chemical_formula_structural   Th3Fe4P6Rh5
_chemical_formula_sum   'Th6 Fe8 P12 Rh10'
_cell_volume   543.27335331
_cell_formula_units_Z   2
loop_
 _symmetry_equiv_pos_site_id
 _symmetry_equiv_pos_as_xyz
  1  'x, y, z'
loop_
 _atom_site_type_symbol
 _atom_site_label
 _atom_site_symmetry_multiplicity
 _atom_site_fract_x
 _atom_site_fract_y
 _atom_site_fract_z
 _atom_site_occupancy
  Th  Th0  1  0.000000  0.500000  0.520914  1
  Th  Th1  1  0.500000  0.000000  0.474664  1
  Th  Th2  1  0.500000  0.820131  0.198367  1
  Th  Th3  1  0.500000  0.179869  0.198367  1
  Th  Th4  1  0.000000  0.679165  0.803531  1
  Th  Th5  1  0.000000  0.320835  0.803531  1
  Fe  Fe6  1  0.000000  0.500000  0.994262  1
  Fe  Fe7  1  0.500000  0.000000  0.006803  1
  Fe  Fe8  1  0.500000  0.335355  0.998300  1
  Fe  Fe9  1  0.500000  0.664645  0.998300  1
  Fe  Fe10  1  0.000000  0.164651  0.002833  1
  Fe  Fe11  1  0.000000  0.835349  0.002833  1
  Fe  Fe12  1  0.500000  0.299359  0.428496  1
  Fe  Fe13  1  0.500000  0.700641  0.428496  1
  P  P14  1  0.500000  0.500000  0.900361  1
  P  P15  1  0.000000  0.000000  0.100629  1
  P  P16  1  0.500000  0.500000  0.345532  1
  P  P17  1  0.000000  0.000000  0.658644  1
  P  P18  1  0.500000  0.313072  0.609970  1
  P  P19  1  0.500000  0.686928  0.609970  1
  P  P20  1  0.000000  0.197256  0.383603  1
  P  P21  1  0.000000  0.802744  0.383603  1
  P  P22  1  0.500000  0.839368  0.909027  1
  P  P23  1  0.500000  0.160632  0.909027  1
  P  P24  1  0.000000  0.660444  0.091590  1
  P  P25  1  0.000000  0.339556  0.091590  1
  Rh  Rh26  1  0.500000  0.500000  0.156073  1
  Rh  Rh27  1  0.000000  0.000000  0.846109  1
  Rh  Rh28  1  0.500000  0.500000  0.707455  1
  Rh  Rh29  1  0.000000  0.000000  0.294229  1
  Rh  Rh30  1  0.000000  0.202634  0.570259  1
  Rh  Rh31  1  0.000000  0.797366  0.570259  1
  Rh  Rh32  1  0.500000  0.873304  0.718405  1
  Rh  Rh33  1  0.500000  0.126696  0.718405  1
  Rh  Rh34  1  0.000000  0.624927  0.282780  1
  Rh  Rh35  1  0.000000  0.375073  0.282780  1
