# generated using pymatgen
data_Cs17Y5O16
_symmetry_space_group_name_H-M   'P 1'
_cell_length_a   21.23965220
_cell_length_b   21.23965218
_cell_length_c   7.72014642
_cell_angle_alpha   84.89798730
_cell_angle_beta   84.89798168
_cell_angle_gamma   159.28384399
_symmetry_Int_Tables_number   1
_chemical_formula_structural   Cs17Y5O16
_chemical_formula_sum   'Cs17 Y5 O16'
_cell_volume   1070.73515279
_cell_formula_units_Z   1
loop_
 _symmetry_equiv_pos_site_id
 _symmetry_equiv_pos_as_xyz
  1  'x, y, z'
loop_
 _atom_site_type_symbol
 _atom_site_label
 _atom_site_symmetry_multiplicity
 _atom_site_fract_x
 _atom_site_fract_y
 _atom_site_fract_z
 _atom_site_occupancy
  Cs  Cs0  1  0.384027  0.661431  0.062648  1
  Cs  Cs1  1  0.473828  0.565456  0.082779  1
  Cs  Cs2  1  0.319307  0.779810  0.065964  1
  Cs  Cs3  1  0.087559  0.914812  0.191554  1
  Cs  Cs4  1  0.169593  0.824496  0.473849  1
  Cs  Cs5  1  0.337344  0.609448  0.584390  1
  Cs  Cs6  1  0.224886  0.678136  0.610125  1
  Cs  Cs7  1  0.428419  0.519824  0.604601  1
  Cs  Cs8  1  0.661431  0.384027  0.062648  1
  Cs  Cs9  1  0.565456  0.473828  0.082779  1
  Cs  Cs10  1  0.779810  0.319307  0.065964  1
  Cs  Cs11  1  0.914812  0.087559  0.191554  1
  Cs  Cs12  1  0.824496  0.169593  0.473849  1
  Cs  Cs13  1  0.609448  0.337344  0.584390  1
  Cs  Cs14  1  0.678136  0.224886  0.610125  1
  Cs  Cs15  1  0.519824  0.428419  0.604601  1
  Cs  Cs16  1  0.993379  0.993379  0.488422  1
  Y  Y17  1  0.997547  0.997547  0.991855  1
  Y  Y18  1  0.084942  0.906500  0.687581  1
  Y  Y19  1  0.178448  0.822277  0.986650  1
  Y  Y20  1  0.906500  0.084942  0.687581  1
  Y  Y21  1  0.822277  0.178448  0.986650  1
  O  O22  1  0.085456  0.457751  0.004219  1
  O  O23  1  0.165648  0.350705  0.399427  1
  O  O24  1  0.457751  0.085456  0.004219  1
  O  O25  1  0.259728  0.259728  0.024875  1
  O  O26  1  0.546720  0.916072  0.270173  1
  O  O27  1  0.207530  0.781875  0.782989  1
  O  O28  1  0.039807  0.953654  0.827861  1
  O  O29  1  0.128834  0.870737  0.871000  1
  O  O30  1  0.350705  0.165648  0.399427  1
  O  O31  1  0.641758  0.825788  0.654751  1
  O  O32  1  0.916072  0.546720  0.270173  1
  O  O33  1  0.734468  0.734468  0.280225  1
  O  O34  1  0.781875  0.207530  0.782989  1
  O  O35  1  0.953654  0.039807  0.827861  1
  O  O36  1  0.870737  0.128834  0.871000  1
  O  O37  1  0.825788  0.641758  0.654751  1
