# generated using pymatgen
data_Pr8YHoPb6
_symmetry_space_group_name_H-M   'P 1'
_cell_length_a   9.38915300
_cell_length_b   9.38915273
_cell_length_c   6.90692400
_cell_angle_alpha   90.00000000
_cell_angle_beta   90.00000000
_cell_angle_gamma   119.99999741
_symmetry_Int_Tables_number   1
_chemical_formula_structural   Pr8YHoPb6
_chemical_formula_sum   'Pr8 Y1 Ho1 Pb6'
_cell_volume   527.31258963
_cell_formula_units_Z   1
loop_
 _symmetry_equiv_pos_site_id
 _symmetry_equiv_pos_as_xyz
  1  'x, y, z'
loop_
 _atom_site_type_symbol
 _atom_site_label
 _atom_site_symmetry_multiplicity
 _atom_site_fract_x
 _atom_site_fract_y
 _atom_site_fract_z
 _atom_site_occupancy
  Pr  Pr0  1  0.333333  0.666667  0.500000  1
  Pr  Pr1  1  0.666667  0.333333  0.500000  1
  Pr  Pr2  1  0.759275  0.759303  0.751961  1
  Pr  Pr3  1  0.240697  0.999972  0.751961  1
  Pr  Pr4  1  0.000028  0.240725  0.751961  1
  Pr  Pr5  1  0.240697  0.240725  0.248039  1
  Pr  Pr6  1  0.759275  0.999972  0.248039  1
  Pr  Pr7  1  0.000028  0.759303  0.248039  1
  Y  Y8  1  0.666667  0.333333  0.000000  1
  Ho  Ho9  1  0.333333  0.666667  0.000000  1
  Pb  Pb10  1  0.396449  0.396600  0.756977  1
  Pb  Pb11  1  0.603400  0.999849  0.756977  1
  Pb  Pb12  1  0.000151  0.603551  0.756977  1
  Pb  Pb13  1  0.603400  0.603551  0.243023  1
  Pb  Pb14  1  0.396449  0.999849  0.243023  1
  Pb  Pb15  1  0.000151  0.396600  0.243023  1
