# generated using pymatgen
data_Ac3MnAlSe7
_symmetry_space_group_name_H-M   'P 1'
_cell_length_a   10.87113500
_cell_length_b   10.87126204
_cell_length_c   6.60289700
_cell_angle_alpha   90.00000000
_cell_angle_beta   90.00000000
_cell_angle_gamma   119.99996944
_symmetry_Int_Tables_number   1
_chemical_formula_structural   Ac3MnAlSe7
_chemical_formula_sum   'Ac6 Mn2 Al2 Se14'
_cell_volume   675.80304030
_cell_formula_units_Z   2
loop_
 _symmetry_equiv_pos_site_id
 _symmetry_equiv_pos_as_xyz
  1  'x, y, z'
loop_
 _atom_site_type_symbol
 _atom_site_label
 _atom_site_symmetry_multiplicity
 _atom_site_fract_x
 _atom_site_fract_y
 _atom_site_fract_z
 _atom_site_occupancy
  Ac  Ac0  1  0.625142  0.767667  0.240727  1
  Ac  Ac1  1  0.232335  0.857475  0.240733  1
  Ac  Ac2  1  0.142524  0.374858  0.240734  1
  Ac  Ac3  1  0.374858  0.232333  0.740728  1
  Ac  Ac4  1  0.767665  0.142525  0.740735  1
  Ac  Ac5  1  0.857476  0.625142  0.740734  1
  Mn  Mn6  1  0.999996  0.999994  0.020113  1
  Mn  Mn7  1  0.000004  0.000006  0.520114  1
  Al  Al8  1  0.666668  0.333334  0.159510  1
  Al  Al9  1  0.333332  0.666666  0.659511  1
  Se  Se10  1  0.900053  0.419798  0.018872  1
  Se  Se11  1  0.519745  0.099949  0.018874  1
  Se  Se12  1  0.580202  0.480254  0.018874  1
  Se  Se13  1  0.333331  0.666666  0.020413  1
  Se  Se14  1  0.856457  0.090416  0.296050  1
  Se  Se15  1  0.233952  0.143540  0.296049  1
  Se  Se16  1  0.909584  0.766042  0.296049  1
  Se  Se17  1  0.099947  0.580202  0.518871  1
  Se  Se18  1  0.480255  0.900051  0.518873  1
  Se  Se19  1  0.419798  0.519747  0.518874  1
  Se  Se20  1  0.666669  0.333335  0.520412  1
  Se  Se21  1  0.143543  0.909584  0.796049  1
  Se  Se22  1  0.090417  0.233959  0.796049  1
  Se  Se23  1  0.766048  0.856459  0.796049  1
