# generated using pymatgen
data_Mn5Nb12Cr2Ga5N4
_symmetry_space_group_name_H-M   'P 1'
_cell_length_a   8.18131585
_cell_length_b   8.16664446
_cell_length_c   8.16744400
_cell_angle_alpha   59.99676134
_cell_angle_beta   60.05607259
_cell_angle_gamma   59.89840231
_symmetry_Int_Tables_number   1
_chemical_formula_structural   Mn5Nb12Cr2Ga5N4
_chemical_formula_sum   'Mn5 Nb12 Cr2 Ga5 N4'
_cell_volume   385.72359010
_cell_formula_units_Z   1
loop_
 _symmetry_equiv_pos_site_id
 _symmetry_equiv_pos_as_xyz
  1  'x, y, z'
loop_
 _atom_site_type_symbol
 _atom_site_label
 _atom_site_symmetry_multiplicity
 _atom_site_fract_x
 _atom_site_fract_y
 _atom_site_fract_z
 _atom_site_occupancy
  Mn  Mn0  1  0.102286  0.635597  0.631058  1
  Mn  Mn1  1  0.641938  0.109758  0.624151  1
  Mn  Mn2  1  0.640657  0.622736  0.110940  1
  Mn  Mn3  1  0.640657  0.622736  0.625666  1
  Mn  Mn4  1  0.825503  0.521741  0.826378  1
  Nb  Nb5  1  0.807916  0.806635  0.192725  1
  Nb  Nb6  1  0.186772  0.202861  0.805184  1
  Nb  Nb7  1  0.807810  0.193953  0.806500  1
  Nb  Nb8  1  0.190617  0.805472  0.199393  1
  Nb  Nb9  1  0.190617  0.805472  0.804518  1
  Nb  Nb10  1  0.807810  0.193953  0.191738  1
  Nb  Nb11  1  0.445236  0.443753  0.055505  1
  Nb  Nb12  1  0.057741  0.055169  0.443545  1
  Nb  Nb13  1  0.445404  0.055736  0.443409  1
  Nb  Nb14  1  0.057472  0.443836  0.055496  1
  Nb  Nb15  1  0.057472  0.443836  0.443197  1
  Nb  Nb16  1  0.445404  0.055736  0.055449  1
  Cr  Cr17  1  0.824830  0.823291  0.525569  1
  Cr  Cr18  1  0.824830  0.823291  0.826309  1
  Ga  Ga19  1  0.754493  0.414926  0.415291  1
  Ga  Ga20  1  0.417970  0.750681  0.415675  1
  Ga  Ga21  1  0.416718  0.415858  0.751022  1
  Ga  Ga22  1  0.416718  0.415858  0.416404  1
  Ga  Ga23  1  0.492118  0.836000  0.835941  1
  N  N24  1  0.627099  0.124919  0.123992  1
  N  N25  1  0.124981  0.626424  0.124297  1
  N  N26  1  0.124467  0.124886  0.626415  1
  N  N27  1  0.124467  0.124886  0.124233  1
