# generated using pymatgen
data_RbSnPRh2
_symmetry_space_group_name_H-M   'P 1'
_cell_length_a   8.16093602
_cell_length_b   8.16093633
_cell_length_c   8.16093618
_cell_angle_alpha   151.25572669
_cell_angle_beta   151.25572779
_cell_angle_gamma   41.10119947
_symmetry_Int_Tables_number   1
_chemical_formula_structural   RbSnPRh2
_chemical_formula_sum   'Rb1 Sn1 P1 Rh2'
_cell_volume   125.42768227
_cell_formula_units_Z   1
loop_
 _symmetry_equiv_pos_site_id
 _symmetry_equiv_pos_as_xyz
  1  'x, y, z'
loop_
 _atom_site_type_symbol
 _atom_site_label
 _atom_site_symmetry_multiplicity
 _atom_site_fract_x
 _atom_site_fract_y
 _atom_site_fract_z
 _atom_site_occupancy
  Rb  Rb0  1  0.019596  0.019596  0.000000  1
  Sn  Sn1  1  0.348533  0.348533  0.000000  1
  P  P2  1  0.663062  0.663062  0.000000  1
  Rh  Rh3  1  0.734404  0.234404  0.500000  1
  Rh  Rh4  1  0.234404  0.734404  0.500000  1
