# generated using pymatgen
data_Yb6Th2GePd24
_symmetry_space_group_name_H-M   'P 1'
_cell_length_a   8.35837108
_cell_length_b   8.35837108
_cell_length_c   8.35837108
_cell_angle_alpha   89.90219377
_cell_angle_beta   89.90219377
_cell_angle_gamma   89.90219377
_symmetry_Int_Tables_number   1
_chemical_formula_structural   Yb6Th2GePd24
_chemical_formula_sum   'Yb6 Th2 Ge1 Pd24'
_cell_volume   583.93304018
_cell_formula_units_Z   1
loop_
 _symmetry_equiv_pos_site_id
 _symmetry_equiv_pos_as_xyz
  1  'x, y, z'
loop_
 _atom_site_type_symbol
 _atom_site_label
 _atom_site_symmetry_multiplicity
 _atom_site_fract_x
 _atom_site_fract_y
 _atom_site_fract_z
 _atom_site_occupancy
  Yb  Yb0  1  0.748454  0.748454  0.251697  1
  Yb  Yb1  1  0.748454  0.251697  0.748454  1
  Yb  Yb2  1  0.251546  0.251546  0.748303  1
  Yb  Yb3  1  0.251546  0.748303  0.251546  1
  Yb  Yb4  1  0.251697  0.748454  0.748454  1
  Yb  Yb5  1  0.748303  0.251546  0.251546  1
  Th  Th6  1  0.254895  0.254895  0.254895  1
  Th  Th7  1  0.745105  0.745105  0.745105  1
  Ge  Ge8  1  0.000000  0.000000  0.000000  1
  Pd  Pd9  1  0.260681  0.500184  0.999044  1
  Pd  Pd10  1  0.739319  0.499816  0.000956  1
  Pd  Pd11  1  0.999044  0.260681  0.500184  1
  Pd  Pd12  1  0.500184  0.260681  0.999044  1
  Pd  Pd13  1  0.000956  0.739319  0.499816  1
  Pd  Pd14  1  0.499816  0.739319  0.000956  1
  Pd  Pd15  1  0.500184  0.999044  0.260681  1
  Pd  Pd16  1  0.260681  0.999044  0.500184  1
  Pd  Pd17  1  0.499816  0.000956  0.739319  1
  Pd  Pd18  1  0.739319  0.000956  0.499816  1
  Pd  Pd19  1  0.999044  0.500184  0.260681  1
  Pd  Pd20  1  0.000956  0.499816  0.739319  1
  Pd  Pd21  1  0.253685  0.501004  0.501004  1
  Pd  Pd22  1  0.746315  0.498996  0.498996  1
  Pd  Pd23  1  0.501004  0.253685  0.501004  1
  Pd  Pd24  1  0.498996  0.746315  0.498996  1
  Pd  Pd25  1  0.501004  0.501004  0.253685  1
  Pd  Pd26  1  0.498996  0.498996  0.746315  1
  Pd  Pd27  1  0.291307  0.998429  0.998429  1
  Pd  Pd28  1  0.708693  0.001571  0.001571  1
  Pd  Pd29  1  0.998429  0.291307  0.998429  1
  Pd  Pd30  1  0.001571  0.708693  0.001571  1
  Pd  Pd31  1  0.998429  0.998429  0.291307  1
  Pd  Pd32  1  0.001571  0.001571  0.708693  1
