# generated using pymatgen
data_Rb6DyTe4Cl
_symmetry_space_group_name_H-M   'P 1'
_cell_length_a   12.01635300
_cell_length_b   12.01635192
_cell_length_c   8.61643100
_cell_angle_alpha   90.00000000
_cell_angle_beta   90.00000000
_cell_angle_gamma   120.00000022
_symmetry_Int_Tables_number   1
_chemical_formula_structural   Rb6DyTe4Cl
_chemical_formula_sum   'Rb12 Dy2 Te8 Cl2'
_cell_volume   1077.46547276
_cell_formula_units_Z   2
loop_
 _symmetry_equiv_pos_site_id
 _symmetry_equiv_pos_as_xyz
  1  'x, y, z'
loop_
 _atom_site_type_symbol
 _atom_site_label
 _atom_site_symmetry_multiplicity
 _atom_site_fract_x
 _atom_site_fract_y
 _atom_site_fract_z
 _atom_site_occupancy
  Rb  Rb0  1  0.121806  0.878194  0.515098  1
  Rb  Rb1  1  0.756387  0.878194  0.515098  1
  Rb  Rb2  1  0.949962  0.474981  0.318128  1
  Rb  Rb3  1  0.525019  0.474981  0.318128  1
  Rb  Rb4  1  0.878194  0.756387  0.015098  1
  Rb  Rb5  1  0.243613  0.121806  0.015098  1
  Rb  Rb6  1  0.525019  0.050038  0.318128  1
  Rb  Rb7  1  0.121806  0.243613  0.515098  1
  Rb  Rb8  1  0.878194  0.121806  0.015098  1
  Rb  Rb9  1  0.050038  0.525019  0.818128  1
  Rb  Rb10  1  0.474981  0.949962  0.818128  1
  Rb  Rb11  1  0.474981  0.525019  0.818128  1
  Dy  Dy12  1  0.666667  0.333333  0.710647  1
  Dy  Dy13  1  0.333333  0.666667  0.210647  1
  Te  Te14  1  0.400126  0.200063  0.601228  1
  Te  Te15  1  0.599874  0.799937  0.101228  1
  Te  Te16  1  0.666667  0.333333  0.050464  1
  Te  Te17  1  0.799937  0.599874  0.601228  1
  Te  Te18  1  0.200063  0.400126  0.101228  1
  Te  Te19  1  0.333333  0.666667  0.550464  1
  Te  Te20  1  0.200063  0.799937  0.101228  1
  Te  Te21  1  0.799937  0.200063  0.601228  1
  Cl  Cl22  1  0.000000  0.000000  0.276128  1
  Cl  Cl23  1  0.000000  0.000000  0.776128  1
