# generated using pymatgen
data_MnGa2Ru4W
_symmetry_space_group_name_H-M   'P 1'
_cell_length_a   4.30793100
_cell_length_b   6.08857700
_cell_length_c   12.88443900
_cell_angle_alpha   90.00002120
_cell_angle_beta   89.99875576
_cell_angle_gamma   90.00002108
_symmetry_Int_Tables_number   1
_chemical_formula_structural   MnGa2Ru4W
_chemical_formula_sum   'Mn3 Ga6 Ru12 W3'
_cell_volume   337.94813576
_cell_formula_units_Z   3
loop_
 _symmetry_equiv_pos_site_id
 _symmetry_equiv_pos_as_xyz
  1  'x, y, z'
loop_
 _atom_site_type_symbol
 _atom_site_label
 _atom_site_symmetry_multiplicity
 _atom_site_fract_x
 _atom_site_fract_y
 _atom_site_fract_z
 _atom_site_occupancy
  Mn  Mn0  1  0.500005  0.499999  0.503622  1
  Mn  Mn1  1  0.000028  0.000001  0.666658  1
  Mn  Mn2  1  0.500027  0.500000  0.829701  1
  Ga  Ga3  1  0.000004  0.500000  0.996155  1
  Ga  Ga4  1  0.499972  0.000001  0.166716  1
  Ga  Ga5  1  0.999964  0.500000  0.337208  1
  Ga  Ga6  1  0.500004  0.000001  0.506135  1
  Ga  Ga7  1  0.000029  0.499997  0.666627  1
  Ga  Ga8  1  0.500034  0.000002  0.827170  1
  Ru  Ru9  1  0.500005  0.250048  0.000844  1
  Ru  Ru10  1  0.500005  0.749953  0.000845  1
  Ru  Ru11  1  0.999973  0.249284  0.166685  1
  Ru  Ru12  1  0.999974  0.750717  0.166685  1
  Ru  Ru13  1  0.499967  0.250103  0.332523  1
  Ru  Ru14  1  0.499969  0.749896  0.332522  1
  Ru  Ru15  1  0.000002  0.253707  0.500276  1
  Ru  Ru16  1  0.000009  0.746290  0.500277  1
  Ru  Ru17  1  0.500021  0.252403  0.666644  1
  Ru  Ru18  1  0.500021  0.747599  0.666644  1
  Ru  Ru19  1  0.000020  0.253753  0.833028  1
  Ru  Ru20  1  0.000021  0.746248  0.833028  1
  W  W21  1  0.000006  0.000000  0.990878  1
  W  W22  1  0.499975  0.500001  0.166672  1
  W  W23  1  0.999965  0.999999  0.342460  1
