# generated using pymatgen
data_Ho8V5Si16W7
_symmetry_space_group_name_H-M   'P 1'
_cell_length_a   6.69923515
_cell_length_b   6.88564012
_cell_length_c   12.92739150
_cell_angle_alpha   90.02103956
_cell_angle_beta   89.97598586
_cell_angle_gamma   90.00340215
_symmetry_Int_Tables_number   1
_chemical_formula_structural   Ho8V5Si16W7
_chemical_formula_sum   'Ho8 V5 Si16 W7'
_cell_volume   596.32137375
_cell_formula_units_Z   1
loop_
 _symmetry_equiv_pos_site_id
 _symmetry_equiv_pos_as_xyz
  1  'x, y, z'
loop_
 _atom_site_type_symbol
 _atom_site_label
 _atom_site_symmetry_multiplicity
 _atom_site_fract_x
 _atom_site_fract_y
 _atom_site_fract_z
 _atom_site_occupancy
  Ho  Ho0  1  0.498442  0.330298  0.094445  1
  Ho  Ho1  1  0.998882  0.169138  0.406432  1
  Ho  Ho2  1  0.502845  0.669435  0.593406  1
  Ho  Ho3  1  0.002022  0.830561  0.906449  1
  Ho  Ho4  1  0.504119  0.667355  0.905966  1
  Ho  Ho5  1  0.004356  0.832765  0.593491  1
  Ho  Ho6  1  0.497139  0.331543  0.406143  1
  Ho  Ho7  1  0.997299  0.167874  0.094837  1
  V  V8  1  0.835449  0.334027  0.626055  1
  V  V9  1  0.334411  0.164641  0.874212  1
  V  V10  1  0.164276  0.667021  0.125807  1
  V  V11  1  0.666873  0.834451  0.373426  1
  V  V12  1  0.164547  0.666630  0.373960  1
  Si  Si13  1  0.801678  0.628968  0.747878  1
  Si  Si14  1  0.301903  0.871023  0.751584  1
  Si  Si15  1  0.197742  0.375669  0.249983  1
  Si  Si16  1  0.698132  0.127651  0.251882  1
  Si  Si17  1  0.536274  0.370870  0.749837  1
  Si  Si18  1  0.036516  0.128649  0.750002  1
  Si  Si19  1  0.459935  0.630202  0.251833  1
  Si  Si20  1  0.964801  0.868876  0.251739  1
  Si  Si21  1  0.664496  0.044702  0.542978  1
  Si  Si22  1  0.165783  0.455182  0.956695  1
  Si  Si23  1  0.334720  0.954704  0.043032  1
  Si  Si24  1  0.837363  0.546703  0.455695  1
  Si  Si25  1  0.340120  0.951375  0.454395  1
  Si  Si26  1  0.841117  0.543722  0.044403  1
  Si  Si27  1  0.658429  0.043626  0.955592  1
  Si  Si28  1  0.159199  0.458918  0.542940  1
  W  W29  1  0.663194  0.008136  0.749803  1
  W  W30  1  0.162935  0.491837  0.749696  1
  W  W31  1  0.336016  0.990655  0.249921  1
  W  W32  1  0.836336  0.509125  0.250215  1
  W  W33  1  0.666618  0.833581  0.125418  1
  W  W34  1  0.833546  0.334551  0.875160  1
  W  W35  1  0.332489  0.165539  0.624689  1
