# generated using pymatgen
data_Sm9DyB2Cl15
_symmetry_space_group_name_H-M   'P 1'
_cell_length_a   8.88159318
_cell_length_b   9.70236095
_cell_length_c   10.48961198
_cell_angle_alpha   90.81990308
_cell_angle_beta   114.62361038
_cell_angle_gamma   111.10002139
_symmetry_Int_Tables_number   1
_chemical_formula_structural   Sm9DyB2Cl15
_chemical_formula_sum   'Sm9 Dy1 B2 Cl15'
_cell_volume   752.10033230
_cell_formula_units_Z   1
loop_
 _symmetry_equiv_pos_site_id
 _symmetry_equiv_pos_as_xyz
  1  'x, y, z'
loop_
 _atom_site_type_symbol
 _atom_site_label
 _atom_site_symmetry_multiplicity
 _atom_site_fract_x
 _atom_site_fract_y
 _atom_site_fract_z
 _atom_site_occupancy
  Sm  Sm0  1  0.810512  0.417580  0.280106  1
  Sm  Sm1  1  0.187790  0.581758  0.719381  1
  Sm  Sm2  1  0.681355  0.744165  0.818816  1
  Sm  Sm3  1  0.317191  0.255337  0.180910  1
  Sm  Sm4  1  0.526279  0.700858  0.101050  1
  Sm  Sm5  1  0.472455  0.298498  0.898586  1
  Sm  Sm6  1  0.589857  0.037540  0.332206  1
  Sm  Sm7  1  0.408862  0.961810  0.667252  1
  Sm  Sm8  1  0.733876  0.077792  0.049598  1
  Dy  Dy9  1  0.273511  0.924251  0.951601  1
  B  B10  1  0.464873  0.817478  0.875066  1
  B  B11  1  0.531855  0.180861  0.123862  1
  Cl  Cl12  1  0.003945  0.997787  0.998719  1
  Cl  Cl13  1  0.635009  0.883058  0.585611  1
  Cl  Cl14  1  0.363434  0.116175  0.413742  1
  Cl  Cl15  1  0.882051  0.298782  0.524731  1
  Cl  Cl16  1  0.116719  0.700521  0.474891  1
  Cl  Cl17  1  0.291160  0.766968  0.175198  1
  Cl  Cl18  1  0.704416  0.235672  0.818318  1
  Cl  Cl19  1  0.056753  0.345371  0.228005  1
  Cl  Cl20  1  0.166961  0.054661  0.709663  1
  Cl  Cl21  1  0.831677  0.940757  0.295351  1
  Cl  Cl22  1  0.234788  0.410852  0.944926  1
  Cl  Cl23  1  0.763647  0.588450  0.054607  1
  Cl  Cl24  1  0.407017  0.466751  0.660394  1
  Cl  Cl25  1  0.591959  0.532824  0.339499  1
  Cl  Cl26  1  0.952050  0.663443  0.777912  1
