# generated using pymatgen
data_Yb2Mn3Al20Ni
_symmetry_space_group_name_H-M   'P 1'
_cell_length_a   6.81561947
_cell_length_b   6.83361559
_cell_length_c   8.99462183
_cell_angle_alpha   89.91916990
_cell_angle_beta   90.26645689
_cell_angle_gamma   97.36220798
_symmetry_Int_Tables_number   1
_chemical_formula_structural   Yb2Mn3Al20Ni
_chemical_formula_sum   'Yb2 Mn3 Al20 Ni1'
_cell_volume   415.46910808
_cell_formula_units_Z   1
loop_
 _symmetry_equiv_pos_site_id
 _symmetry_equiv_pos_as_xyz
  1  'x, y, z'
loop_
 _atom_site_type_symbol
 _atom_site_label
 _atom_site_symmetry_multiplicity
 _atom_site_fract_x
 _atom_site_fract_y
 _atom_site_fract_z
 _atom_site_occupancy
  Yb  Yb0  1  0.879071  0.124881  0.250036  1
  Yb  Yb1  1  0.120929  0.875119  0.749964  1
  Mn  Mn2  1  0.000000  0.500000  0.500000  1
  Mn  Mn3  1  0.000000  0.500000  0.000000  1
  Mn  Mn4  1  0.500000  0.000000  0.000000  1
  Al  Al5  1  0.225063  0.228723  0.498748  1
  Al  Al6  1  0.772309  0.771987  0.000366  1
  Al  Al7  1  0.774937  0.771277  0.501252  1
  Al  Al8  1  0.227691  0.228013  0.999634  1
  Al  Al9  1  0.373615  0.621625  0.547718  1
  Al  Al10  1  0.625518  0.374094  0.047105  1
  Al  Al11  1  0.586651  0.867156  0.750941  1
  Al  Al12  1  0.413349  0.132844  0.249059  1
  Al  Al13  1  0.867908  0.584930  0.249961  1
  Al  Al14  1  0.132092  0.415070  0.750039  1
  Al  Al15  1  0.475084  0.221841  0.753079  1
  Al  Al16  1  0.524916  0.778159  0.246921  1
  Al  Al17  1  0.220569  0.475488  0.251274  1
  Al  Al18  1  0.779431  0.524512  0.748726  1
  Al  Al19  1  0.155896  0.841501  0.402470  1
  Al  Al20  1  0.840694  0.158518  0.904351  1
  Al  Al21  1  0.844104  0.158499  0.597530  1
  Al  Al22  1  0.159306  0.841482  0.095649  1
  Al  Al23  1  0.374482  0.625906  0.952895  1
  Al  Al24  1  0.626385  0.378375  0.452282  1
  Ni  Ni25  1  0.500000  0.000000  0.500000  1
