# generated using pymatgen
data_Sm8Ge(Pd5Pt3)3
_symmetry_space_group_name_H-M   'P 1'
_cell_length_a   8.44564300
_cell_length_b   8.45202000
_cell_length_c   8.45153100
_cell_angle_alpha   90.00000000
_cell_angle_beta   90.00000000
_cell_angle_gamma   90.00000000
_symmetry_Int_Tables_number   1
_chemical_formula_structural   Sm8Ge(Pd5Pt3)3
_chemical_formula_sum   'Sm8 Ge1 Pd15 Pt9'
_cell_volume   603.29346997
_cell_formula_units_Z   1
loop_
 _symmetry_equiv_pos_site_id
 _symmetry_equiv_pos_as_xyz
  1  'x, y, z'
loop_
 _atom_site_type_symbol
 _atom_site_label
 _atom_site_symmetry_multiplicity
 _atom_site_fract_x
 _atom_site_fract_y
 _atom_site_fract_z
 _atom_site_occupancy
  Sm  Sm0  1  0.253404  0.253031  0.253243  1
  Sm  Sm1  1  0.746589  0.746737  0.746853  1
  Sm  Sm2  1  0.746589  0.746737  0.253147  1
  Sm  Sm3  1  0.746589  0.253263  0.746853  1
  Sm  Sm4  1  0.253404  0.253031  0.746757  1
  Sm  Sm5  1  0.253404  0.746969  0.253243  1
  Sm  Sm6  1  0.253404  0.746969  0.746757  1
  Sm  Sm7  1  0.746589  0.253263  0.253147  1
  Ge  Ge8  1  0.000148  0.000000  0.000000  1
  Pd  Pd9  1  0.740329  0.000000  0.500000  1
  Pd  Pd10  1  0.999923  0.500000  0.259848  1
  Pd  Pd11  1  0.999923  0.500000  0.740152  1
  Pd  Pd12  1  0.252995  0.500000  0.500000  1
  Pd  Pd13  1  0.747097  0.500000  0.500000  1
  Pd  Pd14  1  0.499967  0.252984  0.500000  1
  Pd  Pd15  1  0.499967  0.747016  0.500000  1
  Pd  Pd16  1  0.500087  0.500000  0.253103  1
  Pd  Pd17  1  0.500087  0.500000  0.746897  1
  Pd  Pd18  1  0.290033  0.000000  0.000000  1
  Pd  Pd19  1  0.709848  0.000000  0.000000  1
  Pd  Pd20  1  0.999966  0.290382  0.000000  1
  Pd  Pd21  1  0.999966  0.709618  0.000000  1
  Pd  Pd22  1  0.999969  0.000000  0.290212  1
  Pd  Pd23  1  0.999969  0.000000  0.709788  1
  Pt  Pt24  1  0.259563  0.500000  0.000000  1
  Pt  Pt25  1  0.740495  0.500000  0.000000  1
  Pt  Pt26  1  0.000019  0.259675  0.500000  1
  Pt  Pt27  1  0.500083  0.259688  0.000000  1
  Pt  Pt28  1  0.000019  0.740325  0.500000  1
  Pt  Pt29  1  0.500083  0.740312  0.000000  1
  Pt  Pt30  1  0.499881  0.000000  0.259672  1
  Pt  Pt31  1  0.259734  0.000000  0.500000  1
  Pt  Pt32  1  0.499881  0.000000  0.740328  1
