# generated using pymatgen
data_Ba2AlInPt2
_symmetry_space_group_name_H-M   'P 1'
_cell_length_a   7.09057300
_cell_length_b   7.11312080
_cell_length_c   7.13969793
_cell_angle_alpha   91.06223729
_cell_angle_beta   90.00000000
_cell_angle_gamma   90.00000000
_symmetry_Int_Tables_number   1
_chemical_formula_structural   Ba2AlInPt2
_chemical_formula_sum   'Ba4 Al2 In2 Pt4'
_cell_volume   360.03665164
_cell_formula_units_Z   2
loop_
 _symmetry_equiv_pos_site_id
 _symmetry_equiv_pos_as_xyz
  1  'x, y, z'
loop_
 _atom_site_type_symbol
 _atom_site_label
 _atom_site_symmetry_multiplicity
 _atom_site_fract_x
 _atom_site_fract_y
 _atom_site_fract_z
 _atom_site_occupancy
  Ba  Ba0  1  0.663895  0.346006  0.843107  1
  Ba  Ba1  1  0.341319  0.838028  0.659051  1
  Ba  Ba2  1  0.163895  0.153994  0.156893  1
  Ba  Ba3  1  0.841319  0.661972  0.340949  1
  Al  Al4  1  0.348157  0.652067  0.142465  1
  Al  Al5  1  0.848157  0.847933  0.857535  1
  In  In6  1  0.155469  0.349586  0.657422  1
  In  In7  1  0.655469  0.150414  0.342578  1
  Pt  Pt8  1  0.573362  0.901716  0.061571  1
  Pt  Pt9  1  0.073362  0.598284  0.938429  1
  Pt  Pt10  1  0.417798  0.442466  0.400733  1
  Pt  Pt11  1  0.917798  0.057534  0.599267  1
