# generated using pymatgen
data_CeHoRu2F14
_symmetry_space_group_name_H-M   'P 1'
_cell_length_a   5.63700000
_cell_length_b   8.99366651
_cell_length_c   11.98659457
_cell_angle_alpha   62.92550179
_cell_angle_beta   90.00000000
_cell_angle_gamma   90.00000000
_symmetry_Int_Tables_number   1
_chemical_formula_structural   CeHoRu2F14
_chemical_formula_sum   'Ce2 Ho2 Ru4 F28'
_cell_volume   541.09476176
_cell_formula_units_Z   2
loop_
 _symmetry_equiv_pos_site_id
 _symmetry_equiv_pos_as_xyz
  1  'x, y, z'
loop_
 _atom_site_type_symbol
 _atom_site_label
 _atom_site_symmetry_multiplicity
 _atom_site_fract_x
 _atom_site_fract_y
 _atom_site_fract_z
 _atom_site_occupancy
  Ce  Ce0  1  0.757705  0.802367  0.768708  1
  Ce  Ce1  1  0.257705  0.197633  0.731292  1
  Ho  Ho2  1  0.240558  0.185027  0.234082  1
  Ho  Ho3  1  0.740558  0.814973  0.265918  1
  Ru  Ru4  1  0.754828  0.269234  0.961481  1
  Ru  Ru5  1  0.254828  0.730766  0.538519  1
  Ru  Ru6  1  0.244022  0.725777  0.048535  1
  Ru  Ru7  1  0.744022  0.274223  0.451465  1
  F  F8  1  0.445692  0.707286  0.919824  1
  F  F9  1  0.945692  0.292714  0.580176  1
  F  F10  1  0.550206  0.293447  0.083849  1
  F  F11  1  0.050206  0.706553  0.416151  1
  F  F12  1  0.454077  0.279801  0.544438  1
  F  F13  1  0.954077  0.720199  0.955562  1
  F  F14  1  0.548024  0.722049  0.449190  1
  F  F15  1  0.048024  0.277951  0.050810  1
  F  F16  1  0.769395  0.511712  0.862727  1
  F  F17  1  0.269395  0.488288  0.637273  1
  F  F18  1  0.232119  0.486758  0.140938  1
  F  F19  1  0.732119  0.513242  0.359062  1
  F  F20  1  0.752835  0.028867  0.052142  1
  F  F21  1  0.252835  0.971133  0.447858  1
  F  F22  1  0.245821  0.965108  0.952892  1
  F  F23  1  0.745821  0.034892  0.547108  1
  F  F24  1  0.972991  0.731446  0.638371  1
  F  F25  1  0.472991  0.268554  0.861629  1
  F  F26  1  0.026151  0.268979  0.356171  1
  F  F27  1  0.526151  0.731021  0.143829  1
  F  F28  1  0.041912  0.749093  0.173803  1
  F  F29  1  0.541912  0.250907  0.326197  1
  F  F30  1  0.951918  0.250960  0.831116  1
  F  F31  1  0.451918  0.749040  0.668884  1
  F  F32  1  0.427932  0.976372  0.232712  1
  F  F33  1  0.927932  0.023628  0.267288  1
  F  F34  1  0.583813  0.028298  0.768308  1
  F  F35  1  0.083813  0.971702  0.731692  1
