# generated using pymatgen
data_LaSb18Te
_symmetry_space_group_name_H-M   'P 1'
_cell_length_a   7.65248369
_cell_length_b   8.90022597
_cell_length_c   9.89605200
_cell_angle_alpha   103.04204184
_cell_angle_beta   97.33363054
_cell_angle_gamma   106.90684588
_symmetry_Int_Tables_number   1
_chemical_formula_structural   LaSb18Te
_chemical_formula_sum   'La1 Sb18 Te1'
_cell_volume   614.58815043
_cell_formula_units_Z   1
loop_
 _symmetry_equiv_pos_site_id
 _symmetry_equiv_pos_as_xyz
  1  'x, y, z'
loop_
 _atom_site_type_symbol
 _atom_site_label
 _atom_site_symmetry_multiplicity
 _atom_site_fract_x
 _atom_site_fract_y
 _atom_site_fract_z
 _atom_site_occupancy
  La  La0  1  0.897472  0.058188  0.824431  1
  Sb  Sb1  1  0.902116  0.544642  0.784793  1
  Sb  Sb2  1  0.695909  0.150492  0.396967  1
  Sb  Sb3  1  0.509699  0.747756  0.984832  1
  Sb  Sb4  1  0.691924  0.639536  0.378836  1
  Sb  Sb5  1  0.300855  0.355694  0.584804  1
  Sb  Sb6  1  0.096804  0.943641  0.183704  1
  Sb  Sb7  1  0.494667  0.244852  0.982694  1
  Sb  Sb8  1  0.308540  0.844524  0.588328  1
  Sb  Sb9  1  0.104785  0.449930  0.185866  1
  Sb  Sb10  1  0.802911  0.599116  0.106971  1
  Sb  Sb11  1  0.585722  0.205687  0.705115  1
  Sb  Sb12  1  0.400988  0.799483  0.310919  1
  Sb  Sb13  1  0.797229  0.104379  0.125474  1
  Sb  Sb14  1  0.212274  0.416126  0.913186  1
  Sb  Sb15  1  0.593345  0.691363  0.700194  1
  Sb  Sb16  1  0.402041  0.303442  0.307108  1
  Sb  Sb17  1  0.209193  0.894849  0.910738  1
  Sb  Sb18  1  0.995285  0.502938  0.509096  1
  Te  Te19  1  0.998239  0.003364  0.515942  1
