# generated using pymatgen
data_Hf9ZrAlSn4GeSb2
_symmetry_space_group_name_H-M   'P 1'
_cell_length_a   8.67001735
_cell_length_b   8.66873135
_cell_length_c   5.82750600
_cell_angle_alpha   90.02111728
_cell_angle_beta   89.95778492
_cell_angle_gamma   120.00491133
_symmetry_Int_Tables_number   1
_chemical_formula_structural   Hf9ZrAlSn4GeSb2
_chemical_formula_sum   'Hf9 Zr1 Al1 Sn4 Ge1 Sb2'
_cell_volume   379.28638946
_cell_formula_units_Z   1
loop_
 _symmetry_equiv_pos_site_id
 _symmetry_equiv_pos_as_xyz
  1  'x, y, z'
loop_
 _atom_site_type_symbol
 _atom_site_label
 _atom_site_symmetry_multiplicity
 _atom_site_fract_x
 _atom_site_fract_y
 _atom_site_fract_z
 _atom_site_occupancy
  Hf  Hf0  1  0.333508  0.666723  0.000217  1
  Hf  Hf1  1  0.666165  0.333391  0.499921  1
  Hf  Hf2  1  0.666134  0.333576  0.000226  1
  Hf  Hf3  1  0.334044  0.667049  0.499872  1
  Hf  Hf4  1  0.269691  0.000176  0.247154  1
  Hf  Hf5  1  0.268235  0.268504  0.753086  1
  Hf  Hf6  1  0.999501  0.732248  0.752994  1
  Hf  Hf7  1  0.000579  0.268712  0.246897  1
  Hf  Hf8  1  0.731355  0.730793  0.247110  1
  Zr  Zr9  1  0.731876  0.999760  0.752147  1
  Al  Al10  1  0.001333  0.000419  0.498776  1
  Sn  Sn11  1  0.000795  0.391009  0.747371  1
  Sn  Sn12  1  0.000471  0.610383  0.252609  1
  Sn  Sn13  1  0.388715  0.388691  0.252501  1
  Sn  Sn14  1  0.388175  0.000134  0.747489  1
  Ge  Ge15  1  0.001391  0.000189  0.001774  1
  Sb  Sb16  1  0.609479  0.000454  0.252368  1
  Sb  Sb17  1  0.608555  0.607790  0.747483  1
