# generated using pymatgen
data_Nd5Sm3Sc11Si16W
_symmetry_space_group_name_H-M   'P 1'
_cell_length_a   7.20374867
_cell_length_b   7.44407851
_cell_length_c   14.07684998
_cell_angle_alpha   90.16874372
_cell_angle_beta   89.74918564
_cell_angle_gamma   89.62419716
_symmetry_Int_Tables_number   1
_chemical_formula_structural   Nd5Sm3Sc11Si16W
_chemical_formula_sum   'Nd5 Sm3 Sc11 Si16 W1'
_cell_volume   754.84808219
_cell_formula_units_Z   1
loop_
 _symmetry_equiv_pos_site_id
 _symmetry_equiv_pos_as_xyz
  1  'x, y, z'
loop_
 _atom_site_type_symbol
 _atom_site_label
 _atom_site_symmetry_multiplicity
 _atom_site_fract_x
 _atom_site_fract_y
 _atom_site_fract_z
 _atom_site_occupancy
  Nd  Nd0  1  0.011795  0.171329  0.097326  1
  Nd  Nd1  1  0.989411  0.828298  0.898123  1
  Nd  Nd2  1  0.486804  0.674043  0.898229  1
  Nd  Nd3  1  0.992561  0.831072  0.595353  1
  Nd  Nd4  1  0.513461  0.326487  0.097149  1
  Sm  Sm5  1  0.011576  0.174166  0.403269  1
  Sm  Sm6  1  0.507506  0.326279  0.409012  1
  Sm  Sm7  1  0.487045  0.674248  0.597227  1
  Sc  Sc8  1  0.163093  0.490253  0.744319  1
  Sc  Sc9  1  0.838408  0.499657  0.252474  1
  Sc  Sc10  1  0.338133  0.000897  0.252200  1
  Sc  Sc11  1  0.656619  0.003797  0.747139  1
  Sc  Sc12  1  0.665471  0.826328  0.379140  1
  Sc  Sc13  1  0.168914  0.676296  0.378268  1
  Sc  Sc14  1  0.669674  0.824512  0.124952  1
  Sc  Sc15  1  0.832138  0.325045  0.623615  1
  Sc  Sc16  1  0.332602  0.176855  0.874890  1
  Sc  Sc17  1  0.828913  0.323660  0.870631  1
  Sc  Sc18  1  0.170746  0.675945  0.126134  1
  Si  Si19  1  0.044333  0.126219  0.744346  1
  Si  Si20  1  0.963369  0.879133  0.252349  1
  Si  Si21  1  0.466224  0.623695  0.251713  1
  Si  Si22  1  0.529436  0.368045  0.744575  1
  Si  Si23  1  0.289654  0.889803  0.745514  1
  Si  Si24  1  0.710808  0.120283  0.252106  1
  Si  Si25  1  0.214108  0.379149  0.251901  1
  Si  Si26  1  0.785448  0.618678  0.746109  1
  Si  Si27  1  0.173939  0.448145  0.542500  1
  Si  Si28  1  0.845129  0.532510  0.459649  1
  Si  Si29  1  0.338343  0.970299  0.470700  1
  Si  Si30  1  0.848954  0.536941  0.038812  1
  Si  Si31  1  0.641089  0.038245  0.546157  1
  Si  Si32  1  0.149385  0.464678  0.958705  1
  Si  Si33  1  0.656104  0.037436  0.957892  1
  Si  Si34  1  0.346530  0.961692  0.039018  1
  W  W35  1  0.332277  0.175880  0.628506  1
