# generated using pymatgen
data_Pa2Zn17
_symmetry_space_group_name_H-M   'P 1'
_cell_length_a   6.79971719
_cell_length_b   6.79971646
_cell_length_c   6.79971625
_cell_angle_alpha   82.45218205
_cell_angle_beta   82.45218573
_cell_angle_gamma   82.45219145
_symmetry_Int_Tables_number   1
_chemical_formula_structural   Pa2Zn17
_chemical_formula_sum   'Pa2 Zn17'
_cell_volume   306.87874563
_cell_formula_units_Z   1
loop_
 _symmetry_equiv_pos_site_id
 _symmetry_equiv_pos_as_xyz
  1  'x, y, z'
loop_
 _atom_site_type_symbol
 _atom_site_label
 _atom_site_symmetry_multiplicity
 _atom_site_fract_x
 _atom_site_fract_y
 _atom_site_fract_z
 _atom_site_occupancy
  Pa  Pa0  1  0.661817  0.661817  0.661817  1
  Pa  Pa1  1  0.338183  0.338183  0.338183  1
  Zn  Zn2  1  0.353706  0.353706  0.839972  1
  Zn  Zn3  1  0.839972  0.353706  0.353706  1
  Zn  Zn4  1  0.101729  0.101729  0.101729  1
  Zn  Zn5  1  0.898271  0.898271  0.898271  1
  Zn  Zn6  1  0.000000  0.000000  0.500000  1
  Zn  Zn7  1  0.000000  0.500000  0.000000  1
  Zn  Zn8  1  0.500000  0.000000  0.000000  1
  Zn  Zn9  1  0.297755  0.702245  0.000000  1
  Zn  Zn10  1  0.702245  0.000000  0.297755  1
  Zn  Zn11  1  0.000000  0.297755  0.702245  1
  Zn  Zn12  1  0.702245  0.297755  0.000000  1
  Zn  Zn13  1  0.297755  0.000000  0.702245  1
  Zn  Zn14  1  0.000000  0.702245  0.297755  1
  Zn  Zn15  1  0.160028  0.646294  0.646294  1
  Zn  Zn16  1  0.646294  0.646294  0.160028  1
  Zn  Zn17  1  0.646294  0.160028  0.646294  1
  Zn  Zn18  1  0.353706  0.839972  0.353706  1
