# generated using pymatgen
data_Zn2Ga3F9
_symmetry_space_group_name_H-M   'P 1'
_cell_length_a   5.23988961
_cell_length_b   5.40008245
_cell_length_c   8.39649836
_cell_angle_alpha   78.53750627
_cell_angle_beta   83.68020258
_cell_angle_gamma   94.53536008
_symmetry_Int_Tables_number   1
_chemical_formula_structural   Zn2Ga3F9
_chemical_formula_sum   'Zn2 Ga3 F9'
_cell_volume   230.18612722
_cell_formula_units_Z   1
loop_
 _symmetry_equiv_pos_site_id
 _symmetry_equiv_pos_as_xyz
  1  'x, y, z'
loop_
 _atom_site_type_symbol
 _atom_site_label
 _atom_site_symmetry_multiplicity
 _atom_site_fract_x
 _atom_site_fract_y
 _atom_site_fract_z
 _atom_site_occupancy
  Zn  Zn0  1  0.130685  0.901217  0.360750  1
  Zn  Zn1  1  0.081205  0.317241  0.825987  1
  Ga  Ga2  1  0.339195  0.563779  0.279823  1
  Ga  Ga3  1  0.603625  0.103176  0.596016  1
  Ga  Ga4  1  0.873863  0.652708  0.909208  1
  F  F5  1  0.282189  0.934255  0.571012  1
  F  F6  1  0.187971  0.261169  0.231168  1
  F  F7  1  0.768402  0.939480  0.434233  1
  F  F8  1  0.558794  0.391750  0.424675  1
  F  F9  1  0.441461  0.268345  0.757842  1
  F  F10  1  0.610301  0.598808  0.097563  1
  F  F11  1  0.641356  0.815598  0.770143  1
  F  F12  1  0.926611  0.270653  0.619466  1
  F  F13  1  0.013504  0.958123  0.959094  1
