# generated using pymatgen
data_TbDy3Y3CoI12
_symmetry_space_group_name_H-M   'P 1'
_cell_length_a   9.76137440
_cell_length_b   9.76145480
_cell_length_c   9.76210514
_cell_angle_alpha   106.84425579
_cell_angle_beta   106.88576943
_cell_angle_gamma   106.87080890
_symmetry_Int_Tables_number   1
_chemical_formula_structural   TbDy3Y3CoI12
_chemical_formula_sum   'Tb1 Dy3 Y3 Co1 I12'
_cell_volume   777.46088679
_cell_formula_units_Z   1
loop_
 _symmetry_equiv_pos_site_id
 _symmetry_equiv_pos_as_xyz
  1  'x, y, z'
loop_
 _atom_site_type_symbol
 _atom_site_label
 _atom_site_symmetry_multiplicity
 _atom_site_fract_x
 _atom_site_fract_y
 _atom_site_fract_z
 _atom_site_occupancy
  Tb  Tb0  1  0.711204  0.977828  0.907474  1
  Dy  Dy1  1  0.287393  0.021880  0.091761  1
  Dy  Dy2  1  0.978199  0.907893  0.712365  1
  Dy  Dy3  1  0.908191  0.712342  0.978059  1
  Y  Y4  1  0.500147  0.500021  0.500057  1
  Y  Y5  1  0.022270  0.092149  0.288755  1
  Y  Y6  1  0.092609  0.288710  0.022127  1
  Co  Co7  1  0.000038  0.999505  0.999607  1
  I  I8  1  0.160612  0.463310  0.386258  1
  I  I9  1  0.463337  0.386208  0.160780  1
  I  I10  1  0.386339  0.160735  0.463219  1
  I  I11  1  0.839190  0.536772  0.613759  1
  I  I12  1  0.536692  0.613315  0.839147  1
  I  I13  1  0.613761  0.838990  0.536238  1
  I  I14  1  0.678037  0.071867  0.225355  1
  I  I15  1  0.071648  0.224680  0.677764  1
  I  I16  1  0.224807  0.677805  0.071649  1
  I  I17  1  0.321694  0.928302  0.775187  1
  I  I18  1  0.928350  0.775158  0.321994  1
  I  I19  1  0.775485  0.322532  0.928444  1
