# generated using pymatgen
data_Dy7Ho(ErIr2)2
_symmetry_space_group_name_H-M   'P 1'
_cell_length_a   6.48244609
_cell_length_b   7.20230773
_cell_length_c   8.51046695
_cell_angle_alpha   96.61314198
_cell_angle_beta   112.55542625
_cell_angle_gamma   90.03330258
_symmetry_Int_Tables_number   1
_chemical_formula_structural   Dy7Ho(ErIr2)2
_chemical_formula_sum   'Dy7 Ho1 Er2 Ir4'
_cell_volume   364.07285617
_cell_formula_units_Z   1
loop_
 _symmetry_equiv_pos_site_id
 _symmetry_equiv_pos_as_xyz
  1  'x, y, z'
loop_
 _atom_site_type_symbol
 _atom_site_label
 _atom_site_symmetry_multiplicity
 _atom_site_fract_x
 _atom_site_fract_y
 _atom_site_fract_z
 _atom_site_occupancy
  Dy  Dy0  1  0.971561  0.917805  0.182040  1
  Dy  Dy1  1  0.789206  0.581930  0.817307  1
  Dy  Dy2  1  0.028241  0.082311  0.817618  1
  Dy  Dy3  1  0.211444  0.417820  0.182538  1
  Dy  Dy4  1  0.653222  0.817168  0.441018  1
  Dy  Dy5  1  0.211689  0.682272  0.558697  1
  Dy  Dy6  1  0.346509  0.183021  0.558685  1
  Ho  Ho7  1  0.572545  0.250121  0.000545  1
  Er  Er8  1  0.787469  0.317505  0.440857  1
  Er  Er9  1  0.428223  0.750122  0.999927  1
  Ir  Ir10  1  0.824482  0.572754  0.219661  1
  Ir  Ir11  1  0.605472  0.926796  0.781434  1
  Ir  Ir12  1  0.174362  0.427036  0.780031  1
  Ir  Ir13  1  0.395574  0.073340  0.219642  1
