# generated using pymatgen
data_Dy3CuPd2
_symmetry_space_group_name_H-M   'P 1'
_cell_length_a   4.56517100
_cell_length_b   5.55949992
_cell_length_c   10.57483788
_cell_angle_alpha   82.60758786
_cell_angle_beta   90.00000000
_cell_angle_gamma   90.00000000
_symmetry_Int_Tables_number   1
_chemical_formula_structural   Dy3CuPd2
_chemical_formula_sum   'Dy6 Cu2 Pd4'
_cell_volume   266.15930057
_cell_formula_units_Z   2
loop_
 _symmetry_equiv_pos_site_id
 _symmetry_equiv_pos_as_xyz
  1  'x, y, z'
loop_
 _atom_site_type_symbol
 _atom_site_label
 _atom_site_symmetry_multiplicity
 _atom_site_fract_x
 _atom_site_fract_y
 _atom_site_fract_z
 _atom_site_occupancy
  Dy  Dy0  1  0.250000  0.405889  0.788874  1
  Dy  Dy1  1  0.750000  0.594111  0.211126  1
  Dy  Dy2  1  0.250000  0.116531  0.120306  1
  Dy  Dy3  1  0.750000  0.883469  0.879694  1
  Dy  Dy4  1  0.250000  0.256802  0.453877  1
  Dy  Dy5  1  0.750000  0.743198  0.546123  1
  Cu  Cu6  1  0.250000  0.783054  0.358315  1
  Cu  Cu7  1  0.750000  0.216946  0.641685  1
  Pd  Pd8  1  0.250000  0.647203  0.029593  1
  Pd  Pd9  1  0.750000  0.352797  0.970407  1
  Pd  Pd10  1  0.250000  0.928981  0.690637  1
  Pd  Pd11  1  0.750000  0.071019  0.309363  1
