# generated using pymatgen
data_Yb12Ge8Ir5Pd3
_symmetry_space_group_name_H-M   'P 1'
_cell_length_a   5.64889096
_cell_length_b   7.80558209
_cell_length_c   13.51009544
_cell_angle_alpha   90.00785611
_cell_angle_beta   89.87246597
_cell_angle_gamma   90.65227493
_symmetry_Int_Tables_number   1
_chemical_formula_structural   Yb12Ge8Ir5Pd3
_chemical_formula_sum   'Yb12 Ge8 Ir5 Pd3'
_cell_volume   595.65896405
_cell_formula_units_Z   1
loop_
 _symmetry_equiv_pos_site_id
 _symmetry_equiv_pos_as_xyz
  1  'x, y, z'
loop_
 _atom_site_type_symbol
 _atom_site_label
 _atom_site_symmetry_multiplicity
 _atom_site_fract_x
 _atom_site_fract_y
 _atom_site_fract_z
 _atom_site_occupancy
  Yb  Yb0  1  0.640207  0.247115  0.252957  1
  Yb  Yb1  1  0.356506  0.754197  0.748133  1
  Yb  Yb2  1  0.366606  0.751574  0.252354  1
  Yb  Yb3  1  0.632970  0.245351  0.749509  1
  Yb  Yb4  1  0.141173  0.388514  0.098526  1
  Yb  Yb5  1  0.857496  0.611664  0.901794  1
  Yb  Yb6  1  0.858826  0.612194  0.595707  1
  Yb  Yb7  1  0.853862  0.895327  0.402105  1
  Yb  Yb8  1  0.146012  0.393917  0.400928  1
  Yb  Yb9  1  0.145812  0.100663  0.597696  1
  Yb  Yb10  1  0.146806  0.100596  0.901547  1
  Yb  Yb11  1  0.851895  0.898653  0.099346  1
  Ge  Ge12  1  0.146132  0.098269  0.249788  1
  Ge  Ge13  1  0.850577  0.900202  0.749618  1
  Ge  Ge14  1  0.858755  0.600880  0.251940  1
  Ge  Ge15  1  0.135316  0.396049  0.751059  1
  Ge  Ge16  1  0.642848  0.240707  0.998462  1
  Ge  Ge17  1  0.356019  0.759260  0.002553  1
  Ge  Ge18  1  0.372864  0.754549  0.496250  1
  Ge  Ge19  1  0.639629  0.246919  0.497085  1
  Ir  Ir20  1  0.371299  0.041925  0.093752  1
  Ir  Ir21  1  0.628769  0.957690  0.906388  1
  Ir  Ir22  1  0.631691  0.966423  0.592699  1
  Ir  Ir23  1  0.630203  0.532274  0.409891  1
  Ir  Ir24  1  0.366972  0.039881  0.406376  1
  Pd  Pd25  1  0.371596  0.464470  0.593417  1
  Pd  Pd26  1  0.372778  0.466433  0.908980  1
  Pd  Pd27  1  0.626381  0.534306  0.091141  1
