# generated using pymatgen
data_Tm16MgCd3(NiRu)2
_symmetry_space_group_name_H-M   'P 1'
_cell_length_a   9.51162792
_cell_length_b   9.51162758
_cell_length_c   9.55374278
_cell_angle_alpha   59.26004746
_cell_angle_beta   59.26004997
_cell_angle_gamma   58.97430305
_symmetry_Int_Tables_number   1
_chemical_formula_structural   Tm16MgCd3(NiRu)2
_chemical_formula_sum   'Tm16 Mg1 Cd3 Ni2 Ru2'
_cell_volume   599.53607904
_cell_formula_units_Z   1
loop_
 _symmetry_equiv_pos_site_id
 _symmetry_equiv_pos_as_xyz
  1  'x, y, z'
loop_
 _atom_site_type_symbol
 _atom_site_label
 _atom_site_symmetry_multiplicity
 _atom_site_fract_x
 _atom_site_fract_y
 _atom_site_fract_z
 _atom_site_occupancy
  Tm  Tm0  1  0.348881  0.348881  0.344447  1
  Tm  Tm1  1  0.349113  0.349113  0.960161  1
  Tm  Tm2  1  0.352151  0.958385  0.344834  1
  Tm  Tm3  1  0.958385  0.352151  0.344834  1
  Tm  Tm4  1  0.810267  0.187159  0.189590  1
  Tm  Tm5  1  0.185662  0.812782  0.813379  1
  Tm  Tm6  1  0.187159  0.810267  0.189590  1
  Tm  Tm7  1  0.812782  0.185662  0.813379  1
  Tm  Tm8  1  0.187771  0.187771  0.810633  1
  Tm  Tm9  1  0.811915  0.811915  0.187914  1
  Tm  Tm10  1  0.937279  0.560723  0.568256  1
  Tm  Tm11  1  0.560313  0.937594  0.936827  1
  Tm  Tm12  1  0.560723  0.937279  0.568256  1
  Tm  Tm13  1  0.937594  0.560313  0.936827  1
  Tm  Tm14  1  0.565852  0.565852  0.938232  1
  Tm  Tm15  1  0.940778  0.940778  0.560845  1
  Mg  Mg16  1  0.574352  0.574352  0.577200  1
  Cd  Cd17  1  0.579745  0.579745  0.256198  1
  Cd  Cd18  1  0.579358  0.254996  0.581335  1
  Cd  Cd19  1  0.254996  0.579358  0.581335  1
  Ni  Ni20  1  0.142502  0.576478  0.141330  1
  Ni  Ni21  1  0.576478  0.142502  0.141330  1
  Ru  Ru22  1  0.142453  0.142453  0.140097  1
  Ru  Ru23  1  0.143495  0.143495  0.573174  1
