# generated using pymatgen
data_Dy8Hg2RuPt
_symmetry_space_group_name_H-M   'P 1'
_cell_length_a   9.61496763
_cell_length_b   9.61496809
_cell_length_c   9.59605100
_cell_angle_alpha   60.06506526
_cell_angle_beta   60.06506367
_cell_angle_gamma   60.15710005
_symmetry_Int_Tables_number   1
_chemical_formula_structural   Dy8Hg2RuPt
_chemical_formula_sum   'Dy16 Hg4 Ru2 Pt2'
_cell_volume   628.65680935
_cell_formula_units_Z   2
loop_
 _symmetry_equiv_pos_site_id
 _symmetry_equiv_pos_as_xyz
  1  'x, y, z'
loop_
 _atom_site_type_symbol
 _atom_site_label
 _atom_site_symmetry_multiplicity
 _atom_site_fract_x
 _atom_site_fract_y
 _atom_site_fract_z
 _atom_site_occupancy
  Dy  Dy0  1  0.601261  0.601261  0.597679  1
  Dy  Dy1  1  0.601261  0.601261  0.199798  1
  Dy  Dy2  1  0.608264  0.190812  0.600462  1
  Dy  Dy3  1  0.190812  0.608264  0.600462  1
  Dy  Dy4  1  0.055130  0.440222  0.441242  1
  Dy  Dy5  1  0.440222  0.055130  0.063407  1
  Dy  Dy6  1  0.440222  0.055130  0.441242  1
  Dy  Dy7  1  0.055130  0.440222  0.063407  1
  Dy  Dy8  1  0.441923  0.441923  0.058077  1
  Dy  Dy9  1  0.061134  0.061134  0.438866  1
  Dy  Dy10  1  0.188916  0.814651  0.809688  1
  Dy  Dy11  1  0.814651  0.188916  0.186746  1
  Dy  Dy12  1  0.814651  0.188916  0.809688  1
  Dy  Dy13  1  0.188916  0.814651  0.186746  1
  Dy  Dy14  1  0.811945  0.811945  0.188055  1
  Dy  Dy15  1  0.187813  0.187813  0.812187  1
  Hg  Hg16  1  0.834883  0.834883  0.835549  1
  Hg  Hg17  1  0.834883  0.834883  0.494686  1
  Hg  Hg18  1  0.834285  0.495124  0.835295  1
  Hg  Hg19  1  0.495124  0.834285  0.835295  1
  Ru  Ru20  1  0.391420  0.824467  0.392057  1
  Ru  Ru21  1  0.824467  0.391420  0.392057  1
  Pt  Pt22  1  0.391344  0.391344  0.395630  1
  Pt  Pt23  1  0.391344  0.391344  0.821681  1
