# generated using pymatgen
data_Er6Nb5Ga11Os7
_symmetry_space_group_name_H-M   'P 1'
_cell_length_a   9.06559605
_cell_length_b   9.06559655
_cell_length_c   9.00013685
_cell_angle_alpha   59.75911785
_cell_angle_beta   59.75911281
_cell_angle_gamma   60.00000041
_symmetry_Int_Tables_number   1
_chemical_formula_structural   Er6Nb5Ga11Os7
_chemical_formula_sum   'Er6 Nb5 Ga11 Os7'
_cell_volume   521.11788858
_cell_formula_units_Z   1
loop_
 _symmetry_equiv_pos_site_id
 _symmetry_equiv_pos_as_xyz
  1  'x, y, z'
loop_
 _atom_site_type_symbol
 _atom_site_label
 _atom_site_symmetry_multiplicity
 _atom_site_fract_x
 _atom_site_fract_y
 _atom_site_fract_z
 _atom_site_occupancy
  Er  Er0  1  0.708893  0.708893  0.294013  1
  Er  Er1  1  0.288199  0.708893  0.294013  1
  Er  Er2  1  0.708893  0.288199  0.294013  1
  Er  Er3  1  0.296666  0.296666  0.711076  1
  Er  Er4  1  0.695592  0.296666  0.711076  1
  Er  Er5  1  0.296666  0.695592  0.711076  1
  Nb  Nb6  1  0.878191  0.878191  0.365428  1
  Nb  Nb7  1  0.875227  0.369404  0.880143  1
  Nb  Nb8  1  0.369404  0.875227  0.880143  1
  Nb  Nb9  1  0.875227  0.875227  0.880143  1
  Nb  Nb10  1  0.127766  0.127766  0.616703  1
  Ga  Ga11  1  0.117251  0.646854  0.118643  1
  Ga  Ga12  1  0.646854  0.117251  0.118643  1
  Ga  Ga13  1  0.117251  0.117251  0.118643  1
  Ga  Ga14  1  0.660083  0.660083  0.019751  1
  Ga  Ga15  1  0.662600  0.013729  0.661071  1
  Ga  Ga16  1  0.013729  0.662600  0.661071  1
  Ga  Ga17  1  0.662600  0.662600  0.661071  1
  Ga  Ga18  1  0.333918  0.333918  0.998247  1
  Ga  Ga19  1  0.338551  0.989926  0.332971  1
  Ga  Ga20  1  0.989926  0.338551  0.332971  1
  Ga  Ga21  1  0.338551  0.338551  0.332971  1
  Os  Os22  1  0.007066  0.007066  0.978801  1
  Os  Os23  1  0.998326  0.998326  0.508331  1
  Os  Os24  1  0.495016  0.998326  0.508331  1
  Os  Os25  1  0.998326  0.495016  0.508331  1
  Os  Os26  1  0.502375  0.502375  0.000775  1
  Os  Os27  1  0.994475  0.502375  0.000775  1
  Os  Os28  1  0.502375  0.994475  0.000775  1
