# generated using pymatgen
data_NaErGaPt3
_symmetry_space_group_name_H-M   'P 1'
_cell_length_a   5.55782187
_cell_length_b   5.55782262
_cell_length_c   5.18453944
_cell_angle_alpha   57.58827708
_cell_angle_beta   57.58827119
_cell_angle_gamma   59.99999484
_symmetry_Int_Tables_number   1
_chemical_formula_structural   NaErGaPt3
_chemical_formula_sum   'Na1 Er1 Ga1 Pt3'
_cell_volume   108.93597158
_cell_formula_units_Z   1
loop_
 _symmetry_equiv_pos_site_id
 _symmetry_equiv_pos_as_xyz
  1  'x, y, z'
loop_
 _atom_site_type_symbol
 _atom_site_label
 _atom_site_symmetry_multiplicity
 _atom_site_fract_x
 _atom_site_fract_y
 _atom_site_fract_z
 _atom_site_occupancy
  Na  Na0  1  0.251543  0.251543  0.245371  1
  Er  Er1  1  0.001829  0.001829  0.994514  1
  Ga  Ga2  1  0.623939  0.623939  0.128183  1
  Pt  Pt3  1  0.623549  0.125592  0.627310  1
  Pt  Pt4  1  0.125592  0.623549  0.627310  1
  Pt  Pt5  1  0.623549  0.623549  0.627310  1
