# generated using pymatgen
data_Sc22IrOs4Rh3
_symmetry_space_group_name_H-M   'P 1'
_cell_length_a   9.50988871
_cell_length_b   9.46982175
_cell_length_c   9.48740102
_cell_angle_alpha   60.14801512
_cell_angle_beta   59.99160102
_cell_angle_gamma   60.05956752
_symmetry_Int_Tables_number   1
_chemical_formula_structural   Sc22IrOs4Rh3
_chemical_formula_sum   'Sc22 Ir1 Os4 Rh3'
_cell_volume   605.06337488
_cell_formula_units_Z   1
loop_
 _symmetry_equiv_pos_site_id
 _symmetry_equiv_pos_as_xyz
  1  'x, y, z'
loop_
 _atom_site_type_symbol
 _atom_site_label
 _atom_site_symmetry_multiplicity
 _atom_site_fract_x
 _atom_site_fract_y
 _atom_site_fract_z
 _atom_site_occupancy
  Sc  Sc0  1  0.802000  0.803199  0.198024  1
  Sc  Sc1  1  0.198315  0.801760  0.195598  1
  Sc  Sc2  1  0.800266  0.198224  0.196750  1
  Sc  Sc3  1  0.198000  0.196801  0.801976  1
  Sc  Sc4  1  0.801685  0.198240  0.804402  1
  Sc  Sc5  1  0.199734  0.801776  0.803250  1
  Sc  Sc6  1  0.614724  0.613501  0.150547  1
  Sc  Sc7  1  0.613072  0.150191  0.614016  1
  Sc  Sc8  1  0.152056  0.614369  0.616815  1
  Sc  Sc9  1  0.613361  0.619769  0.619177  1
  Sc  Sc10  1  0.385276  0.386499  0.849453  1
  Sc  Sc11  1  0.386928  0.849809  0.385984  1
  Sc  Sc12  1  0.847944  0.385631  0.383185  1
  Sc  Sc13  1  0.386639  0.380231  0.380823  1
  Sc  Sc14  1  0.843155  0.843926  0.469361  1
  Sc  Sc15  1  0.842846  0.470210  0.844408  1
  Sc  Sc16  1  0.469496  0.843103  0.843787  1
  Sc  Sc17  1  0.844337  0.842125  0.843780  1
  Sc  Sc18  1  0.156845  0.156074  0.530639  1
  Sc  Sc19  1  0.157154  0.529790  0.155592  1
  Sc  Sc20  1  0.530504  0.156897  0.156213  1
  Sc  Sc21  1  0.155663  0.157875  0.156220  1
  Ir  Ir22  1  0.000000  0.500000  0.000000  1
  Os  Os23  1  0.000000  0.000000  0.000000  1
  Os  Os24  1  0.500000  0.500000  0.500000  1
  Os  Os25  1  0.500000  0.000000  0.500000  1
  Os  Os26  1  0.500000  0.500000  0.000000  1
  Rh  Rh27  1  0.000000  0.000000  0.500000  1
  Rh  Rh28  1  0.000000  0.500000  0.500000  1
  Rh  Rh29  1  0.500000  0.000000  0.000000  1
