# generated using pymatgen
data_Ba6Li2In3Ag19
_symmetry_space_group_name_H-M   'P 1'
_cell_length_a   10.01618000
_cell_length_b   10.01617922
_cell_length_c   8.55842400
_cell_angle_alpha   90.00000000
_cell_angle_beta   90.00000000
_cell_angle_gamma   119.99999599
_symmetry_Int_Tables_number   1
_chemical_formula_structural   Ba6Li2In3Ag19
_chemical_formula_sum   'Ba6 Li2 In3 Ag19'
_cell_volume   743.58163476
_cell_formula_units_Z   1
loop_
 _symmetry_equiv_pos_site_id
 _symmetry_equiv_pos_as_xyz
  1  'x, y, z'
loop_
 _atom_site_type_symbol
 _atom_site_label
 _atom_site_symmetry_multiplicity
 _atom_site_fract_x
 _atom_site_fract_y
 _atom_site_fract_z
 _atom_site_occupancy
  Ba  Ba0  1  0.523250  0.046500  0.245890  1
  Ba  Ba1  1  0.474639  0.949278  0.752344  1
  Ba  Ba2  1  0.953500  0.476750  0.245890  1
  Ba  Ba3  1  0.050722  0.525361  0.752344  1
  Ba  Ba4  1  0.523250  0.476750  0.245890  1
  Ba  Ba5  1  0.474639  0.525361  0.752344  1
  Li  Li6  1  0.000000  0.000000  0.002438  1
  Li  Li7  1  0.000000  0.000000  0.500848  1
  In  In8  1  0.666667  0.333333  0.928509  1
  In  In9  1  0.666667  0.333333  0.569952  1
  In  In10  1  0.333333  0.666667  0.423190  1
  Ag  Ag11  1  0.163629  0.327258  0.063953  1
  Ag  Ag12  1  0.834702  0.669403  0.935780  1
  Ag  Ag13  1  0.672742  0.836371  0.063953  1
  Ag  Ag14  1  0.835011  0.670021  0.565287  1
  Ag  Ag15  1  0.330597  0.165298  0.935780  1
  Ag  Ag16  1  0.165179  0.330358  0.435557  1
  Ag  Ag17  1  0.163629  0.836371  0.063953  1
  Ag  Ag18  1  0.329979  0.164989  0.565287  1
  Ag  Ag19  1  0.834702  0.165298  0.935780  1
  Ag  Ag20  1  0.669642  0.834821  0.435557  1
  Ag  Ag21  1  0.835011  0.164989  0.565287  1
  Ag  Ag22  1  0.165179  0.834821  0.435557  1
  Ag  Ag23  1  0.900149  0.800298  0.252325  1
  Ag  Ag24  1  0.099429  0.198859  0.749669  1
  Ag  Ag25  1  0.199702  0.099851  0.252325  1
  Ag  Ag26  1  0.801141  0.900571  0.749669  1
  Ag  Ag27  1  0.900149  0.099851  0.252325  1
  Ag  Ag28  1  0.099429  0.900571  0.749669  1
  Ag  Ag29  1  0.333333  0.666667  0.072652  1
