# generated using pymatgen
data_YbCe(SbPd)2
_symmetry_space_group_name_H-M   'P 1'
_cell_length_a   4.66142500
_cell_length_b   7.46249637
_cell_length_c   7.94238153
_cell_angle_alpha   89.27094658
_cell_angle_beta   90.00000000
_cell_angle_gamma   90.00000000
_symmetry_Int_Tables_number   1
_chemical_formula_structural   YbCe(SbPd)2
_chemical_formula_sum   'Yb2 Ce2 Sb4 Pd4'
_cell_volume   276.26026223
_cell_formula_units_Z   2
loop_
 _symmetry_equiv_pos_site_id
 _symmetry_equiv_pos_as_xyz
  1  'x, y, z'
loop_
 _atom_site_type_symbol
 _atom_site_label
 _atom_site_symmetry_multiplicity
 _atom_site_fract_x
 _atom_site_fract_y
 _atom_site_fract_z
 _atom_site_occupancy
  Yb  Yb0  1  0.250000  0.997705  0.292559  1
  Yb  Yb1  1  0.750000  0.002295  0.707441  1
  Ce  Ce2  1  0.250000  0.494004  0.214897  1
  Ce  Ce3  1  0.750000  0.505996  0.785103  1
  Sb  Sb4  1  0.250000  0.300679  0.597375  1
  Sb  Sb5  1  0.750000  0.220291  0.090024  1
  Sb  Sb6  1  0.250000  0.779709  0.909976  1
  Sb  Sb7  1  0.750000  0.699321  0.402625  1
  Pd  Pd8  1  0.750000  0.288042  0.424862  1
  Pd  Pd9  1  0.250000  0.177712  0.922091  1
  Pd  Pd10  1  0.750000  0.822288  0.077909  1
  Pd  Pd11  1  0.250000  0.711958  0.575138  1
