# generated using pymatgen
data_NdEu7(BeSi3)4
_symmetry_space_group_name_H-M   'P 1'
_cell_length_a   7.98110700
_cell_length_b   7.98110742
_cell_length_c   8.67412200
_cell_angle_alpha   90.00000000
_cell_angle_beta   90.00000000
_cell_angle_gamma   120.00520833
_symmetry_Int_Tables_number   1
_chemical_formula_structural   NdEu7(BeSi3)4
_chemical_formula_sum   'Nd1 Eu7 Be4 Si12'
_cell_volume   478.47544190
_cell_formula_units_Z   1
loop_
 _symmetry_equiv_pos_site_id
 _symmetry_equiv_pos_as_xyz
  1  'x, y, z'
loop_
 _atom_site_type_symbol
 _atom_site_label
 _atom_site_symmetry_multiplicity
 _atom_site_fract_x
 _atom_site_fract_y
 _atom_site_fract_z
 _atom_site_occupancy
  Nd  Nd0  1  0.499906  0.500094  0.750000  1
  Eu  Eu1  1  0.500069  0.499931  0.250000  1
  Eu  Eu2  1  0.000168  0.500074  0.750000  1
  Eu  Eu3  1  0.999822  0.499895  0.250000  1
  Eu  Eu4  1  0.499926  0.999832  0.750000  1
  Eu  Eu5  1  0.500105  0.000178  0.250000  1
  Eu  Eu6  1  0.000014  0.999986  0.750000  1
  Eu  Eu7  1  0.999997  0.000003  0.250000  1
  Be  Be8  1  0.666444  0.333556  0.997800  1
  Be  Be9  1  0.333542  0.666458  0.998696  1
  Be  Be10  1  0.333542  0.666458  0.501304  1
  Be  Be11  1  0.666444  0.333556  0.502200  1
  Si  Si12  1  0.827783  0.172217  0.999814  1
  Si  Si13  1  0.172219  0.827781  0.999780  1
  Si  Si14  1  0.344458  0.172349  0.000091  1
  Si  Si15  1  0.172219  0.827781  0.500220  1
  Si  Si16  1  0.655541  0.827645  0.000021  1
  Si  Si17  1  0.827783  0.172217  0.500186  1
  Si  Si18  1  0.827651  0.655542  0.000091  1
  Si  Si19  1  0.655541  0.827645  0.499979  1
  Si  Si20  1  0.172355  0.344459  0.000021  1
  Si  Si21  1  0.344458  0.172349  0.499909  1
  Si  Si22  1  0.172355  0.344459  0.499979  1
  Si  Si23  1  0.827651  0.655542  0.499909  1
