# generated using pymatgen
data_Yb4IrOs(RhO6)2
_symmetry_space_group_name_H-M   'P 1'
_cell_length_a   5.25903312
_cell_length_b   5.67762731
_cell_length_c   7.62657936
_cell_angle_alpha   89.63578743
_cell_angle_beta   89.31983170
_cell_angle_gamma   90.00079079
_symmetry_Int_Tables_number   1
_chemical_formula_structural   Yb4IrOs(RhO6)2
_chemical_formula_sum   'Yb4 Ir1 Os1 Rh2 O12'
_cell_volume   227.70009022
_cell_formula_units_Z   1
loop_
 _symmetry_equiv_pos_site_id
 _symmetry_equiv_pos_as_xyz
  1  'x, y, z'
loop_
 _atom_site_type_symbol
 _atom_site_label
 _atom_site_symmetry_multiplicity
 _atom_site_fract_x
 _atom_site_fract_y
 _atom_site_fract_z
 _atom_site_occupancy
  Yb  Yb0  1  0.027686  0.425494  0.254569  1
  Yb  Yb1  1  0.972314  0.574506  0.745431  1
  Yb  Yb2  1  0.524231  0.076395  0.747073  1
  Yb  Yb3  1  0.475769  0.923605  0.252927  1
  Ir  Ir4  1  0.500000  0.500000  0.500000  1
  Os  Os5  1  0.000000  0.000000  0.000000  1
  Rh  Rh6  1  0.500000  0.500000  0.000000  1
  Rh  Rh7  1  0.000000  0.000000  0.500000  1
  O  O8  1  0.305636  0.188687  0.053129  1
  O  O9  1  0.694364  0.811313  0.946871  1
  O  O10  1  0.819471  0.295620  0.943204  1
  O  O11  1  0.677995  0.803304  0.557561  1
  O  O12  1  0.180529  0.704380  0.056796  1
  O  O13  1  0.322005  0.196696  0.442439  1
  O  O14  1  0.188241  0.690336  0.444387  1
  O  O15  1  0.811759  0.309664  0.555613  1
  O  O16  1  0.619818  0.543395  0.252589  1
  O  O17  1  0.380182  0.456605  0.747411  1
  O  O18  1  0.111006  0.961701  0.755531  1
  O  O19  1  0.888994  0.038299  0.244469  1
