# generated using pymatgen
data_Ho16Mg2Cd2OsPd3
_symmetry_space_group_name_H-M   'P 1'
_cell_length_a   9.72559239
_cell_length_b   9.72559258
_cell_length_c   9.74963201
_cell_angle_alpha   59.19307532
_cell_angle_beta   59.19307770
_cell_angle_gamma   59.07427582
_symmetry_Int_Tables_number   1
_chemical_formula_structural   Ho16Mg2Cd2OsPd3
_chemical_formula_sum   'Ho16 Mg2 Cd2 Os1 Pd3'
_cell_volume   639.50465931
_cell_formula_units_Z   1
loop_
 _symmetry_equiv_pos_site_id
 _symmetry_equiv_pos_as_xyz
  1  'x, y, z'
loop_
 _atom_site_type_symbol
 _atom_site_label
 _atom_site_symmetry_multiplicity
 _atom_site_fract_x
 _atom_site_fract_y
 _atom_site_fract_z
 _atom_site_occupancy
  Ho  Ho0  1  0.351983  0.351983  0.353175  1
  Ho  Ho1  1  0.349513  0.349513  0.946915  1
  Ho  Ho2  1  0.347874  0.950873  0.349035  1
  Ho  Ho3  1  0.950873  0.347874  0.349035  1
  Ho  Ho4  1  0.815884  0.188270  0.187820  1
  Ho  Ho5  1  0.187372  0.810887  0.810975  1
  Ho  Ho6  1  0.188270  0.815884  0.187820  1
  Ho  Ho7  1  0.810887  0.187372  0.810975  1
  Ho  Ho8  1  0.189155  0.189155  0.815168  1
  Ho  Ho9  1  0.812178  0.812178  0.185816  1
  Ho  Ho10  1  0.935148  0.567262  0.567041  1
  Ho  Ho11  1  0.558979  0.938724  0.935224  1
  Ho  Ho12  1  0.567262  0.935148  0.567041  1
  Ho  Ho13  1  0.938724  0.558979  0.935224  1
  Ho  Ho14  1  0.567888  0.567888  0.932386  1
  Ho  Ho15  1  0.937245  0.937245  0.558494  1
  Mg  Mg16  1  0.576409  0.576409  0.579435  1
  Mg  Mg17  1  0.576144  0.576144  0.264865  1
  Cd  Cd18  1  0.581362  0.253605  0.580722  1
  Cd  Cd19  1  0.253605  0.581362  0.580722  1
  Os  Os20  1  0.144402  0.144402  0.142352  1
  Pd  Pd21  1  0.144245  0.144245  0.571164  1
  Pd  Pd22  1  0.144869  0.569730  0.144299  1
  Pd  Pd23  1  0.569730  0.144869  0.144299  1
