# generated using pymatgen
data_Sc3(SeS)2
_symmetry_space_group_name_H-M   'P 1'
_cell_length_a   3.73432235
_cell_length_b   6.45578164
_cell_length_c   9.92857054
_cell_angle_alpha   138.97508328
_cell_angle_beta   79.03511066
_cell_angle_gamma   106.85741598
_symmetry_Int_Tables_number   1
_chemical_formula_structural   Sc3(SeS)2
_chemical_formula_sum   'Sc3 Se2 S2'
_cell_volume   150.20456377
_cell_formula_units_Z   1
loop_
 _symmetry_equiv_pos_site_id
 _symmetry_equiv_pos_as_xyz
  1  'x, y, z'
loop_
 _atom_site_type_symbol
 _atom_site_label
 _atom_site_symmetry_multiplicity
 _atom_site_fract_x
 _atom_site_fract_y
 _atom_site_fract_z
 _atom_site_occupancy
  Sc  Sc0  1  0.719819  0.865035  0.066565  1
  Sc  Sc1  1  0.473795  0.624225  0.316875  1
  Sc  Sc2  1  0.228358  0.381635  0.566299  1
  Se  Se3  1  0.595618  0.242654  0.692269  1
  Se  Se4  1  0.352914  0.004311  0.941112  1
  S  S5  1  0.846217  0.479618  0.427942  1
  S  S6  1  0.101164  0.766317  0.204525  1
