# generated using pymatgen
data_ErTm2Fe8CoP6
_symmetry_space_group_name_H-M   'P 1'
_cell_length_a   3.69096200
_cell_length_b   10.44334300
_cell_length_c   12.13854400
_cell_angle_alpha   90.00000000
_cell_angle_beta   90.00000000
_cell_angle_gamma   90.00000000
_symmetry_Int_Tables_number   1
_chemical_formula_structural   ErTm2Fe8CoP6
_chemical_formula_sum   'Er2 Tm4 Fe16 Co2 P12'
_cell_volume   467.89210054
_cell_formula_units_Z   2
loop_
 _symmetry_equiv_pos_site_id
 _symmetry_equiv_pos_as_xyz
  1  'x, y, z'
loop_
 _atom_site_type_symbol
 _atom_site_label
 _atom_site_symmetry_multiplicity
 _atom_site_fract_x
 _atom_site_fract_y
 _atom_site_fract_z
 _atom_site_occupancy
  Er  Er0  1  0.750000  0.250000  0.474423  1
  Er  Er1  1  0.250000  0.750000  0.525577  1
  Tm  Tm2  1  0.250000  0.930257  0.793032  1
  Tm  Tm3  1  0.250000  0.569743  0.793032  1
  Tm  Tm4  1  0.750000  0.069743  0.206968  1
  Tm  Tm5  1  0.750000  0.430257  0.206968  1
  Fe  Fe6  1  0.250000  0.250000  0.847106  1
  Fe  Fe7  1  0.750000  0.750000  0.152894  1
  Fe  Fe8  1  0.750000  0.250000  0.011133  1
  Fe  Fe9  1  0.250000  0.750000  0.988867  1
  Fe  Fe10  1  0.250000  0.422526  0.003637  1
  Fe  Fe11  1  0.250000  0.077474  0.003637  1
  Fe  Fe12  1  0.750000  0.577474  0.996363  1
  Fe  Fe13  1  0.750000  0.922526  0.996363  1
  Fe  Fe14  1  0.250000  0.450989  0.570082  1
  Fe  Fe15  1  0.250000  0.049011  0.570082  1
  Fe  Fe16  1  0.750000  0.549011  0.429918  1
  Fe  Fe17  1  0.750000  0.950989  0.429918  1
  Fe  Fe18  1  0.250000  0.867945  0.291351  1
  Fe  Fe19  1  0.250000  0.632055  0.291351  1
  Fe  Fe20  1  0.750000  0.132055  0.708649  1
  Fe  Fe21  1  0.750000  0.367945  0.708649  1
  Co  Co22  1  0.250000  0.250000  0.299900  1
  Co  Co23  1  0.750000  0.750000  0.700100  1
  P  P24  1  0.250000  0.250000  0.116573  1
  P  P25  1  0.750000  0.750000  0.883427  1
  P  P26  1  0.250000  0.250000  0.658702  1
  P  P27  1  0.750000  0.750000  0.341298  1
  P  P28  1  0.250000  0.443196  0.385527  1
  P  P29  1  0.250000  0.056804  0.385527  1
  P  P30  1  0.750000  0.556804  0.614473  1
  P  P31  1  0.750000  0.943196  0.614473  1
  P  P32  1  0.250000  0.899206  0.112139  1
  P  P33  1  0.250000  0.600794  0.112139  1
  P  P34  1  0.750000  0.100794  0.887861  1
  P  P35  1  0.750000  0.399206  0.887861  1
