# generated using pymatgen
data_Tm2Lu10Os3Rh
_symmetry_space_group_name_H-M   'P 1'
_cell_length_a   7.26363078
_cell_length_b   8.84928600
_cell_length_c   6.21298001
_cell_angle_alpha   90.00000000
_cell_angle_beta   90.13038106
_cell_angle_gamma   90.00000000
_symmetry_Int_Tables_number   1
_chemical_formula_structural   Tm2Lu10Os3Rh
_chemical_formula_sum   'Tm2 Lu10 Os3 Rh1'
_cell_volume   399.35656098
_cell_formula_units_Z   1
loop_
 _symmetry_equiv_pos_site_id
 _symmetry_equiv_pos_as_xyz
  1  'x, y, z'
loop_
 _atom_site_type_symbol
 _atom_site_label
 _atom_site_symmetry_multiplicity
 _atom_site_fract_x
 _atom_site_fract_y
 _atom_site_fract_z
 _atom_site_occupancy
  Tm  Tm0  1  0.539337  0.250000  0.874551  1
  Tm  Tm1  1  0.037855  0.250000  0.627657  1
  Lu  Lu2  1  0.672118  0.059445  0.334637  1
  Lu  Lu3  1  0.178786  0.439649  0.167842  1
  Lu  Lu4  1  0.324583  0.562052  0.669002  1
  Lu  Lu5  1  0.822704  0.934038  0.828364  1
  Lu  Lu6  1  0.324583  0.937948  0.669002  1
  Lu  Lu7  1  0.822704  0.565962  0.828364  1
  Lu  Lu8  1  0.672118  0.440555  0.334637  1
  Lu  Lu9  1  0.178786  0.060351  0.167842  1
  Lu  Lu10  1  0.462312  0.750000  0.123373  1
  Lu  Lu11  1  0.962787  0.750000  0.372869  1
  Os  Os12  1  0.383419  0.250000  0.463617  1
  Os  Os13  1  0.115692  0.750000  0.963255  1
  Os  Os14  1  0.616329  0.750000  0.534219  1
  Rh  Rh15  1  0.885887  0.250000  0.040767  1
