# generated using pymatgen
data_Pa6P13Rh20
_symmetry_space_group_name_H-M   'P 1'
_cell_length_a   13.38287200
_cell_length_b   13.38287139
_cell_length_c   3.92856100
_cell_angle_alpha   90.00000000
_cell_angle_beta   90.00000000
_cell_angle_gamma   119.99999657
_symmetry_Int_Tables_number   1
_chemical_formula_structural   Pa6P13Rh20
_chemical_formula_sum   'Pa6 P13 Rh20'
_cell_volume   609.34433268
_cell_formula_units_Z   1
loop_
 _symmetry_equiv_pos_site_id
 _symmetry_equiv_pos_as_xyz
  1  'x, y, z'
loop_
 _atom_site_type_symbol
 _atom_site_label
 _atom_site_symmetry_multiplicity
 _atom_site_fract_x
 _atom_site_fract_y
 _atom_site_fract_z
 _atom_site_occupancy
  Pa  Pa0  1  0.529277  0.718215  0.248572  1
  Pa  Pa1  1  0.281785  0.811062  0.248572  1
  Pa  Pa2  1  0.188938  0.470723  0.248572  1
  Pa  Pa3  1  0.470723  0.281785  0.751428  1
  Pa  Pa4  1  0.718215  0.188938  0.751428  1
  Pa  Pa5  1  0.811062  0.529277  0.751428  1
  P  P6  1  0.526932  0.139261  0.251123  1
  P  P7  1  0.860739  0.387672  0.251123  1
  P  P8  1  0.612328  0.473068  0.251123  1
  P  P9  1  0.946254  0.718304  0.253574  1
  P  P10  1  0.281696  0.227950  0.253574  1
  P  P11  1  0.772050  0.053746  0.253574  1
  P  P12  1  0.387672  0.526932  0.748877  1
  P  P13  1  0.473068  0.860739  0.748877  1
  P  P14  1  0.139261  0.612328  0.748877  1
  P  P15  1  0.718304  0.772050  0.746426  1
  P  P16  1  0.227950  0.946254  0.746426  1
  P  P17  1  0.053746  0.281696  0.746426  1
  P  P18  1  0.000000  0.000000  0.000000  1
  Rh  Rh19  1  0.333333  0.666667  0.750075  1
  Rh  Rh20  1  0.918294  0.250650  0.253984  1
  Rh  Rh21  1  0.749350  0.667644  0.253984  1
  Rh  Rh22  1  0.332356  0.081706  0.253984  1
  Rh  Rh23  1  0.434952  0.015300  0.751402  1
  Rh  Rh24  1  0.984700  0.419652  0.751402  1
  Rh  Rh25  1  0.580348  0.565048  0.751402  1
  Rh  Rh26  1  0.666667  0.333333  0.249925  1
  Rh  Rh27  1  0.092153  0.183915  0.252478  1
  Rh  Rh28  1  0.816085  0.908237  0.252478  1
  Rh  Rh29  1  0.091763  0.907847  0.252478  1
  Rh  Rh30  1  0.015300  0.580348  0.248598  1
  Rh  Rh31  1  0.419652  0.434952  0.248598  1
  Rh  Rh32  1  0.565048  0.984700  0.248598  1
  Rh  Rh33  1  0.667644  0.918294  0.746016  1
  Rh  Rh34  1  0.081706  0.749350  0.746016  1
  Rh  Rh35  1  0.250650  0.332356  0.746016  1
  Rh  Rh36  1  0.907847  0.816085  0.747522  1
  Rh  Rh37  1  0.183915  0.091763  0.747522  1
  Rh  Rh38  1  0.908237  0.092153  0.747522  1
