# generated using pymatgen
data_Pr8YErSn6
_symmetry_space_group_name_H-M   'P 1'
_cell_length_a   9.28831100
_cell_length_b   9.28831137
_cell_length_c   6.82555100
_cell_angle_alpha   90.00000000
_cell_angle_beta   90.00000000
_cell_angle_gamma   119.99999512
_symmetry_Int_Tables_number   1
_chemical_formula_structural   Pr8YErSn6
_chemical_formula_sum   'Pr8 Y1 Er1 Sn6'
_cell_volume   509.96677624
_cell_formula_units_Z   1
loop_
 _symmetry_equiv_pos_site_id
 _symmetry_equiv_pos_as_xyz
  1  'x, y, z'
loop_
 _atom_site_type_symbol
 _atom_site_label
 _atom_site_symmetry_multiplicity
 _atom_site_fract_x
 _atom_site_fract_y
 _atom_site_fract_z
 _atom_site_occupancy
  Pr  Pr0  1  0.333333  0.666667  0.000000  1
  Pr  Pr1  1  0.666667  0.333333  0.000000  1
  Pr  Pr2  1  0.756245  0.756350  0.252554  1
  Pr  Pr3  1  0.243650  0.999895  0.252554  1
  Pr  Pr4  1  0.000105  0.243755  0.252554  1
  Pr  Pr5  1  0.243650  0.243755  0.747446  1
  Pr  Pr6  1  0.756245  0.999895  0.747446  1
  Pr  Pr7  1  0.000105  0.756350  0.747446  1
  Y  Y8  1  0.666667  0.333333  0.500000  1
  Er  Er9  1  0.333333  0.666667  0.500000  1
  Sn  Sn10  1  0.395856  0.396422  0.260620  1
  Sn  Sn11  1  0.603578  0.999434  0.260620  1
  Sn  Sn12  1  0.000566  0.604144  0.260620  1
  Sn  Sn13  1  0.603578  0.604144  0.739380  1
  Sn  Sn14  1  0.395856  0.999434  0.739380  1
  Sn  Sn15  1  0.000566  0.396422  0.739380  1
