# generated using pymatgen
data_TmTh3(NiAs)4
_symmetry_space_group_name_H-M   'P 1'
_cell_length_a   4.11290600
_cell_length_b   4.11290543
_cell_length_c   15.73982600
_cell_angle_alpha   90.00000000
_cell_angle_beta   90.00000000
_cell_angle_gamma   119.99998849
_symmetry_Int_Tables_number   1
_chemical_formula_structural   TmTh3(NiAs)4
_chemical_formula_sum   'Tm1 Th3 Ni4 As4'
_cell_volume   230.58344148
_cell_formula_units_Z   1
loop_
 _symmetry_equiv_pos_site_id
 _symmetry_equiv_pos_as_xyz
  1  'x, y, z'
loop_
 _atom_site_type_symbol
 _atom_site_label
 _atom_site_symmetry_multiplicity
 _atom_site_fract_x
 _atom_site_fract_y
 _atom_site_fract_z
 _atom_site_occupancy
  Tm  Tm0  1  0.000000  0.000000  0.750000  1
  Th  Th1  1  0.000000  0.000000  0.250000  1
  Th  Th2  1  0.000000  0.000000  0.994204  1
  Th  Th3  1  0.000000  0.000000  0.505796  1
  Ni  Ni4  1  0.333333  0.666667  0.125302  1
  Ni  Ni5  1  0.666667  0.333333  0.853890  1
  Ni  Ni6  1  0.666667  0.333333  0.646110  1
  Ni  Ni7  1  0.333333  0.666667  0.374698  1
  As  As8  1  0.333333  0.666667  0.627540  1
  As  As9  1  0.666667  0.333333  0.379112  1
  As  As10  1  0.666667  0.333333  0.120888  1
  As  As11  1  0.333333  0.666667  0.872460  1
