# generated using pymatgen
data_Nd19PaIr5Rh11
_symmetry_space_group_name_H-M   'P 1'
_cell_length_a   7.57062461
_cell_length_b   7.72521639
_cell_length_c   14.99105488
_cell_angle_alpha   90.24681279
_cell_angle_beta   90.26974926
_cell_angle_gamma   90.17867708
_symmetry_Int_Tables_number   1
_chemical_formula_structural   Nd19PaIr5Rh11
_chemical_formula_sum   'Nd19 Pa1 Ir5 Rh11'
_cell_volume   876.72537762
_cell_formula_units_Z   1
loop_
 _symmetry_equiv_pos_site_id
 _symmetry_equiv_pos_as_xyz
  1  'x, y, z'
loop_
 _atom_site_type_symbol
 _atom_site_label
 _atom_site_symmetry_multiplicity
 _atom_site_fract_x
 _atom_site_fract_y
 _atom_site_fract_z
 _atom_site_occupancy
  Nd  Nd0  1  0.164262  0.334134  0.877626  1
  Nd  Nd1  1  0.337558  0.833272  0.122538  1
  Nd  Nd2  1  0.837829  0.668633  0.380353  1
  Nd  Nd3  1  0.338331  0.836289  0.379793  1
  Nd  Nd4  1  0.837219  0.667805  0.122635  1
  Nd  Nd5  1  0.662156  0.164068  0.877840  1
  Nd  Nd6  1  0.159061  0.334848  0.619363  1
  Nd  Nd7  1  0.511803  0.681592  0.593237  1
  Nd  Nd8  1  0.018285  0.814328  0.910481  1
  Nd  Nd9  1  0.484473  0.317913  0.091554  1
  Nd  Nd10  1  0.988443  0.183523  0.406652  1
  Nd  Nd11  1  0.489275  0.320814  0.409195  1
  Nd  Nd12  1  0.989027  0.181882  0.092105  1
  Nd  Nd13  1  0.510424  0.684127  0.908443  1
  Nd  Nd14  1  0.011652  0.821429  0.591737  1
  Nd  Nd15  1  0.826039  0.513035  0.750065  1
  Nd  Nd16  1  0.316349  0.988926  0.751156  1
  Nd  Nd17  1  0.176133  0.490802  0.249256  1
  Nd  Nd18  1  0.676630  0.012105  0.251224  1
  Pa  Pa19  1  0.660550  0.162422  0.622975  1
  Ir  Ir20  1  0.691239  0.975066  0.471464  1
  Ir  Ir21  1  0.175896  0.531686  0.041378  1
  Ir  Ir22  1  0.322785  0.031318  0.957740  1
  Ir  Ir23  1  0.804478  0.445661  0.541815  1
  Ir  Ir24  1  0.344501  0.037401  0.547842  1
  Rh  Rh25  1  0.822926  0.471245  0.956911  1
  Rh  Rh26  1  0.677103  0.969124  0.041753  1
  Rh  Rh27  1  0.168734  0.532784  0.457590  1
  Rh  Rh28  1  0.470586  0.376120  0.739642  1
  Rh  Rh29  1  0.940138  0.114199  0.738299  1
  Rh  Rh30  1  0.542436  0.604081  0.253101  1
  Rh  Rh31  1  0.041263  0.900846  0.251461  1
  Rh  Rh32  1  0.689265  0.864109  0.742867  1
  Rh  Rh33  1  0.212291  0.632983  0.749158  1
  Rh  Rh34  1  0.302376  0.144217  0.250638  1
  Rh  Rh35  1  0.798486  0.357211  0.250112  1
