# generated using pymatgen
data_Gd12Nb8ZnW11N48
_symmetry_space_group_name_H-M   'P 1'
_cell_length_a   11.16438110
_cell_length_b   11.16438153
_cell_length_c   11.16438100
_cell_angle_alpha   109.47892035
_cell_angle_beta   109.45582564
_cell_angle_gamma   109.47891966
_symmetry_Int_Tables_number   1
_chemical_formula_structural   Gd12Nb8ZnW11N48
_chemical_formula_sum   'Gd12 Nb8 Zn1 W11 N48'
_cell_volume   1071.22831380
_cell_formula_units_Z   1
loop_
 _symmetry_equiv_pos_site_id
 _symmetry_equiv_pos_as_xyz
  1  'x, y, z'
loop_
 _atom_site_type_symbol
 _atom_site_label
 _atom_site_symmetry_multiplicity
 _atom_site_fract_x
 _atom_site_fract_y
 _atom_site_fract_z
 _atom_site_occupancy
  Gd  Gd0  1  0.246449  0.371645  0.124825  1
  Gd  Gd1  1  0.370890  0.750000  0.120890  1
  Gd  Gd2  1  0.374389  0.118276  0.242840  1
  Gd  Gd3  1  0.875175  0.621624  0.246820  1
  Gd  Gd4  1  0.753180  0.128355  0.374804  1
  Gd  Gd5  1  0.120803  0.250000  0.370803  1
  Gd  Gd6  1  0.879110  0.750000  0.629110  1
  Gd  Gd7  1  0.243887  0.868450  0.625611  1
  Gd  Gd8  1  0.124564  0.381724  0.756113  1
  Gd  Gd9  1  0.625196  0.878376  0.753551  1
  Gd  Gd10  1  0.629197  0.250000  0.879197  1
  Gd  Gd11  1  0.757160  0.631550  0.875436  1
  Nb  Nb12  1  0.003799  0.017310  0.011420  1
  Nb  Nb13  1  0.513511  0.007622  0.996201  1
  Nb  Nb14  1  0.988580  0.492378  0.005889  1
  Nb  Nb15  1  0.500140  0.499304  0.000349  1
  Nb  Nb16  1  0.999651  0.999790  0.498956  1
  Nb  Nb17  1  0.501044  0.000696  0.500834  1
  Nb  Nb18  1  0.994111  0.482690  0.486489  1
  Nb  Nb19  1  0.499166  0.500210  0.499860  1
  Zn  Zn20  1  0.875000  0.250000  0.125000  1
  W  W21  1  0.749879  0.875472  0.124369  1
  W  W22  1  0.625593  0.374491  0.250121  1
  W  W23  1  0.126491  0.874877  0.251619  1
  W  W24  1  0.248898  0.624528  0.374407  1
  W  W25  1  0.625000  0.750000  0.375000  1
  W  W26  1  0.375000  0.250000  0.625000  1
  W  W27  1  0.748381  0.374872  0.623259  1
  W  W28  1  0.875631  0.125509  0.751102  1
  W  W29  1  0.376741  0.625123  0.751613  1
  W  W30  1  0.248387  0.125128  0.873509  1
  W  W31  1  0.125000  0.750000  0.875000  1
  N  N32  1  0.205324  0.116400  0.018645  1
  N  N33  1  0.314078  0.903003  0.027398  1
  N  N34  1  0.875817  0.410744  0.081337  1
  N  N35  1  0.704675  0.683511  0.084036  1
  N  N36  1  0.617779  0.414306  0.098082  1
  N  N37  1  0.981355  0.686680  0.097755  1
  N  N38  1  0.034927  0.205521  0.124183  1
  N  N39  1  0.598727  0.914383  0.119751  1
  N  N40  1  0.205367  0.585617  0.184344  1
  N  N41  1  0.481145  0.598218  0.183910  1
  N  N42  1  0.119046  0.018752  0.206086  1
  N  N43  1  0.587583  0.184125  0.205069  1
  N  N44  1  0.478835  0.379360  0.295325  1
  N  N45  1  0.317305  0.913951  0.297488  1
  N  N46  1  0.901918  0.019697  0.316224  1
  N  N47  1  0.918663  0.294479  0.329407  1
  N  N48  1  0.296527  0.480303  0.382221  1
  N  N49  1  0.585692  0.901782  0.382927  1
  N  N50  1  0.815656  0.521024  0.401273  1
  N  N51  1  0.083716  0.879361  0.402415  1
  N  N52  1  0.096542  0.617486  0.412417  1
  N  N53  1  0.816090  0.797235  0.414308  1
  N  N54  1  0.597585  0.181301  0.476946  1
  N  N55  1  0.381663  0.296604  0.480219  1
  N  N56  1  0.617073  0.702765  0.518855  1
  N  N57  1  0.400525  0.816489  0.521165  1
  N  N58  1  0.183614  0.203396  0.585059  1
  N  N59  1  0.902245  0.383600  0.588925  1
  N  N60  1  0.915964  0.120640  0.599475  1
  N  N61  1  0.187334  0.481248  0.600293  1
  N  N62  1  0.414941  0.098555  0.618337  1
  N  N63  1  0.702512  0.519816  0.616462  1
  N  N64  1  0.088925  0.713321  0.685922  1
  N  N65  1  0.096646  0.980184  0.682695  1
  N  N66  1  0.683776  0.085694  0.703473  1
  N  N67  1  0.523054  0.620639  0.704355  1
  N  N68  1  0.411075  0.813320  0.794676  1
  N  N69  1  0.880249  0.978976  0.794633  1
  N  N70  1  0.519781  0.401445  0.816386  1
  N  N71  1  0.793914  0.412960  0.812666  1
  N  N72  1  0.399707  0.087040  0.880954  1
  N  N73  1  0.972602  0.786679  0.875605  1
  N  N74  1  0.020944  0.315875  0.903458  1
  N  N75  1  0.383538  0.586049  0.903354  1
  N  N76  1  0.295645  0.318699  0.916284  1
  N  N77  1  0.124395  0.596997  0.911075  1
  N  N78  1  0.670593  0.089256  0.965073  1
  N  N79  1  0.794931  0.882514  0.979056  1
