# generated using pymatgen
data_Er12Re5Si16Tc3
_symmetry_space_group_name_H-M   'P 1'
_cell_length_a   10.48307730
_cell_length_b   10.48139326
_cell_length_c   14.20241500
_cell_angle_alpha   55.19884394
_cell_angle_beta   55.19696779
_cell_angle_gamma   30.69409942
_symmetry_Int_Tables_number   1
_chemical_formula_structural   Er12Re5Si16Tc3
_chemical_formula_sum   'Er12 Re5 Si16 Tc3'
_cell_volume   642.07893734
_cell_formula_units_Z   1
loop_
 _symmetry_equiv_pos_site_id
 _symmetry_equiv_pos_as_xyz
  1  'x, y, z'
loop_
 _atom_site_type_symbol
 _atom_site_label
 _atom_site_symmetry_multiplicity
 _atom_site_fract_x
 _atom_site_fract_y
 _atom_site_fract_z
 _atom_site_occupancy
  Er  Er0  1  0.752595  0.484570  0.048658  1
  Er  Er1  1  0.536645  0.308069  0.153623  1
  Er  Er2  1  0.515591  0.246977  0.451269  1
  Er  Er3  1  0.463763  0.691932  0.846405  1
  Er  Er4  1  0.291917  0.040514  0.138550  1
  Er  Er5  1  0.959193  0.707864  0.361406  1
  Er  Er6  1  0.708103  0.958964  0.861546  1
  Er  Er7  1  0.040795  0.292201  0.638449  1
  Er  Er8  1  0.247213  0.515229  0.951353  1
  Er  Er9  1  0.484117  0.753296  0.548855  1
  Er  Er10  1  0.308079  0.536076  0.653530  1
  Er  Er11  1  0.692589  0.463652  0.346203  1
  Re  Re12  1  0.170003  0.358029  0.218261  1
  Re  Re13  1  0.137836  0.912002  0.077445  1
  Re  Re14  1  0.087779  0.862597  0.422341  1
  Re  Re15  1  0.862383  0.087345  0.922900  1
  Re  Re16  1  0.912532  0.137297  0.577547  1
  Si  Si17  1  0.903690  0.096272  0.250010  1
  Si  Si18  1  0.096369  0.903673  0.750116  1
  Si  Si19  1  0.343982  0.655920  0.250041  1
  Si  Si20  1  0.656218  0.343789  0.750066  1
  Si  Si21  1  0.000173  0.229628  0.876919  1
  Si  Si22  1  0.770273  0.999870  0.623072  1
  Si  Si23  1  0.000797  0.770060  0.122540  1
  Si  Si24  1  0.229111  0.000610  0.376959  1
  Si  Si25  1  0.606736  0.045865  0.076465  1
  Si  Si26  1  0.955026  0.391596  0.424970  1
  Si  Si27  1  0.392108  0.955390  0.923437  1
  Si  Si28  1  0.044731  0.608107  0.576266  1
  Si  Si29  1  0.384208  0.160720  0.379428  1
  Si  Si30  1  0.839556  0.616106  0.119549  1
  Si  Si31  1  0.616024  0.839443  0.620769  1
  Si  Si32  1  0.160050  0.384423  0.879524  1
  Tc  Tc33  1  0.641782  0.829845  0.281646  1
  Tc  Tc34  1  0.829772  0.641679  0.782002  1
  Tc  Tc35  1  0.358261  0.170391  0.717878  1
