# generated using pymatgen
data_Cs5U2S4Cl9
_symmetry_space_group_name_H-M   'P 1'
_cell_length_a   10.98914052
_cell_length_b   10.98914023
_cell_length_c   10.98914007
_cell_angle_alpha   139.79540575
_cell_angle_beta   122.11538386
_cell_angle_gamma   72.82026168
_symmetry_Int_Tables_number   1
_chemical_formula_structural   Cs5U2S4Cl9
_chemical_formula_sum   'Cs5 U2 S4 Cl9'
_cell_volume   710.54348408
_cell_formula_units_Z   1
loop_
 _symmetry_equiv_pos_site_id
 _symmetry_equiv_pos_as_xyz
  1  'x, y, z'
loop_
 _atom_site_type_symbol
 _atom_site_label
 _atom_site_symmetry_multiplicity
 _atom_site_fract_x
 _atom_site_fract_y
 _atom_site_fract_z
 _atom_site_occupancy
  Cs  Cs0  1  0.434264  0.659154  0.775111  1
  Cs  Cs1  1  0.884043  0.659154  0.224889  1
  Cs  Cs2  1  0.500000  0.000000  0.500000  1
  Cs  Cs3  1  0.565736  0.340846  0.224889  1
  Cs  Cs4  1  0.115957  0.340846  0.775111  1
  U  U5  1  0.106303  0.106303  0.000000  1
  U  U6  1  0.893697  0.893697  0.000000  1
  S  S7  1  0.096786  0.761062  0.857848  1
  S  S8  1  0.903214  0.761062  0.664278  1
  S  S9  1  0.903214  0.238938  0.142152  1
  S  S10  1  0.096786  0.238938  0.335722  1
  Cl  Cl11  1  0.214467  0.967833  0.753365  1
  Cl  Cl12  1  0.607343  0.863474  0.743871  1
  Cl  Cl13  1  0.785533  0.032167  0.246635  1
  Cl  Cl14  1  0.392657  0.136526  0.256129  1
  Cl  Cl15  1  0.119603  0.863474  0.256129  1
  Cl  Cl16  1  0.214467  0.461102  0.246635  1
  Cl  Cl17  1  0.785533  0.538898  0.753365  1
  Cl  Cl18  1  0.880397  0.136526  0.743871  1
  Cl  Cl19  1  0.500000  0.500000  0.000000  1
