# generated using pymatgen
data_PrHf6Zr2(In2Co)7
_symmetry_space_group_name_H-M   'P 1'
_cell_length_a   9.47395770
_cell_length_b   9.49305285
_cell_length_c   9.49313661
_cell_angle_alpha   60.13322483
_cell_angle_beta   60.06591725
_cell_angle_gamma   60.06681333
_symmetry_Int_Tables_number   1
_chemical_formula_structural   PrHf6Zr2(In2Co)7
_chemical_formula_sum   'Pr1 Hf6 Zr2 In14 Co7'
_cell_volume   604.92736166
_cell_formula_units_Z   1
loop_
 _symmetry_equiv_pos_site_id
 _symmetry_equiv_pos_as_xyz
  1  'x, y, z'
loop_
 _atom_site_type_symbol
 _atom_site_label
 _atom_site_symmetry_multiplicity
 _atom_site_fract_x
 _atom_site_fract_y
 _atom_site_fract_z
 _atom_site_occupancy
  Pr  Pr0  1  0.499999  0.499719  0.500280  1
  Hf  Hf1  1  0.119360  0.642155  0.119121  1
  Hf  Hf2  1  0.357733  0.880521  0.881567  1
  Hf  Hf3  1  0.880182  0.880507  0.881572  1
  Hf  Hf4  1  0.642263  0.118429  0.119494  1
  Hf  Hf5  1  0.880635  0.880883  0.357843  1
  Hf  Hf6  1  0.119819  0.118434  0.119479  1
  Zr  Zr7  1  0.878298  0.363724  0.879692  1
  Zr  Zr8  1  0.121714  0.120311  0.636274  1
  In  In9  1  0.499996  0.847363  0.152636  1
  In  In10  1  0.500634  0.846620  0.500386  1
  In  In11  1  0.500631  0.152107  0.500330  1
  In  In12  1  0.499374  0.499666  0.847896  1
  In  In13  1  0.152844  0.500184  0.499800  1
  In  In14  1  0.846936  0.152104  0.500333  1
  In  In15  1  0.152350  0.846604  0.500399  1
  In  In16  1  0.500002  0.152183  0.847817  1
  In  In17  1  0.153068  0.499668  0.847894  1
  In  In18  1  0.499355  0.499600  0.153396  1
  In  In19  1  0.847172  0.500157  0.499843  1
  In  In20  1  0.847639  0.499613  0.153381  1
  In  In21  1  0.250607  0.251834  0.246930  1
  In  In22  1  0.749371  0.753070  0.748166  1
  Co  Co23  1  0.782515  0.782462  0.217538  1
  Co  Co24  1  0.000000  0.997217  0.002786  1
  Co  Co25  1  0.217486  0.782471  0.217529  1
  Co  Co26  1  0.217639  0.781523  0.783199  1
  Co  Co27  1  0.218694  0.217048  0.782952  1
  Co  Co28  1  0.781330  0.217019  0.782981  1
  Co  Co29  1  0.782354  0.216807  0.218484  1
