# generated using pymatgen
data_CeCd5Ru2
_symmetry_space_group_name_H-M   'P 1'
_cell_length_a   7.45391600
_cell_length_b   9.70471200
_cell_length_c   9.70471200
_cell_angle_alpha   90.00000000
_cell_angle_beta   90.00000000
_cell_angle_gamma   90.00000000
_symmetry_Int_Tables_number   1
_chemical_formula_structural   CeCd5Ru2
_chemical_formula_sum   'Ce4 Cd20 Ru8'
_cell_volume   702.02050527
_cell_formula_units_Z   4
loop_
 _symmetry_equiv_pos_site_id
 _symmetry_equiv_pos_as_xyz
  1  'x, y, z'
loop_
 _atom_site_type_symbol
 _atom_site_label
 _atom_site_symmetry_multiplicity
 _atom_site_fract_x
 _atom_site_fract_y
 _atom_site_fract_z
 _atom_site_occupancy
  Ce  Ce0  1  0.578437  0.750000  0.750000  1
  Ce  Ce1  1  0.078437  0.750000  0.750000  1
  Ce  Ce2  1  0.421563  0.250000  0.250000  1
  Ce  Ce3  1  0.921563  0.250000  0.250000  1
  Cd  Cd4  1  0.000000  0.500000  0.500000  1
  Cd  Cd5  1  0.500000  0.500000  0.000000  1
  Cd  Cd6  1  0.500000  0.000000  0.500000  1
  Cd  Cd7  1  0.000000  0.000000  0.000000  1
  Cd  Cd8  1  0.845859  0.054713  0.703314  1
  Cd  Cd9  1  0.345859  0.054713  0.796686  1
  Cd  Cd10  1  0.345859  0.445287  0.703314  1
  Cd  Cd11  1  0.845859  0.445287  0.796686  1
  Cd  Cd12  1  0.845859  0.703314  0.054713  1
  Cd  Cd13  1  0.345859  0.796686  0.054713  1
  Cd  Cd14  1  0.345859  0.703314  0.445287  1
  Cd  Cd15  1  0.845859  0.796686  0.445287  1
  Cd  Cd16  1  0.154141  0.945287  0.296686  1
  Cd  Cd17  1  0.654141  0.945287  0.203314  1
  Cd  Cd18  1  0.654141  0.554713  0.296686  1
  Cd  Cd19  1  0.154141  0.554713  0.203314  1
  Cd  Cd20  1  0.154141  0.296686  0.945287  1
  Cd  Cd21  1  0.654141  0.203314  0.945287  1
  Cd  Cd22  1  0.654141  0.296686  0.554713  1
  Cd  Cd23  1  0.154141  0.203314  0.554713  1
  Ru  Ru24  1  0.656030  0.587629  0.587629  1
  Ru  Ru25  1  0.156030  0.587629  0.912371  1
  Ru  Ru26  1  0.156030  0.912371  0.587629  1
  Ru  Ru27  1  0.656030  0.912371  0.912371  1
  Ru  Ru28  1  0.343970  0.412371  0.412371  1
  Ru  Ru29  1  0.843970  0.412371  0.087629  1
  Ru  Ru30  1  0.843970  0.087629  0.412371  1
  Ru  Ru31  1  0.343970  0.087629  0.087629  1
