# generated using pymatgen
data_La8DyHoIn6
_symmetry_space_group_name_H-M   'P 1'
_cell_length_a   6.33248335
_cell_length_b   9.53518613
_cell_length_c   9.53518661
_cell_angle_alpha   83.66952842
_cell_angle_beta   70.60622577
_cell_angle_gamma   70.60623111
_symmetry_Int_Tables_number   1
_chemical_formula_structural   La8DyHoIn6
_chemical_formula_sum   'La8 Dy1 Ho1 In6'
_cell_volume   512.26433830
_cell_formula_units_Z   1
loop_
 _symmetry_equiv_pos_site_id
 _symmetry_equiv_pos_as_xyz
  1  'x, y, z'
loop_
 _atom_site_type_symbol
 _atom_site_label
 _atom_site_symmetry_multiplicity
 _atom_site_fract_x
 _atom_site_fract_y
 _atom_site_fract_z
 _atom_site_occupancy
  La  La0  1  0.724819  0.863227  0.687466  1
  La  La1  1  0.275512  0.136773  0.312534  1
  La  La2  1  0.775181  0.312534  0.136773  1
  La  La3  1  0.224488  0.687466  0.863227  1
  La  La4  1  0.587715  0.687466  0.136773  1
  La  La5  1  0.411954  0.312534  0.863227  1
  La  La6  1  0.088046  0.136773  0.687466  1
  La  La7  1  0.912285  0.863227  0.312534  1
  Dy  Dy8  1  0.750000  0.500000  0.500000  1
  Ho  Ho9  1  0.250000  0.500000  0.500000  1
  In  In10  1  0.156164  0.500000  0.187915  1
  In  In11  1  0.844078  0.500000  0.812085  1
  In  In12  1  0.343836  0.812085  0.500000  1
  In  In13  1  0.655922  0.187915  0.500000  1
  In  In14  1  0.250000  0.000000  0.000000  1
  In  In15  1  0.750000  0.000000  0.000000  1
