# generated using pymatgen
data_Sm2Dy2TcB12Os
_symmetry_space_group_name_H-M   'P 1'
_cell_length_a   3.70190900
_cell_length_b   9.20354713
_cell_length_c   11.62006504
_cell_angle_alpha   89.91915185
_cell_angle_beta   90.00000000
_cell_angle_gamma   90.00000000
_symmetry_Int_Tables_number   1
_chemical_formula_structural   Sm2Dy2TcB12Os
_chemical_formula_sum   'Sm4 Dy4 Tc2 B24 Os2'
_cell_volume   395.90328545
_cell_formula_units_Z   2
loop_
 _symmetry_equiv_pos_site_id
 _symmetry_equiv_pos_as_xyz
  1  'x, y, z'
loop_
 _atom_site_type_symbol
 _atom_site_label
 _atom_site_symmetry_multiplicity
 _atom_site_fract_x
 _atom_site_fract_y
 _atom_site_fract_z
 _atom_site_occupancy
  Sm  Sm0  1  0.000000  0.324646  0.415057  1
  Sm  Sm1  1  0.000000  0.675354  0.584943  1
  Sm  Sm2  1  0.000000  0.821537  0.087092  1
  Sm  Sm3  1  0.000000  0.178463  0.912908  1
  Dy  Dy4  1  0.000000  0.941709  0.370658  1
  Dy  Dy5  1  0.000000  0.058291  0.629342  1
  Dy  Dy6  1  0.000000  0.443727  0.130241  1
  Dy  Dy7  1  0.000000  0.556273  0.869759  1
  Tc  Tc8  1  0.000000  0.638866  0.319662  1
  Tc  Tc9  1  0.000000  0.361134  0.680338  1
  B  B10  1  0.500000  0.554127  0.431620  1
  B  B11  1  0.500000  0.445873  0.568380  1
  B  B12  1  0.500000  0.054663  0.068428  1
  B  B13  1  0.500000  0.945337  0.931572  1
  B  B14  1  0.500000  0.748366  0.417524  1
  B  B15  1  0.500000  0.251634  0.582476  1
  B  B16  1  0.500000  0.248758  0.082657  1
  B  B17  1  0.500000  0.751242  0.917343  1
  B  B18  1  0.500000  0.790590  0.266073  1
  B  B19  1  0.500000  0.209410  0.733927  1
  B  B20  1  0.500000  0.289949  0.233662  1
  B  B21  1  0.500000  0.710051  0.766338  1
  B  B22  1  0.500000  0.630818  0.185948  1
  B  B23  1  0.500000  0.369182  0.814052  1
  B  B24  1  0.500000  0.130293  0.313414  1
  B  B25  1  0.500000  0.869707  0.686586  1
  B  B26  1  0.500000  0.984222  0.212544  1
  B  B27  1  0.500000  0.015778  0.787456  1
  B  B28  1  0.500000  0.484295  0.287090  1
  B  B29  1  0.500000  0.515705  0.712910  1
  B  B30  1  0.500000  0.601703  0.027898  1
  B  B31  1  0.500000  0.398297  0.972102  1
  B  B32  1  0.500000  0.101375  0.471650  1
  B  B33  1  0.500000  0.898624  0.528350  1
  Os  Os34  1  0.000000  0.137969  0.179110  1
  Os  Os35  1  0.000000  0.862031  0.820890  1
