# generated using pymatgen
data_Ho16ZnCd(InPd2)2
_symmetry_space_group_name_H-M   'P 1'
_cell_length_a   9.63983695
_cell_length_b   9.64092815
_cell_length_c   9.62831600
_cell_angle_alpha   60.04326509
_cell_angle_beta   60.03952702
_cell_angle_gamma   60.14426602
_symmetry_Int_Tables_number   1
_chemical_formula_structural   Ho16ZnCd(InPd2)2
_chemical_formula_sum   'Ho16 Zn1 Cd1 In2 Pd4'
_cell_volume   633.82182616
_cell_formula_units_Z   1
loop_
 _symmetry_equiv_pos_site_id
 _symmetry_equiv_pos_as_xyz
  1  'x, y, z'
loop_
 _atom_site_type_symbol
 _atom_site_label
 _atom_site_symmetry_multiplicity
 _atom_site_fract_x
 _atom_site_fract_y
 _atom_site_fract_z
 _atom_site_occupancy
  Ho  Ho0  1  0.354602  0.352799  0.355135  1
  Ho  Ho1  1  0.354602  0.352799  0.937464  1
  Ho  Ho2  1  0.353460  0.939313  0.353615  1
  Ho  Ho3  1  0.936934  0.353020  0.355024  1
  Ho  Ho4  1  0.809493  0.190008  0.191095  1
  Ho  Ho5  1  0.189783  0.810407  0.810295  1
  Ho  Ho6  1  0.189783  0.810407  0.189514  1
  Ho  Ho7  1  0.809493  0.190008  0.809403  1
  Ho  Ho8  1  0.190256  0.188881  0.810431  1
  Ho  Ho9  1  0.809493  0.809484  0.190512  1
  Ho  Ho10  1  0.936300  0.566023  0.564961  1
  Ho  Ho11  1  0.566097  0.939509  0.929002  1
  Ho  Ho12  1  0.566097  0.939509  0.565392  1
  Ho  Ho13  1  0.936300  0.566023  0.932716  1
  Ho  Ho14  1  0.565874  0.566098  0.934014  1
  Ho  Ho15  1  0.931508  0.938169  0.565161  1
  Zn  Zn16  1  0.583440  0.247089  0.584735  1
  Cd  Cd17  1  0.252312  0.580476  0.583606  1
  In  In18  1  0.582190  0.580061  0.583817  1
  In  In19  1  0.582190  0.580061  0.253932  1
  Pd  Pd20  1  0.144052  0.144236  0.144557  1
  Pd  Pd21  1  0.144052  0.144236  0.567155  1
  Pd  Pd22  1  0.144332  0.566952  0.144357  1
  Pd  Pd23  1  0.567357  0.144433  0.144105  1
