# generated using pymatgen
data_SmPa(CuP2)2
_symmetry_space_group_name_H-M   'P 1'
_cell_length_a   3.81438900
_cell_length_b   3.81438900
_cell_length_c   9.59330900
_cell_angle_alpha   90.00000000
_cell_angle_beta   90.00000000
_cell_angle_gamma   90.00000000
_symmetry_Int_Tables_number   1
_chemical_formula_structural   SmPa(CuP2)2
_chemical_formula_sum   'Sm1 Pa1 Cu2 P4'
_cell_volume   139.57845793
_cell_formula_units_Z   1
loop_
 _symmetry_equiv_pos_site_id
 _symmetry_equiv_pos_as_xyz
  1  'x, y, z'
loop_
 _atom_site_type_symbol
 _atom_site_label
 _atom_site_symmetry_multiplicity
 _atom_site_fract_x
 _atom_site_fract_y
 _atom_site_fract_z
 _atom_site_occupancy
  Sm  Sm0  1  0.000000  0.500000  0.774990  1
  Pa  Pa1  1  0.500000  0.000000  0.231086  1
  Cu  Cu2  1  0.000000  0.000000  0.498219  1
  Cu  Cu3  1  0.500000  0.500000  0.498219  1
  P  P4  1  0.500000  0.000000  0.645834  1
  P  P5  1  0.000000  0.500000  0.333784  1
  P  P6  1  0.000000  0.000000  0.008934  1
  P  P7  1  0.500000  0.500000  0.008934  1
