# generated using pymatgen
data_Li4Sm6Pd11Pt2
_symmetry_space_group_name_H-M   'P 1'
_cell_length_a   8.35289833
_cell_length_b   8.35289955
_cell_length_c   8.33699400
_cell_angle_alpha   109.44247159
_cell_angle_beta   109.44247453
_cell_angle_gamma   109.60581990
_symmetry_Int_Tables_number   1
_chemical_formula_structural   Li4Sm6Pd11Pt2
_chemical_formula_sum   'Li4 Sm6 Pd11 Pt2'
_cell_volume   447.34977101
_cell_formula_units_Z   1
loop_
 _symmetry_equiv_pos_site_id
 _symmetry_equiv_pos_as_xyz
  1  'x, y, z'
loop_
 _atom_site_type_symbol
 _atom_site_label
 _atom_site_symmetry_multiplicity
 _atom_site_fract_x
 _atom_site_fract_y
 _atom_site_fract_z
 _atom_site_occupancy
  Li  Li0  1  0.000473  0.000473  0.500040  1
  Li  Li1  1  0.000082  0.500082  0.000164  1
  Li  Li2  1  0.500082  0.000082  0.000164  1
  Li  Li3  1  0.499567  0.499567  0.500040  1
  Sm  Sm4  1  0.693611  0.693611  0.998435  1
  Sm  Sm5  1  0.304295  0.001966  0.306261  1
  Sm  Sm6  1  0.001966  0.304295  0.306261  1
  Sm  Sm7  1  0.304825  0.304825  0.998435  1
  Sm  Sm8  1  0.695421  0.999998  0.695418  1
  Sm  Sm9  1  0.999998  0.695421  0.695418  1
  Pd  Pd10  1  0.666546  0.999989  0.332944  1
  Pd  Pd11  1  0.999989  0.666546  0.332944  1
  Pd  Pd12  1  0.667825  0.332746  0.000571  1
  Pd  Pd13  1  0.332955  0.666400  0.332944  1
  Pd  Pd14  1  0.999617  0.332842  0.667186  1
  Pd  Pd15  1  0.332746  0.667825  0.000571  1
  Pd  Pd16  1  0.332842  0.999617  0.667186  1
  Pd  Pd17  1  0.666400  0.332955  0.332944  1
  Pd  Pd18  1  0.667363  0.667363  0.334725  1
  Pd  Pd19  1  0.667569  0.334343  0.667186  1
  Pd  Pd20  1  0.334343  0.667569  0.667186  1
  Pt  Pt21  1  0.331846  0.331846  0.663693  1
  Pt  Pt22  1  0.999640  0.999640  0.999282  1
