# generated using pymatgen
data_LaCeNd4(Ni3Bi4)2
_symmetry_space_group_name_H-M   'P 1'
_cell_length_a   8.55309490
_cell_length_b   8.55309484
_cell_length_c   8.55309575
_cell_angle_alpha   109.54595468
_cell_angle_beta   109.43386266
_cell_angle_gamma   109.43387364
_symmetry_Int_Tables_number   1
_chemical_formula_structural   LaCeNd4(Ni3Bi4)2
_chemical_formula_sum   'La1 Ce1 Nd4 Ni6 Bi8'
_cell_volume   481.66761754
_cell_formula_units_Z   1
loop_
 _symmetry_equiv_pos_site_id
 _symmetry_equiv_pos_as_xyz
  1  'x, y, z'
loop_
 _atom_site_type_symbol
 _atom_site_label
 _atom_site_symmetry_multiplicity
 _atom_site_fract_x
 _atom_site_fract_y
 _atom_site_fract_z
 _atom_site_occupancy
  La  La0  1  0.750000  0.375000  0.625000  1
  Ce  Ce1  1  0.250000  0.125000  0.875000  1
  Nd  Nd2  1  0.126528  0.874989  0.250499  1
  Nd  Nd3  1  0.373472  0.623971  0.748460  1
  Nd  Nd4  1  0.875510  0.251540  0.125011  1
  Nd  Nd5  1  0.624490  0.749501  0.376029  1
  Ni  Ni6  1  0.612629  0.367427  0.237555  1
  Ni  Ni7  1  0.887371  0.124926  0.754798  1
  Ni  Ni8  1  0.370128  0.245202  0.632573  1
  Ni  Ni9  1  0.129872  0.762445  0.875074  1
  Ni  Ni10  1  0.250000  0.625000  0.375000  1
  Ni  Ni11  1  0.750000  0.875000  0.125000  1
  Bi  Bi12  1  0.340750  0.342634  0.342468  1
  Bi  Bi13  1  0.159250  0.501717  0.001883  1
  Bi  Bi14  1  0.998632  0.152974  0.497880  1
  Bi  Bi15  1  0.844906  0.845658  0.847026  1
  Bi  Bi16  1  0.501368  0.999248  0.154342  1
  Bi  Bi17  1  0.655094  0.502120  0.000752  1
  Bi  Bi18  1  0.499834  0.998117  0.657366  1
  Bi  Bi19  1  0.000166  0.657532  0.498283  1
