# generated using pymatgen
data_Dy2ThPa2Ga15
_symmetry_space_group_name_H-M   'P 1'
_cell_length_a   12.45062824
_cell_length_b   12.45062826
_cell_length_c   12.45062800
_cell_angle_alpha   28.80602416
_cell_angle_beta   28.80602405
_cell_angle_gamma   28.80602565
_symmetry_Int_Tables_number   1
_chemical_formula_structural   Dy2ThPa2Ga15
_chemical_formula_sum   'Dy2 Th1 Pa2 Ga15'
_cell_volume   396.24380632
_cell_formula_units_Z   1
loop_
 _symmetry_equiv_pos_site_id
 _symmetry_equiv_pos_as_xyz
  1  'x, y, z'
loop_
 _atom_site_type_symbol
 _atom_site_label
 _atom_site_symmetry_multiplicity
 _atom_site_fract_x
 _atom_site_fract_y
 _atom_site_fract_z
 _atom_site_occupancy
  Dy  Dy0  1  0.400214  0.400214  0.400214  1
  Dy  Dy1  1  0.599786  0.599786  0.599786  1
  Th  Th2  1  0.000000  0.000000  0.000000  1
  Pa  Pa3  1  0.129792  0.129792  0.129792  1
  Pa  Pa4  1  0.870208  0.870208  0.870208  1
  Ga  Ga5  1  0.441414  0.879420  0.879420  1
  Ga  Ga6  1  0.879420  0.879420  0.441414  1
  Ga  Ga7  1  0.879420  0.441414  0.879420  1
  Ga  Ga8  1  0.120580  0.558586  0.120580  1
  Ga  Ga9  1  0.120580  0.120580  0.558586  1
  Ga  Ga10  1  0.558586  0.120580  0.120580  1
  Ga  Ga11  1  0.129812  0.635463  0.635463  1
  Ga  Ga12  1  0.635463  0.635463  0.129812  1
  Ga  Ga13  1  0.635463  0.129812  0.635463  1
  Ga  Ga14  1  0.364537  0.870188  0.364537  1
  Ga  Ga15  1  0.364537  0.364537  0.870188  1
  Ga  Ga16  1  0.870188  0.364537  0.364537  1
  Ga  Ga17  1  0.500000  0.500000  0.000000  1
  Ga  Ga18  1  0.500000  0.000000  0.500000  1
  Ga  Ga19  1  0.000000  0.500000  0.500000  1
