# generated using pymatgen
data_DyY3(GaSi)2
_symmetry_space_group_name_H-M   'P 1'
_cell_length_a   3.95976500
_cell_length_b   5.78670558
_cell_length_c   7.99954456
_cell_angle_alpha   89.99584052
_cell_angle_beta   90.00000000
_cell_angle_gamma   90.00000000
_symmetry_Int_Tables_number   1
_chemical_formula_structural   DyY3(GaSi)2
_chemical_formula_sum   'Dy1 Y3 Ga2 Si2'
_cell_volume   183.30151720
_cell_formula_units_Z   1
loop_
 _symmetry_equiv_pos_site_id
 _symmetry_equiv_pos_as_xyz
  1  'x, y, z'
loop_
 _atom_site_type_symbol
 _atom_site_label
 _atom_site_symmetry_multiplicity
 _atom_site_fract_x
 _atom_site_fract_y
 _atom_site_fract_z
 _atom_site_occupancy
  Dy  Dy0  1  0.750000  0.888805  0.821501  1
  Y  Y1  1  0.250000  0.380382  0.679188  1
  Y  Y2  1  0.250000  0.119396  0.178917  1
  Y  Y3  1  0.750000  0.611494  0.321258  1
  Ga  Ga4  1  0.250000  0.869348  0.538083  1
  Ga  Ga5  1  0.250000  0.630986  0.036684  1
  Si  Si6  1  0.750000  0.126684  0.462427  1
  Si  Si7  1  0.750000  0.372904  0.961941  1
