# generated using pymatgen
data_Er2Tm4CrB14Os
_symmetry_space_group_name_H-M   'P 1'
_cell_length_a   7.96859189
_cell_length_b   7.96859180
_cell_length_c   9.25373060
_cell_angle_alpha   89.95966257
_cell_angle_beta   90.04033628
_cell_angle_gamma   154.99191990
_symmetry_Int_Tables_number   1
_chemical_formula_structural   Er2Tm4CrB14Os
_chemical_formula_sum   'Er2 Tm4 Cr1 B14 Os1'
_cell_volume   248.40451330
_cell_formula_units_Z   1
loop_
 _symmetry_equiv_pos_site_id
 _symmetry_equiv_pos_as_xyz
  1  'x, y, z'
loop_
 _atom_site_type_symbol
 _atom_site_label
 _atom_site_symmetry_multiplicity
 _atom_site_fract_x
 _atom_site_fract_y
 _atom_site_fract_z
 _atom_site_occupancy
  Er  Er0  1  0.755224  0.244776  0.250026  1
  Er  Er1  1  0.894118  0.105882  0.937585  1
  Tm  Tm2  1  0.241990  0.758010  0.749934  1
  Tm  Tm3  1  0.894343  0.105657  0.561793  1
  Tm  Tm4  1  0.105682  0.894318  0.442039  1
  Tm  Tm5  1  0.105597  0.894403  0.058056  1
  Cr  Cr6  1  0.052287  0.947713  0.749727  1
  B  B7  1  0.545349  0.454651  0.250159  1
  B  B8  1  0.456493  0.543507  0.749520  1
  B  B9  1  0.520738  0.479262  0.904283  1
  B  B10  1  0.480252  0.519748  0.094617  1
  B  B11  1  0.480208  0.519792  0.405776  1
  B  B12  1  0.520636  0.479364  0.595223  1
  B  B13  1  0.631613  0.368387  0.848608  1
  B  B14  1  0.367971  0.632029  0.149684  1
  B  B15  1  0.727697  0.272303  0.965973  1
  B  B16  1  0.272596  0.727404  0.033776  1
  B  B17  1  0.272865  0.727135  0.466472  1
  B  B18  1  0.728080  0.271920  0.534200  1
  B  B19  1  0.631637  0.368363  0.651349  1
  B  B20  1  0.367996  0.632004  0.350881  1
  Os  Os21  1  0.946628  0.053372  0.250320  1
