# generated using pymatgen
data_LaPr2Nd9(GaRh)8
_symmetry_space_group_name_H-M   'P 1'
_cell_length_a   5.71470758
_cell_length_b   8.23770717
_cell_length_c   13.68098701
_cell_angle_alpha   89.98769629
_cell_angle_beta   90.00228996
_cell_angle_gamma   89.83887032
_symmetry_Int_Tables_number   1
_chemical_formula_structural   LaPr2Nd9(GaRh)8
_chemical_formula_sum   'La1 Pr2 Nd9 Ga8 Rh8'
_cell_volume   644.04478057
_cell_formula_units_Z   1
loop_
 _symmetry_equiv_pos_site_id
 _symmetry_equiv_pos_as_xyz
  1  'x, y, z'
loop_
 _atom_site_type_symbol
 _atom_site_label
 _atom_site_symmetry_multiplicity
 _atom_site_fract_x
 _atom_site_fract_y
 _atom_site_fract_z
 _atom_site_occupancy
  La  La0  1  0.849126  0.900372  0.094442  1
  Pr  Pr1  1  0.635187  0.259107  0.251332  1
  Pr  Pr2  1  0.366365  0.742768  0.749705  1
  Nd  Nd3  1  0.365859  0.756668  0.250966  1
  Nd  Nd4  1  0.633820  0.241146  0.749522  1
  Nd  Nd5  1  0.146859  0.398239  0.097894  1
  Nd  Nd6  1  0.852509  0.599329  0.901428  1
  Nd  Nd7  1  0.853889  0.602049  0.598035  1
  Nd  Nd8  1  0.853674  0.897776  0.402834  1
  Nd  Nd9  1  0.146916  0.398381  0.402923  1
  Nd  Nd10  1  0.146963  0.101672  0.597955  1
  Nd  Nd11  1  0.147468  0.104680  0.901196  1
  Ga  Ga12  1  0.138854  0.108389  0.251390  1
  Ga  Ga13  1  0.866030  0.891294  0.750222  1
  Ga  Ga14  1  0.865023  0.609708  0.250944  1
  Ga  Ga15  1  0.135354  0.390136  0.749283  1
  Ga  Ga16  1  0.630359  0.251724  0.998908  1
  Ga  Ga17  1  0.365568  0.748627  0.998983  1
  Ga  Ga18  1  0.369033  0.749970  0.500075  1
  Ga  Ga19  1  0.631555  0.249787  0.500648  1
  Rh  Rh20  1  0.359700  0.030602  0.091502  1
  Rh  Rh21  1  0.641222  0.968777  0.909085  1
  Rh  Rh22  1  0.641934  0.968561  0.591739  1
  Rh  Rh23  1  0.641398  0.532054  0.409151  1
  Rh  Rh24  1  0.359629  0.031012  0.408596  1
  Rh  Rh25  1  0.358933  0.467747  0.590889  1
  Rh  Rh26  1  0.357956  0.467135  0.908444  1
  Rh  Rh27  1  0.638820  0.532288  0.091907  1
