# generated using pymatgen
data_Pr10GaSi4Rh
_symmetry_space_group_name_H-M   'P 1'
_cell_length_a   7.72284300
_cell_length_b   9.20757336
_cell_length_c   7.72284300
_cell_angle_alpha   114.79510696
_cell_angle_beta   90.00000000
_cell_angle_gamma   114.79510696
_symmetry_Int_Tables_number   1
_chemical_formula_structural   Pr10GaSi4Rh
_chemical_formula_sum   'Pr10 Ga1 Si4 Rh1'
_cell_volume   442.15124257
_cell_formula_units_Z   1
loop_
 _symmetry_equiv_pos_site_id
 _symmetry_equiv_pos_as_xyz
  1  'x, y, z'
loop_
 _atom_site_type_symbol
 _atom_site_label
 _atom_site_symmetry_multiplicity
 _atom_site_fract_x
 _atom_site_fract_y
 _atom_site_fract_z
 _atom_site_occupancy
  Pr  Pr0  1  0.969317  0.938634  0.969317  1
  Pr  Pr1  1  0.530683  0.061366  0.530683  1
  Pr  Pr2  1  0.518932  0.716290  0.664505  1
  Pr  Pr3  1  0.197358  0.716290  0.051786  1
  Pr  Pr4  1  0.664505  0.716290  0.197358  1
  Pr  Pr5  1  0.051786  0.716290  0.518932  1
  Pr  Pr6  1  0.448214  0.283710  0.302642  1
  Pr  Pr7  1  0.835495  0.283710  0.981068  1
  Pr  Pr8  1  0.302642  0.283710  0.835495  1
  Pr  Pr9  1  0.981068  0.283710  0.448214  1
  Ga  Ga10  1  0.750000  0.500000  0.750000  1
  Si  Si11  1  0.885361  0.000000  0.614639  1
  Si  Si12  1  0.114639  0.000000  0.385361  1
  Si  Si13  1  0.614639  0.000000  0.114639  1
  Si  Si14  1  0.385361  0.000000  0.885361  1
  Rh  Rh15  1  0.250000  0.500000  0.250000  1
