# generated using pymatgen
data_ZnIn2Te2(SO7)2
_symmetry_space_group_name_H-M   'P 1'
_cell_length_a   5.41134634
_cell_length_b   7.82247805
_cell_length_c   8.36336594
_cell_angle_alpha   116.20078360
_cell_angle_beta   108.56886464
_cell_angle_gamma   83.00405699
_symmetry_Int_Tables_number   1
_chemical_formula_structural   ZnIn2Te2(SO7)2
_chemical_formula_sum   'Zn1 In2 Te2 S2 O14'
_cell_volume   301.03767104
_cell_formula_units_Z   1
loop_
 _symmetry_equiv_pos_site_id
 _symmetry_equiv_pos_as_xyz
  1  'x, y, z'
loop_
 _atom_site_type_symbol
 _atom_site_label
 _atom_site_symmetry_multiplicity
 _atom_site_fract_x
 _atom_site_fract_y
 _atom_site_fract_z
 _atom_site_occupancy
  Zn  Zn0  1  0.000000  0.000000  0.500000  1
  In  In1  1  0.157419  0.281788  0.982989  1
  In  In2  1  0.842581  0.718212  0.017011  1
  Te  Te3  1  0.524021  0.262334  0.650290  1
  Te  Te4  1  0.475979  0.737666  0.349710  1
  S  S5  1  0.809284  0.214936  0.216668  1
  S  S6  1  0.190716  0.785064  0.783332  1
  O  O7  1  0.039269  0.308594  0.220893  1
  O  O8  1  0.960731  0.691406  0.779107  1
  O  O9  1  0.852526  0.223671  0.403937  1
  O  O10  1  0.147474  0.776329  0.596063  1
  O  O11  1  0.571337  0.325645  0.173715  1
  O  O12  1  0.428663  0.674355  0.826285  1
  O  O13  1  0.775111  0.017475  0.066944  1
  O  O14  1  0.224889  0.982525  0.933056  1
  O  O15  1  0.778692  0.407714  0.887576  1
  O  O16  1  0.221308  0.592286  0.112424  1
  O  O17  1  0.269932  0.209349  0.738241  1
  O  O18  1  0.730068  0.790651  0.261759  1
  O  O19  1  0.738228  0.048343  0.638796  1
  O  O20  1  0.261772  0.951657  0.361204  1
