# generated using pymatgen
data_Pr8Y9Mg2Si16Ag
_symmetry_space_group_name_H-M   'P 1'
_cell_length_a   7.32271200
_cell_length_b   7.81096696
_cell_length_c   14.57819700
_cell_angle_alpha   90.00000000
_cell_angle_beta   90.00000000
_cell_angle_gamma   90.20078222
_symmetry_Int_Tables_number   1
_chemical_formula_structural   Pr8Y9Mg2Si16Ag
_chemical_formula_sum   'Pr8 Y9 Mg2 Si16 Ag1'
_cell_volume   833.83074167
_cell_formula_units_Z   1
loop_
 _symmetry_equiv_pos_site_id
 _symmetry_equiv_pos_as_xyz
  1  'x, y, z'
loop_
 _atom_site_type_symbol
 _atom_site_label
 _atom_site_symmetry_multiplicity
 _atom_site_fract_x
 _atom_site_fract_y
 _atom_site_fract_z
 _atom_site_occupancy
  Pr  Pr0  1  0.020234  0.182354  0.400459  1
  Pr  Pr1  1  0.520937  0.320610  0.398703  1
  Pr  Pr2  1  0.485356  0.689111  0.900874  1
  Pr  Pr3  1  0.485356  0.689111  0.599126  1
  Pr  Pr4  1  0.973422  0.824366  0.599208  1
  Pr  Pr5  1  0.973422  0.824366  0.900792  1
  Pr  Pr6  1  0.520937  0.320610  0.101297  1
  Pr  Pr7  1  0.020234  0.182354  0.099541  1
  Y  Y8  1  0.334296  0.175027  0.626009  1
  Y  Y9  1  0.675366  0.814433  0.372330  1
  Y  Y10  1  0.172658  0.681870  0.373705  1
  Y  Y11  1  0.817695  0.310026  0.874428  1
  Y  Y12  1  0.817695  0.310026  0.625572  1
  Y  Y13  1  0.334296  0.175027  0.873991  1
  Y  Y14  1  0.172658  0.681870  0.126295  1
  Y  Y15  1  0.675366  0.814433  0.127670  1
  Y  Y16  1  0.152187  0.509325  0.750000  1
  Mg  Mg17  1  0.846795  0.483285  0.250000  1
  Mg  Mg18  1  0.347001  0.013877  0.250000  1
  Si  Si19  1  0.269157  0.878557  0.750000  1
  Si  Si20  1  0.470151  0.591656  0.250000  1
  Si  Si21  1  0.032483  0.103499  0.750000  1
  Si  Si22  1  0.524176  0.411628  0.750000  1
  Si  Si23  1  0.149694  0.470401  0.538786  1
  Si  Si24  1  0.973622  0.908151  0.250000  1
  Si  Si25  1  0.728486  0.118751  0.250000  1
  Si  Si26  1  0.849343  0.532028  0.034489  1
  Si  Si27  1  0.349936  0.967596  0.038642  1
  Si  Si28  1  0.149694  0.470401  0.961214  1
  Si  Si29  1  0.651028  0.036232  0.527923  1
  Si  Si30  1  0.349936  0.967596  0.461358  1
  Si  Si31  1  0.849343  0.532028  0.465511  1
  Si  Si32  1  0.776331  0.612764  0.750000  1
  Si  Si33  1  0.226106  0.381925  0.250000  1
  Si  Si34  1  0.651028  0.036232  0.972077  1
  Ag  Ag35  1  0.653573  0.978475  0.750000  1
