# generated using pymatgen
data_Tb2Er(Ni3P2)3
_symmetry_space_group_name_H-M   'P 1'
_cell_length_a   3.77855800
_cell_length_b   10.46502300
_cell_length_c   12.31460700
_cell_angle_alpha   90.00000000
_cell_angle_beta   90.00028070
_cell_angle_gamma   90.00000000
_symmetry_Int_Tables_number   1
_chemical_formula_structural   Tb2Er(Ni3P2)3
_chemical_formula_sum   'Tb4 Er2 Ni18 P12'
_cell_volume   486.95276560
_cell_formula_units_Z   2
loop_
 _symmetry_equiv_pos_site_id
 _symmetry_equiv_pos_as_xyz
  1  'x, y, z'
loop_
 _atom_site_type_symbol
 _atom_site_label
 _atom_site_symmetry_multiplicity
 _atom_site_fract_x
 _atom_site_fract_y
 _atom_site_fract_z
 _atom_site_occupancy
  Tb  Tb0  1  0.752191  0.000000  0.478897  1
  Tb  Tb1  1  0.252197  0.500000  0.521372  1
  Tb  Tb2  1  0.751836  0.815907  0.205513  1
  Tb  Tb3  1  0.751836  0.184093  0.205513  1
  Er  Er4  1  0.251844  0.683828  0.794351  1
  Er  Er5  1  0.251844  0.316172  0.794351  1
  Ni  Ni6  1  0.751707  0.000000  0.016154  1
  Ni  Ni7  1  0.251699  0.500000  0.983250  1
  Ni  Ni8  1  0.252274  0.199394  0.571603  1
  Ni  Ni9  1  0.252274  0.800606  0.571603  1
  Ni  Ni10  1  0.752279  0.300690  0.428852  1
  Ni  Ni11  1  0.752279  0.699310  0.428852  1
  Ni  Ni12  1  0.251775  0.620232  0.289098  1
  Ni  Ni13  1  0.251775  0.379768  0.289098  1
  Ni  Ni14  1  0.751776  0.879204  0.711279  1
  Ni  Ni15  1  0.751776  0.120796  0.711279  1
  Ni  Ni16  1  0.251573  0.167547  0.003844  1
  Ni  Ni17  1  0.251573  0.832453  0.003844  1
  Ni  Ni18  1  0.751577  0.332914  0.995395  1
  Ni  Ni19  1  0.751577  0.667086  0.995395  1
  Ni  Ni20  1  0.250766  0.000000  0.841720  1
  Ni  Ni21  1  0.750776  0.500000  0.158077  1
  Ni  Ni22  1  0.252174  0.000000  0.299926  1
  Ni  Ni23  1  0.752167  0.500000  0.700645  1
  P  P24  1  0.252174  0.187297  0.385826  1
  P  P25  1  0.252174  0.812703  0.385826  1
  P  P26  1  0.752178  0.312842  0.614993  1
  P  P27  1  0.752178  0.687158  0.614993  1
  P  P28  1  0.251780  0.000000  0.122992  1
  P  P29  1  0.751790  0.500000  0.876241  1
  P  P30  1  0.251526  0.651527  0.107092  1
  P  P31  1  0.251526  0.348473  0.107092  1
  P  P32  1  0.751523  0.847761  0.892537  1
  P  P33  1  0.751523  0.152239  0.892537  1
  P  P34  1  0.251843  0.000000  0.656562  1
  P  P35  1  0.751841  0.500000  0.343402  1
