# generated using pymatgen
data_ZnSi2Pb2O7
_symmetry_space_group_name_H-M   'P 1'
_cell_length_a   8.13722500
_cell_length_b   8.13722500
_cell_length_c   5.37068400
_cell_angle_alpha   90.00000000
_cell_angle_beta   90.00000000
_cell_angle_gamma   90.00000000
_symmetry_Int_Tables_number   1
_chemical_formula_structural   ZnSi2Pb2O7
_chemical_formula_sum   'Zn2 Si4 Pb4 O14'
_cell_volume   355.61678353
_cell_formula_units_Z   2
loop_
 _symmetry_equiv_pos_site_id
 _symmetry_equiv_pos_as_xyz
  1  'x, y, z'
loop_
 _atom_site_type_symbol
 _atom_site_label
 _atom_site_symmetry_multiplicity
 _atom_site_fract_x
 _atom_site_fract_y
 _atom_site_fract_z
 _atom_site_occupancy
  Zn  Zn0  1  0.500000  0.500000  0.000000  1
  Zn  Zn1  1  0.000000  0.000000  0.000000  1
  Si  Si2  1  0.140773  0.640773  0.952918  1
  Si  Si3  1  0.359227  0.140773  0.047082  1
  Si  Si4  1  0.859227  0.359227  0.952918  1
  Si  Si5  1  0.640773  0.859227  0.047082  1
  Pb  Pb6  1  0.323182  0.823182  0.505493  1
  Pb  Pb7  1  0.176818  0.323182  0.494507  1
  Pb  Pb8  1  0.676818  0.176818  0.505493  1
  Pb  Pb9  1  0.823182  0.676818  0.494507  1
  O  O10  1  0.500000  0.000000  0.118150  1
  O  O11  1  0.000000  0.500000  0.881850  1
  O  O12  1  0.156124  0.656124  0.253063  1
  O  O13  1  0.343876  0.156124  0.746937  1
  O  O14  1  0.843876  0.343876  0.253063  1
  O  O15  1  0.656124  0.843876  0.746937  1
  O  O16  1  0.309343  0.581400  0.804792  1
  O  O17  1  0.190657  0.081400  0.195208  1
  O  O18  1  0.690657  0.418600  0.804792  1
  O  O19  1  0.809343  0.918600  0.195208  1
  O  O20  1  0.581400  0.690657  0.195208  1
  O  O21  1  0.918600  0.190657  0.804792  1
  O  O22  1  0.418600  0.309343  0.195208  1
  O  O23  1  0.081400  0.809343  0.804792  1
