# generated using pymatgen
data_NaPa2TiBi5
_symmetry_space_group_name_H-M   'P 1'
_cell_length_a   9.42952400
_cell_length_b   9.46321078
_cell_length_c   6.39700000
_cell_angle_alpha   90.00000000
_cell_angle_beta   90.00000000
_cell_angle_gamma   119.88230672
_symmetry_Int_Tables_number   1
_chemical_formula_structural   NaPa2TiBi5
_chemical_formula_sum   'Na2 Pa4 Ti2 Bi10'
_cell_volume   494.93606317
_cell_formula_units_Z   2
loop_
 _symmetry_equiv_pos_site_id
 _symmetry_equiv_pos_as_xyz
  1  'x, y, z'
loop_
 _atom_site_type_symbol
 _atom_site_label
 _atom_site_symmetry_multiplicity
 _atom_site_fract_x
 _atom_site_fract_y
 _atom_site_fract_z
 _atom_site_occupancy
  Na  Na0  1  0.613217  0.000000  0.250000  1
  Na  Na1  1  0.386783  0.000000  0.750000  1
  Pa  Pa2  1  0.010800  0.617240  0.250000  1
  Pa  Pa3  1  0.989200  0.382760  0.750000  1
  Pa  Pa4  1  0.393560  0.382760  0.250000  1
  Pa  Pa5  1  0.606440  0.617240  0.750000  1
  Ti  Ti6  1  0.000000  0.000000  0.000000  1
  Ti  Ti7  1  0.000000  0.000000  0.500000  1
  Bi  Bi8  1  0.256258  0.000000  0.250000  1
  Bi  Bi9  1  0.743742  0.000000  0.750000  1
  Bi  Bi10  1  0.002115  0.260958  0.250000  1
  Bi  Bi11  1  0.997885  0.739042  0.750000  1
  Bi  Bi12  1  0.741157  0.739042  0.250000  1
  Bi  Bi13  1  0.258843  0.260958  0.750000  1
  Bi  Bi14  1  0.328211  0.656423  0.000000  1
  Bi  Bi15  1  0.671789  0.343577  0.000000  1
  Bi  Bi16  1  0.671789  0.343577  0.500000  1
  Bi  Bi17  1  0.328211  0.656423  0.500000  1
