# generated using pymatgen
data_Er5Lu(Sc2Sn3)2
_symmetry_space_group_name_H-M   'P 1'
_cell_length_a   8.73787295
_cell_length_b   8.74492507
_cell_length_c   6.24690700
_cell_angle_alpha   90.00000000
_cell_angle_beta   90.00000000
_cell_angle_gamma   120.02670433
_symmetry_Int_Tables_number   1
_chemical_formula_structural   Er5Lu(Sc2Sn3)2
_chemical_formula_sum   'Er5 Lu1 Sc4 Sn6'
_cell_volume   413.27635947
_cell_formula_units_Z   1
loop_
 _symmetry_equiv_pos_site_id
 _symmetry_equiv_pos_as_xyz
  1  'x, y, z'
loop_
 _atom_site_type_symbol
 _atom_site_label
 _atom_site_symmetry_multiplicity
 _atom_site_fract_x
 _atom_site_fract_y
 _atom_site_fract_z
 _atom_site_occupancy
  Er  Er0  1  0.761903  0.761654  0.750000  1
  Er  Er1  1  0.238097  0.999750  0.750000  1
  Er  Er2  1  0.000000  0.238655  0.750000  1
  Er  Er3  1  0.238232  0.238153  0.250000  1
  Er  Er4  1  0.761768  0.999921  0.250000  1
  Lu  Lu5  1  0.000000  0.761556  0.250000  1
  Sc  Sc6  1  0.666668  0.333384  0.000042  1
  Sc  Sc7  1  0.333332  0.666718  0.000042  1
  Sc  Sc8  1  0.333332  0.666718  0.499958  1
  Sc  Sc9  1  0.666668  0.333384  0.499958  1
  Sn  Sn10  1  0.399062  0.399051  0.750000  1
  Sn  Sn11  1  0.600938  0.999989  0.750000  1
  Sn  Sn12  1  0.000000  0.600924  0.750000  1
  Sn  Sn13  1  0.601571  0.601160  0.250000  1
  Sn  Sn14  1  0.398429  0.999589  0.250000  1
  Sn  Sn15  1  0.000000  0.399393  0.250000  1
