# generated using pymatgen
data_Pr2GdLu5(WO6)4
_symmetry_space_group_name_H-M   'P 1'
_cell_length_a   5.42241300
_cell_length_b   7.72558664
_cell_length_c   11.42601334
_cell_angle_alpha   75.73704660
_cell_angle_beta   90.00000000
_cell_angle_gamma   90.00000000
_symmetry_Int_Tables_number   1
_chemical_formula_structural   Pr2GdLu5(WO6)4
_chemical_formula_sum   'Pr2 Gd1 Lu5 W4 O24'
_cell_volume   463.89649899
_cell_formula_units_Z   1
loop_
 _symmetry_equiv_pos_site_id
 _symmetry_equiv_pos_as_xyz
  1  'x, y, z'
loop_
 _atom_site_type_symbol
 _atom_site_label
 _atom_site_symmetry_multiplicity
 _atom_site_fract_x
 _atom_site_fract_y
 _atom_site_fract_z
 _atom_site_occupancy
  Pr  Pr0  1  0.315106  0.500000  0.750000  1
  Pr  Pr1  1  0.687025  0.500000  0.250000  1
  Gd  Gd2  1  0.254644  0.000000  0.750000  1
  Lu  Lu3  1  0.183099  0.796942  0.079057  1
  Lu  Lu4  1  0.183099  0.203058  0.420943  1
  Lu  Lu5  1  0.743906  0.000000  0.250000  1
  Lu  Lu6  1  0.815094  0.203771  0.923300  1
  Lu  Lu7  1  0.815094  0.796229  0.576700  1
  W  W8  1  0.745719  0.727193  0.885738  1
  W  W9  1  0.254976  0.730901  0.383535  1
  W  W10  1  0.745719  0.272807  0.614262  1
  W  W11  1  0.254976  0.269099  0.116465  1
  O  O12  1  0.542386  0.156252  0.069381  1
  O  O13  1  0.042669  0.055193  0.104895  1
  O  O14  1  0.012878  0.720968  0.768781  1
  O  O15  1  0.459137  0.162354  0.565574  1
  O  O16  1  0.342439  0.493781  0.386207  1
  O  O17  1  0.949184  0.056876  0.600095  1
  O  O18  1  0.550655  0.794757  0.725022  1
  O  O19  1  0.455711  0.800883  0.224290  1
  O  O20  1  0.142238  0.645538  0.545713  1
  O  O21  1  0.042669  0.944807  0.395105  1
  O  O22  1  0.459137  0.837646  0.934426  1
  O  O23  1  0.455711  0.199117  0.275710  1
  O  O24  1  0.861638  0.359259  0.452988  1
  O  O25  1  0.655938  0.490335  0.889005  1
  O  O26  1  0.342439  0.506219  0.113793  1
  O  O27  1  0.949184  0.943124  0.899905  1
  O  O28  1  0.542386  0.843748  0.430619  1
  O  O29  1  0.985897  0.275140  0.232975  1
  O  O30  1  0.550655  0.205243  0.774978  1
  O  O31  1  0.861638  0.640741  0.047012  1
  O  O32  1  0.012878  0.279032  0.731219  1
  O  O33  1  0.142238  0.354462  0.954287  1
  O  O34  1  0.985897  0.724860  0.267025  1
  O  O35  1  0.655938  0.509665  0.610995  1
