# generated using pymatgen
data_Dy2LuPa(ZnRh)4
_symmetry_space_group_name_H-M   'P 1'
_cell_length_a   3.84395800
_cell_length_b   7.07995120
_cell_length_c   8.30118004
_cell_angle_alpha   91.12598059
_cell_angle_beta   90.00000000
_cell_angle_gamma   90.00000000
_symmetry_Int_Tables_number   1
_chemical_formula_structural   Dy2LuPa(ZnRh)4
_chemical_formula_sum   'Dy2 Lu1 Pa1 Zn4 Rh4'
_cell_volume   225.87328196
_cell_formula_units_Z   1
loop_
 _symmetry_equiv_pos_site_id
 _symmetry_equiv_pos_as_xyz
  1  'x, y, z'
loop_
 _atom_site_type_symbol
 _atom_site_label
 _atom_site_symmetry_multiplicity
 _atom_site_fract_x
 _atom_site_fract_y
 _atom_site_fract_z
 _atom_site_occupancy
  Dy  Dy0  1  0.250000  0.052877  0.321630  1
  Dy  Dy1  1  0.750000  0.941397  0.687848  1
  Lu  Lu2  1  0.750000  0.442681  0.809180  1
  Pa  Pa3  1  0.250000  0.552536  0.176903  1
  Zn  Zn4  1  0.250000  0.129809  0.933961  1
  Zn  Zn5  1  0.750000  0.893407  0.062767  1
  Zn  Zn6  1  0.250000  0.619315  0.564897  1
  Zn  Zn7  1  0.750000  0.370044  0.443567  1
  Rh  Rh8  1  0.750000  0.740377  0.355835  1
  Rh  Rh9  1  0.250000  0.239275  0.627991  1
  Rh  Rh10  1  0.750000  0.282523  0.126717  1
  Rh  Rh11  1  0.250000  0.735756  0.888704  1
