# generated using pymatgen
data_Er8Si16Tc11Pd
_symmetry_space_group_name_H-M   'P 1'
_cell_length_a   6.77387604
_cell_length_b   6.77526268
_cell_length_c   12.70814104
_cell_angle_alpha   89.65734072
_cell_angle_beta   89.68947438
_cell_angle_gamma   89.65515795
_symmetry_Int_Tables_number   1
_chemical_formula_structural   Er8Si16Tc11Pd
_chemical_formula_sum   'Er8 Si16 Tc11 Pd1'
_cell_volume   583.20801202
_cell_formula_units_Z   1
loop_
 _symmetry_equiv_pos_site_id
 _symmetry_equiv_pos_as_xyz
  1  'x, y, z'
loop_
 _atom_site_type_symbol
 _atom_site_label
 _atom_site_symmetry_multiplicity
 _atom_site_fract_x
 _atom_site_fract_y
 _atom_site_fract_z
 _atom_site_occupancy
  Er  Er0  1  0.338607  0.992096  0.465998  1
  Er  Er1  1  0.504173  0.839837  0.721031  1
  Er  Er2  1  0.495867  0.163221  0.218193  1
  Er  Er3  1  0.838236  0.503917  0.279490  1
  Er  Er4  1  0.156760  0.493257  0.783340  1
  Er  Er5  1  0.661500  0.008066  0.969264  1
  Er  Er6  1  0.993943  0.339964  0.529866  1
  Er  Er7  1  0.009651  0.663847  0.031811  1
  Si  Si8  1  0.188854  0.112424  0.690425  1
  Si  Si9  1  0.388256  0.693999  0.934528  1
  Si  Si10  1  0.613401  0.305465  0.434252  1
  Si  Si11  1  0.695350  0.385882  0.065104  1
  Si  Si12  1  0.315421  0.612646  0.563686  1
  Si  Si13  1  0.806837  0.884680  0.185357  1
  Si  Si14  1  0.116995  0.196411  0.314610  1
  Si  Si15  1  0.888181  0.811304  0.816093  1
  Si  Si16  1  0.276931  0.980705  0.063287  1
  Si  Si17  1  0.519616  0.771048  0.309740  1
  Si  Si18  1  0.480502  0.235625  0.811785  1
  Si  Si19  1  0.748471  0.502915  0.688181  1
  Si  Si20  1  0.231210  0.483075  0.189292  1
  Si  Si21  1  0.725489  0.021421  0.560913  1
  Si  Si22  1  0.979539  0.277826  0.941308  1
  Si  Si23  1  0.016405  0.729160  0.433229  1
  Tc  Tc24  1  0.336126  0.338279  0.999933  1
  Tc  Tc25  1  0.167206  0.835012  0.249708  1
  Tc  Tc26  1  0.832082  0.162371  0.745272  1
  Tc  Tc27  1  0.665463  0.661670  0.502012  1
  Tc  Tc28  1  0.182297  0.984546  0.874146  1
  Tc  Tc29  1  0.525439  0.687601  0.119082  1
  Tc  Tc30  1  0.464339  0.302330  0.617068  1
  Tc  Tc31  1  0.693971  0.524627  0.881451  1
  Tc  Tc32  1  0.313010  0.480584  0.382166  1
  Tc  Tc33  1  0.818824  0.023936  0.369738  1
  Tc  Tc34  1  0.981309  0.181450  0.131406  1
  Pd  Pd35  1  0.029740  0.808803  0.627234  1
