# generated using pymatgen
data_Tb3Dy13(HoSn4)4
_symmetry_space_group_name_H-M   'P 1'
_cell_length_a   8.04736658
_cell_length_b   8.19354480
_cell_length_c   15.48437600
_cell_angle_alpha   90.02930681
_cell_angle_beta   90.22231685
_cell_angle_gamma   89.90293187
_symmetry_Int_Tables_number   1
_chemical_formula_structural   Tb3Dy13(HoSn4)4
_chemical_formula_sum   'Tb3 Dy13 Ho4 Sn16'
_cell_volume   1020.97563612
_cell_formula_units_Z   1
loop_
 _symmetry_equiv_pos_site_id
 _symmetry_equiv_pos_as_xyz
  1  'x, y, z'
loop_
 _atom_site_type_symbol
 _atom_site_label
 _atom_site_symmetry_multiplicity
 _atom_site_fract_x
 _atom_site_fract_y
 _atom_site_fract_z
 _atom_site_occupancy
  Tb  Tb0  1  0.982961  0.820918  0.403206  1
  Tb  Tb1  1  0.516594  0.320986  0.596057  1
  Tb  Tb2  1  0.017498  0.179116  0.904009  1
  Dy  Dy3  1  0.366340  0.836871  0.877875  1
  Dy  Dy4  1  0.864560  0.663244  0.622295  1
  Dy  Dy5  1  0.635237  0.162826  0.376920  1
  Dy  Dy6  1  0.133978  0.337131  0.121931  1
  Dy  Dy7  1  0.632986  0.162899  0.122368  1
  Dy  Dy8  1  0.134530  0.337161  0.377190  1
  Dy  Dy9  1  0.366185  0.836970  0.622771  1
  Dy  Dy10  1  0.867779  0.662522  0.878067  1
  Dy  Dy11  1  0.521266  0.321796  0.902104  1
  Dy  Dy12  1  0.019611  0.179374  0.597497  1
  Dy  Dy13  1  0.480896  0.679069  0.402356  1
  Dy  Dy14  1  0.979302  0.820183  0.098028  1
  Dy  Dy15  1  0.479952  0.678365  0.097204  1
  Ho  Ho16  1  0.197980  0.502934  0.750363  1
  Ho  Ho17  1  0.697958  0.997196  0.750241  1
  Ho  Ho18  1  0.802187  0.497396  0.249393  1
  Ho  Ho19  1  0.302174  0.002733  0.249751  1
  Sn  Sn20  1  0.293838  0.034602  0.042720  1
  Sn  Sn21  1  0.794899  0.462749  0.457688  1
  Sn  Sn22  1  0.705290  0.963911  0.542040  1
  Sn  Sn23  1  0.208327  0.537017  0.958511  1
  Sn  Sn24  1  0.704408  0.960735  0.958933  1
  Sn  Sn25  1  0.203301  0.540027  0.540920  1
  Sn  Sn26  1  0.296737  0.039231  0.458831  1
  Sn  Sn27  1  0.793001  0.462541  0.041633  1
  Sn  Sn28  1  0.564125  0.618967  0.750460  1
  Sn  Sn29  1  0.063726  0.880794  0.750049  1
  Sn  Sn30  1  0.436425  0.381378  0.249971  1
  Sn  Sn31  1  0.936444  0.119066  0.249468  1
  Sn  Sn32  1  0.328417  0.147609  0.750524  1
  Sn  Sn33  1  0.828524  0.352410  0.749467  1
  Sn  Sn34  1  0.670404  0.851697  0.249740  1
  Sn  Sn35  1  0.172161  0.647572  0.249419  1
