# generated using pymatgen
data_Nd3Ho2Er3(CdIr)2
_symmetry_space_group_name_H-M   'P 1'
_cell_length_a   9.69296754
_cell_length_b   9.69296786
_cell_length_c   9.69296700
_cell_angle_alpha   59.99999951
_cell_angle_beta   59.99999845
_cell_angle_gamma   59.99999806
_symmetry_Int_Tables_number   1
_chemical_formula_structural   Nd3Ho2Er3(CdIr)2
_chemical_formula_sum   'Nd6 Ho4 Er6 Cd4 Ir4'
_cell_volume   643.95460671
_cell_formula_units_Z   2
loop_
 _symmetry_equiv_pos_site_id
 _symmetry_equiv_pos_as_xyz
  1  'x, y, z'
loop_
 _atom_site_type_symbol
 _atom_site_label
 _atom_site_symmetry_multiplicity
 _atom_site_fract_x
 _atom_site_fract_y
 _atom_site_fract_z
 _atom_site_occupancy
  Nd  Nd0  1  0.940827  0.559173  0.559173  1
  Nd  Nd1  1  0.559173  0.940827  0.940827  1
  Nd  Nd2  1  0.559173  0.940827  0.559173  1
  Nd  Nd3  1  0.940827  0.559173  0.940827  1
  Nd  Nd4  1  0.559173  0.559173  0.940827  1
  Nd  Nd5  1  0.940827  0.940827  0.559173  1
  Ho  Ho6  1  0.347286  0.347286  0.347286  1
  Ho  Ho7  1  0.347286  0.347286  0.958143  1
  Ho  Ho8  1  0.347286  0.958143  0.347286  1
  Ho  Ho9  1  0.958143  0.347286  0.347286  1
  Er  Er10  1  0.812809  0.187191  0.187191  1
  Er  Er11  1  0.187191  0.812809  0.812809  1
  Er  Er12  1  0.187191  0.812809  0.187191  1
  Er  Er13  1  0.812809  0.187191  0.812809  1
  Er  Er14  1  0.187191  0.187191  0.812809  1
  Er  Er15  1  0.812809  0.812809  0.187191  1
  Cd  Cd16  1  0.579368  0.579368  0.579368  1
  Cd  Cd17  1  0.579368  0.579368  0.261897  1
  Cd  Cd18  1  0.579368  0.261897  0.579368  1
  Cd  Cd19  1  0.261897  0.579368  0.579368  1
  Ir  Ir20  1  0.141070  0.141070  0.141070  1
  Ir  Ir21  1  0.141070  0.141070  0.576790  1
  Ir  Ir22  1  0.141070  0.576790  0.141070  1
  Ir  Ir23  1  0.576790  0.141070  0.141070  1
