# generated using pymatgen
data_YTh2Al7Cu2
_symmetry_space_group_name_H-M   'P 1'
_cell_length_a   9.15782553
_cell_length_b   9.15782596
_cell_length_c   9.15782509
_cell_angle_alpha   35.37434776
_cell_angle_beta   35.37434507
_cell_angle_gamma   35.37434295
_symmetry_Int_Tables_number   1
_chemical_formula_structural   YTh2Al7Cu2
_chemical_formula_sum   'Y1 Th2 Al7 Cu2'
_cell_volume   229.97516695
_cell_formula_units_Z   1
loop_
 _symmetry_equiv_pos_site_id
 _symmetry_equiv_pos_as_xyz
  1  'x, y, z'
loop_
 _atom_site_type_symbol
 _atom_site_label
 _atom_site_symmetry_multiplicity
 _atom_site_fract_x
 _atom_site_fract_y
 _atom_site_fract_z
 _atom_site_occupancy
  Y  Y0  1  0.139982  0.139982  0.139982  1
  Th  Th1  1  0.998960  0.998960  0.998960  1
  Th  Th2  1  0.858745  0.858745  0.858745  1
  Al  Al3  1  0.418822  0.418822  0.928308  1
  Al  Al4  1  0.928308  0.418822  0.418822  1
  Al  Al5  1  0.418822  0.928308  0.418822  1
  Al  Al6  1  0.499397  0.499397  0.499397  1
  Al  Al7  1  0.581620  0.072581  0.581620  1
  Al  Al8  1  0.072581  0.581620  0.581620  1
  Al  Al9  1  0.581620  0.581620  0.072581  1
  Cu  Cu10  1  0.665269  0.665269  0.665269  1
  Cu  Cu11  1  0.335872  0.335872  0.335872  1
