# generated using pymatgen
data_Nd2NiRhPb
_symmetry_space_group_name_H-M   'P 1'
_cell_length_a   7.68693008
_cell_length_b   7.68692937
_cell_length_c   3.91404200
_cell_angle_alpha   90.00000000
_cell_angle_beta   90.00000000
_cell_angle_gamma   149.52338664
_symmetry_Int_Tables_number   1
_chemical_formula_structural   Nd2NiRhPb
_chemical_formula_sum   'Nd2 Ni1 Rh1 Pb1'
_cell_volume   117.30029274
_cell_formula_units_Z   1
loop_
 _symmetry_equiv_pos_site_id
 _symmetry_equiv_pos_as_xyz
  1  'x, y, z'
loop_
 _atom_site_type_symbol
 _atom_site_label
 _atom_site_symmetry_multiplicity
 _atom_site_fract_x
 _atom_site_fract_y
 _atom_site_fract_z
 _atom_site_occupancy
  Nd  Nd0  1  0.363477  0.636523  0.500000  1
  Nd  Nd1  1  0.638679  0.361321  0.500000  1
  Ni  Ni2  1  0.195169  0.804831  0.000000  1
  Rh  Rh3  1  0.800140  0.199860  0.000000  1
  Pb  Pb4  1  0.002534  0.997466  0.000000  1
