# generated using pymatgen
data_Yb2ErAl3Si2Pt
_symmetry_space_group_name_H-M   'P 1'
_cell_length_a   6.88968066
_cell_length_b   6.88967984
_cell_length_c   4.28291300
_cell_angle_alpha   90.00000000
_cell_angle_beta   90.00000000
_cell_angle_gamma   120.13321243
_symmetry_Int_Tables_number   1
_chemical_formula_structural   Yb2ErAl3Si2Pt
_chemical_formula_sum   'Yb2 Er1 Al3 Si2 Pt1'
_cell_volume   175.82615611
_cell_formula_units_Z   1
loop_
 _symmetry_equiv_pos_site_id
 _symmetry_equiv_pos_as_xyz
  1  'x, y, z'
loop_
 _atom_site_type_symbol
 _atom_site_label
 _atom_site_symmetry_multiplicity
 _atom_site_fract_x
 _atom_site_fract_y
 _atom_site_fract_z
 _atom_site_occupancy
  Yb  Yb0  1  0.421907  0.000495  0.000000  1
  Yb  Yb1  1  0.000495  0.421907  0.000000  1
  Er  Er2  1  0.579216  0.579216  0.000000  1
  Al  Al3  1  0.762748  0.998905  0.499999  1
  Al  Al4  1  0.237215  0.237216  0.499999  1
  Al  Al5  1  0.998905  0.762747  0.499999  1
  Si  Si6  1  0.665316  0.338562  0.499999  1
  Si  Si7  1  0.338562  0.665317  0.499999  1
  Pt  Pt8  1  0.995636  0.995636  0.000000  1
