# generated using pymatgen
data_Yb11Ho9Sn16
_symmetry_space_group_name_H-M   'P 1'
_cell_length_a   7.83687717
_cell_length_b   8.42282032
_cell_length_c   15.96669500
_cell_angle_alpha   90.00000000
_cell_angle_beta   90.00000000
_cell_angle_gamma   89.86980281
_symmetry_Int_Tables_number   1
_chemical_formula_structural   Yb11Ho9Sn16
_chemical_formula_sum   'Yb11 Ho9 Sn16'
_cell_volume   1053.93659430
_cell_formula_units_Z   1
loop_
 _symmetry_equiv_pos_site_id
 _symmetry_equiv_pos_as_xyz
  1  'x, y, z'
loop_
 _atom_site_type_symbol
 _atom_site_label
 _atom_site_symmetry_multiplicity
 _atom_site_fract_x
 _atom_site_fract_y
 _atom_site_fract_z
 _atom_site_occupancy
  Yb  Yb0  1  0.503643  0.687407  0.593453  1
  Yb  Yb1  1  0.003855  0.815355  0.908480  1
  Yb  Yb2  1  0.494507  0.312102  0.092306  1
  Yb  Yb3  1  0.995862  0.187131  0.408112  1
  Yb  Yb4  1  0.494507  0.312102  0.407694  1
  Yb  Yb5  1  0.995862  0.187131  0.091888  1
  Yb  Yb6  1  0.503643  0.687407  0.906547  1
  Yb  Yb7  1  0.003855  0.815355  0.591520  1
  Yb  Yb8  1  0.335926  0.989749  0.750000  1
  Yb  Yb9  1  0.163964  0.488063  0.250000  1
  Yb  Yb10  1  0.663780  0.009600  0.250000  1
  Ho  Ho11  1  0.674085  0.163680  0.622007  1
  Ho  Ho12  1  0.175402  0.334764  0.877356  1
  Ho  Ho13  1  0.326214  0.833084  0.121987  1
  Ho  Ho14  1  0.826431  0.664315  0.378259  1
  Ho  Ho15  1  0.326214  0.833084  0.378013  1
  Ho  Ho16  1  0.826431  0.664315  0.121741  1
  Ho  Ho17  1  0.674085  0.163680  0.877993  1
  Ho  Ho18  1  0.175402  0.334764  0.622644  1
  Ho  Ho19  1  0.837415  0.510210  0.750000  1
  Sn  Sn20  1  0.671769  0.962591  0.459266  1
  Sn  Sn21  1  0.171505  0.536715  0.040048  1
  Sn  Sn22  1  0.328823  0.036882  0.959237  1
  Sn  Sn23  1  0.828801  0.465542  0.543854  1
  Sn  Sn24  1  0.328823  0.036882  0.540763  1
  Sn  Sn25  1  0.828801  0.465542  0.956146  1
  Sn  Sn26  1  0.671769  0.962591  0.040734  1
  Sn  Sn27  1  0.171505  0.536715  0.459952  1
  Sn  Sn28  1  0.475055  0.380015  0.750000  1
  Sn  Sn29  1  0.971456  0.132060  0.750000  1
  Sn  Sn30  1  0.528188  0.625053  0.250000  1
  Sn  Sn31  1  0.027636  0.872211  0.250000  1
  Sn  Sn32  1  0.721573  0.865542  0.750000  1
  Sn  Sn33  1  0.210334  0.631220  0.750000  1
  Sn  Sn34  1  0.280942  0.126679  0.250000  1
  Sn  Sn35  1  0.781939  0.370463  0.250000  1
