# generated using pymatgen
data_CaPr5DyOsBr12
_symmetry_space_group_name_H-M   'P 1'
_cell_length_a   9.66864046
_cell_length_b   9.59955192
_cell_length_c   9.56877294
_cell_angle_alpha   107.39679107
_cell_angle_beta   107.27724670
_cell_angle_gamma   106.52156669
_symmetry_Int_Tables_number   1
_chemical_formula_structural   CaPr5DyOsBr12
_chemical_formula_sum   'Ca1 Pr5 Dy1 Os1 Br12'
_cell_volume   738.27793081
_cell_formula_units_Z   1
loop_
 _symmetry_equiv_pos_site_id
 _symmetry_equiv_pos_as_xyz
  1  'x, y, z'
loop_
 _atom_site_type_symbol
 _atom_site_label
 _atom_site_symmetry_multiplicity
 _atom_site_fract_x
 _atom_site_fract_y
 _atom_site_fract_z
 _atom_site_occupancy
  Ca  Ca0  1  0.500749  0.499517  0.498750  1
  Pr  Pr1  1  0.023263  0.311003  0.107622  1
  Pr  Pr2  1  0.110085  0.026585  0.313788  1
  Pr  Pr3  1  0.894919  0.974818  0.688251  1
  Pr  Pr4  1  0.976008  0.689528  0.892448  1
  Pr  Pr5  1  0.676832  0.889310  0.974503  1
  Dy  Dy6  1  0.312543  0.108302  0.026588  1
  Os  Os7  1  0.000418  0.000680  0.001376  1
  Br  Br8  1  0.673151  0.214609  0.067146  1
  Br  Br9  1  0.377811  0.447643  0.160731  1
  Br  Br10  1  0.069048  0.682522  0.218250  1
  Br  Br11  1  0.784736  0.932540  0.319418  1
  Br  Br12  1  0.459685  0.166201  0.367533  1
  Br  Br13  1  0.171121  0.380733  0.463145  1
  Br  Br14  1  0.830461  0.619826  0.537296  1
  Br  Br15  1  0.540351  0.831503  0.619878  1
  Br  Br16  1  0.225250  0.071255  0.694936  1
  Br  Br17  1  0.931577  0.317590  0.781877  1
  Br  Br18  1  0.622348  0.539383  0.831409  1
  Br  Br19  1  0.319648  0.796459  0.935058  1
