# generated using pymatgen
data_TbNd7(HoTl3)2
_symmetry_space_group_name_H-M   'P 1'
_cell_length_a   6.26834235
_cell_length_b   9.33984978
_cell_length_c   9.36723800
_cell_angle_alpha   83.55143503
_cell_angle_beta   70.45247609
_cell_angle_gamma   70.39281272
_symmetry_Int_Tables_number   1
_chemical_formula_structural   TbNd7(HoTl3)2
_chemical_formula_sum   'Tb1 Nd7 Ho2 Tl6'
_cell_volume   486.83406774
_cell_formula_units_Z   1
loop_
 _symmetry_equiv_pos_site_id
 _symmetry_equiv_pos_as_xyz
  1  'x, y, z'
loop_
 _atom_site_type_symbol
 _atom_site_label
 _atom_site_symmetry_multiplicity
 _atom_site_fract_x
 _atom_site_fract_y
 _atom_site_fract_z
 _atom_site_occupancy
  Tb  Tb0  1  0.916219  0.867402  0.300162  1
  Nd  Nd1  1  0.720511  0.865767  0.693210  1
  Nd  Nd2  1  0.279254  0.133702  0.307791  1
  Nd  Nd3  1  0.779684  0.306044  0.134588  1
  Nd  Nd4  1  0.220137  0.692690  0.867035  1
  Nd  Nd5  1  0.585138  0.693343  0.136380  1
  Nd  Nd6  1  0.414814  0.305447  0.864926  1
  Nd  Nd7  1  0.084094  0.134868  0.696942  1
  Ho  Ho8  1  0.749530  0.500874  0.499293  1
  Ho  Ho9  1  0.250302  0.500874  0.499293  1
  Tl  Tl10  1  0.155894  0.502569  0.185641  1
  Tl  Tl11  1  0.842864  0.500261  0.814012  1
  Tl  Tl12  1  0.342917  0.814985  0.499181  1
  Tl  Tl13  1  0.659545  0.182987  0.497924  1
  Tl  Tl14  1  0.249657  0.999093  0.001812  1
  Tl  Tl15  1  0.749439  0.999093  0.001812  1
