# generated using pymatgen
data_Pr17Nd3Si15S
_symmetry_space_group_name_H-M   'P 1'
_cell_length_a   7.93124850
_cell_length_b   7.88325235
_cell_length_c   15.33763500
_cell_angle_alpha   89.76373721
_cell_angle_beta   89.15697287
_cell_angle_gamma   90.01304232
_symmetry_Int_Tables_number   1
_chemical_formula_structural   Pr17Nd3Si15S
_chemical_formula_sum   'Pr17 Nd3 Si15 S1'
_cell_volume   958.85880902
_cell_formula_units_Z   1
loop_
 _symmetry_equiv_pos_site_id
 _symmetry_equiv_pos_as_xyz
  1  'x, y, z'
loop_
 _atom_site_type_symbol
 _atom_site_label
 _atom_site_symmetry_multiplicity
 _atom_site_fract_x
 _atom_site_fract_y
 _atom_site_fract_z
 _atom_site_occupancy
  Pr  Pr0  1  0.687586  0.688079  0.498651  1
  Pr  Pr1  1  0.380365  0.006581  0.443092  1
  Pr  Pr2  1  0.491048  0.874715  0.699121  1
  Pr  Pr3  1  0.510954  0.120923  0.196078  1
  Pr  Pr4  1  0.876271  0.486100  0.301560  1
  Pr  Pr5  1  0.124423  0.507402  0.801448  1
  Pr  Pr6  1  0.631461  0.985876  0.949910  1
  Pr  Pr7  1  0.002804  0.378185  0.550876  1
  Pr  Pr8  1  0.991234  0.622403  0.052632  1
  Pr  Pr9  1  0.140003  0.990200  0.870375  1
  Pr  Pr10  1  0.518770  0.628608  0.125996  1
  Pr  Pr11  1  0.470044  0.364853  0.632558  1
  Pr  Pr12  1  0.632594  0.521769  0.875297  1
  Pr  Pr13  1  0.370191  0.478079  0.374227  1
  Pr  Pr14  1  0.870728  0.019505  0.376919  1
  Pr  Pr15  1  0.982455  0.127642  0.124045  1
  Pr  Pr16  1  0.019800  0.875381  0.622922  1
  Nd  Nd17  1  0.311709  0.309375  0.000046  1
  Nd  Nd18  1  0.188167  0.807917  0.248881  1
  Nd  Nd19  1  0.805006  0.190830  0.751311  1
  Si  Si20  1  0.331108  0.697516  0.950712  1
  Si  Si21  1  0.662681  0.305073  0.455960  1
  Si  Si22  1  0.700440  0.334329  0.048779  1
  Si  Si23  1  0.303377  0.666721  0.549093  1
  Si  Si24  1  0.804928  0.831733  0.203033  1
  Si  Si25  1  0.168397  0.193537  0.296216  1
  Si  Si26  1  0.840946  0.804769  0.796357  1
  Si  Si27  1  0.287186  0.922587  0.058079  1
  Si  Si28  1  0.576865  0.785900  0.308644  1
  Si  Si29  1  0.450987  0.210823  0.823429  1
  Si  Si30  1  0.788380  0.579438  0.688657  1
  Si  Si31  1  0.212168  0.422959  0.190210  1
  Si  Si32  1  0.703375  0.076061  0.561960  1
  Si  Si33  1  0.927742  0.289848  0.939835  1
  Si  Si34  1  0.077209  0.711404  0.440491  1
  S  S35  1  0.158597  0.182878  0.692600  1
