# generated using pymatgen
data_Nd2Al5Ga
_symmetry_space_group_name_H-M   'P 1'
_cell_length_a   6.56396100
_cell_length_b   6.57951948
_cell_length_c   4.50868100
_cell_angle_alpha   90.00000000
_cell_angle_beta   90.00000000
_cell_angle_gamma   119.92181270
_symmetry_Int_Tables_number   1
_chemical_formula_structural   Nd2Al5Ga
_chemical_formula_sum   'Nd2 Al5 Ga1'
_cell_volume   168.76482654
_cell_formula_units_Z   1
loop_
 _symmetry_equiv_pos_site_id
 _symmetry_equiv_pos_as_xyz
  1  'x, y, z'
loop_
 _atom_site_type_symbol
 _atom_site_label
 _atom_site_symmetry_multiplicity
 _atom_site_fract_x
 _atom_site_fract_y
 _atom_site_fract_z
 _atom_site_occupancy
  Nd  Nd0  1  0.667051  0.334101  0.250000  1
  Nd  Nd1  1  0.332674  0.665349  0.750000  1
  Al  Al2  1  0.856244  0.140672  0.750000  1
  Al  Al3  1  0.284429  0.140672  0.750000  1
  Al  Al4  1  0.857261  0.714520  0.750000  1
  Al  Al5  1  0.142632  0.858795  0.250000  1
  Al  Al6  1  0.716162  0.858795  0.250000  1
  Ga  Ga7  1  0.143547  0.287095  0.250000  1
