# generated using pymatgen
data_NaTb5PrIrI12
_symmetry_space_group_name_H-M   'P 1'
_cell_length_a   9.92120509
_cell_length_b   9.88810012
_cell_length_c   9.84546264
_cell_angle_alpha   106.68739809
_cell_angle_beta   106.92398690
_cell_angle_gamma   107.22680932
_symmetry_Int_Tables_number   1
_chemical_formula_structural   NaTb5PrIrI12
_chemical_formula_sum   'Na1 Tb5 Pr1 Ir1 I12'
_cell_volume   805.54267444
_cell_formula_units_Z   1
loop_
 _symmetry_equiv_pos_site_id
 _symmetry_equiv_pos_as_xyz
  1  'x, y, z'
loop_
 _atom_site_type_symbol
 _atom_site_label
 _atom_site_symmetry_multiplicity
 _atom_site_fract_x
 _atom_site_fract_y
 _atom_site_fract_z
 _atom_site_occupancy
  Na  Na0  1  0.500063  0.500504  0.499221  1
  Tb  Tb1  1  0.099124  0.297326  0.027890  1
  Tb  Tb2  1  0.311979  0.029542  0.102486  1
  Tb  Tb3  1  0.027109  0.101155  0.299194  1
  Tb  Tb4  1  0.973948  0.902795  0.701795  1
  Tb  Tb5  1  0.688100  0.969024  0.897971  1
  Pr  Pr6  1  0.898736  0.692220  0.971899  1
  Ir  Ir7  1  0.000284  0.999817  0.000780  1
  I  I8  1  0.233468  0.684185  0.079292  1
  I  I9  1  0.450079  0.372113  0.142471  1
  I  I10  1  0.682379  0.076470  0.225560  1
  I  I11  1  0.926742  0.784156  0.327262  1
  I  I12  1  0.142748  0.450063  0.370018  1
  I  I13  1  0.369349  0.142889  0.448749  1
  I  I14  1  0.630777  0.858922  0.552190  1
  I  I15  1  0.856431  0.550256  0.618815  1
  I  I16  1  0.075887  0.224599  0.684480  1
  I  I17  1  0.318467  0.925921  0.775528  1
  I  I18  1  0.538810  0.626372  0.851682  1
  I  I19  1  0.775525  0.311673  0.922721  1
