# generated using pymatgen
data_Dy3Y4BI12
_symmetry_space_group_name_H-M   'P 1'
_cell_length_a   9.64008015
_cell_length_b   9.64038522
_cell_length_c   9.64049435
_cell_angle_alpha   107.78698218
_cell_angle_beta   107.77754668
_cell_angle_gamma   107.78508301
_symmetry_Int_Tables_number   1
_chemical_formula_structural   Dy3Y4BI12
_chemical_formula_sum   'Dy3 Y4 B1 I12'
_cell_volume   729.61152863
_cell_formula_units_Z   1
loop_
 _symmetry_equiv_pos_site_id
 _symmetry_equiv_pos_as_xyz
  1  'x, y, z'
loop_
 _atom_site_type_symbol
 _atom_site_label
 _atom_site_symmetry_multiplicity
 _atom_site_fract_x
 _atom_site_fract_y
 _atom_site_fract_z
 _atom_site_occupancy
  Dy  Dy0  1  0.707687  0.967192  0.900562  1
  Dy  Dy1  1  0.967269  0.900493  0.707685  1
  Dy  Dy2  1  0.099503  0.292338  0.032826  1
  Y  Y3  1  0.500025  0.499970  0.500027  1
  Y  Y4  1  0.292536  0.032784  0.099587  1
  Y  Y5  1  0.900485  0.707480  0.967238  1
  Y  Y6  1  0.032855  0.099509  0.292532  1
  B  B7  1  0.999493  0.000397  0.999197  1
  I  I8  1  0.074896  0.225692  0.686311  1
  I  I9  1  0.389194  0.152772  0.469493  1
  I  I10  1  0.611103  0.847324  0.530859  1
  I  I11  1  0.225818  0.685940  0.074940  1
  I  I12  1  0.774323  0.313700  0.925141  1
  I  I13  1  0.685997  0.074846  0.225597  1
  I  I14  1  0.530629  0.611066  0.847285  1
  I  I15  1  0.847317  0.530738  0.610862  1
  I  I16  1  0.925090  0.774198  0.314071  1
  I  I17  1  0.313758  0.925044  0.774110  1
  I  I18  1  0.469260  0.389150  0.152725  1
  I  I19  1  0.152762  0.469368  0.388951  1
