# generated using pymatgen
data_Ba2YbAg3Sn2Ge
_symmetry_space_group_name_H-M   'P 1'
_cell_length_a   4.85546900
_cell_length_b   4.85546882
_cell_length_c   12.74781100
_cell_angle_alpha   90.00000000
_cell_angle_beta   90.00000000
_cell_angle_gamma   120.00000807
_symmetry_Int_Tables_number   1
_chemical_formula_structural   Ba2YbAg3Sn2Ge
_chemical_formula_sum   'Ba2 Yb1 Ag3 Sn2 Ge1'
_cell_volume   260.27266998
_cell_formula_units_Z   1
loop_
 _symmetry_equiv_pos_site_id
 _symmetry_equiv_pos_as_xyz
  1  'x, y, z'
loop_
 _atom_site_type_symbol
 _atom_site_label
 _atom_site_symmetry_multiplicity
 _atom_site_fract_x
 _atom_site_fract_y
 _atom_site_fract_z
 _atom_site_occupancy
  Ba  Ba0  1  0.666667  0.333333  0.688134  1
  Ba  Ba1  1  0.666667  0.333333  0.316166  1
  Yb  Yb2  1  0.666667  0.333333  0.990237  1
  Ag  Ag3  1  0.000000  0.000000  0.874730  1
  Ag  Ag4  1  0.000000  0.000000  0.125020  1
  Ag  Ag5  1  0.333333  0.666667  0.501423  1
  Sn  Sn6  1  0.000000  0.000000  0.501467  1
  Sn  Sn7  1  0.333333  0.666667  0.115858  1
  Ge  Ge8  1  0.333333  0.666667  0.886963  1
