# generated using pymatgen
data_GeMo12Pt2Rh5N4
_symmetry_space_group_name_H-M   'P 1'
_cell_length_a   6.85873869
_cell_length_b   6.85632579
_cell_length_c   6.85441229
_cell_angle_alpha   89.81941027
_cell_angle_beta   89.77823660
_cell_angle_gamma   89.70808517
_symmetry_Int_Tables_number   1
_chemical_formula_structural   GeMo12Pt2Rh5N4
_chemical_formula_sum   'Ge1 Mo12 Pt2 Rh5 N4'
_cell_volume   322.32567898
_cell_formula_units_Z   1
loop_
 _symmetry_equiv_pos_site_id
 _symmetry_equiv_pos_as_xyz
  1  'x, y, z'
loop_
 _atom_site_type_symbol
 _atom_site_label
 _atom_site_symmetry_multiplicity
 _atom_site_fract_x
 _atom_site_fract_y
 _atom_site_fract_z
 _atom_site_occupancy
  Ge  Ge0  1  0.189221  0.181998  0.188082  1
  Mo  Mo1  1  0.622317  0.702593  0.951692  1
  Mo  Mo2  1  0.462324  0.868638  0.305988  1
  Mo  Mo3  1  0.701601  0.951059  0.622577  1
  Mo  Mo4  1  0.551857  0.375534  0.202392  1
  Mo  Mo5  1  0.376137  0.202030  0.554635  1
  Mo  Mo6  1  0.201734  0.554390  0.376205  1
  Mo  Mo7  1  0.868180  0.305396  0.463703  1
  Mo  Mo8  1  0.045243  0.119214  0.791042  1
  Mo  Mo9  1  0.307529  0.463272  0.867723  1
  Mo  Mo10  1  0.120408  0.794276  0.044150  1
  Mo  Mo11  1  0.789731  0.043949  0.119777  1
  Mo  Mo12  1  0.952821  0.624269  0.698887  1
  Pt  Pt13  1  0.559226  0.559736  0.559208  1
  Pt  Pt14  1  0.950867  0.424492  0.064860  1
  Rh  Rh15  1  0.306672  0.817945  0.687536  1
  Rh  Rh16  1  0.425162  0.064656  0.950140  1
  Rh  Rh17  1  0.816516  0.689122  0.308086  1
  Rh  Rh18  1  0.685691  0.304984  0.815540  1
  Rh  Rh19  1  0.064356  0.949991  0.426169  1
  N  N20  1  0.376658  0.627175  0.126177  1
  N  N21  1  0.872345  0.871930  0.871982  1
  N  N22  1  0.126909  0.376771  0.626455  1
  N  N23  1  0.626498  0.126584  0.376997  1
