# generated using pymatgen
data_Sc12Al9Rh3O4
_symmetry_space_group_name_H-M   'P 1'
_cell_length_a   8.51982289
_cell_length_b   8.51982271
_cell_length_c   8.53481400
_cell_angle_alpha   60.05808616
_cell_angle_beta   60.05808689
_cell_angle_gamma   59.99999861
_symmetry_Int_Tables_number   1
_chemical_formula_structural   Sc12Al9Rh3O4
_chemical_formula_sum   'Sc12 Al9 Rh3 O4'
_cell_volume   438.45086002
_cell_formula_units_Z   1
loop_
 _symmetry_equiv_pos_site_id
 _symmetry_equiv_pos_as_xyz
  1  'x, y, z'
loop_
 _atom_site_type_symbol
 _atom_site_label
 _atom_site_symmetry_multiplicity
 _atom_site_fract_x
 _atom_site_fract_y
 _atom_site_fract_z
 _atom_site_occupancy
  Sc  Sc0  1  0.812143  0.812143  0.188602  1
  Sc  Sc1  1  0.187112  0.187112  0.814570  1
  Sc  Sc2  1  0.811206  0.187112  0.814570  1
  Sc  Sc3  1  0.187112  0.812143  0.188602  1
  Sc  Sc4  1  0.187112  0.811206  0.814570  1
  Sc  Sc5  1  0.812143  0.187112  0.188602  1
  Sc  Sc6  1  0.437857  0.437857  0.061398  1
  Sc  Sc7  1  0.062888  0.062888  0.435430  1
  Sc  Sc8  1  0.438794  0.062888  0.435430  1
  Sc  Sc9  1  0.062888  0.437857  0.061398  1
  Sc  Sc10  1  0.062888  0.438794  0.435430  1
  Sc  Sc11  1  0.437857  0.062888  0.061398  1
  Al  Al12  1  0.625000  0.625000  0.125000  1
  Al  Al13  1  0.741466  0.413567  0.431402  1
  Al  Al14  1  0.413567  0.741466  0.431402  1
  Al  Al15  1  0.417542  0.417542  0.747374  1
  Al  Al16  1  0.413567  0.413567  0.431402  1
  Al  Al17  1  0.508534  0.836433  0.818598  1
  Al  Al18  1  0.836433  0.508534  0.818598  1
  Al  Al19  1  0.832458  0.832458  0.502626  1
  Al  Al20  1  0.836433  0.836433  0.818598  1
  Rh  Rh21  1  0.125000  0.625000  0.625000  1
  Rh  Rh22  1  0.625000  0.125000  0.625000  1
  Rh  Rh23  1  0.625000  0.625000  0.625000  1
  O  O24  1  0.625000  0.125000  0.125000  1
  O  O25  1  0.125000  0.625000  0.125000  1
  O  O26  1  0.125000  0.125000  0.625000  1
  O  O27  1  0.125000  0.125000  0.125000  1
