# generated using pymatgen
data_Tb6Tm10CdAg2HgPt4
_symmetry_space_group_name_H-M   'P 1'
_cell_length_a   9.55069776
_cell_length_b   9.55069819
_cell_length_c   9.54174600
_cell_angle_alpha   60.03100882
_cell_angle_beta   60.03100735
_cell_angle_gamma   59.97830920
_symmetry_Int_Tables_number   1
_chemical_formula_structural   Tb6Tm10CdAg2HgPt4
_chemical_formula_sum   'Tb6 Tm10 Cd1 Ag2 Hg1 Pt4'
_cell_volume   615.62345172
_cell_formula_units_Z   1
loop_
 _symmetry_equiv_pos_site_id
 _symmetry_equiv_pos_as_xyz
  1  'x, y, z'
loop_
 _atom_site_type_symbol
 _atom_site_label
 _atom_site_symmetry_multiplicity
 _atom_site_fract_x
 _atom_site_fract_y
 _atom_site_fract_z
 _atom_site_occupancy
  Tb  Tb0  1  0.933796  0.563315  0.564207  1
  Tb  Tb1  1  0.561616  0.935440  0.938605  1
  Tb  Tb2  1  0.561616  0.935440  0.564339  1
  Tb  Tb3  1  0.933796  0.563315  0.938682  1
  Tb  Tb4  1  0.562094  0.563154  0.937376  1
  Tb  Tb5  1  0.935580  0.937895  0.563263  1
  Tm  Tm6  1  0.353313  0.352840  0.352662  1
  Tm  Tm7  1  0.353313  0.352840  0.941184  1
  Tm  Tm8  1  0.355718  0.938190  0.353046  1
  Tm  Tm9  1  0.934681  0.356223  0.354548  1
  Tm  Tm10  1  0.811335  0.188694  0.190453  1
  Tm  Tm11  1  0.188984  0.811606  0.810240  1
  Tm  Tm12  1  0.188984  0.811606  0.189169  1
  Tm  Tm13  1  0.811335  0.188694  0.809517  1
  Tm  Tm14  1  0.189913  0.189283  0.810402  1
  Tm  Tm15  1  0.812183  0.811261  0.188278  1
  Cd  Cd16  1  0.259428  0.581567  0.579503  1
  Ag  Ag17  1  0.583188  0.584685  0.582125  1
  Ag  Ag18  1  0.583188  0.584685  0.250001  1
  Hg  Hg19  1  0.585322  0.249028  0.582826  1
  Pt  Pt20  1  0.143776  0.143765  0.144546  1
  Pt  Pt21  1  0.143776  0.143765  0.567915  1
  Pt  Pt22  1  0.142773  0.569568  0.143830  1
  Pt  Pt23  1  0.570295  0.143143  0.143281  1
