# generated using pymatgen
data_Y16Er4(Ir3Rh)3
_symmetry_space_group_name_H-M   'P 1'
_cell_length_a   10.91031900
_cell_length_b   10.91031900
_cell_length_c   6.38374600
_cell_angle_alpha   90.00000000
_cell_angle_beta   90.00000000
_cell_angle_gamma   90.00000000
_symmetry_Int_Tables_number   1
_chemical_formula_structural   Y16Er4(Ir3Rh)3
_chemical_formula_sum   'Y16 Er4 Ir9 Rh3'
_cell_volume   759.88959249
_cell_formula_units_Z   1
loop_
 _symmetry_equiv_pos_site_id
 _symmetry_equiv_pos_as_xyz
  1  'x, y, z'
loop_
 _atom_site_type_symbol
 _atom_site_label
 _atom_site_symmetry_multiplicity
 _atom_site_fract_x
 _atom_site_fract_y
 _atom_site_fract_z
 _atom_site_occupancy
  Y  Y0  1  0.289738  0.088253  0.377517  1
  Y  Y1  1  0.289685  0.911722  0.877336  1
  Y  Y2  1  0.710315  0.088278  0.877336  1
  Y  Y3  1  0.710262  0.911747  0.377517  1
  Y  Y4  1  0.588278  0.789685  0.877336  1
  Y  Y5  1  0.588253  0.210262  0.377517  1
  Y  Y6  1  0.411747  0.789738  0.377517  1
  Y  Y7  1  0.411722  0.210315  0.877336  1
  Y  Y8  1  0.209607  0.411939  0.621285  1
  Y  Y9  1  0.209822  0.588187  0.123674  1
  Y  Y10  1  0.790178  0.411813  0.123674  1
  Y  Y11  1  0.790393  0.588061  0.621285  1
  Y  Y12  1  0.911813  0.709822  0.123674  1
  Y  Y13  1  0.911939  0.290393  0.621285  1
  Y  Y14  1  0.088061  0.709607  0.621285  1
  Y  Y15  1  0.088187  0.290178  0.123674  1
  Er  Er16  1  0.000000  0.000000  0.499869  1
  Er  Er17  1  0.000000  0.000000  0.999677  1
  Er  Er18  1  0.500000  0.500000  0.999677  1
  Er  Er19  1  0.500000  0.500000  0.499869  1
  Ir  Ir20  1  0.847353  0.151601  0.249430  1
  Ir  Ir21  1  0.847401  0.848126  0.749841  1
  Ir  Ir22  1  0.152599  0.151874  0.749841  1
  Ir  Ir23  1  0.152647  0.848399  0.249430  1
  Ir  Ir24  1  0.651874  0.347401  0.749841  1
  Ir  Ir25  1  0.651601  0.652647  0.249430  1
  Ir  Ir26  1  0.348399  0.347353  0.249430  1
  Ir  Ir27  1  0.348126  0.652599  0.749841  1
  Ir  Ir28  1  0.000000  0.500000  0.377387  1
  Rh  Rh29  1  0.500000  0.000000  0.124845  1
  Rh  Rh30  1  0.500000  0.000000  0.624575  1
  Rh  Rh31  1  0.000000  0.500000  0.877770  1
