# generated using pymatgen
data_Zr3Ga3CuNiRu
_symmetry_space_group_name_H-M   'P 1'
_cell_length_a   7.16033200
_cell_length_b   7.16033128
_cell_length_c   3.37700000
_cell_angle_alpha   90.00000000
_cell_angle_beta   90.00000000
_cell_angle_gamma   120.00001258
_symmetry_Int_Tables_number   1
_chemical_formula_structural   Zr3Ga3CuNiRu
_chemical_formula_sum   'Zr3 Ga3 Cu1 Ni1 Ru1'
_cell_volume   149.94359271
_cell_formula_units_Z   1
loop_
 _symmetry_equiv_pos_site_id
 _symmetry_equiv_pos_as_xyz
  1  'x, y, z'
loop_
 _atom_site_type_symbol
 _atom_site_label
 _atom_site_symmetry_multiplicity
 _atom_site_fract_x
 _atom_site_fract_y
 _atom_site_fract_z
 _atom_site_occupancy
  Zr  Zr0  1  0.388999  0.990534  0.500000  1
  Zr  Zr1  1  0.009466  0.398466  0.500000  1
  Zr  Zr2  1  0.601534  0.611001  0.500000  1
  Ga  Ga3  1  0.742170  0.006991  0.000000  1
  Ga  Ga4  1  0.993009  0.735178  0.000000  1
  Ga  Ga5  1  0.264822  0.257830  0.000000  1
  Cu  Cu6  1  0.666667  0.333333  0.000000  1
  Ni  Ni7  1  0.000000  0.000000  0.500000  1
  Ru  Ru8  1  0.333333  0.666667  0.000000  1
