# generated using pymatgen
data_Tb3CeZrIr3
_symmetry_space_group_name_H-M   'P 1'
_cell_length_a   10.91872500
_cell_length_b   10.99175700
_cell_length_c   6.24972200
_cell_angle_alpha   90.00000000
_cell_angle_beta   90.00000000
_cell_angle_gamma   90.00000000
_symmetry_Int_Tables_number   1
_chemical_formula_structural   Tb3CeZrIr3
_chemical_formula_sum   'Tb12 Ce4 Zr4 Ir12'
_cell_volume   750.06646025
_cell_formula_units_Z   4
loop_
 _symmetry_equiv_pos_site_id
 _symmetry_equiv_pos_as_xyz
  1  'x, y, z'
loop_
 _atom_site_type_symbol
 _atom_site_label
 _atom_site_symmetry_multiplicity
 _atom_site_fract_x
 _atom_site_fract_y
 _atom_site_fract_z
 _atom_site_occupancy
  Tb  Tb0  1  0.587049  0.784319  0.874563  1
  Tb  Tb1  1  0.587049  0.215681  0.374563  1
  Tb  Tb2  1  0.412951  0.784319  0.374563  1
  Tb  Tb3  1  0.412951  0.215681  0.874563  1
  Tb  Tb4  1  0.209363  0.413927  0.625980  1
  Tb  Tb5  1  0.209363  0.586073  0.125980  1
  Tb  Tb6  1  0.790637  0.413927  0.125980  1
  Tb  Tb7  1  0.790637  0.586073  0.625980  1
  Tb  Tb8  1  0.913460  0.711028  0.123853  1
  Tb  Tb9  1  0.913460  0.288972  0.623853  1
  Tb  Tb10  1  0.086540  0.711028  0.623853  1
  Tb  Tb11  1  0.086540  0.288972  0.123853  1
  Ce  Ce12  1  0.292006  0.088716  0.375884  1
  Ce  Ce13  1  0.292006  0.911284  0.875884  1
  Ce  Ce14  1  0.707994  0.088716  0.875884  1
  Ce  Ce15  1  0.707994  0.911284  0.375884  1
  Zr  Zr16  1  0.000000  0.000000  0.498100  1
  Zr  Zr17  1  0.000000  0.000000  0.998100  1
  Zr  Zr18  1  0.500000  0.500000  0.005270  1
  Zr  Zr19  1  0.500000  0.500000  0.505270  1
  Ir  Ir20  1  0.852518  0.142474  0.244396  1
  Ir  Ir21  1  0.852518  0.857526  0.744396  1
  Ir  Ir22  1  0.147482  0.142474  0.744396  1
  Ir  Ir23  1  0.147482  0.857526  0.244396  1
  Ir  Ir24  1  0.644299  0.355513  0.754292  1
  Ir  Ir25  1  0.644299  0.644487  0.254292  1
  Ir  Ir26  1  0.355701  0.355513  0.254292  1
  Ir  Ir27  1  0.355701  0.644487  0.754292  1
  Ir  Ir28  1  0.500000  0.000000  0.116016  1
  Ir  Ir29  1  0.500000  0.000000  0.616016  1
  Ir  Ir30  1  0.000000  0.500000  0.882679  1
  Ir  Ir31  1  0.000000  0.500000  0.382679  1
