# generated using pymatgen
data_CsNb(WS3)2
_symmetry_space_group_name_H-M   'P 1'
_cell_length_a   5.64152500
_cell_length_b   5.64152615
_cell_length_c   18.06808000
_cell_angle_alpha   90.00000000
_cell_angle_beta   90.00000000
_cell_angle_gamma   119.99999915
_symmetry_Int_Tables_number   1
_chemical_formula_structural   CsNb(WS3)2
_chemical_formula_sum   'Cs2 Nb2 W4 S12'
_cell_volume   498.00736146
_cell_formula_units_Z   2
loop_
 _symmetry_equiv_pos_site_id
 _symmetry_equiv_pos_as_xyz
  1  'x, y, z'
loop_
 _atom_site_type_symbol
 _atom_site_label
 _atom_site_symmetry_multiplicity
 _atom_site_fract_x
 _atom_site_fract_y
 _atom_site_fract_z
 _atom_site_occupancy
  Cs  Cs0  1  0.000000  0.000000  0.500000  1
  Cs  Cs1  1  0.000000  0.000000  0.000000  1
  Nb  Nb2  1  0.666667  0.333333  0.250000  1
  Nb  Nb3  1  0.333333  0.666667  0.750000  1
  W  W4  1  0.000000  0.000000  0.250000  1
  W  W5  1  0.000000  0.000000  0.750000  1
  W  W6  1  0.333333  0.666667  0.250000  1
  W  W7  1  0.666667  0.333333  0.750000  1
  S  S8  1  0.327638  0.992677  0.163406  1
  S  S9  1  0.007323  0.334960  0.163406  1
  S  S10  1  0.665040  0.672362  0.163406  1
  S  S11  1  0.334960  0.327638  0.663406  1
  S  S12  1  0.665040  0.672362  0.336594  1
  S  S13  1  0.672362  0.007323  0.663406  1
  S  S14  1  0.992677  0.665040  0.663406  1
  S  S15  1  0.992677  0.665040  0.836594  1
  S  S16  1  0.334960  0.327638  0.836594  1
  S  S17  1  0.007323  0.334960  0.336594  1
  S  S18  1  0.327638  0.992677  0.336594  1
  S  S19  1  0.672362  0.007323  0.836594  1
