# generated using pymatgen
data_TmLu2Al12Ru3Rh
_symmetry_space_group_name_H-M   'P 1'
_cell_length_a   8.74847603
_cell_length_b   8.74593624
_cell_length_c   9.54227500
_cell_angle_alpha   90.00000000
_cell_angle_beta   90.00000000
_cell_angle_gamma   119.81222788
_symmetry_Int_Tables_number   1
_chemical_formula_structural   TmLu2Al12Ru3Rh
_chemical_formula_sum   'Tm2 Lu4 Al24 Ru6 Rh2'
_cell_volume   633.49020315
_cell_formula_units_Z   2
loop_
 _symmetry_equiv_pos_site_id
 _symmetry_equiv_pos_as_xyz
  1  'x, y, z'
loop_
 _atom_site_type_symbol
 _atom_site_label
 _atom_site_symmetry_multiplicity
 _atom_site_fract_x
 _atom_site_fract_y
 _atom_site_fract_z
 _atom_site_occupancy
  Tm  Tm0  1  0.810221  0.613057  0.750000  1
  Tm  Tm1  1  0.189779  0.386943  0.250000  1
  Lu  Lu2  1  0.804746  0.195279  0.750000  1
  Lu  Lu3  1  0.195254  0.804721  0.250000  1
  Lu  Lu4  1  0.387655  0.189980  0.750000  1
  Lu  Lu5  1  0.612345  0.810020  0.250000  1
  Al  Al6  1  0.667135  0.332618  0.978210  1
  Al  Al7  1  0.332865  0.667382  0.021790  1
  Al  Al8  1  0.332865  0.667382  0.478210  1
  Al  Al9  1  0.667135  0.332618  0.521790  1
  Al  Al10  1  0.836837  0.162997  0.421943  1
  Al  Al11  1  0.163163  0.837003  0.578057  1
  Al  Al12  1  0.324885  0.161503  0.421335  1
  Al  Al13  1  0.163163  0.837003  0.921943  1
  Al  Al14  1  0.675115  0.838497  0.578665  1
  Al  Al15  1  0.836837  0.162997  0.078057  1
  Al  Al16  1  0.838467  0.675171  0.421207  1
  Al  Al17  1  0.675115  0.838497  0.921335  1
  Al  Al18  1  0.161533  0.324829  0.578793  1
  Al  Al19  1  0.324885  0.161503  0.078665  1
  Al  Al20  1  0.161533  0.324829  0.921207  1
  Al  Al21  1  0.838467  0.675171  0.078793  1
  Al  Al22  1  0.438904  0.560852  0.750000  1
  Al  Al23  1  0.561096  0.439148  0.250000  1
  Al  Al24  1  0.123626  0.560796  0.750000  1
  Al  Al25  1  0.876374  0.439204  0.250000  1
  Al  Al26  1  0.439149  0.876579  0.750000  1
  Al  Al27  1  0.560851  0.123421  0.250000  1
  Al  Al28  1  0.000593  0.999922  0.750000  1
  Al  Al29  1  0.999407  0.000078  0.250000  1
  Ru  Ru30  1  0.000000  0.500000  0.000000  1
  Ru  Ru31  1  0.500000  0.000000  0.000000  1
  Ru  Ru32  1  0.000000  0.500000  0.500000  1
  Ru  Ru33  1  0.500000  0.000000  0.500000  1
  Ru  Ru34  1  0.000000  0.000000  0.000000  1
  Ru  Ru35  1  0.000000  0.000000  0.500000  1
  Rh  Rh36  1  0.500000  0.500000  0.000000  1
  Rh  Rh37  1  0.500000  0.500000  0.500000  1
