# generated using pymatgen
data_Ho4ZnMoRu6
_symmetry_space_group_name_H-M   'P 1'
_cell_length_a   5.49561279
_cell_length_b   5.22975572
_cell_length_c   8.92797000
_cell_angle_alpha   90.00000000
_cell_angle_beta   90.00000000
_cell_angle_gamma   121.93974547
_symmetry_Int_Tables_number   1
_chemical_formula_structural   Ho4ZnMoRu6
_chemical_formula_sum   'Ho4 Zn1 Mo1 Ru6'
_cell_volume   217.74881115
_cell_formula_units_Z   1
loop_
 _symmetry_equiv_pos_site_id
 _symmetry_equiv_pos_as_xyz
  1  'x, y, z'
loop_
 _atom_site_type_symbol
 _atom_site_label
 _atom_site_symmetry_multiplicity
 _atom_site_fract_x
 _atom_site_fract_y
 _atom_site_fract_z
 _atom_site_occupancy
  Ho  Ho0  1  0.674196  0.348743  0.563941  1
  Ho  Ho1  1  0.333207  0.665174  0.433605  1
  Ho  Ho2  1  0.333207  0.665174  0.066395  1
  Ho  Ho3  1  0.674196  0.348743  0.936059  1
  Zn  Zn4  1  0.833420  0.665493  0.250000  1
  Mo  Mo5  1  0.153338  0.307043  0.750000  1
  Ru  Ru6  1  0.011175  0.023097  0.498390  1
  Ru  Ru7  1  0.011175  0.023097  0.001610  1
  Ru  Ru8  1  0.175911  0.818115  0.750000  1
  Ru  Ru9  1  0.641363  0.815978  0.750000  1
  Ru  Ru10  1  0.814796  0.158805  0.250000  1
  Ru  Ru11  1  0.344014  0.160538  0.250000  1
