# generated using pymatgen
data_Na2Np2O7
_symmetry_space_group_name_H-M   'P 1'
_cell_length_a   7.59126556
_cell_length_b   7.59126459
_cell_length_c   6.86912900
_cell_angle_alpha   72.47104654
_cell_angle_beta   72.47104884
_cell_angle_gamma   62.10208998
_symmetry_Int_Tables_number   1
_chemical_formula_structural   Na2Np2O7
_chemical_formula_sum   'Na4 Np4 O14'
_cell_volume   327.51210517
_cell_formula_units_Z   2
loop_
 _symmetry_equiv_pos_site_id
 _symmetry_equiv_pos_as_xyz
  1  'x, y, z'
loop_
 _atom_site_type_symbol
 _atom_site_label
 _atom_site_symmetry_multiplicity
 _atom_site_fract_x
 _atom_site_fract_y
 _atom_site_fract_z
 _atom_site_occupancy
  Na  Na0  1  0.000000  0.000000  0.000000  1
  Na  Na1  1  0.500000  0.500000  0.000000  1
  Na  Na2  1  0.746653  0.253347  0.500000  1
  Na  Na3  1  0.253347  0.746653  0.500000  1
  Np  Np4  1  0.000000  0.500000  0.000000  1
  Np  Np5  1  0.500000  0.000000  0.000000  1
  Np  Np6  1  0.243351  0.243351  0.536742  1
  Np  Np7  1  0.756649  0.756649  0.463258  1
  O  O8  1  0.224619  0.224619  0.895802  1
  O  O9  1  0.775381  0.775381  0.104198  1
  O  O10  1  0.960280  0.557013  0.681416  1
  O  O11  1  0.557013  0.960280  0.681416  1
  O  O12  1  0.039720  0.442987  0.318584  1
  O  O13  1  0.442987  0.039720  0.318584  1
  O  O14  1  0.180748  0.625759  0.900025  1
  O  O15  1  0.625759  0.180748  0.900025  1
  O  O16  1  0.819252  0.374241  0.099975  1
  O  O17  1  0.374241  0.819252  0.099975  1
  O  O18  1  0.909272  0.909272  0.366492  1
  O  O19  1  0.090728  0.090728  0.633508  1
  O  O20  1  0.395132  0.395132  0.440165  1
  O  O21  1  0.604868  0.604868  0.559835  1
