# generated using pymatgen
data_Ho4Er8CdCo5
_symmetry_space_group_name_H-M   'P 1'
_cell_length_a   8.19674871
_cell_length_b   8.19674876
_cell_length_c   8.19674827
_cell_angle_alpha   110.81805777
_cell_angle_beta   110.47374231
_cell_angle_gamma   107.14676562
_symmetry_Int_Tables_number   1
_chemical_formula_structural   Ho4Er8CdCo5
_chemical_formula_sum   'Ho4 Er8 Cd1 Co5'
_cell_volume   423.41393380
_cell_formula_units_Z   1
loop_
 _symmetry_equiv_pos_site_id
 _symmetry_equiv_pos_as_xyz
  1  'x, y, z'
loop_
 _atom_site_type_symbol
 _atom_site_label
 _atom_site_symmetry_multiplicity
 _atom_site_fract_x
 _atom_site_fract_y
 _atom_site_fract_z
 _atom_site_occupancy
  Ho  Ho0  1  0.288762  0.185143  0.473904  1
  Ho  Ho1  1  0.711238  0.814857  0.526096  1
  Ho  Ho2  1  0.288762  0.814857  0.103619  1
  Ho  Ho3  1  0.711238  0.185143  0.896381  1
  Er  Er4  1  0.619882  0.314169  0.305713  1
  Er  Er5  1  0.380118  0.685831  0.694287  1
  Er  Er6  1  0.008457  0.314169  0.694287  1
  Er  Er7  1  0.991543  0.685831  0.305713  1
  Er  Er8  1  0.210584  0.402759  0.192174  1
  Er  Er9  1  0.789416  0.597241  0.807826  1
  Er  Er10  1  0.210584  0.018409  0.807826  1
  Er  Er11  1  0.789416  0.981591  0.192174  1
  Cd  Cd12  1  0.500000  0.500000  0.000000  1
  Co  Co13  1  0.000000  0.376836  0.376836  1
  Co  Co14  1  0.000000  0.623164  0.623164  1
  Co  Co15  1  0.386931  0.886931  0.500000  1
  Co  Co16  1  0.613069  0.113069  0.500000  1
  Co  Co17  1  0.000000  0.000000  0.000000  1
