# generated using pymatgen
data_HoEr6Sn23Rh6
_symmetry_space_group_name_H-M   'P 1'
_cell_length_a   9.83706500
_cell_length_b   9.83706422
_cell_length_c   10.08977800
_cell_angle_alpha   90.00000000
_cell_angle_beta   90.00000000
_cell_angle_gamma   120.00000598
_symmetry_Int_Tables_number   1
_chemical_formula_structural   HoEr6Sn23Rh6
_chemical_formula_sum   'Ho1 Er6 Sn23 Rh6'
_cell_volume   845.55772973
_cell_formula_units_Z   1
loop_
 _symmetry_equiv_pos_site_id
 _symmetry_equiv_pos_as_xyz
  1  'x, y, z'
loop_
 _atom_site_type_symbol
 _atom_site_label
 _atom_site_symmetry_multiplicity
 _atom_site_fract_x
 _atom_site_fract_y
 _atom_site_fract_z
 _atom_site_occupancy
  Ho  Ho0  1  0.000000  0.000000  0.000000  1
  Er  Er1  1  0.480062  0.519938  0.307506  1
  Er  Er2  1  0.519938  0.480062  0.692494  1
  Er  Er3  1  0.480062  0.960127  0.307506  1
  Er  Er4  1  0.519938  0.039873  0.692494  1
  Er  Er5  1  0.039873  0.519938  0.307506  1
  Er  Er6  1  0.960127  0.480062  0.692494  1
  Sn  Sn7  1  0.120215  0.879785  0.281790  1
  Sn  Sn8  1  0.879785  0.120215  0.718210  1
  Sn  Sn9  1  0.120215  0.240429  0.281790  1
  Sn  Sn10  1  0.879785  0.759571  0.718210  1
  Sn  Sn11  1  0.759571  0.879785  0.281790  1
  Sn  Sn12  1  0.240429  0.120215  0.718210  1
  Sn  Sn13  1  0.777441  0.222559  0.456106  1
  Sn  Sn14  1  0.222559  0.777441  0.543894  1
  Sn  Sn15  1  0.777441  0.554880  0.456106  1
  Sn  Sn16  1  0.222559  0.445120  0.543894  1
  Sn  Sn17  1  0.445120  0.222559  0.456106  1
  Sn  Sn18  1  0.554880  0.777441  0.543894  1
  Sn  Sn19  1  0.351111  0.000000  0.000000  1
  Sn  Sn20  1  0.648889  0.000000  0.000000  1
  Sn  Sn21  1  0.000000  0.351111  0.000000  1
  Sn  Sn22  1  0.000000  0.648889  0.000000  1
  Sn  Sn23  1  0.648889  0.648889  0.000000  1
  Sn  Sn24  1  0.351111  0.351111  0.000000  1
  Sn  Sn25  1  0.333333  0.666667  0.124235  1
  Sn  Sn26  1  0.666667  0.333333  0.875765  1
  Sn  Sn27  1  0.333333  0.666667  0.821068  1
  Sn  Sn28  1  0.666667  0.333333  0.178932  1
  Sn  Sn29  1  0.000000  0.000000  0.500000  1
  Rh  Rh30  1  0.831238  0.168762  0.198593  1
  Rh  Rh31  1  0.168762  0.831238  0.801407  1
  Rh  Rh32  1  0.831238  0.662477  0.198593  1
  Rh  Rh33  1  0.168762  0.337523  0.801407  1
  Rh  Rh34  1  0.337523  0.168762  0.198593  1
  Rh  Rh35  1  0.662477  0.831238  0.801407  1
