# generated using pymatgen
data_DyTh(BRu)4
_symmetry_space_group_name_H-M   'P 1'
_cell_length_a   6.72534394
_cell_length_b   5.98030737
_cell_length_c   5.56823653
_cell_angle_alpha   71.13060739
_cell_angle_beta   57.29157351
_cell_angle_gamma   51.57781526
_symmetry_Int_Tables_number   1
_chemical_formula_structural   DyTh(BRu)4
_chemical_formula_sum   'Dy1 Th1 B4 Ru4'
_cell_volume   147.60817935
_cell_formula_units_Z   1
loop_
 _symmetry_equiv_pos_site_id
 _symmetry_equiv_pos_as_xyz
  1  'x, y, z'
loop_
 _atom_site_type_symbol
 _atom_site_label
 _atom_site_symmetry_multiplicity
 _atom_site_fract_x
 _atom_site_fract_y
 _atom_site_fract_z
 _atom_site_occupancy
  Dy  Dy0  1  0.000000  0.000000  0.000000  1
  Th  Th1  1  0.250000  0.250000  0.250000  1
  B  B2  1  0.311709  0.688291  0.311709  1
  B  B3  1  0.688291  0.311709  0.688291  1
  B  B4  1  0.568264  0.931736  0.568264  1
  B  B5  1  0.931736  0.568264  0.931736  1
  Ru  Ru6  1  0.636881  0.636881  0.363119  1
  Ru  Ru7  1  0.363119  0.363119  0.636881  1
  Ru  Ru8  1  0.611935  0.611935  0.888065  1
  Ru  Ru9  1  0.888065  0.888065  0.611935  1
