# generated using pymatgen
data_Li4Tb3LuAu4
_symmetry_space_group_name_H-M   'P 1'
_cell_length_a   4.13271200
_cell_length_b   7.19246852
_cell_length_c   8.57814300
_cell_angle_alpha   89.67107078
_cell_angle_beta   90.00000000
_cell_angle_gamma   90.00000000
_symmetry_Int_Tables_number   1
_chemical_formula_structural   Li4Tb3LuAu4
_chemical_formula_sum   'Li4 Tb3 Lu1 Au4'
_cell_volume   254.97596039
_cell_formula_units_Z   1
loop_
 _symmetry_equiv_pos_site_id
 _symmetry_equiv_pos_as_xyz
  1  'x, y, z'
loop_
 _atom_site_type_symbol
 _atom_site_label
 _atom_site_symmetry_multiplicity
 _atom_site_fract_x
 _atom_site_fract_y
 _atom_site_fract_z
 _atom_site_occupancy
  Li  Li0  1  0.250000  0.632121  0.558796  1
  Li  Li1  1  0.750000  0.368486  0.438727  1
  Li  Li2  1  0.750000  0.871457  0.061270  1
  Li  Li3  1  0.250000  0.128401  0.941604  1
  Tb  Tb4  1  0.250000  0.541806  0.184926  1
  Tb  Tb5  1  0.750000  0.454704  0.817448  1
  Tb  Tb6  1  0.750000  0.957855  0.680662  1
  Lu  Lu7  1  0.250000  0.044749  0.318582  1
  Au  Au8  1  0.250000  0.748597  0.879843  1
  Au  Au9  1  0.750000  0.245590  0.125229  1
  Au  Au10  1  0.750000  0.756405  0.376278  1
  Au  Au11  1  0.250000  0.249831  0.616635  1
