# generated using pymatgen
data_Hf13Zr3(Si4Mo)4
_symmetry_space_group_name_H-M   'P 1'
_cell_length_a   6.96431153
_cell_length_b   6.96402402
_cell_length_c   12.72876595
_cell_angle_alpha   89.99780062
_cell_angle_beta   89.95575448
_cell_angle_gamma   90.00725599
_symmetry_Int_Tables_number   1
_chemical_formula_structural   Hf13Zr3(Si4Mo)4
_chemical_formula_sum   'Hf13 Zr3 Si16 Mo4'
_cell_volume   617.34028472
_cell_formula_units_Z   1
loop_
 _symmetry_equiv_pos_site_id
 _symmetry_equiv_pos_as_xyz
  1  'x, y, z'
loop_
 _atom_site_type_symbol
 _atom_site_label
 _atom_site_symmetry_multiplicity
 _atom_site_fract_x
 _atom_site_fract_y
 _atom_site_fract_z
 _atom_site_occupancy
  Hf  Hf0  1  0.345157  0.996301  0.780642  1
  Hf  Hf1  1  0.846421  0.503799  0.969326  1
  Hf  Hf2  1  0.154047  0.496621  0.469346  1
  Hf  Hf3  1  0.004004  0.654311  0.719498  1
  Hf  Hf4  1  0.996547  0.346119  0.219394  1
  Hf  Hf5  1  0.497587  0.356038  0.124347  1
  Hf  Hf6  1  0.501845  0.644346  0.624818  1
  Hf  Hf7  1  0.856394  0.002403  0.874416  1
  Hf  Hf8  1  0.144159  0.997550  0.374513  1
  Hf  Hf9  1  0.644268  0.502779  0.375350  1
  Hf  Hf10  1  0.355610  0.497781  0.875285  1
  Hf  Hf11  1  0.002877  0.855631  0.125199  1
  Hf  Hf12  1  0.997437  0.144094  0.625582  1
  Zr  Zr13  1  0.495249  0.154120  0.530951  1
  Zr  Zr14  1  0.504139  0.845447  0.030561  1
  Zr  Zr15  1  0.654452  0.004430  0.280632  1
  Si  Si16  1  0.797397  0.146835  0.071530  1
  Si  Si17  1  0.202892  0.853440  0.571700  1
  Si  Si18  1  0.646508  0.703076  0.821474  1
  Si  Si19  1  0.353257  0.297339  0.321445  1
  Si  Si20  1  0.855490  0.204526  0.428401  1
  Si  Si21  1  0.145223  0.796066  0.927969  1
  Si  Si22  1  0.704653  0.644418  0.178343  1
  Si  Si23  1  0.295815  0.354651  0.678618  1
  Si  Si24  1  0.547294  0.198684  0.932646  1
  Si  Si25  1  0.451906  0.800554  0.433216  1
  Si  Si26  1  0.698427  0.952135  0.683351  1
  Si  Si27  1  0.300512  0.048250  0.183175  1
  Si  Si28  1  0.802658  0.453497  0.567057  1
  Si  Si29  1  0.197409  0.546622  0.066954  1
  Si  Si30  1  0.953283  0.697288  0.317001  1
  Si  Si31  1  0.047028  0.302287  0.816919  1
  Mo  Mo32  1  0.672765  0.327968  0.750239  1
  Mo  Mo33  1  0.326663  0.671111  0.250200  1
  Mo  Mo34  1  0.828950  0.826727  0.500341  1
  Mo  Mo35  1  0.171677  0.172756  0.999561  1
