# generated using pymatgen
data_Li21NiRh4
_symmetry_space_group_name_H-M   'P 1'
_cell_length_a   8.07951121
_cell_length_b   8.33592795
_cell_length_c   8.07951165
_cell_angle_alpha   110.11539650
_cell_angle_beta   108.81943586
_cell_angle_gamma   110.11540085
_symmetry_Int_Tables_number   1
_chemical_formula_structural   Li21NiRh4
_chemical_formula_sum   'Li21 Ni1 Rh4'
_cell_volume   415.51591520
_cell_formula_units_Z   1
loop_
 _symmetry_equiv_pos_site_id
 _symmetry_equiv_pos_as_xyz
  1  'x, y, z'
loop_
 _atom_site_type_symbol
 _atom_site_label
 _atom_site_symmetry_multiplicity
 _atom_site_fract_x
 _atom_site_fract_y
 _atom_site_fract_z
 _atom_site_occupancy
  Li  Li0  1  0.803668  0.999950  0.000000  1
  Li  Li1  1  0.000000  0.999950  0.803668  1
  Li  Li2  1  0.196332  0.196282  0.196332  1
  Li  Li3  1  0.354798  0.597440  0.354798  1
  Li  Li4  1  0.245481  0.996581  0.645788  1
  Li  Li5  1  0.645788  0.996581  0.245481  1
  Li  Li6  1  0.221974  0.646821  0.000000  1
  Li  Li7  1  0.754519  0.751100  0.400307  1
  Li  Li8  1  0.400307  0.751100  0.754519  1
  Li  Li9  1  0.000000  0.646821  0.221974  1
  Li  Li10  1  0.000000  0.242642  0.645202  1
  Li  Li11  1  0.645202  0.242642  0.000000  1
  Li  Li12  1  0.354212  0.350793  0.599693  1
  Li  Li13  1  0.599693  0.350793  0.354212  1
  Li  Li14  1  0.778026  0.424847  0.778026  1
  Li  Li15  1  0.342316  0.343381  0.000000  1
  Li  Li16  1  0.000000  0.661664  0.662295  1
  Li  Li17  1  0.000000  0.343381  0.342316  1
  Li  Li18  1  0.337705  0.999369  0.337705  1
  Li  Li19  1  0.657684  0.001065  0.657684  1
  Li  Li20  1  0.662295  0.661664  0.000000  1
  Ni  Ni21  1  0.000000  0.823406  0.000000  1
  Rh  Rh22  1  0.000000  0.331881  0.000000  1
  Rh  Rh23  1  0.328141  0.989328  0.000000  1
  Rh  Rh24  1  0.000000  0.989328  0.328141  1
  Rh  Rh25  1  0.671859  0.661187  0.671859  1
