# generated using pymatgen
data_Ce2Al9MoPd2
_symmetry_space_group_name_H-M   'P 1'
_cell_length_a   7.66256071
_cell_length_b   7.66256086
_cell_length_c   9.55019200
_cell_angle_alpha   90.00000000
_cell_angle_beta   90.00000000
_cell_angle_gamma   117.55872111
_symmetry_Int_Tables_number   1
_chemical_formula_structural   Ce2Al9MoPd2
_chemical_formula_sum   'Ce4 Al18 Mo2 Pd4'
_cell_volume   497.11503590
_cell_formula_units_Z   2
loop_
 _symmetry_equiv_pos_site_id
 _symmetry_equiv_pos_as_xyz
  1  'x, y, z'
loop_
 _atom_site_type_symbol
 _atom_site_label
 _atom_site_symmetry_multiplicity
 _atom_site_fract_x
 _atom_site_fract_y
 _atom_site_fract_z
 _atom_site_occupancy
  Ce  Ce0  1  0.996553  0.693895  0.250000  1
  Ce  Ce1  1  0.003447  0.306105  0.750000  1
  Ce  Ce2  1  0.693895  0.996553  0.250000  1
  Ce  Ce3  1  0.306105  0.003447  0.750000  1
  Al  Al4  1  0.007196  0.344287  0.079671  1
  Al  Al5  1  0.992804  0.655713  0.920329  1
  Al  Al6  1  0.992804  0.655713  0.579671  1
  Al  Al7  1  0.344287  0.007196  0.420329  1
  Al  Al8  1  0.007196  0.344287  0.420329  1
  Al  Al9  1  0.655713  0.992804  0.579671  1
  Al  Al10  1  0.655713  0.992804  0.920329  1
  Al  Al11  1  0.344287  0.007196  0.079671  1
  Al  Al12  1  0.332901  0.332901  0.544183  1
  Al  Al13  1  0.667099  0.667099  0.455817  1
  Al  Al14  1  0.667099  0.667099  0.044183  1
  Al  Al15  1  0.332901  0.332901  0.955817  1
  Al  Al16  1  0.147675  0.147675  0.250000  1
  Al  Al17  1  0.852325  0.852325  0.750000  1
  Al  Al18  1  0.349658  0.559583  0.250000  1
  Al  Al19  1  0.650342  0.440417  0.750000  1
  Al  Al20  1  0.559583  0.349658  0.250000  1
  Al  Al21  1  0.440417  0.650342  0.750000  1
  Mo  Mo22  1  0.000000  0.000000  0.000000  1
  Mo  Mo23  1  0.000000  0.000000  0.500000  1
  Pd  Pd24  1  0.672232  0.327768  0.000000  1
  Pd  Pd25  1  0.327768  0.672232  0.000000  1
  Pd  Pd26  1  0.327768  0.672232  0.500000  1
  Pd  Pd27  1  0.672232  0.327768  0.500000  1
