# generated using pymatgen
data_MgZrPaNi2
_symmetry_space_group_name_H-M   'P 1'
_cell_length_a   7.38625700
_cell_length_b   7.21479000
_cell_length_c   3.40203100
_cell_angle_alpha   90.00000000
_cell_angle_beta   90.00000000
_cell_angle_gamma   90.00000000
_symmetry_Int_Tables_number   1
_chemical_formula_structural   MgZrPaNi2
_chemical_formula_sum   'Mg2 Zr2 Pa2 Ni4'
_cell_volume   181.29522926
_cell_formula_units_Z   2
loop_
 _symmetry_equiv_pos_site_id
 _symmetry_equiv_pos_as_xyz
  1  'x, y, z'
loop_
 _atom_site_type_symbol
 _atom_site_label
 _atom_site_symmetry_multiplicity
 _atom_site_fract_x
 _atom_site_fract_y
 _atom_site_fract_z
 _atom_site_occupancy
  Mg  Mg0  1  0.993708  0.985361  0.000000  1
  Mg  Mg1  1  0.493709  0.514640  0.000000  1
  Zr  Zr2  1  0.175515  0.674624  0.499999  1
  Zr  Zr3  1  0.675514  0.825375  0.499999  1
  Pa  Pa4  1  0.329922  0.162893  0.499999  1
  Pa  Pa5  1  0.829921  0.337108  0.499999  1
  Ni  Ni6  1  0.627616  0.138246  0.000000  1
  Ni  Ni7  1  0.127615  0.361753  0.000000  1
  Ni  Ni8  1  0.873240  0.617182  0.000000  1
  Ni  Ni9  1  0.373240  0.882818  0.000000  1
