# generated using pymatgen
data_LaCu5Au
_symmetry_space_group_name_H-M   'P 1'
_cell_length_a   5.12449800
_cell_length_b   8.29913800
_cell_length_c   10.41793200
_cell_angle_alpha   90.00000000
_cell_angle_beta   90.00000000
_cell_angle_gamma   90.00000000
_symmetry_Int_Tables_number   1
_chemical_formula_structural   LaCu5Au
_chemical_formula_sum   'La4 Cu20 Au4'
_cell_volume   443.06335578
_cell_formula_units_Z   4
loop_
 _symmetry_equiv_pos_site_id
 _symmetry_equiv_pos_as_xyz
  1  'x, y, z'
loop_
 _atom_site_type_symbol
 _atom_site_label
 _atom_site_symmetry_multiplicity
 _atom_site_fract_x
 _atom_site_fract_y
 _atom_site_fract_z
 _atom_site_occupancy
  La  La0  1  0.250000  0.259976  0.563625  1
  La  La1  1  0.750000  0.740024  0.436375  1
  La  La2  1  0.250000  0.759976  0.936375  1
  La  La3  1  0.750000  0.240024  0.063625  1
  Cu  Cu4  1  0.500156  0.565715  0.186808  1
  Cu  Cu5  1  0.000156  0.434285  0.813192  1
  Cu  Cu6  1  0.999844  0.065715  0.313192  1
  Cu  Cu7  1  0.499844  0.934285  0.686808  1
  Cu  Cu8  1  0.499844  0.434285  0.813192  1
  Cu  Cu9  1  0.999844  0.565715  0.186808  1
  Cu  Cu10  1  0.000156  0.934285  0.686808  1
  Cu  Cu11  1  0.500156  0.065715  0.313192  1
  Cu  Cu12  1  0.750000  0.944749  0.891873  1
  Cu  Cu13  1  0.250000  0.055251  0.108127  1
  Cu  Cu14  1  0.750000  0.444749  0.608127  1
  Cu  Cu15  1  0.250000  0.555251  0.391873  1
  Cu  Cu16  1  0.750000  0.684827  0.752883  1
  Cu  Cu17  1  0.250000  0.315173  0.247117  1
  Cu  Cu18  1  0.750000  0.184827  0.747117  1
  Cu  Cu19  1  0.250000  0.815173  0.252883  1
  Cu  Cu20  1  0.750000  0.589351  0.983682  1
  Cu  Cu21  1  0.250000  0.410649  0.016318  1
  Cu  Cu22  1  0.750000  0.089351  0.516318  1
  Cu  Cu23  1  0.250000  0.910649  0.483682  1
  Au  Au24  1  0.250000  0.141237  0.862219  1
  Au  Au25  1  0.750000  0.858763  0.137781  1
  Au  Au26  1  0.250000  0.641237  0.637781  1
  Au  Au27  1  0.750000  0.358763  0.362219  1
