# generated using pymatgen
data_Ho10In8CuPt3
_symmetry_space_group_name_H-M   'P 1'
_cell_length_a   3.62083600
_cell_length_b   8.11930805
_cell_length_c   18.18226811
_cell_angle_alpha   90.01255766
_cell_angle_beta   90.00000000
_cell_angle_gamma   90.00000000
_symmetry_Int_Tables_number   1
_chemical_formula_structural   Ho10In8CuPt3
_chemical_formula_sum   'Ho10 In8 Cu1 Pt3'
_cell_volume   534.53472131
_cell_formula_units_Z   1
loop_
 _symmetry_equiv_pos_site_id
 _symmetry_equiv_pos_as_xyz
  1  'x, y, z'
loop_
 _atom_site_type_symbol
 _atom_site_label
 _atom_site_symmetry_multiplicity
 _atom_site_fract_x
 _atom_site_fract_y
 _atom_site_fract_z
 _atom_site_occupancy
  Ho  Ho0  1  0.000000  0.118586  0.414789  1
  Ho  Ho1  1  0.000000  0.883182  0.584493  1
  Ho  Ho2  1  0.000000  0.383333  0.915465  1
  Ho  Ho3  1  0.000000  0.617373  0.084824  1
  Ho  Ho4  1  0.000000  0.246523  0.219849  1
  Ho  Ho5  1  0.000000  0.756673  0.780007  1
  Ho  Ho6  1  0.000000  0.256740  0.720297  1
  Ho  Ho7  1  0.000000  0.738301  0.279804  1
  Ho  Ho8  1  0.000000  0.998670  0.999952  1
  Ho  Ho9  1  0.000000  0.498593  0.499746  1
  In  In10  1  0.500000  0.421099  0.351912  1
  In  In11  1  0.500000  0.576698  0.648391  1
  In  In12  1  0.500000  0.076046  0.851551  1
  In  In13  1  0.500000  0.925446  0.150845  1
  In  In14  1  0.500000  0.291876  0.066755  1
  In  In15  1  0.500000  0.708001  0.933614  1
  In  In16  1  0.500000  0.208150  0.566291  1
  In  In17  1  0.500000  0.793887  0.431756  1
  Cu  Cu18  1  0.500000  0.025118  0.302377  1
  Pt  Pt19  1  0.500000  0.974558  0.696045  1
  Pt  Pt20  1  0.500000  0.474799  0.803825  1
  Pt  Pt21  1  0.500000  0.526348  0.197413  1
