# generated using pymatgen
data_Yb4Ir3PdO14
_symmetry_space_group_name_H-M   'P 1'
_cell_length_a   7.18424867
_cell_length_b   7.18424807
_cell_length_c   7.18424747
_cell_angle_alpha   60.59471229
_cell_angle_beta   60.59472491
_cell_angle_gamma   60.59470891
_symmetry_Int_Tables_number   1
_chemical_formula_structural   Yb4Ir3PdO14
_chemical_formula_sum   'Yb4 Ir3 Pd1 O14'
_cell_volume   265.71963359
_cell_formula_units_Z   1
loop_
 _symmetry_equiv_pos_site_id
 _symmetry_equiv_pos_as_xyz
  1  'x, y, z'
loop_
 _atom_site_type_symbol
 _atom_site_label
 _atom_site_symmetry_multiplicity
 _atom_site_fract_x
 _atom_site_fract_y
 _atom_site_fract_z
 _atom_site_occupancy
  Yb  Yb0  1  0.625000  0.125000  0.125000  1
  Yb  Yb1  1  0.125000  0.625000  0.125000  1
  Yb  Yb2  1  0.125000  0.125000  0.625000  1
  Yb  Yb3  1  0.125000  0.125000  0.125000  1
  Ir  Ir4  1  0.125000  0.625000  0.625000  1
  Ir  Ir5  1  0.625000  0.125000  0.625000  1
  Ir  Ir6  1  0.625000  0.625000  0.125000  1
  Pd  Pd7  1  0.625000  0.625000  0.625000  1
  O  O8  1  0.708800  0.708800  0.285719  1
  O  O9  1  0.300687  0.300687  0.707807  1
  O  O10  1  0.708800  0.285719  0.708800  1
  O  O11  1  0.300687  0.707807  0.300687  1
  O  O12  1  0.285719  0.708800  0.708800  1
  O  O13  1  0.707807  0.300687  0.300687  1
  O  O14  1  0.541200  0.541200  0.964281  1
  O  O15  1  0.949313  0.949313  0.542193  1
  O  O16  1  0.541200  0.964281  0.541200  1
  O  O17  1  0.949313  0.542193  0.949313  1
  O  O18  1  0.964281  0.541200  0.541200  1
  O  O19  1  0.542193  0.949313  0.949313  1
  O  O20  1  0.250233  0.250233  0.250233  1
  O  O21  1  0.999767  0.999767  0.999767  1
