# generated using pymatgen
data_Pr3NpBO9
_symmetry_space_group_name_H-M   'P 1'
_cell_length_a   8.98525700
_cell_length_b   8.98525997
_cell_length_c   5.76169800
_cell_angle_alpha   90.00000000
_cell_angle_beta   90.00000000
_cell_angle_gamma   120.00000503
_symmetry_Int_Tables_number   1
_chemical_formula_structural   Pr3NpBO9
_chemical_formula_sum   'Pr6 Np2 B2 O18'
_cell_volume   402.84896430
_cell_formula_units_Z   2
loop_
 _symmetry_equiv_pos_site_id
 _symmetry_equiv_pos_as_xyz
  1  'x, y, z'
loop_
 _atom_site_type_symbol
 _atom_site_label
 _atom_site_symmetry_multiplicity
 _atom_site_fract_x
 _atom_site_fract_y
 _atom_site_fract_z
 _atom_site_occupancy
  Pr  Pr0  1  0.350678  0.077695  0.198654  1
  Pr  Pr1  1  0.922306  0.272982  0.198654  1
  Pr  Pr2  1  0.727019  0.649323  0.198654  1
  Pr  Pr3  1  0.272982  0.350678  0.698653  1
  Pr  Pr4  1  0.077695  0.727019  0.698653  1
  Pr  Pr5  1  0.649323  0.922306  0.698653  1
  Np  Np6  1  0.333335  0.666667  0.244154  1
  Np  Np7  1  0.666665  0.333332  0.744155  1
  B  B8  1  0.000000  0.000000  0.370055  1
  B  B9  1  0.000000  0.000000  0.870054  1
  O  O10  1  0.208160  0.455464  0.035592  1
  O  O11  1  0.247301  0.791838  0.035592  1
  O  O12  1  0.544535  0.752699  0.035594  1
  O  O13  1  0.120578  0.173431  0.362269  1
  O  O14  1  0.052853  0.879423  0.362269  1
  O  O15  1  0.826569  0.947147  0.362269  1
  O  O16  1  0.125272  0.520081  0.468483  1
  O  O17  1  0.479918  0.605189  0.468483  1
  O  O18  1  0.394810  0.874728  0.468483  1
  O  O19  1  0.791838  0.544536  0.535591  1
  O  O20  1  0.752698  0.208163  0.535593  1
  O  O21  1  0.455464  0.247302  0.535593  1
  O  O22  1  0.173432  0.052854  0.862270  1
  O  O23  1  0.947146  0.120578  0.862270  1
  O  O24  1  0.879423  0.826568  0.862270  1
  O  O25  1  0.605190  0.125273  0.968482  1
  O  O26  1  0.520082  0.394810  0.968482  1
  O  O27  1  0.874728  0.479919  0.968483  1
