# generated using pymatgen
data_TbHo3Lu(In2Pt)2
_symmetry_space_group_name_H-M   'P 1'
_cell_length_a   3.60148300
_cell_length_b   8.15177100
_cell_length_c   18.19998621
_cell_angle_alpha   89.99332642
_cell_angle_beta   90.00000000
_cell_angle_gamma   90.00000000
_symmetry_Int_Tables_number   1
_chemical_formula_structural   TbHo3Lu(In2Pt)2
_chemical_formula_sum   'Tb2 Ho6 Lu2 In8 Pt4'
_cell_volume   534.32364886
_cell_formula_units_Z   2
loop_
 _symmetry_equiv_pos_site_id
 _symmetry_equiv_pos_as_xyz
  1  'x, y, z'
loop_
 _atom_site_type_symbol
 _atom_site_label
 _atom_site_symmetry_multiplicity
 _atom_site_fract_x
 _atom_site_fract_y
 _atom_site_fract_z
 _atom_site_occupancy
  Tb  Tb0  1  0.000000  0.000000  0.000000  1
  Tb  Tb1  1  0.000000  0.500000  0.500000  1
  Ho  Ho2  1  0.000000  0.382799  0.914758  1
  Ho  Ho3  1  0.000000  0.617201  0.085242  1
  Ho  Ho4  1  0.000000  0.242900  0.220234  1
  Ho  Ho5  1  0.000000  0.757100  0.779766  1
  Ho  Ho6  1  0.000000  0.256934  0.719900  1
  Ho  Ho7  1  0.000000  0.743066  0.280100  1
  Lu  Lu8  1  0.000000  0.116647  0.413863  1
  Lu  Lu9  1  0.000000  0.883353  0.586137  1
  In  In10  1  0.500000  0.421869  0.351114  1
  In  In11  1  0.500000  0.578131  0.648886  1
  In  In12  1  0.500000  0.076141  0.850462  1
  In  In13  1  0.500000  0.923859  0.149538  1
  In  In14  1  0.500000  0.292578  0.066773  1
  In  In15  1  0.500000  0.707422  0.933227  1
  In  In16  1  0.500000  0.205259  0.565945  1
  In  In17  1  0.500000  0.794741  0.434055  1
  Pt  Pt18  1  0.500000  0.025620  0.304746  1
  Pt  Pt19  1  0.500000  0.974380  0.695254  1
  Pt  Pt20  1  0.500000  0.475251  0.803182  1
  Pt  Pt21  1  0.500000  0.524749  0.196818  1
