# generated using pymatgen
data_CaYb6Lu(Si4Mo3)4
_symmetry_space_group_name_H-M   'P 1'
_cell_length_a   6.72770554
_cell_length_b   6.91567904
_cell_length_c   13.04407301
_cell_angle_alpha   89.90068509
_cell_angle_beta   90.03533409
_cell_angle_gamma   89.89443093
_symmetry_Int_Tables_number   1
_chemical_formula_structural   CaYb6Lu(Si4Mo3)4
_chemical_formula_sum   'Ca1 Yb6 Lu1 Si16 Mo12'
_cell_volume   606.89499019
_cell_formula_units_Z   1
loop_
 _symmetry_equiv_pos_site_id
 _symmetry_equiv_pos_as_xyz
  1  'x, y, z'
loop_
 _atom_site_type_symbol
 _atom_site_label
 _atom_site_symmetry_multiplicity
 _atom_site_fract_x
 _atom_site_fract_y
 _atom_site_fract_z
 _atom_site_occupancy
  Ca  Ca0  1  0.498477  0.333551  0.408867  1
  Yb  Yb1  1  0.498533  0.333942  0.090395  1
  Yb  Yb2  1  0.998512  0.166129  0.409135  1
  Yb  Yb3  1  0.501286  0.666819  0.591523  1
  Yb  Yb4  1  0.000810  0.830932  0.907928  1
  Yb  Yb5  1  0.500807  0.667506  0.908971  1
  Yb  Yb6  1  0.001310  0.832949  0.591053  1
  Lu  Lu7  1  0.998872  0.170634  0.094219  1
  Si  Si8  1  0.657903  0.042666  0.545761  1
  Si  Si9  1  0.158648  0.456701  0.955434  1
  Si  Si10  1  0.339363  0.958539  0.045352  1
  Si  Si11  1  0.842130  0.543789  0.454462  1
  Si  Si12  1  0.342205  0.955994  0.454544  1
  Si  Si13  1  0.841501  0.542079  0.045088  1
  Si  Si14  1  0.660453  0.042139  0.955384  1
  Si  Si15  1  0.157867  0.457105  0.545713  1
  Si  Si16  1  0.535456  0.373344  0.750689  1
  Si  Si17  1  0.035256  0.125245  0.749885  1
  Si  Si18  1  0.464734  0.629186  0.248698  1
  Si  Si19  1  0.964956  0.873054  0.249432  1
  Si  Si20  1  0.800258  0.629768  0.750110  1
  Si  Si21  1  0.300555  0.869040  0.750171  1
  Si  Si22  1  0.199339  0.369282  0.250097  1
  Si  Si23  1  0.698167  0.131626  0.249786  1
  Mo  Mo24  1  0.834986  0.330595  0.628084  1
  Mo  Mo25  1  0.333774  0.168520  0.873261  1
  Mo  Mo26  1  0.165488  0.668510  0.126499  1
  Mo  Mo27  1  0.666178  0.831220  0.371472  1
  Mo  Mo28  1  0.164957  0.669506  0.371240  1
  Mo  Mo29  1  0.668286  0.833617  0.126434  1
  Mo  Mo30  1  0.836271  0.328770  0.873792  1
  Mo  Mo31  1  0.334885  0.168509  0.628095  1
  Mo  Mo32  1  0.661293  0.009240  0.750622  1
  Mo  Mo33  1  0.161450  0.489874  0.750551  1
  Mo  Mo34  1  0.336795  0.992319  0.248712  1
  Mo  Mo35  1  0.838237  0.507303  0.248540  1
