# generated using pymatgen
data_PrEr3Al18Pd5W
_symmetry_space_group_name_H-M   'P 1'
_cell_length_a   7.63685918
_cell_length_b   7.65032614
_cell_length_c   9.55150082
_cell_angle_alpha   89.67289772
_cell_angle_beta   89.58554053
_cell_angle_gamma   118.78014225
_symmetry_Int_Tables_number   1
_chemical_formula_structural   PrEr3Al18Pd5W
_chemical_formula_sum   'Pr1 Er3 Al18 Pd5 W1'
_cell_volume   489.06878005
_cell_formula_units_Z   1
loop_
 _symmetry_equiv_pos_site_id
 _symmetry_equiv_pos_as_xyz
  1  'x, y, z'
loop_
 _atom_site_type_symbol
 _atom_site_label
 _atom_site_symmetry_multiplicity
 _atom_site_fract_x
 _atom_site_fract_y
 _atom_site_fract_z
 _atom_site_occupancy
  Pr  Pr0  1  0.995319  0.677928  0.247975  1
  Er  Er1  1  0.004357  0.317632  0.754191  1
  Er  Er2  1  0.680712  0.995812  0.246040  1
  Er  Er3  1  0.318727  0.005936  0.753387  1
  Al  Al4  1  0.137003  0.138998  0.248551  1
  Al  Al5  1  0.862255  0.863797  0.750294  1
  Al  Al6  1  0.003191  0.334100  0.073798  1
  Al  Al7  1  0.997441  0.663799  0.918531  1
  Al  Al8  1  0.998742  0.658834  0.582880  1
  Al  Al9  1  0.341787  0.003569  0.424204  1
  Al  Al10  1  0.001620  0.336380  0.424853  1
  Al  Al11  1  0.660010  0.999323  0.579655  1
  Al  Al12  1  0.663369  0.998100  0.922166  1
  Al  Al13  1  0.338914  0.006050  0.073578  1
  Al  Al14  1  0.332725  0.332846  0.556212  1
  Al  Al15  1  0.665287  0.667298  0.450749  1
  Al  Al16  1  0.665585  0.668062  0.046761  1
  Al  Al17  1  0.333124  0.333437  0.946547  1
  Al  Al18  1  0.347056  0.552163  0.250297  1
  Al  Al19  1  0.655320  0.446387  0.749784  1
  Al  Al20  1  0.549456  0.340132  0.250318  1
  Al  Al21  1  0.446211  0.657139  0.749652  1
  Pd  Pd22  1  0.672989  0.328372  0.998946  1
  Pd  Pd23  1  0.327699  0.672597  0.998873  1
  Pd  Pd24  1  0.328322  0.672145  0.501057  1
  Pd  Pd25  1  0.671745  0.327231  0.501172  1
  Pd  Pd26  1  0.000214  0.000703  0.501638  1
  W  W27  1  0.000821  0.001231  0.997891  1
