# generated using pymatgen
data_Pr7NdMo2(WC4)2
_symmetry_space_group_name_H-M   'P 1'
_cell_length_a   5.84992283
_cell_length_b   5.85151397
_cell_length_c   10.52942034
_cell_angle_alpha   89.90878028
_cell_angle_beta   89.91233875
_cell_angle_gamma   90.02037319
_symmetry_Int_Tables_number   1
_chemical_formula_structural   Pr7NdMo2(WC4)2
_chemical_formula_sum   'Pr7 Nd1 Mo2 W2 C8'
_cell_volume   360.43068706
_cell_formula_units_Z   1
loop_
 _symmetry_equiv_pos_site_id
 _symmetry_equiv_pos_as_xyz
  1  'x, y, z'
loop_
 _atom_site_type_symbol
 _atom_site_label
 _atom_site_symmetry_multiplicity
 _atom_site_fract_x
 _atom_site_fract_y
 _atom_site_fract_z
 _atom_site_occupancy
  Pr  Pr0  1  0.197864  0.803588  0.156234  1
  Pr  Pr1  1  0.803990  0.197676  0.842981  1
  Pr  Pr2  1  0.198032  0.803718  0.843452  1
  Pr  Pr3  1  0.302308  0.303746  0.344029  1
  Pr  Pr4  1  0.696101  0.697402  0.343390  1
  Pr  Pr5  1  0.301972  0.303393  0.656388  1
  Pr  Pr6  1  0.803821  0.197487  0.156702  1
  Nd  Nd7  1  0.696599  0.698010  0.656114  1
  Mo  Mo8  1  0.677412  0.676566  0.999556  1
  Mo  Mo9  1  0.822485  0.176064  0.500339  1
  W  W10  1  0.324955  0.324305  0.999744  1
  W  W11  1  0.175105  0.823634  0.500362  1
  C  C12  1  0.000025  0.502513  0.500740  1
  C  C13  1  0.001400  0.998394  0.359317  1
  C  C14  1  0.498906  0.002530  0.999953  1
  C  C15  1  0.000104  0.997215  0.641072  1
  C  C16  1  0.499670  0.499320  0.858229  1
  C  C17  1  0.498720  0.498356  0.140675  1
  C  C18  1  0.498279  0.997538  0.500765  1
  C  C19  1  0.002250  0.498546  0.999960  1
