# generated using pymatgen
data_Y6Lu7Th3(CdIr)4
_symmetry_space_group_name_H-M   'P 1'
_cell_length_a   9.63632637
_cell_length_b   9.61999768
_cell_length_c   9.61999800
_cell_angle_alpha   59.99999890
_cell_angle_beta   60.05603647
_cell_angle_gamma   60.05604316
_symmetry_Int_Tables_number   1
_chemical_formula_structural   Y6Lu7Th3(CdIr)4
_chemical_formula_sum   'Y6 Lu7 Th3 Cd4 Ir4'
_cell_volume   631.12269088
_cell_formula_units_Z   1
loop_
 _symmetry_equiv_pos_site_id
 _symmetry_equiv_pos_as_xyz
  1  'x, y, z'
loop_
 _atom_site_type_symbol
 _atom_site_label
 _atom_site_symmetry_multiplicity
 _atom_site_fract_x
 _atom_site_fract_y
 _atom_site_fract_z
 _atom_site_occupancy
  Y  Y0  1  0.937417  0.562025  0.562025  1
  Y  Y1  1  0.563425  0.936068  0.936068  1
  Y  Y2  1  0.563425  0.936068  0.564437  1
  Y  Y3  1  0.937417  0.562025  0.938531  1
  Y  Y4  1  0.563425  0.564437  0.936068  1
  Y  Y5  1  0.937417  0.938531  0.562025  1
  Lu  Lu6  1  0.949716  0.350095  0.350095  1
  Lu  Lu7  1  0.813804  0.187180  0.187180  1
  Lu  Lu8  1  0.183798  0.815611  0.815611  1
  Lu  Lu9  1  0.183798  0.815611  0.184979  1
  Lu  Lu10  1  0.813804  0.187180  0.811836  1
  Lu  Lu11  1  0.183798  0.184979  0.815611  1
  Lu  Lu12  1  0.813804  0.811836  0.187180  1
  Th  Th13  1  0.348366  0.351124  0.351124  1
  Th  Th14  1  0.348366  0.351124  0.949387  1
  Th  Th15  1  0.348366  0.949387  0.351124  1
  Cd  Cd16  1  0.586872  0.579385  0.579385  1
  Cd  Cd17  1  0.586872  0.579385  0.254359  1
  Cd  Cd18  1  0.586872  0.254359  0.579385  1
  Cd  Cd19  1  0.252066  0.582645  0.582645  1
  Ir  Ir20  1  0.141221  0.142161  0.142161  1
  Ir  Ir21  1  0.141221  0.142161  0.574457  1
  Ir  Ir22  1  0.141221  0.574457  0.142161  1
  Ir  Ir23  1  0.573513  0.142162  0.142162  1
