# generated using pymatgen
data_TbY9(CoSb2)2
_symmetry_space_group_name_H-M   'P 1'
_cell_length_a   7.93891618
_cell_length_b   8.78482231
_cell_length_c   12.23347000
_cell_angle_alpha   90.00000000
_cell_angle_beta   90.00000000
_cell_angle_gamma   90.02758065
_symmetry_Int_Tables_number   1
_chemical_formula_structural   TbY9(CoSb2)2
_chemical_formula_sum   'Tb2 Y18 Co4 Sb8'
_cell_volume   853.18617466
_cell_formula_units_Z   2
loop_
 _symmetry_equiv_pos_site_id
 _symmetry_equiv_pos_as_xyz
  1  'x, y, z'
loop_
 _atom_site_type_symbol
 _atom_site_label
 _atom_site_symmetry_multiplicity
 _atom_site_fract_x
 _atom_site_fract_y
 _atom_site_fract_z
 _atom_site_occupancy
  Tb  Tb0  1  0.821351  0.966079  0.065272  1
  Tb  Tb1  1  0.678649  0.533921  0.565272  1
  Y  Y2  1  0.155227  0.750165  0.203690  1
  Y  Y3  1  0.344773  0.749835  0.703690  1
  Y  Y4  1  0.844770  0.250004  0.795986  1
  Y  Y5  1  0.655230  0.249996  0.295986  1
  Y  Y6  1  0.457799  0.750449  0.998559  1
  Y  Y7  1  0.042201  0.749551  0.498559  1
  Y  Y8  1  0.543324  0.249465  0.001772  1
  Y  Y9  1  0.956676  0.250535  0.501772  1
  Y  Y10  1  0.623609  0.750465  0.305472  1
  Y  Y11  1  0.876391  0.749535  0.805472  1
  Y  Y12  1  0.376004  0.250129  0.694531  1
  Y  Y13  1  0.123996  0.249871  0.194531  1
  Y  Y14  1  0.821372  0.533857  0.065714  1
  Y  Y15  1  0.678628  0.966143  0.565714  1
  Y  Y16  1  0.178936  0.033821  0.934037  1
  Y  Y17  1  0.321064  0.466179  0.434037  1
  Y  Y18  1  0.178564  0.465896  0.934369  1
  Y  Y19  1  0.321436  0.034104  0.434369  1
  Co  Co20  1  0.436765  0.749998  0.490673  1
  Co  Co21  1  0.063235  0.750002  0.990673  1
  Co  Co22  1  0.564024  0.251094  0.509595  1
  Co  Co23  1  0.935976  0.248906  0.009595  1
  Sb  Sb24  1  0.928934  0.508075  0.326824  1
  Sb  Sb25  1  0.571066  0.991925  0.826824  1
  Sb  Sb26  1  0.071048  0.007947  0.672775  1
  Sb  Sb27  1  0.428952  0.492053  0.172775  1
  Sb  Sb28  1  0.071751  0.491817  0.673224  1
  Sb  Sb29  1  0.428249  0.008183  0.173224  1
  Sb  Sb30  1  0.929057  0.992113  0.327506  1
  Sb  Sb31  1  0.570943  0.507887  0.827506  1
