# generated using pymatgen
data_LuThSc2(Ga3Rh)6
_symmetry_space_group_name_H-M   'P 1'
_cell_length_a   7.54212518
_cell_length_b   7.55107721
_cell_length_c   9.43811400
_cell_angle_alpha   90.00000000
_cell_angle_beta   90.00000000
_cell_angle_gamma   119.68210668
_symmetry_Int_Tables_number   1
_chemical_formula_structural   LuThSc2(Ga3Rh)6
_chemical_formula_sum   'Lu1 Th1 Sc2 Ga18 Rh6'
_cell_volume   466.98268857
_cell_formula_units_Z   1
loop_
 _symmetry_equiv_pos_site_id
 _symmetry_equiv_pos_as_xyz
  1  'x, y, z'
loop_
 _atom_site_type_symbol
 _atom_site_label
 _atom_site_symmetry_multiplicity
 _atom_site_fract_x
 _atom_site_fract_y
 _atom_site_fract_z
 _atom_site_occupancy
  Lu  Lu0  1  0.671022  0.997005  0.250000  1
  Th  Th1  1  0.996681  0.669342  0.250000  1
  Sc  Sc2  1  0.001640  0.330261  0.750000  1
  Sc  Sc3  1  0.329117  0.002050  0.750000  1
  Ga  Ga4  1  0.343232  0.548122  0.250000  1
  Ga  Ga5  1  0.659007  0.445300  0.750000  1
  Ga  Ga6  1  0.542547  0.334976  0.250000  1
  Ga  Ga7  1  0.445929  0.662108  0.750000  1
  Ga  Ga8  1  0.999964  0.328193  0.074180  1
  Ga  Ga9  1  0.003644  0.664783  0.908356  1
  Ga  Ga10  1  0.003644  0.664783  0.591644  1
  Ga  Ga11  1  0.342399  0.005864  0.425334  1
  Ga  Ga12  1  0.999964  0.328193  0.425820  1
  Ga  Ga13  1  0.664969  0.004611  0.584760  1
  Ga  Ga14  1  0.664969  0.004611  0.915240  1
  Ga  Ga15  1  0.342399  0.005864  0.074666  1
  Ga  Ga16  1  0.327760  0.327905  0.573679  1
  Ga  Ga17  1  0.661952  0.668112  0.440605  1
  Ga  Ga18  1  0.661952  0.668112  0.059395  1
  Ga  Ga19  1  0.327760  0.327905  0.926321  1
  Ga  Ga20  1  0.129655  0.132499  0.250000  1
  Ga  Ga21  1  0.877199  0.880321  0.750000  1
  Rh  Rh22  1  0.674646  0.331480  0.000143  1
  Rh  Rh23  1  0.325649  0.671070  0.999988  1
  Rh  Rh24  1  0.325649  0.671070  0.500012  1
  Rh  Rh25  1  0.674646  0.331480  0.499857  1
  Rh  Rh26  1  0.001004  0.996990  0.000233  1
  Rh  Rh27  1  0.001004  0.996990  0.499767  1
