# generated using pymatgen
data_La2Zn20CuIr
_symmetry_space_group_name_H-M   'P 1'
_cell_length_a   8.30145550
_cell_length_b   8.30277411
_cell_length_c   8.32071246
_cell_angle_alpha   100.34354229
_cell_angle_beta   99.16499808
_cell_angle_gamma   131.18832370
_symmetry_Int_Tables_number   1
_chemical_formula_structural   La2Zn20CuIr
_chemical_formula_sum   'La2 Zn20 Cu1 Ir1'
_cell_volume   393.61753353
_cell_formula_units_Z   1
loop_
 _symmetry_equiv_pos_site_id
 _symmetry_equiv_pos_as_xyz
  1  'x, y, z'
loop_
 _atom_site_type_symbol
 _atom_site_label
 _atom_site_symmetry_multiplicity
 _atom_site_fract_x
 _atom_site_fract_y
 _atom_site_fract_z
 _atom_site_occupancy
  La  La0  1  0.256939  0.760193  0.506713  1
  La  La1  1  0.993061  0.989807  0.993287  1
  Zn  Zn2  1  0.899779  0.569202  0.087883  1
  Zn  Zn3  1  0.430038  0.511490  0.327682  1
  Zn  Zn4  1  0.486152  0.570705  0.668869  1
  Zn  Zn5  1  0.429244  0.106853  0.922202  1
  Zn  Zn6  1  0.763848  0.179295  0.831131  1
  Zn  Zn7  1  0.491025  0.817278  0.918952  1
  Zn  Zn8  1  0.508413  0.511459  0.012185  1
  Zn  Zn9  1  0.758975  0.932722  0.581048  1
  Zn  Zn10  1  0.741587  0.238541  0.487815  1
  Zn  Zn11  1  0.066416  0.652202  0.827679  1
  Zn  Zn12  1  0.125000  0.375000  0.750000  1
  Zn  Zn13  1  0.350221  0.180798  0.412117  1
  Zn  Zn14  1  0.820756  0.643147  0.577798  1
  Zn  Zn15  1  0.897627  0.813170  0.327032  1
  Zn  Zn16  1  0.183584  0.097798  0.672321  1
  Zn  Zn17  1  0.066007  0.234748  0.411446  1
  Zn  Zn18  1  0.352373  0.936830  0.172968  1
  Zn  Zn19  1  0.819962  0.238510  0.172318  1
  Zn  Zn20  1  0.183993  0.515252  0.088554  1
  Zn  Zn21  1  0.625000  0.375000  0.750000  1
  Cu  Cu22  1  0.625000  0.375000  0.250000  1
  Ir  Ir23  1  0.625000  0.875000  0.250000  1
