# generated using pymatgen
data_Ca2YbYSb6Rh7
_symmetry_space_group_name_H-M   'P 1'
_cell_length_a   7.59927871
_cell_length_b   7.64209274
_cell_length_c   7.62990317
_cell_angle_alpha   109.50450115
_cell_angle_beta   109.51988465
_cell_angle_gamma   109.58493934
_symmetry_Int_Tables_number   1
_chemical_formula_structural   Ca2YbYSb6Rh7
_chemical_formula_sum   'Ca2 Yb1 Y1 Sb6 Rh7'
_cell_volume   340.27376923
_cell_formula_units_Z   1
loop_
 _symmetry_equiv_pos_site_id
 _symmetry_equiv_pos_as_xyz
  1  'x, y, z'
loop_
 _atom_site_type_symbol
 _atom_site_label
 _atom_site_symmetry_multiplicity
 _atom_site_fract_x
 _atom_site_fract_y
 _atom_site_fract_z
 _atom_site_occupancy
  Ca  Ca0  1  0.500000  0.000000  0.000000  1
  Ca  Ca1  1  0.500000  0.500000  0.500000  1
  Yb  Yb2  1  0.000000  0.000000  0.500000  1
  Y  Y3  1  0.000000  0.500000  0.000000  1
  Sb  Sb4  1  0.000000  0.316559  0.320459  1
  Sb  Sb5  1  0.679873  0.996139  0.679976  1
  Sb  Sb6  1  0.679873  0.683733  0.999897  1
  Sb  Sb7  1  0.000000  0.683441  0.679541  1
  Sb  Sb8  1  0.320127  0.003861  0.320024  1
  Sb  Sb9  1  0.320127  0.316267  0.000103  1
  Rh  Rh10  1  0.000000  0.000000  0.000000  1
  Rh  Rh11  1  0.496957  0.748478  0.248478  1
  Rh  Rh12  1  0.753348  0.502525  0.248149  1
  Rh  Rh13  1  0.246652  0.749177  0.494801  1
  Rh  Rh14  1  0.246652  0.497475  0.751851  1
  Rh  Rh15  1  0.503043  0.251522  0.751522  1
  Rh  Rh16  1  0.753348  0.250823  0.505199  1
