# generated using pymatgen
data_Li4DyEr3Si8
_symmetry_space_group_name_H-M   'P 1'
_cell_length_a   3.77975000
_cell_length_b   7.56883657
_cell_length_c   10.11073466
_cell_angle_alpha   90.00405672
_cell_angle_beta   90.00000000
_cell_angle_gamma   90.00000000
_symmetry_Int_Tables_number   1
_chemical_formula_structural   Li4DyEr3Si8
_chemical_formula_sum   'Li4 Dy1 Er3 Si8'
_cell_volume   289.25103101
_cell_formula_units_Z   1
loop_
 _symmetry_equiv_pos_site_id
 _symmetry_equiv_pos_as_xyz
  1  'x, y, z'
loop_
 _atom_site_type_symbol
 _atom_site_label
 _atom_site_symmetry_multiplicity
 _atom_site_fract_x
 _atom_site_fract_y
 _atom_site_fract_z
 _atom_site_occupancy
  Li  Li0  1  0.250000  0.990019  0.392918  1
  Li  Li1  1  0.250000  0.488260  0.106599  1
  Li  Li2  1  0.750000  0.011952  0.608113  1
  Li  Li3  1  0.750000  0.511521  0.893661  1
  Dy  Dy4  1  0.750000  0.359929  0.363241  1
  Er  Er5  1  0.250000  0.137981  0.863259  1
  Er  Er6  1  0.250000  0.639026  0.636362  1
  Er  Er7  1  0.750000  0.860813  0.136101  1
  Si  Si8  1  0.250000  0.234146  0.568797  1
  Si  Si9  1  0.250000  0.733868  0.932692  1
  Si  Si10  1  0.750000  0.767743  0.432621  1
  Si  Si11  1  0.750000  0.264535  0.065878  1
  Si  Si12  1  0.250000  0.656155  0.319325  1
  Si  Si13  1  0.250000  0.153825  0.179289  1
  Si  Si14  1  0.750000  0.345539  0.681820  1
  Si  Si15  1  0.750000  0.844690  0.819323  1
