# generated using pymatgen
data_Ta8MnCdS16
_symmetry_space_group_name_H-M   'P 1'
_cell_length_a   6.71960300
_cell_length_b   6.71960247
_cell_length_c   13.02143800
_cell_angle_alpha   90.00000000
_cell_angle_beta   90.00000000
_cell_angle_gamma   120.00000753
_symmetry_Int_Tables_number   1
_chemical_formula_structural   Ta8MnCdS16
_chemical_formula_sum   'Ta8 Mn1 Cd1 S16'
_cell_volume   509.18633793
_cell_formula_units_Z   1
loop_
 _symmetry_equiv_pos_site_id
 _symmetry_equiv_pos_as_xyz
  1  'x, y, z'
loop_
 _atom_site_type_symbol
 _atom_site_label
 _atom_site_symmetry_multiplicity
 _atom_site_fract_x
 _atom_site_fract_y
 _atom_site_fract_z
 _atom_site_occupancy
  Ta  Ta0  1  0.506311  0.493689  0.759874  1
  Ta  Ta1  1  0.012622  0.506311  0.240126  1
  Ta  Ta2  1  0.493689  0.987378  0.240126  1
  Ta  Ta3  1  0.506311  0.012622  0.759874  1
  Ta  Ta4  1  0.987378  0.493689  0.759874  1
  Ta  Ta5  1  0.493689  0.506311  0.240126  1
  Ta  Ta6  1  0.000000  0.000000  0.761469  1
  Ta  Ta7  1  0.000000  0.000000  0.238531  1
  Mn  Mn8  1  0.000000  0.000000  0.000000  1
  Cd  Cd9  1  0.000000  0.000000  0.500000  1
  S  S10  1  0.830781  0.169219  0.358072  1
  S  S11  1  0.830781  0.661562  0.358072  1
  S  S12  1  0.338438  0.169219  0.358072  1
  S  S13  1  0.662466  0.831233  0.878439  1
  S  S14  1  0.169219  0.338438  0.641928  1
  S  S15  1  0.168767  0.831233  0.878439  1
  S  S16  1  0.168767  0.337534  0.878439  1
  S  S17  1  0.831233  0.168767  0.121561  1
  S  S18  1  0.337534  0.168767  0.121561  1
  S  S19  1  0.661562  0.830781  0.641928  1
  S  S20  1  0.333333  0.666667  0.117938  1
  S  S21  1  0.666667  0.333333  0.636600  1
  S  S22  1  0.666667  0.333333  0.882062  1
  S  S23  1  0.333333  0.666667  0.363400  1
  S  S24  1  0.831233  0.662466  0.121561  1
  S  S25  1  0.169219  0.830781  0.641928  1
