# generated using pymatgen
data_Ho5Sc5In8(PtRh)2
_symmetry_space_group_name_H-M   'P 1'
_cell_length_a   3.56628600
_cell_length_b   7.86856309
_cell_length_c   17.81153021
_cell_angle_alpha   89.75926622
_cell_angle_beta   90.00000000
_cell_angle_gamma   90.00000000
_symmetry_Int_Tables_number   1
_chemical_formula_structural   Ho5Sc5In8(PtRh)2
_chemical_formula_sum   'Ho5 Sc5 In8 Pt2 Rh2'
_cell_volume   499.81466987
_cell_formula_units_Z   1
loop_
 _symmetry_equiv_pos_site_id
 _symmetry_equiv_pos_as_xyz
  1  'x, y, z'
loop_
 _atom_site_type_symbol
 _atom_site_label
 _atom_site_symmetry_multiplicity
 _atom_site_fract_x
 _atom_site_fract_y
 _atom_site_fract_z
 _atom_site_occupancy
  Ho  Ho0  1  0.000000  0.000000  0.000000  1
  Ho  Ho1  1  0.000000  0.744336  0.780362  1
  Ho  Ho2  1  0.000000  0.255664  0.219638  1
  Ho  Ho3  1  0.000000  0.251735  0.718452  1
  Ho  Ho4  1  0.000000  0.748265  0.281548  1
  Sc  Sc5  1  0.000000  0.500000  0.500000  1
  Sc  Sc6  1  0.000000  0.878168  0.585126  1
  Sc  Sc7  1  0.000000  0.121832  0.414874  1
  Sc  Sc8  1  0.000000  0.378137  0.911277  1
  Sc  Sc9  1  0.000000  0.621863  0.088723  1
  In  In10  1  0.500000  0.799027  0.440138  1
  In  In11  1  0.500000  0.200973  0.559862  1
  In  In12  1  0.500000  0.308724  0.062675  1
  In  In13  1  0.500000  0.691276  0.937325  1
  In  In14  1  0.500000  0.924250  0.149091  1
  In  In15  1  0.500000  0.075750  0.850909  1
  In  In16  1  0.500000  0.427980  0.354785  1
  In  In17  1  0.500000  0.572020  0.645215  1
  Pt  Pt18  1  0.500000  0.962555  0.691082  1
  Pt  Pt19  1  0.500000  0.037445  0.308918  1
  Rh  Rh20  1  0.500000  0.462823  0.807520  1
  Rh  Rh21  1  0.500000  0.537177  0.192480  1
