# generated using pymatgen
data_Hf2Ga10Tc3
_symmetry_space_group_name_H-M   'P 1'
_cell_length_a   9.06978600
_cell_length_b   9.06978600
_cell_length_c   6.03871900
_cell_angle_alpha   90.00000000
_cell_angle_beta   90.00000000
_cell_angle_gamma   90.00000000
_symmetry_Int_Tables_number   1
_chemical_formula_structural   Hf2Ga10Tc3
_chemical_formula_sum   'Hf4 Ga20 Tc6'
_cell_volume   496.75117287
_cell_formula_units_Z   2
loop_
 _symmetry_equiv_pos_site_id
 _symmetry_equiv_pos_as_xyz
  1  'x, y, z'
loop_
 _atom_site_type_symbol
 _atom_site_label
 _atom_site_symmetry_multiplicity
 _atom_site_fract_x
 _atom_site_fract_y
 _atom_site_fract_z
 _atom_site_occupancy
  Hf  Hf0  1  0.181929  0.681929  0.000000  1
  Hf  Hf1  1  0.818071  0.318071  0.000000  1
  Hf  Hf2  1  0.681929  0.818071  0.000000  1
  Hf  Hf3  1  0.318071  0.181929  0.000000  1
  Ga  Ga4  1  0.061679  0.207754  0.714722  1
  Ga  Ga5  1  0.938321  0.792246  0.714722  1
  Ga  Ga6  1  0.561679  0.292246  0.714722  1
  Ga  Ga7  1  0.438321  0.707754  0.714722  1
  Ga  Ga8  1  0.792246  0.061679  0.714722  1
  Ga  Ga9  1  0.207754  0.938321  0.714722  1
  Ga  Ga10  1  0.707754  0.561679  0.714722  1
  Ga  Ga11  1  0.292246  0.438321  0.714722  1
  Ga  Ga12  1  0.938321  0.792246  0.285278  1
  Ga  Ga13  1  0.061679  0.207754  0.285278  1
  Ga  Ga14  1  0.438321  0.707754  0.285278  1
  Ga  Ga15  1  0.561679  0.292246  0.285278  1
  Ga  Ga16  1  0.207754  0.938321  0.285278  1
  Ga  Ga17  1  0.792246  0.061679  0.285278  1
  Ga  Ga18  1  0.292246  0.438321  0.285278  1
  Ga  Ga19  1  0.707754  0.561679  0.285278  1
  Ga  Ga20  1  0.000000  0.500000  0.732037  1
  Ga  Ga21  1  0.500000  0.000000  0.732037  1
  Ga  Ga22  1  0.000000  0.500000  0.267963  1
  Ga  Ga23  1  0.500000  0.000000  0.267963  1
  Tc  Tc24  1  0.176614  0.676614  0.500000  1
  Tc  Tc25  1  0.823386  0.323386  0.500000  1
  Tc  Tc26  1  0.676614  0.823386  0.500000  1
  Tc  Tc27  1  0.323386  0.176614  0.500000  1
  Tc  Tc28  1  0.000000  0.000000  0.000000  1
  Tc  Tc29  1  0.500000  0.500000  0.000000  1
