# generated using pymatgen
data_Pa2HgF12
_symmetry_space_group_name_H-M   'P 1'
_cell_length_a   8.33824348
_cell_length_b   8.33824407
_cell_length_c   8.61149266
_cell_angle_alpha   63.10078539
_cell_angle_beta   63.10078523
_cell_angle_gamma   80.32558181
_symmetry_Int_Tables_number   1
_chemical_formula_structural   Pa2HgF12
_chemical_formula_sum   'Pa4 Hg2 F24'
_cell_volume   475.66904529
_cell_formula_units_Z   2
loop_
 _symmetry_equiv_pos_site_id
 _symmetry_equiv_pos_as_xyz
  1  'x, y, z'
loop_
 _atom_site_type_symbol
 _atom_site_label
 _atom_site_symmetry_multiplicity
 _atom_site_fract_x
 _atom_site_fract_y
 _atom_site_fract_z
 _atom_site_occupancy
  Pa  Pa0  1  0.639424  0.777905  0.169989  1
  Pa  Pa1  1  0.777905  0.639424  0.669989  1
  Pa  Pa2  1  0.360576  0.222095  0.830011  1
  Pa  Pa3  1  0.222095  0.360576  0.330011  1
  Hg  Hg4  1  0.787674  0.212326  0.250000  1
  Hg  Hg5  1  0.212326  0.787674  0.750000  1
  F  F6  1  0.743606  0.681322  0.395457  1
  F  F7  1  0.581284  0.197097  0.592176  1
  F  F8  1  0.726321  0.508872  0.221563  1
  F  F9  1  0.318678  0.256394  0.104543  1
  F  F10  1  0.081632  0.170936  0.033062  1
  F  F11  1  0.197097  0.581284  0.092176  1
  F  F12  1  0.418716  0.802903  0.407824  1
  F  F13  1  0.394878  0.605122  0.250000  1
  F  F14  1  0.605122  0.394878  0.750000  1
  F  F15  1  0.508872  0.726321  0.721563  1
  F  F16  1  0.829064  0.918368  0.466938  1
  F  F17  1  0.170936  0.081632  0.533062  1
  F  F18  1  0.273679  0.491128  0.778437  1
  F  F19  1  0.256394  0.318678  0.604543  1
  F  F20  1  0.718195  0.024539  0.146107  1
  F  F21  1  0.000000  0.500000  0.500000  1
  F  F22  1  0.975461  0.281805  0.353893  1
  F  F23  1  0.802903  0.418716  0.907824  1
  F  F24  1  0.491128  0.273679  0.278437  1
  F  F25  1  0.918368  0.829064  0.966938  1
  F  F26  1  0.281805  0.975461  0.853893  1
  F  F27  1  0.681322  0.743606  0.895457  1
  F  F28  1  0.024539  0.718195  0.646107  1
  F  F29  1  0.500000  0.000000  0.000000  1
