# generated using pymatgen
data_Tb3Dy3(GeRu)4
_symmetry_space_group_name_H-M   'P 1'
_cell_length_a   5.58457608
_cell_length_b   7.75199611
_cell_length_c   13.54505200
_cell_angle_alpha   90.00000000
_cell_angle_beta   90.00000000
_cell_angle_gamma   90.01922668
_symmetry_Int_Tables_number   1
_chemical_formula_structural   Tb3Dy3(GeRu)4
_chemical_formula_sum   'Tb6 Dy6 Ge8 Ru8'
_cell_volume   586.38710313
_cell_formula_units_Z   2
loop_
 _symmetry_equiv_pos_site_id
 _symmetry_equiv_pos_as_xyz
  1  'x, y, z'
loop_
 _atom_site_type_symbol
 _atom_site_label
 _atom_site_symmetry_multiplicity
 _atom_site_fract_x
 _atom_site_fract_y
 _atom_site_fract_z
 _atom_site_occupancy
  Tb  Tb0  1  0.150381  0.402161  0.598981  1
  Tb  Tb1  1  0.849619  0.597839  0.098981  1
  Tb  Tb2  1  0.628409  0.266158  0.750240  1
  Tb  Tb3  1  0.371591  0.733842  0.250240  1
  Tb  Tb4  1  0.628579  0.233446  0.250163  1
  Tb  Tb5  1  0.371421  0.766554  0.750163  1
  Dy  Dy6  1  0.150784  0.097442  0.401021  1
  Dy  Dy7  1  0.849216  0.902558  0.901021  1
  Dy  Dy8  1  0.849277  0.598043  0.400813  1
  Dy  Dy9  1  0.150723  0.401957  0.900813  1
  Dy  Dy10  1  0.849435  0.902287  0.598955  1
  Dy  Dy11  1  0.150565  0.097713  0.098955  1
  Ge  Ge12  1  0.125843  0.113628  0.750102  1
  Ge  Ge13  1  0.874157  0.886372  0.250102  1
  Ge  Ge14  1  0.126238  0.385808  0.250131  1
  Ge  Ge15  1  0.873762  0.614192  0.750131  1
  Ge  Ge16  1  0.625108  0.249944  0.500036  1
  Ge  Ge17  1  0.374892  0.750056  0.000036  1
  Ge  Ge18  1  0.374967  0.750203  0.499780  1
  Ge  Ge19  1  0.625033  0.249797  0.999780  1
  Ru  Ru20  1  0.351729  0.033304  0.591177  1
  Ru  Ru21  1  0.648271  0.966696  0.091177  1
  Ru  Ru22  1  0.352170  0.466450  0.408657  1
  Ru  Ru23  1  0.647830  0.533550  0.908657  1
  Ru  Ru24  1  0.648647  0.966493  0.408893  1
  Ru  Ru25  1  0.351353  0.033507  0.908893  1
  Ru  Ru26  1  0.648435  0.534060  0.591052  1
  Ru  Ru27  1  0.351565  0.465940  0.091052  1
