# generated using pymatgen
data_Li3Ni2PtO6
_symmetry_space_group_name_H-M   'P 1'
_cell_length_a   5.11200610
_cell_length_b   5.20758577
_cell_length_c   5.20758605
_cell_angle_alpha   119.85307831
_cell_angle_beta   100.04564089
_cell_angle_gamma   100.04564264
_symmetry_Int_Tables_number   1
_chemical_formula_structural   Li3Ni2PtO6
_chemical_formula_sum   'Li3 Ni2 Pt1 O6'
_cell_volume   112.71683281
_cell_formula_units_Z   1
loop_
 _symmetry_equiv_pos_site_id
 _symmetry_equiv_pos_as_xyz
  1  'x, y, z'
loop_
 _atom_site_type_symbol
 _atom_site_label
 _atom_site_symmetry_multiplicity
 _atom_site_fract_x
 _atom_site_fract_y
 _atom_site_fract_z
 _atom_site_occupancy
  Li  Li0  1  0.500000  0.830311  0.169689  1
  Li  Li1  1  0.500000  0.169689  0.830311  1
  Li  Li2  1  0.500000  0.500000  0.500000  1
  Ni  Ni3  1  0.000000  0.666860  0.333140  1
  Ni  Ni4  1  0.000000  0.333140  0.666860  1
  Pt  Pt5  1  0.000000  0.000000  0.000000  1
  O  O6  1  0.230538  0.754391  0.754391  1
  O  O7  1  0.769462  0.245609  0.245609  1
  O  O8  1  0.233865  0.078985  0.403481  1
  O  O9  1  0.233865  0.403481  0.078985  1
  O  O10  1  0.766135  0.921015  0.596519  1
  O  O11  1  0.766135  0.596519  0.921015  1
