# generated using pymatgen
data_Lu12Fe(TcHg)2
_symmetry_space_group_name_H-M   'P 1'
_cell_length_a   8.19800939
_cell_length_b   8.19801058
_cell_length_c   8.19800976
_cell_angle_alpha   108.68176103
_cell_angle_beta   108.68176869
_cell_angle_gamma   111.06193621
_symmetry_Int_Tables_number   1
_chemical_formula_structural   Lu12Fe(TcHg)2
_chemical_formula_sum   'Lu12 Fe1 Tc2 Hg2'
_cell_volume   423.88838392
_cell_formula_units_Z   1
loop_
 _symmetry_equiv_pos_site_id
 _symmetry_equiv_pos_as_xyz
  1  'x, y, z'
loop_
 _atom_site_type_symbol
 _atom_site_label
 _atom_site_symmetry_multiplicity
 _atom_site_fract_x
 _atom_site_fract_y
 _atom_site_fract_z
 _atom_site_occupancy
  Lu  Lu0  1  0.306140  0.306140  0.614119  1
  Lu  Lu1  1  0.692020  0.692020  0.385881  1
  Lu  Lu2  1  0.692020  0.306140  0.000000  1
  Lu  Lu3  1  0.306140  0.692020  0.000000  1
  Lu  Lu4  1  0.188716  0.431194  0.242478  1
  Lu  Lu5  1  0.808643  0.569845  0.761202  1
  Lu  Lu6  1  0.188716  0.946237  0.757522  1
  Lu  Lu7  1  0.946237  0.188716  0.757522  1
  Lu  Lu8  1  0.808643  0.047442  0.238798  1
  Lu  Lu9  1  0.047442  0.808643  0.238798  1
  Lu  Lu10  1  0.431194  0.188716  0.242478  1
  Lu  Lu11  1  0.569845  0.808643  0.761202  1
  Fe  Fe12  1  0.633128  0.633128  0.000000  1
  Tc  Tc13  1  0.385614  0.385614  0.000000  1
  Tc  Tc14  1  0.001407  0.001407  0.000000  1
  Hg  Hg15  1  0.997047  0.497047  0.500000  1
  Hg  Hg16  1  0.497047  0.997047  0.500000  1
