# generated using pymatgen
data_HoLu4P12Ru17Pt2
_symmetry_space_group_name_H-M   'P 1'
_cell_length_a   12.59972500
_cell_length_b   12.51307751
_cell_length_c   3.97196300
_cell_angle_alpha   90.00000000
_cell_angle_beta   90.00000000
_cell_angle_gamma   120.22933066
_symmetry_Int_Tables_number   1
_chemical_formula_structural   HoLu4P12Ru17Pt2
_chemical_formula_sum   'Ho1 Lu4 P12 Ru17 Pt2'
_cell_volume   541.06915383
_cell_formula_units_Z   1
loop_
 _symmetry_equiv_pos_site_id
 _symmetry_equiv_pos_as_xyz
  1  'x, y, z'
loop_
 _atom_site_type_symbol
 _atom_site_label
 _atom_site_symmetry_multiplicity
 _atom_site_fract_x
 _atom_site_fract_y
 _atom_site_fract_z
 _atom_site_occupancy
  Ho  Ho0  1  0.183369  0.000000  0.500000  1
  Lu  Lu1  1  0.001523  0.182488  0.500000  1
  Lu  Lu2  1  0.819035  0.817512  0.500000  1
  Lu  Lu3  1  0.664129  0.326884  0.000000  1
  Lu  Lu4  1  0.337245  0.673116  0.000000  1
  P  P5  1  0.997170  0.812542  0.000000  1
  P  P6  1  0.184628  0.187458  0.000000  1
  P  P7  1  0.819215  0.000000  0.000000  1
  P  P8  1  0.692463  0.169756  0.500000  1
  P  P9  1  0.816146  0.515114  0.500000  1
  P  P10  1  0.478216  0.299557  0.500000  1
  P  P11  1  0.178658  0.700443  0.500000  1
  P  P12  1  0.522706  0.830244  0.500000  1
  P  P13  1  0.301033  0.484886  0.500000  1
  P  P14  1  0.000287  0.364253  0.000000  1
  P  P15  1  0.636034  0.635747  0.000000  1
  P  P16  1  0.372738  0.000000  0.000000  1
  Ru  Ru17  1  0.555214  0.000000  0.000000  1
  Ru  Ru18  1  0.996924  0.709506  0.500000  1
  Ru  Ru19  1  0.287418  0.290494  0.500000  1
  Ru  Ru20  1  0.719816  0.000000  0.500000  1
  Ru  Ru21  1  0.809594  0.184724  0.000000  1
  Ru  Ru22  1  0.812456  0.618135  0.000000  1
  Ru  Ru23  1  0.376160  0.192777  0.000000  1
  Ru  Ru24  1  0.183383  0.807223  0.000000  1
  Ru  Ru25  1  0.624870  0.815276  0.000000  1
  Ru  Ru26  1  0.194321  0.381865  0.000000  1
  Ru  Ru27  1  0.869335  0.364512  0.500000  1
  Ru  Ru28  1  0.628953  0.505156  0.500000  1
  Ru  Ru29  1  0.492249  0.124621  0.500000  1
  Ru  Ru30  1  0.367627  0.875379  0.500000  1
  Ru  Ru31  1  0.504823  0.635488  0.500000  1
  Ru  Ru32  1  0.123798  0.494844  0.500000  1
  Ru  Ru33  1  0.002265  0.000000  0.000000  1
  Pt  Pt34  1  0.997744  0.549290  0.000000  1
  Pt  Pt35  1  0.448454  0.450710  0.000000  1
