# generated using pymatgen
data_Li4CeSm3(Si2Ge)2
_symmetry_space_group_name_H-M   'P 1'
_cell_length_a   9.46560463
_cell_length_b   9.46560448
_cell_length_c   6.75897900
_cell_angle_alpha   90.00000000
_cell_angle_beta   90.00000000
_cell_angle_gamma   153.23573427
_symmetry_Int_Tables_number   1
_chemical_formula_structural   Li4CeSm3(Si2Ge)2
_chemical_formula_sum   'Li4 Ce1 Sm3 Si4 Ge2'
_cell_volume   272.70919646
_cell_formula_units_Z   1
loop_
 _symmetry_equiv_pos_site_id
 _symmetry_equiv_pos_as_xyz
  1  'x, y, z'
loop_
 _atom_site_type_symbol
 _atom_site_label
 _atom_site_symmetry_multiplicity
 _atom_site_fract_x
 _atom_site_fract_y
 _atom_site_fract_z
 _atom_site_occupancy
  Li  Li0  1  0.811859  0.188141  0.558857  1
  Li  Li1  1  0.188815  0.811185  0.438284  1
  Li  Li2  1  0.188815  0.811185  0.061716  1
  Li  Li3  1  0.811859  0.188141  0.941143  1
  Ce  Ce4  1  0.656161  0.343839  0.750000  1
  Sm  Sm5  1  0.550129  0.449871  0.250000  1
  Sm  Sm6  1  0.448770  0.551230  0.750000  1
  Sm  Sm7  1  0.344697  0.655303  0.250000  1
  Si  Si8  1  0.941423  0.058577  0.074026  1
  Si  Si9  1  0.058946  0.941054  0.925766  1
  Si  Si10  1  0.058946  0.941054  0.574234  1
  Si  Si11  1  0.941423  0.058577  0.425974  1
  Ge  Ge12  1  0.718677  0.281323  0.250000  1
  Ge  Ge13  1  0.279483  0.720517  0.750000  1
