# generated using pymatgen
data_Ta4CrTcOs2
_symmetry_space_group_name_H-M   'P 1'
_cell_length_a   4.47699694
_cell_length_b   6.33578361
_cell_length_c   4.47677476
_cell_angle_alpha   89.96592181
_cell_angle_beta   89.93908823
_cell_angle_gamma   89.96282407
_symmetry_Int_Tables_number   1
_chemical_formula_structural   Ta4CrTcOs2
_chemical_formula_sum   'Ta4 Cr1 Tc1 Os2'
_cell_volume   126.98486598
_cell_formula_units_Z   1
loop_
 _symmetry_equiv_pos_site_id
 _symmetry_equiv_pos_as_xyz
  1  'x, y, z'
loop_
 _atom_site_type_symbol
 _atom_site_label
 _atom_site_symmetry_multiplicity
 _atom_site_fract_x
 _atom_site_fract_y
 _atom_site_fract_z
 _atom_site_occupancy
  Ta  Ta0  1  0.999991  0.996044  0.000018  1
  Ta  Ta1  1  0.499985  0.503969  0.500016  1
  Ta  Ta2  1  0.000018  0.503961  0.999981  1
  Ta  Ta3  1  0.500021  0.996037  0.499979  1
  Cr  Cr4  1  0.999986  0.749986  0.500007  1
  Tc  Tc5  1  0.500002  0.250003  0.000001  1
  Os  Os6  1  0.000004  0.250002  0.499999  1
  Os  Os7  1  0.500001  0.750003  0.999999  1
