# generated using pymatgen
data_Dy3Lu9Os3Rh
_symmetry_space_group_name_H-M   'P 1'
_cell_length_a   7.32647317
_cell_length_b   8.85988700
_cell_length_c   6.23100238
_cell_angle_alpha   90.00000000
_cell_angle_beta   89.99398635
_cell_angle_gamma   90.00000000
_symmetry_Int_Tables_number   1
_chemical_formula_structural   Dy3Lu9Os3Rh
_chemical_formula_sum   'Dy3 Lu9 Os3 Rh1'
_cell_volume   404.46510667
_cell_formula_units_Z   1
loop_
 _symmetry_equiv_pos_site_id
 _symmetry_equiv_pos_as_xyz
  1  'x, y, z'
loop_
 _atom_site_type_symbol
 _atom_site_label
 _atom_site_symmetry_multiplicity
 _atom_site_fract_x
 _atom_site_fract_y
 _atom_site_fract_z
 _atom_site_occupancy
  Dy  Dy0  1  0.537703  0.250000  0.872966  1
  Dy  Dy1  1  0.039230  0.250000  0.627278  1
  Dy  Dy2  1  0.461785  0.750000  0.126923  1
  Lu  Lu3  1  0.673728  0.060685  0.337359  1
  Lu  Lu4  1  0.175783  0.439164  0.166607  1
  Lu  Lu5  1  0.324748  0.563273  0.664803  1
  Lu  Lu6  1  0.824581  0.933434  0.829831  1
  Lu  Lu7  1  0.324748  0.936727  0.664803  1
  Lu  Lu8  1  0.824581  0.566566  0.829831  1
  Lu  Lu9  1  0.673728  0.439315  0.337359  1
  Lu  Lu10  1  0.175783  0.060836  0.166607  1
  Lu  Lu11  1  0.961806  0.750000  0.372327  1
  Os  Os12  1  0.382991  0.250000  0.455945  1
  Os  Os13  1  0.115211  0.750000  0.961420  1
  Os  Os14  1  0.619503  0.750000  0.541352  1
  Rh  Rh15  1  0.884093  0.250000  0.044589  1
