# generated using pymatgen
data_Sr4Np3HgO16
_symmetry_space_group_name_H-M   'P 1'
_cell_length_a   5.50359235
_cell_length_b   8.17675195
_cell_length_c   8.27488837
_cell_angle_alpha   91.90575891
_cell_angle_beta   91.33291745
_cell_angle_gamma   88.66525880
_symmetry_Int_Tables_number   1
_chemical_formula_structural   Sr4Np3HgO16
_chemical_formula_sum   'Sr4 Np3 Hg1 O16'
_cell_volume   371.98127146
_cell_formula_units_Z   1
loop_
 _symmetry_equiv_pos_site_id
 _symmetry_equiv_pos_as_xyz
  1  'x, y, z'
loop_
 _atom_site_type_symbol
 _atom_site_label
 _atom_site_symmetry_multiplicity
 _atom_site_fract_x
 _atom_site_fract_y
 _atom_site_fract_z
 _atom_site_occupancy
  Sr  Sr0  1  0.466593  0.194035  0.222383  1
  Sr  Sr1  1  0.489292  0.295473  0.755199  1
  Sr  Sr2  1  0.510708  0.704527  0.244801  1
  Sr  Sr3  1  0.533407  0.805965  0.777617  1
  Np  Np4  1  0.000000  0.500000  0.000000  1
  Np  Np5  1  0.000000  0.500000  0.500000  1
  Np  Np6  1  0.000000  0.000000  0.500000  1
  Hg  Hg7  1  0.000000  0.000000  0.000000  1
  O  O8  1  0.163716  0.972408  0.704654  1
  O  O9  1  0.134810  0.528579  0.260732  1
  O  O10  1  0.865190  0.471421  0.739268  1
  O  O11  1  0.836284  0.027592  0.295346  1
  O  O12  1  0.160169  0.264848  0.502229  1
  O  O13  1  0.818213  0.707816  0.014457  1
  O  O14  1  0.839831  0.735152  0.497771  1
  O  O15  1  0.181787  0.292184  0.985543  1
  O  O16  1  0.358473  0.931513  0.061595  1
  O  O17  1  0.290486  0.599389  0.936146  1
  O  O18  1  0.705595  0.418864  0.412107  1
  O  O19  1  0.708954  0.067543  0.605141  1
  O  O20  1  0.641527  0.068487  0.938405  1
  O  O21  1  0.709514  0.400611  0.063854  1
  O  O22  1  0.294405  0.581136  0.587893  1
  O  O23  1  0.291046  0.932457  0.394859  1
