# generated using pymatgen
data_BaSr9TcPN10
_symmetry_space_group_name_H-M   'P 1'
_cell_length_a   7.67051719
_cell_length_b   7.62790991
_cell_length_c   8.95454181
_cell_angle_alpha   76.19510469
_cell_angle_beta   76.48648668
_cell_angle_gamma   96.04782571
_symmetry_Int_Tables_number   1
_chemical_formula_structural   BaSr9TcPN10
_chemical_formula_sum   'Ba1 Sr9 Tc1 P1 N10'
_cell_volume   487.45480508
_cell_formula_units_Z   1
loop_
 _symmetry_equiv_pos_site_id
 _symmetry_equiv_pos_as_xyz
  1  'x, y, z'
loop_
 _atom_site_type_symbol
 _atom_site_label
 _atom_site_symmetry_multiplicity
 _atom_site_fract_x
 _atom_site_fract_y
 _atom_site_fract_z
 _atom_site_occupancy
  Ba  Ba0  1  0.088039  0.563689  0.731000  1
  Sr  Sr1  1  0.406188  0.382331  0.380871  1
  Sr  Sr2  1  0.610844  0.595161  0.619420  1
  Sr  Sr3  1  0.669158  0.669976  0.010789  1
  Sr  Sr4  1  0.327612  0.332789  0.989406  1
  Sr  Sr5  1  0.914087  0.933474  0.204188  1
  Sr  Sr6  1  0.065963  0.085585  0.800443  1
  Sr  Sr7  1  0.567165  0.102546  0.759120  1
  Sr  Sr8  1  0.896376  0.430688  0.241083  1
  Sr  Sr9  1  0.456195  0.917449  0.242876  1
  Tc  Tc10  1  0.243622  0.756977  0.003478  1
  P  P11  1  0.755405  0.241965  0.000267  1
  N  N12  1  0.659920  0.657043  0.316395  1
  N  N13  1  0.344883  0.336377  0.683430  1
  N  N14  1  0.720579  0.022243  0.990697  1
  N  N15  1  0.974279  0.280579  0.007808  1
  N  N16  1  0.283115  0.989603  0.022633  1
  N  N17  1  0.011798  0.719937  0.984789  1
  N  N18  1  0.407207  0.734587  0.826134  1
  N  N19  1  0.266666  0.591181  0.180003  1
  N  N20  1  0.611764  0.268770  0.164636  1
  N  N21  1  0.719133  0.387050  0.840531  1
