# generated using pymatgen
data_Th3Co8P6W
_symmetry_space_group_name_H-M   'P 1'
_cell_length_a   3.83245400
_cell_length_b   10.70194700
_cell_length_c   12.45184600
_cell_angle_alpha   90.00000000
_cell_angle_beta   90.00000000
_cell_angle_gamma   90.00000000
_symmetry_Int_Tables_number   1
_chemical_formula_structural   Th3Co8P6W
_chemical_formula_sum   'Th6 Co16 P12 W2'
_cell_volume   510.70897204
_cell_formula_units_Z   2
loop_
 _symmetry_equiv_pos_site_id
 _symmetry_equiv_pos_as_xyz
  1  'x, y, z'
loop_
 _atom_site_type_symbol
 _atom_site_label
 _atom_site_symmetry_multiplicity
 _atom_site_fract_x
 _atom_site_fract_y
 _atom_site_fract_z
 _atom_site_occupancy
  Th  Th0  1  0.000000  0.500000  0.522979  1
  Th  Th1  1  0.500000  0.000000  0.477021  1
  Th  Th2  1  0.500000  0.818322  0.206692  1
  Th  Th3  1  0.500000  0.181678  0.206692  1
  Th  Th4  1  0.000000  0.681678  0.793308  1
  Th  Th5  1  0.000000  0.318322  0.793308  1
  Co  Co6  1  0.500000  0.500000  0.703061  1
  Co  Co7  1  0.000000  0.000000  0.296939  1
  Co  Co8  1  0.000000  0.500000  0.986664  1
  Co  Co9  1  0.500000  0.000000  0.013336  1
  Co  Co10  1  0.500000  0.332316  0.992005  1
  Co  Co11  1  0.500000  0.667684  0.992005  1
  Co  Co12  1  0.000000  0.167684  0.007995  1
  Co  Co13  1  0.000000  0.832316  0.007995  1
  Co  Co14  1  0.500000  0.299216  0.428496  1
  Co  Co15  1  0.500000  0.700784  0.428496  1
  Co  Co16  1  0.000000  0.200784  0.571504  1
  Co  Co17  1  0.000000  0.799216  0.571504  1
  Co  Co18  1  0.500000  0.880527  0.713129  1
  Co  Co19  1  0.500000  0.119473  0.713129  1
  Co  Co20  1  0.000000  0.619473  0.286871  1
  Co  Co21  1  0.000000  0.380527  0.286871  1
  P  P22  1  0.500000  0.500000  0.886491  1
  P  P23  1  0.000000  0.000000  0.113509  1
  P  P24  1  0.500000  0.500000  0.343398  1
  P  P25  1  0.000000  0.000000  0.656602  1
  P  P26  1  0.500000  0.305397  0.612442  1
  P  P27  1  0.500000  0.694603  0.612442  1
  P  P28  1  0.000000  0.194603  0.387558  1
  P  P29  1  0.000000  0.805397  0.387558  1
  P  P30  1  0.500000  0.847211  0.896640  1
  P  P31  1  0.500000  0.152789  0.896640  1
  P  P32  1  0.000000  0.652789  0.103360  1
  P  P33  1  0.000000  0.347211  0.103360  1
  W  W34  1  0.500000  0.500000  0.152572  1
  W  W35  1  0.000000  0.000000  0.847428  1
