# generated using pymatgen
data_NaTbMnPt3
_symmetry_space_group_name_H-M   'P 1'
_cell_length_a   5.53832572
_cell_length_b   5.53832467
_cell_length_c   5.22152424
_cell_angle_alpha   57.97183650
_cell_angle_beta   57.97184228
_cell_angle_gamma   59.99999625
_symmetry_Int_Tables_number   1
_chemical_formula_structural   NaTbMnPt3
_chemical_formula_sum   'Na1 Tb1 Mn1 Pt3'
_cell_volume   109.65335444
_cell_formula_units_Z   1
loop_
 _symmetry_equiv_pos_site_id
 _symmetry_equiv_pos_as_xyz
  1  'x, y, z'
loop_
 _atom_site_type_symbol
 _atom_site_label
 _atom_site_symmetry_multiplicity
 _atom_site_fract_x
 _atom_site_fract_y
 _atom_site_fract_z
 _atom_site_occupancy
  Na  Na0  1  0.251650  0.251650  0.245052  1
  Tb  Tb1  1  0.002708  0.002708  0.991876  1
  Mn  Mn2  1  0.623830  0.623830  0.128511  1
  Pt  Pt3  1  0.623276  0.125262  0.628187  1
  Pt  Pt4  1  0.125262  0.623276  0.628187  1
  Pt  Pt5  1  0.623276  0.623276  0.628187  1
