# generated using pymatgen
data_NdHo2As4Pd7
_symmetry_space_group_name_H-M   'P 1'
_cell_length_a   8.13010114
_cell_length_b   8.13010036
_cell_length_c   9.71394490
_cell_angle_alpha   55.81955932
_cell_angle_beta   55.81956467
_cell_angle_gamma   29.46025170
_symmetry_Int_Tables_number   1
_chemical_formula_structural   NdHo2As4Pd7
_chemical_formula_sum   'Nd1 Ho2 As4 Pd7'
_cell_volume   257.04387582
_cell_formula_units_Z   1
loop_
 _symmetry_equiv_pos_site_id
 _symmetry_equiv_pos_as_xyz
  1  'x, y, z'
loop_
 _atom_site_type_symbol
 _atom_site_label
 _atom_site_symmetry_multiplicity
 _atom_site_fract_x
 _atom_site_fract_y
 _atom_site_fract_z
 _atom_site_occupancy
  Nd  Nd0  1  0.000000  0.000000  0.000000  1
  Ho  Ho1  1  0.676665  0.676665  0.329496  1
  Ho  Ho2  1  0.323335  0.323335  0.670504  1
  As  As3  1  0.337956  0.337956  0.255635  1
  As  As4  1  0.662044  0.662044  0.744365  1
  As  As5  1  0.893141  0.893141  0.819770  1
  As  As6  1  0.106859  0.106859  0.180230  1
  Pd  Pd7  1  0.305861  0.305861  0.025822  1
  Pd  Pd8  1  0.694139  0.694139  0.974178  1
  Pd  Pd9  1  0.512892  0.512892  0.701619  1
  Pd  Pd10  1  0.830776  0.830776  0.431491  1
  Pd  Pd11  1  0.487108  0.487108  0.298381  1
  Pd  Pd12  1  0.169224  0.169224  0.568509  1
  Pd  Pd13  1  0.000000  0.000000  0.500000  1
