# generated using pymatgen
data_Pr12Ir2OsRhBr12
_symmetry_space_group_name_H-M   'P 1'
_cell_length_a   10.57329089
_cell_length_b   10.57647891
_cell_length_c   10.57647708
_cell_angle_alpha   109.42858476
_cell_angle_beta   109.45275791
_cell_angle_gamma   109.45275729
_symmetry_Int_Tables_number   1
_chemical_formula_structural   Pr12Ir2OsRhBr12
_chemical_formula_sum   'Pr12 Ir2 Os1 Rh1 Br12'
_cell_volume   911.37290559
_cell_formula_units_Z   1
loop_
 _symmetry_equiv_pos_site_id
 _symmetry_equiv_pos_as_xyz
  1  'x, y, z'
loop_
 _atom_site_type_symbol
 _atom_site_label
 _atom_site_symmetry_multiplicity
 _atom_site_fract_x
 _atom_site_fract_y
 _atom_site_fract_z
 _atom_site_occupancy
  Pr  Pr0  1  0.468614  0.481597  0.236206  1
  Pr  Pr1  1  0.750000  0.233461  0.266539  1
  Pr  Pr2  1  0.750000  0.015631  0.484369  1
  Pr  Pr3  1  0.235521  0.468238  0.481881  1
  Pr  Pr4  1  0.266743  0.750527  0.233819  1
  Pr  Pr5  1  0.031386  0.263794  0.018403  1
  Pr  Pr6  1  0.018068  0.031531  0.264297  1
  Pr  Pr7  1  0.484866  0.750588  0.015762  1
  Pr  Pr8  1  0.481932  0.235703  0.468469  1
  Pr  Pr9  1  0.015134  0.484238  0.749412  1
  Pr  Pr10  1  0.264479  0.018119  0.031762  1
  Pr  Pr11  1  0.233257  0.266181  0.749473  1
  Ir  Ir12  1  0.500269  0.998539  0.249579  1
  Ir  Ir13  1  0.999731  0.250421  0.501461  1
  Os  Os14  1  0.250000  0.250369  0.249631  1
  Rh  Rh15  1  0.250000  0.500921  0.999079  1
  Br  Br16  1  0.250000  0.753723  0.746277  1
  Br  Br17  1  0.509278  0.504638  0.755217  1
  Br  Br18  1  0.990722  0.744783  0.995362  1
  Br  Br19  1  0.746426  0.250200  0.753918  1
  Br  Br20  1  0.995464  0.990838  0.744992  1
  Br  Br21  1  0.250000  0.995334  0.504666  1
  Br  Br22  1  0.755078  0.509337  0.504652  1
  Br  Br23  1  0.504636  0.250165  0.995315  1
  Br  Br24  1  0.753574  0.746082  0.249800  1
  Br  Br25  1  0.744922  0.995348  0.990663  1
  Br  Br26  1  0.995364  0.504685  0.249835  1
  Br  Br27  1  0.504536  0.755008  0.509162  1
