# generated using pymatgen
data_TbEr19Si15Hg
_symmetry_space_group_name_H-M   'P 1'
_cell_length_a   7.38267162
_cell_length_b   7.65114553
_cell_length_c   14.53496460
_cell_angle_alpha   90.08045928
_cell_angle_beta   90.92725886
_cell_angle_gamma   90.03494075
_symmetry_Int_Tables_number   1
_chemical_formula_structural   TbEr19Si15Hg
_chemical_formula_sum   'Tb1 Er19 Si15 Hg1'
_cell_volume   820.91199453
_cell_formula_units_Z   1
loop_
 _symmetry_equiv_pos_site_id
 _symmetry_equiv_pos_as_xyz
  1  'x, y, z'
loop_
 _atom_site_type_symbol
 _atom_site_label
 _atom_site_symmetry_multiplicity
 _atom_site_fract_x
 _atom_site_fract_y
 _atom_site_fract_z
 _atom_site_occupancy
  Tb  Tb0  1  0.022185  0.817219  0.600769  1
  Er  Er1  1  0.519752  0.674970  0.601961  1
  Er  Er2  1  0.318568  0.820718  0.121231  1
  Er  Er3  1  0.818527  0.677513  0.121502  1
  Er  Er4  1  0.848213  0.508192  0.750006  1
  Er  Er5  1  0.470806  0.318447  0.097562  1
  Er  Er6  1  0.026707  0.816117  0.900976  1
  Er  Er7  1  0.476888  0.325410  0.400552  1
  Er  Er8  1  0.653067  0.010132  0.248287  1
  Er  Er9  1  0.528495  0.683012  0.900681  1
  Er  Er10  1  0.679242  0.178099  0.877688  1
  Er  Er11  1  0.174062  0.323514  0.624351  1
  Er  Er12  1  0.180422  0.322157  0.878179  1
  Er  Er13  1  0.829912  0.669279  0.373570  1
  Er  Er14  1  0.320594  0.824909  0.376398  1
  Er  Er15  1  0.346396  0.990058  0.748549  1
  Er  Er16  1  0.674996  0.179431  0.627569  1
  Er  Er17  1  0.154274  0.489058  0.250027  1
  Er  Er18  1  0.971170  0.183654  0.097828  1
  Er  Er19  1  0.984428  0.188111  0.398881  1
  Si  Si20  1  0.229095  0.628459  0.752753  1
  Si  Si21  1  0.338288  0.031857  0.542117  1
  Si  Si22  1  0.024849  0.894720  0.247136  1
  Si  Si23  1  0.728231  0.868798  0.753044  1
  Si  Si24  1  0.272862  0.129106  0.246949  1
  Si  Si25  1  0.840854  0.467456  0.540509  1
  Si  Si26  1  0.474801  0.395177  0.753245  1
  Si  Si27  1  0.157517  0.531831  0.460912  1
  Si  Si28  1  0.145842  0.528282  0.041085  1
  Si  Si29  1  0.975219  0.106240  0.753205  1
  Si  Si30  1  0.769546  0.371812  0.247346  1
  Si  Si31  1  0.351553  0.029640  0.959809  1
  Si  Si32  1  0.852524  0.471685  0.958192  1
  Si  Si33  1  0.646049  0.969813  0.039471  1
  Si  Si34  1  0.525094  0.609011  0.246782  1
  Hg  Hg35  1  0.668974  0.966113  0.460881  1
