# generated using pymatgen
data_Nd4Y(SnBi)2
_symmetry_space_group_name_H-M   'P 1'
_cell_length_a   8.38940100
_cell_length_b   8.40699900
_cell_length_c   16.04697100
_cell_angle_alpha   90.00000000
_cell_angle_beta   90.00000000
_cell_angle_gamma   90.00000000
_symmetry_Int_Tables_number   1
_chemical_formula_structural   Nd4Y(SnBi)2
_chemical_formula_sum   'Nd16 Y4 Sn8 Bi8'
_cell_volume   1131.78782295
_cell_formula_units_Z   4
loop_
 _symmetry_equiv_pos_site_id
 _symmetry_equiv_pos_as_xyz
  1  'x, y, z'
loop_
 _atom_site_type_symbol
 _atom_site_label
 _atom_site_symmetry_multiplicity
 _atom_site_fract_x
 _atom_site_fract_y
 _atom_site_fract_z
 _atom_site_occupancy
  Nd  Nd0  1  0.042540  0.176164  0.392224  1
  Nd  Nd1  1  0.383537  0.837069  0.122331  1
  Nd  Nd2  1  0.116463  0.337069  0.622331  1
  Nd  Nd3  1  0.457460  0.676164  0.892224  1
  Nd  Nd4  1  0.883537  0.662931  0.122331  1
  Nd  Nd5  1  0.116463  0.337069  0.877669  1
  Nd  Nd6  1  0.457460  0.676164  0.607776  1
  Nd  Nd7  1  0.616463  0.162931  0.622331  1
  Nd  Nd8  1  0.883537  0.662931  0.377669  1
  Nd  Nd9  1  0.042540  0.176164  0.107776  1
  Nd  Nd10  1  0.957460  0.823836  0.892224  1
  Nd  Nd11  1  0.616463  0.162931  0.877669  1
  Nd  Nd12  1  0.542540  0.323836  0.107776  1
  Nd  Nd13  1  0.383537  0.837069  0.377669  1
  Nd  Nd14  1  0.957460  0.823836  0.607776  1
  Nd  Nd15  1  0.542540  0.323836  0.392224  1
  Y  Y16  1  0.211619  0.495569  0.250000  1
  Y  Y17  1  0.711619  0.004431  0.250000  1
  Y  Y18  1  0.288381  0.995569  0.750000  1
  Y  Y19  1  0.788381  0.504431  0.750000  1
  Sn  Sn20  1  0.654308  0.857867  0.750000  1
  Sn  Sn21  1  0.845692  0.357867  0.250000  1
  Sn  Sn22  1  0.579339  0.622704  0.250000  1
  Sn  Sn23  1  0.420661  0.377296  0.750000  1
  Sn  Sn24  1  0.154308  0.642133  0.750000  1
  Sn  Sn25  1  0.920661  0.122704  0.750000  1
  Sn  Sn26  1  0.345692  0.142133  0.250000  1
  Sn  Sn27  1  0.079339  0.877296  0.250000  1
  Bi  Bi28  1  0.774372  0.476450  0.545827  1
  Bi  Bi29  1  0.725628  0.976450  0.454173  1
  Bi  Bi30  1  0.225628  0.523550  0.454173  1
  Bi  Bi31  1  0.274372  0.023550  0.954173  1
  Bi  Bi32  1  0.774372  0.476450  0.954173  1
  Bi  Bi33  1  0.225628  0.523550  0.045827  1
  Bi  Bi34  1  0.274372  0.023550  0.545827  1
  Bi  Bi35  1  0.725628  0.976450  0.045827  1
