# generated using pymatgen
data_K7Rb(HgSe2)4
_symmetry_space_group_name_H-M   'P 1'
_cell_length_a   7.73256780
_cell_length_b   8.51797211
_cell_length_c   11.35739300
_cell_angle_alpha   90.00000000
_cell_angle_beta   90.00000000
_cell_angle_gamma   89.90234642
_symmetry_Int_Tables_number   1
_chemical_formula_structural   K7Rb(HgSe2)4
_chemical_formula_sum   'K7 Rb1 Hg4 Se8'
_cell_volume   748.06265292
_cell_formula_units_Z   1
loop_
 _symmetry_equiv_pos_site_id
 _symmetry_equiv_pos_as_xyz
  1  'x, y, z'
loop_
 _atom_site_type_symbol
 _atom_site_label
 _atom_site_symmetry_multiplicity
 _atom_site_fract_x
 _atom_site_fract_y
 _atom_site_fract_z
 _atom_site_occupancy
  K  K0  1  0.749265  0.953086  0.886771  1
  K  K1  1  0.250735  0.546914  0.886771  1
  K  K2  1  0.500000  0.250000  0.396338  1
  K  K3  1  0.000000  0.250000  0.396547  1
  K  K4  1  0.500000  0.750000  0.602834  1
  K  K5  1  0.250134  0.047773  0.113749  1
  K  K6  1  0.749866  0.452227  0.113749  1
  Rb  Rb7  1  0.000000  0.750000  0.605224  1
  Hg  Hg8  1  0.748942  0.836216  0.283266  1
  Hg  Hg9  1  0.748342  0.337573  0.716526  1
  Hg  Hg10  1  0.251058  0.663784  0.283266  1
  Hg  Hg11  1  0.251658  0.162427  0.716526  1
  Se  Se12  1  0.750644  0.078645  0.163142  1
  Se  Se13  1  0.251687  0.413042  0.605966  1
  Se  Se14  1  0.745422  0.582820  0.390782  1
  Se  Se15  1  0.249356  0.421355  0.163142  1
  Se  Se16  1  0.254578  0.917180  0.390782  1
  Se  Se17  1  0.746818  0.577593  0.839327  1
  Se  Se18  1  0.253182  0.922407  0.839327  1
  Se  Se19  1  0.748313  0.086958  0.605966  1
