# generated using pymatgen
data_TbHo15In4(NiRh)2
_symmetry_space_group_name_H-M   'P 1'
_cell_length_a   9.57640261
_cell_length_b   9.58153723
_cell_length_c   9.57416936
_cell_angle_alpha   60.00061235
_cell_angle_beta   60.17086993
_cell_angle_gamma   60.00286755
_symmetry_Int_Tables_number   1
_chemical_formula_structural   TbHo15In4(NiRh)2
_chemical_formula_sum   'Tb1 Ho15 In4 Ni2 Rh2'
_cell_volume   622.00350906
_cell_formula_units_Z   1
loop_
 _symmetry_equiv_pos_site_id
 _symmetry_equiv_pos_as_xyz
  1  'x, y, z'
loop_
 _atom_site_type_symbol
 _atom_site_label
 _atom_site_symmetry_multiplicity
 _atom_site_fract_x
 _atom_site_fract_y
 _atom_site_fract_z
 _atom_site_occupancy
  Tb  Tb0  1  0.187802  0.188244  0.813750  1
  Ho  Ho1  1  0.597789  0.600173  0.203032  1
  Ho  Ho2  1  0.438993  0.061281  0.438296  1
  Ho  Ho3  1  0.439670  0.438428  0.062287  1
  Ho  Ho4  1  0.811655  0.187449  0.812102  1
  Ho  Ho5  1  0.187595  0.812304  0.187944  1
  Ho  Ho6  1  0.440306  0.059144  0.062483  1
  Ho  Ho7  1  0.187069  0.810949  0.813459  1
  Ho  Ho8  1  0.060451  0.440084  0.060754  1
  Ho  Ho9  1  0.813607  0.811591  0.186829  1
  Ho  Ho10  1  0.202910  0.600424  0.597716  1
  Ho  Ho11  1  0.062408  0.438721  0.439183  1
  Ho  Ho12  1  0.062263  0.059292  0.440117  1
  Ho  Ho13  1  0.812869  0.188675  0.188616  1
  Ho  Ho14  1  0.598641  0.202058  0.598350  1
  Ho  Ho15  1  0.596614  0.600807  0.596357  1
  In  In16  1  0.833205  0.832628  0.833058  1
  In  In17  1  0.832747  0.832453  0.502053  1
  In  In18  1  0.502552  0.831955  0.832682  1
  In  In19  1  0.832138  0.502850  0.832640  1
  Ni  Ni20  1  0.391681  0.823275  0.391685  1
  Ni  Ni21  1  0.392242  0.393185  0.391945  1
  Rh  Rh22  1  0.822932  0.391893  0.391628  1
  Rh  Rh23  1  0.391860  0.392140  0.823033  1
