# generated using pymatgen
data_ErTh(NbSe2)8
_symmetry_space_group_name_H-M   'P 1'
_cell_length_a   7.02577100
_cell_length_b   7.02577061
_cell_length_c   14.34548500
_cell_angle_alpha   90.00000000
_cell_angle_beta   90.00000000
_cell_angle_gamma   119.99999715
_symmetry_Int_Tables_number   1
_chemical_formula_structural   ErTh(NbSe2)8
_chemical_formula_sum   'Er1 Th1 Nb8 Se16'
_cell_volume   613.24474563
_cell_formula_units_Z   1
loop_
 _symmetry_equiv_pos_site_id
 _symmetry_equiv_pos_as_xyz
  1  'x, y, z'
loop_
 _atom_site_type_symbol
 _atom_site_label
 _atom_site_symmetry_multiplicity
 _atom_site_fract_x
 _atom_site_fract_y
 _atom_site_fract_z
 _atom_site_occupancy
  Er  Er0  1  0.000000  0.000000  0.500000  1
  Th  Th1  1  0.000000  0.000000  0.000000  1
  Nb  Nb2  1  0.000000  0.000000  0.254182  1
  Nb  Nb3  1  0.000000  0.000000  0.745818  1
  Nb  Nb4  1  0.506904  0.013808  0.255106  1
  Nb  Nb5  1  0.986192  0.493096  0.255106  1
  Nb  Nb6  1  0.506904  0.493096  0.255106  1
  Nb  Nb7  1  0.493096  0.986192  0.744894  1
  Nb  Nb8  1  0.013808  0.506904  0.744894  1
  Nb  Nb9  1  0.493096  0.506904  0.744894  1
  Se  Se10  1  0.333333  0.666667  0.865866  1
  Se  Se11  1  0.666667  0.333333  0.134134  1
  Se  Se12  1  0.666667  0.333333  0.375514  1
  Se  Se13  1  0.333333  0.666667  0.624486  1
  Se  Se14  1  0.169968  0.830032  0.370052  1
  Se  Se15  1  0.169968  0.339935  0.370052  1
  Se  Se16  1  0.660065  0.830032  0.370052  1
  Se  Se17  1  0.830032  0.169968  0.629948  1
  Se  Se18  1  0.830032  0.660065  0.629948  1
  Se  Se19  1  0.339935  0.169968  0.629948  1
  Se  Se20  1  0.829235  0.170765  0.860502  1
  Se  Se21  1  0.829235  0.658472  0.860502  1
  Se  Se22  1  0.341528  0.170765  0.860502  1
  Se  Se23  1  0.170765  0.829235  0.139498  1
  Se  Se24  1  0.170765  0.341528  0.139498  1
  Se  Se25  1  0.658472  0.829235  0.139498  1
