# generated using pymatgen
data_U4Re6SiGe5Mo
_symmetry_space_group_name_H-M   'P 1'
_cell_length_a   7.25288219
_cell_length_b   7.25288059
_cell_length_c   7.25288149
_cell_angle_alpha   109.45010911
_cell_angle_beta   109.45011134
_cell_angle_gamma   109.51345331
_symmetry_Int_Tables_number   1
_chemical_formula_structural   U4Re6SiGe5Mo
_chemical_formula_sum   'U4 Re6 Si1 Ge5 Mo1'
_cell_volume   293.70385353
_cell_formula_units_Z   1
loop_
 _symmetry_equiv_pos_site_id
 _symmetry_equiv_pos_as_xyz
  1  'x, y, z'
loop_
 _atom_site_type_symbol
 _atom_site_label
 _atom_site_symmetry_multiplicity
 _atom_site_fract_x
 _atom_site_fract_y
 _atom_site_fract_z
 _atom_site_occupancy
  U  U0  1  0.504330  0.504330  0.506495  1
  U  U1  1  0.997835  0.997835  0.493505  1
  U  U2  1  0.504330  0.997835  0.000000  1
  U  U3  1  0.997835  0.504330  0.000000  1
  Re  Re4  1  0.752016  0.252016  0.500000  1
  Re  Re5  1  0.501843  0.253346  0.751503  1
  Re  Re6  1  0.501843  0.750341  0.248497  1
  Re  Re7  1  0.253346  0.501843  0.751503  1
  Re  Re8  1  0.750341  0.501843  0.248497  1
  Re  Re9  1  0.252016  0.752016  0.500000  1
  Si  Si10  1  0.683665  0.683665  0.000000  1
  Ge  Ge11  1  0.303350  0.303350  0.000000  1
  Ge  Ge12  1  0.001864  0.309797  0.307933  1
  Ge  Ge13  1  0.001864  0.693931  0.692067  1
  Ge  Ge14  1  0.693931  0.001864  0.692067  1
  Ge  Ge15  1  0.309797  0.001864  0.307933  1
  Mo  Mo16  1  0.989793  0.989793  0.000000  1
