# generated using pymatgen
data_Sc4Ga20TcOs5
_symmetry_space_group_name_H-M   'P 1'
_cell_length_a   8.92983311
_cell_length_b   8.92983311
_cell_length_c   6.12680300
_cell_angle_alpha   90.00000000
_cell_angle_beta   90.00000000
_cell_angle_gamma   89.81129887
_symmetry_Int_Tables_number   1
_chemical_formula_structural   Sc4Ga20TcOs5
_chemical_formula_sum   'Sc4 Ga20 Tc1 Os5'
_cell_volume   488.56038089
_cell_formula_units_Z   1
loop_
 _symmetry_equiv_pos_site_id
 _symmetry_equiv_pos_as_xyz
  1  'x, y, z'
loop_
 _atom_site_type_symbol
 _atom_site_label
 _atom_site_symmetry_multiplicity
 _atom_site_fract_x
 _atom_site_fract_y
 _atom_site_fract_z
 _atom_site_occupancy
  Sc  Sc0  1  0.682284  0.182284  0.000000  1
  Sc  Sc1  1  0.317213  0.817213  0.000000  1
  Sc  Sc2  1  0.817656  0.682934  0.000000  1
  Sc  Sc3  1  0.182934  0.317656  0.000000  1
  Ga  Ga4  1  0.937348  0.208023  0.286334  1
  Ga  Ga5  1  0.708023  0.437348  0.286334  1
  Ga  Ga6  1  0.500030  0.000030  0.270344  1
  Ga  Ga7  1  0.562444  0.708159  0.714509  1
  Ga  Ga8  1  0.291659  0.562383  0.714235  1
  Ga  Ga9  1  0.791463  0.938252  0.286657  1
  Ga  Ga10  1  0.937348  0.208023  0.713666  1
  Ga  Ga11  1  0.291659  0.562383  0.285765  1
  Ga  Ga12  1  0.062383  0.791659  0.285765  1
  Ga  Ga13  1  0.708023  0.437348  0.713666  1
  Ga  Ga14  1  0.438252  0.291463  0.713343  1
  Ga  Ga15  1  0.062383  0.791659  0.714235  1
  Ga  Ga16  1  0.208159  0.062444  0.714509  1
  Ga  Ga17  1  0.791463  0.938252  0.713343  1
  Ga  Ga18  1  0.208159  0.062444  0.285491  1
  Ga  Ga19  1  0.000270  0.500270  0.730151  1
  Ga  Ga20  1  0.000270  0.500270  0.269849  1
  Ga  Ga21  1  0.562444  0.708159  0.285491  1
  Ga  Ga22  1  0.438252  0.291463  0.286657  1
  Ga  Ga23  1  0.500030  0.000030  0.729656  1
  Tc  Tc24  1  0.677498  0.177498  0.500000  1
  Os  Os25  1  0.822954  0.677113  0.500000  1
  Os  Os26  1  0.177113  0.322954  0.500000  1
  Os  Os27  1  0.000626  0.999094  0.000000  1
  Os  Os28  1  0.322566  0.822566  0.500000  1
  Os  Os29  1  0.499094  0.500626  0.000000  1
