# generated using pymatgen
data_Mn3Cr(CuSe4)2
_symmetry_space_group_name_H-M   'P 1'
_cell_length_a   7.37482996
_cell_length_b   7.37482993
_cell_length_c   7.37482995
_cell_angle_alpha   59.88111841
_cell_angle_beta   59.88111589
_cell_angle_gamma   59.88111294
_symmetry_Int_Tables_number   1
_chemical_formula_structural   Mn3Cr(CuSe4)2
_chemical_formula_sum   'Mn3 Cr1 Cu2 Se8'
_cell_volume   282.85768318
_cell_formula_units_Z   1
loop_
 _symmetry_equiv_pos_site_id
 _symmetry_equiv_pos_as_xyz
  1  'x, y, z'
loop_
 _atom_site_type_symbol
 _atom_site_label
 _atom_site_symmetry_multiplicity
 _atom_site_fract_x
 _atom_site_fract_y
 _atom_site_fract_z
 _atom_site_occupancy
  Mn  Mn0  1  0.125000  0.625000  0.625000  1
  Mn  Mn1  1  0.625000  0.125000  0.625000  1
  Mn  Mn2  1  0.625000  0.625000  0.125000  1
  Cr  Cr3  1  0.625000  0.625000  0.625000  1
  Cu  Cu4  1  0.250162  0.250162  0.250162  1
  Cu  Cu5  1  0.999838  0.999838  0.999838  1
  Se  Se6  1  0.850481  0.382842  0.382842  1
  Se  Se7  1  0.382842  0.850481  0.382842  1
  Se  Se8  1  0.382842  0.382842  0.850481  1
  Se  Se9  1  0.382585  0.382585  0.382585  1
  Se  Se10  1  0.399519  0.867158  0.867158  1
  Se  Se11  1  0.867158  0.399519  0.867158  1
  Se  Se12  1  0.867158  0.867158  0.399519  1
  Se  Se13  1  0.867415  0.867415  0.867415  1
