# generated using pymatgen
data_NaPr5YRhBr12
_symmetry_space_group_name_H-M   'P 1'
_cell_length_a   9.56096329
_cell_length_b   9.63242418
_cell_length_c   9.53714851
_cell_angle_alpha   107.51333870
_cell_angle_beta   107.27590346
_cell_angle_gamma   106.80859485
_symmetry_Int_Tables_number   1
_chemical_formula_structural   NaPr5YRhBr12
_chemical_formula_sum   'Na1 Pr5 Y1 Rh1 Br12'
_cell_volume   727.44340332
_cell_formula_units_Z   1
loop_
 _symmetry_equiv_pos_site_id
 _symmetry_equiv_pos_as_xyz
  1  'x, y, z'
loop_
 _atom_site_type_symbol
 _atom_site_label
 _atom_site_symmetry_multiplicity
 _atom_site_fract_x
 _atom_site_fract_y
 _atom_site_fract_z
 _atom_site_occupancy
  Na  Na0  1  0.499923  0.500478  0.499564  1
  Pr  Pr1  1  0.316857  0.029698  0.111443  1
  Pr  Pr2  1  0.031940  0.113785  0.319708  1
  Pr  Pr3  1  0.969443  0.890781  0.682282  1
  Pr  Pr4  1  0.683627  0.970459  0.888733  1
  Pr  Pr5  1  0.883694  0.669151  0.967874  1
  Y  Y6  1  0.113999  0.323300  0.032361  1
  Rh  Rh7  1  0.000712  0.000973  0.001159  1
  Br  Br8  1  0.216598  0.675860  0.071804  1
  Br  Br9  1  0.443709  0.372241  0.151096  1
  Br  Br10  1  0.684304  0.073791  0.219853  1
  Br  Br11  1  0.927784  0.783772  0.316837  1
  Br  Br12  1  0.155600  0.454158  0.363003  1
  Br  Br13  1  0.375195  0.158540  0.457854  1
  Br  Br14  1  0.625151  0.842266  0.542478  1
  Br  Br15  1  0.843648  0.546053  0.625526  1
  Br  Br16  1  0.075014  0.223720  0.694557  1
  Br  Br17  1  0.315924  0.926759  0.780572  1
  Br  Br18  1  0.544225  0.628215  0.842984  1
  Br  Br19  1  0.792659  0.316004  0.930316  1
