# generated using pymatgen
data_LiCe6ZrSb10
_symmetry_space_group_name_H-M   'P 1'
_cell_length_a   9.37199900
_cell_length_b   9.37199856
_cell_length_c   6.29387200
_cell_angle_alpha   90.00000000
_cell_angle_beta   90.00000000
_cell_angle_gamma   119.99999802
_symmetry_Int_Tables_number   1
_chemical_formula_structural   LiCe6ZrSb10
_chemical_formula_sum   'Li1 Ce6 Zr1 Sb10'
_cell_volume   478.75463714
_cell_formula_units_Z   1
loop_
 _symmetry_equiv_pos_site_id
 _symmetry_equiv_pos_as_xyz
  1  'x, y, z'
loop_
 _atom_site_type_symbol
 _atom_site_label
 _atom_site_symmetry_multiplicity
 _atom_site_fract_x
 _atom_site_fract_y
 _atom_site_fract_z
 _atom_site_occupancy
  Li  Li0  1  0.000000  0.000000  0.000000  1
  Ce  Ce1  1  0.616931  0.000000  0.248307  1
  Ce  Ce2  1  0.383069  0.000000  0.751693  1
  Ce  Ce3  1  0.000000  0.616931  0.248307  1
  Ce  Ce4  1  0.000000  0.383069  0.751693  1
  Ce  Ce5  1  0.383069  0.383069  0.248307  1
  Ce  Ce6  1  0.616931  0.616931  0.751693  1
  Zr  Zr7  1  0.000000  0.000000  0.500000  1
  Sb  Sb8  1  0.262982  0.000000  0.247593  1
  Sb  Sb9  1  0.737018  0.000000  0.752407  1
  Sb  Sb10  1  0.000000  0.262982  0.247593  1
  Sb  Sb11  1  0.000000  0.737018  0.752407  1
  Sb  Sb12  1  0.737018  0.737018  0.247593  1
  Sb  Sb13  1  0.262982  0.262982  0.752407  1
  Sb  Sb14  1  0.333333  0.666667  0.000000  1
  Sb  Sb15  1  0.666667  0.333333  0.000000  1
  Sb  Sb16  1  0.666667  0.333333  0.500000  1
  Sb  Sb17  1  0.333333  0.666667  0.500000  1
