# generated using pymatgen
data_Tm20Si15Au
_symmetry_space_group_name_H-M   'P 1'
_cell_length_a   7.31644840
_cell_length_b   7.58002384
_cell_length_c   14.44136721
_cell_angle_alpha   89.80860178
_cell_angle_beta   89.51784129
_cell_angle_gamma   90.10173683
_symmetry_Int_Tables_number   1
_chemical_formula_structural   Tm20Si15Au
_chemical_formula_sum   'Tm20 Si15 Au1'
_cell_volume   800.86753626
_cell_formula_units_Z   1
loop_
 _symmetry_equiv_pos_site_id
 _symmetry_equiv_pos_as_xyz
  1  'x, y, z'
loop_
 _atom_site_type_symbol
 _atom_site_label
 _atom_site_symmetry_multiplicity
 _atom_site_fract_x
 _atom_site_fract_y
 _atom_site_fract_z
 _atom_site_occupancy
  Tm  Tm0  1  0.017563  0.179500  0.098089  1
  Tm  Tm1  1  0.982607  0.821041  0.903421  1
  Tm  Tm2  1  0.482840  0.680616  0.903599  1
  Tm  Tm3  1  0.985112  0.825019  0.598175  1
  Tm  Tm4  1  0.516006  0.319039  0.096928  1
  Tm  Tm5  1  0.014111  0.176979  0.399341  1
  Tm  Tm6  1  0.512830  0.319753  0.400442  1
  Tm  Tm7  1  0.487210  0.680481  0.599110  1
  Tm  Tm8  1  0.163887  0.510350  0.749859  1
  Tm  Tm9  1  0.837389  0.490934  0.251318  1
  Tm  Tm10  1  0.337578  0.007334  0.249939  1
  Tm  Tm11  1  0.663923  0.988858  0.750015  1
  Tm  Tm12  1  0.335724  0.177377  0.623189  1
  Tm  Tm13  1  0.666320  0.822516  0.375665  1
  Tm  Tm14  1  0.170354  0.673008  0.375278  1
  Tm  Tm15  1  0.671638  0.822674  0.123827  1
  Tm  Tm16  1  0.830322  0.325586  0.623367  1
  Tm  Tm17  1  0.328200  0.178271  0.877461  1
  Tm  Tm18  1  0.828408  0.320588  0.877874  1
  Tm  Tm19  1  0.170347  0.678285  0.123540  1
  Si  Si20  1  0.035630  0.109005  0.751542  1
  Si  Si21  1  0.966177  0.893886  0.249453  1
  Si  Si22  1  0.466433  0.605016  0.248109  1
  Si  Si23  1  0.535772  0.394163  0.752054  1
  Si  Si24  1  0.280749  0.872935  0.751335  1
  Si  Si25  1  0.717830  0.130409  0.248578  1
  Si  Si26  1  0.218927  0.367053  0.247156  1
  Si  Si27  1  0.782486  0.629694  0.753684  1
  Si  Si28  1  0.833136  0.531111  0.458981  1
  Si  Si29  1  0.336568  0.967522  0.459685  1
  Si  Si30  1  0.842689  0.531993  0.038802  1
  Si  Si31  1  0.661769  0.032891  0.538006  1
  Si  Si32  1  0.155753  0.467996  0.962139  1
  Si  Si33  1  0.656626  0.030230  0.960958  1
  Si  Si34  1  0.343473  0.968369  0.039398  1
  Au  Au35  1  0.163610  0.469521  0.539684  1
