# generated using pymatgen
data_YHoTh(InIr)3
_symmetry_space_group_name_H-M   'P 1'
_cell_length_a   7.53437779
_cell_length_b   7.58747992
_cell_length_c   3.92900500
_cell_angle_alpha   90.00000000
_cell_angle_beta   90.00000000
_cell_angle_gamma   118.03462420
_symmetry_Int_Tables_number   1
_chemical_formula_structural   YHoTh(InIr)3
_chemical_formula_sum   'Y1 Ho1 Th1 In3 Ir3'
_cell_volume   198.25438815
_cell_formula_units_Z   1
loop_
 _symmetry_equiv_pos_site_id
 _symmetry_equiv_pos_as_xyz
  1  'x, y, z'
loop_
 _atom_site_type_symbol
 _atom_site_label
 _atom_site_symmetry_multiplicity
 _atom_site_fract_x
 _atom_site_fract_y
 _atom_site_fract_z
 _atom_site_occupancy
  Y  Y0  1  0.404892  0.001074  0.000000  1
  Ho  Ho1  1  0.001153  0.405052  0.000000  1
  Th  Th2  1  0.583408  0.583173  0.000000  1
  In  In3  1  0.010320  0.743363  0.500000  1
  In  In4  1  0.243690  0.244045  0.500000  1
  In  In5  1  0.742666  0.009978  0.500000  1
  Ir  Ir6  1  0.994444  0.996487  0.000000  1
  Ir  Ir7  1  0.671769  0.352925  0.500000  1
  Ir  Ir8  1  0.347659  0.663904  0.500000  1
