# generated using pymatgen
data_Ni10P5Ru2
_symmetry_space_group_name_H-M   'P 1'
_cell_length_a   6.66876274
_cell_length_b   6.66876195
_cell_length_c   6.67127424
_cell_angle_alpha   99.54829323
_cell_angle_beta   97.92663626
_cell_angle_gamma   134.11507544
_symmetry_Int_Tables_number   1
_chemical_formula_structural   Ni10P5Ru2
_chemical_formula_sum   'Ni10 P5 Ru2'
_cell_volume   196.14195927
_cell_formula_units_Z   1
loop_
 _symmetry_equiv_pos_site_id
 _symmetry_equiv_pos_as_xyz
  1  'x, y, z'
loop_
 _atom_site_type_symbol
 _atom_site_label
 _atom_site_symmetry_multiplicity
 _atom_site_fract_x
 _atom_site_fract_y
 _atom_site_fract_z
 _atom_site_occupancy
  Ni  Ni0  1  0.933736  0.632649  0.048527  1
  Ni  Ni1  1  0.123084  0.686946  0.699104  1
  Ni  Ni2  1  0.311605  0.999658  0.422636  1
  Ni  Ni3  1  0.577022  0.888969  0.577364  1
  Ni  Ni4  1  0.987841  0.423980  0.300896  1
  Ni  Ni5  1  0.584122  0.885209  0.951473  1
  Ni  Ni6  1  0.058446  0.363075  0.916546  1
  Ni  Ni7  1  0.141343  0.081793  0.720554  1
  Ni  Ni8  1  0.361239  0.420789  0.279446  1
  Ni  Ni9  1  0.446529  0.141901  0.083454  1
  P  P10  1  0.996395  0.996395  0.000000  1
  P  P11  1  0.579211  0.190390  0.782536  1
  P  P12  1  0.802895  0.583884  0.397770  1
  P  P13  1  0.186114  0.405125  0.602230  1
  P  P14  1  0.407854  0.796675  0.217464  1
  Ru  Ru15  1  0.635727  0.555755  0.688918  1
  Ru  Ru16  1  0.866836  0.946808  0.311082  1
