# generated using pymatgen
data_Nd2Be3SiIr6
_symmetry_space_group_name_H-M   'P 1'
_cell_length_a   6.54147964
_cell_length_b   6.55425613
_cell_length_c   6.54147791
_cell_angle_alpha   130.03121473
_cell_angle_beta   115.06282787
_cell_angle_gamma   86.10429531
_symmetry_Int_Tables_number   1
_chemical_formula_structural   Nd2Be3SiIr6
_chemical_formula_sum   'Nd2 Be3 Si1 Ir6'
_cell_volume   185.87893850
_cell_formula_units_Z   1
loop_
 _symmetry_equiv_pos_site_id
 _symmetry_equiv_pos_as_xyz
  1  'x, y, z'
loop_
 _atom_site_type_symbol
 _atom_site_label
 _atom_site_symmetry_multiplicity
 _atom_site_fract_x
 _atom_site_fract_y
 _atom_site_fract_z
 _atom_site_occupancy
  Nd  Nd0  1  0.245939  0.993630  0.747691  1
  Nd  Nd1  1  0.754716  0.015913  0.261197  1
  Be  Be2  1  0.080097  0.308271  0.228174  1
  Be  Be3  1  0.905978  0.671430  0.765451  1
  Be  Be4  1  0.426210  0.654336  0.228128  1
  Si  Si5  1  0.586678  0.352771  0.766092  1
  Ir  Ir6  1  0.490142  0.504000  0.490436  1
  Ir  Ir7  1  0.013564  0.504000  0.013857  1
  Ir  Ir8  1  0.253284  0.994454  0.252471  1
  Ir  Ir9  1  0.741983  0.994454  0.741170  1
  Ir  Ir10  1  0.234888  0.503370  0.736850  1
  Ir  Ir11  1  0.766520  0.503370  0.268482  1
