# generated using pymatgen
data_Pa2MnSe6
_symmetry_space_group_name_H-M   'P 1'
_cell_length_a   7.56452410
_cell_length_b   7.56452478
_cell_length_c   11.51599768
_cell_angle_alpha   58.45631116
_cell_angle_beta   58.45630882
_cell_angle_gamma   29.70469538
_symmetry_Int_Tables_number   1
_chemical_formula_structural   Pa2MnSe6
_chemical_formula_sum   'Pa2 Mn1 Se6'
_cell_volume   274.57781143
_cell_formula_units_Z   1
loop_
 _symmetry_equiv_pos_site_id
 _symmetry_equiv_pos_as_xyz
  1  'x, y, z'
loop_
 _atom_site_type_symbol
 _atom_site_label
 _atom_site_symmetry_multiplicity
 _atom_site_fract_x
 _atom_site_fract_y
 _atom_site_fract_z
 _atom_site_occupancy
  Pa  Pa0  1  0.317703  0.317703  0.295021  1
  Pa  Pa1  1  0.682297  0.682297  0.704979  1
  Mn  Mn2  1  0.000000  0.000000  0.000000  1
  Se  Se3  1  0.804876  0.804876  0.118429  1
  Se  Se4  1  0.195124  0.195124  0.881571  1
  Se  Se5  1  0.340343  0.340343  0.529291  1
  Se  Se6  1  0.985394  0.985394  0.220414  1
  Se  Se7  1  0.014606  0.014606  0.779586  1
  Se  Se8  1  0.659657  0.659657  0.470709  1
