# generated using pymatgen
data_Li19Ir5N9
_symmetry_space_group_name_H-M   'P 1'
_cell_length_a   7.52590040
_cell_length_b   7.52539120
_cell_length_c   11.35650057
_cell_angle_alpha   59.00854027
_cell_angle_beta   59.00775223
_cell_angle_gamma   49.79819761
_symmetry_Int_Tables_number   1
_chemical_formula_structural   Li19Ir5N9
_chemical_formula_sum   'Li19 Ir5 N9'
_cell_volume   404.41626898
_cell_formula_units_Z   1
loop_
 _symmetry_equiv_pos_site_id
 _symmetry_equiv_pos_as_xyz
  1  'x, y, z'
loop_
 _atom_site_type_symbol
 _atom_site_label
 _atom_site_symmetry_multiplicity
 _atom_site_fract_x
 _atom_site_fract_y
 _atom_site_fract_z
 _atom_site_occupancy
  Li  Li0  1  0.274284  0.010094  0.060267  1
  Li  Li1  1  0.626701  0.991203  0.127291  1
  Li  Li2  1  0.773641  0.222700  0.196597  1
  Li  Li3  1  0.240339  0.994635  0.432169  1
  Li  Li4  1  0.670200  0.657357  0.044967  1
  Li  Li5  1  0.344658  0.323658  0.265497  1
  Li  Li6  1  0.706762  0.293229  0.499966  1
  Li  Li7  1  0.985367  0.730142  0.260384  1
  Li  Li8  1  0.269896  0.014613  0.739531  1
  Li  Li9  1  0.641220  0.679637  0.387068  1
  Li  Li10  1  0.320350  0.358754  0.612894  1
  Li  Li11  1  0.365810  0.595797  0.347247  1
  Li  Li12  1  0.777211  0.226489  0.803449  1
  Li  Li13  1  0.005382  0.759766  0.567821  1
  Li  Li14  1  0.676314  0.655386  0.734578  1
  Li  Li15  1  0.342505  0.329896  0.955020  1
  Li  Li16  1  0.404436  0.633961  0.652736  1
  Li  Li17  1  0.009002  0.373128  0.872652  1
  Li  Li18  1  0.989919  0.725710  0.939746  1
  Ir  Ir19  1  0.996648  0.372215  0.214355  1
  Ir  Ir20  1  0.603144  0.985180  0.472152  1
  Ir  Ir21  1  0.014491  0.397168  0.527924  1
  Ir  Ir22  1  0.627766  0.003436  0.785713  1
  Ir  Ir23  1  0.345195  0.654786  0.999989  1
  N  N24  1  0.636765  0.999839  0.289488  1
  N  N25  1  0.003324  0.362663  0.048107  1
  N  N26  1  0.359575  0.644133  0.158769  1
  N  N27  1  0.612201  0.998570  0.629169  1
  N  N28  1  0.001376  0.387741  0.370937  1
  N  N29  1  0.360094  0.639934  0.499955  1
  N  N30  1  0.637290  0.996688  0.951883  1
  N  N31  1  0.000076  0.363307  0.710458  1
  N  N32  1  0.355873  0.640371  0.841221  1
