# generated using pymatgen
data_TmAgAuO4
_symmetry_space_group_name_H-M   'P 1'
_cell_length_a   6.49768726
_cell_length_b   6.49768757
_cell_length_c   6.64748654
_cell_angle_alpha   126.57226373
_cell_angle_beta   124.84615567
_cell_angle_gamma   78.80668620
_symmetry_Int_Tables_number   1
_chemical_formula_structural   TmAgAuO4
_chemical_formula_sum   'Tm2 Ag2 Au2 O8'
_cell_volume   180.36456476
_cell_formula_units_Z   2
loop_
 _symmetry_equiv_pos_site_id
 _symmetry_equiv_pos_as_xyz
  1  'x, y, z'
loop_
 _atom_site_type_symbol
 _atom_site_label
 _atom_site_symmetry_multiplicity
 _atom_site_fract_x
 _atom_site_fract_y
 _atom_site_fract_z
 _atom_site_occupancy
  Tm  Tm0  1  0.749600  0.249600  0.500000  1
  Tm  Tm1  1  0.000400  0.000400  0.000000  1
  Ag  Ag2  1  0.375000  0.625000  0.250000  1
  Ag  Ag3  1  0.375000  0.125000  0.750000  1
  Au  Au4  1  0.375000  0.625000  0.750000  1
  Au  Au5  1  0.875000  0.625000  0.250000  1
  O  O6  1  0.122731  0.595832  0.827972  1
  O  O7  1  0.767860  0.294761  0.172028  1
  O  O8  1  0.365931  0.011483  0.998156  1
  O  O9  1  0.736673  0.882226  0.498156  1
  O  O10  1  0.013327  0.367774  0.001844  1
  O  O11  1  0.384069  0.238517  0.501844  1
  O  O12  1  0.982140  0.955239  0.327972  1
  O  O13  1  0.627269  0.654168  0.672028  1
