# generated using pymatgen
data_RbBi3Te10
_symmetry_space_group_name_H-M   'P 1'
_cell_length_a   24.18667000
_cell_length_b   24.18666797
_cell_length_c   3.18633700
_cell_angle_alpha   90.00000000
_cell_angle_beta   90.00000000
_cell_angle_gamma   166.49507516
_symmetry_Int_Tables_number   1
_chemical_formula_structural   RbBi3Te10
_chemical_formula_sum   'Rb1 Bi3 Te10'
_cell_volume   435.29586506
_cell_formula_units_Z   1
loop_
 _symmetry_equiv_pos_site_id
 _symmetry_equiv_pos_as_xyz
  1  'x, y, z'
loop_
 _atom_site_type_symbol
 _atom_site_label
 _atom_site_symmetry_multiplicity
 _atom_site_fract_x
 _atom_site_fract_y
 _atom_site_fract_z
 _atom_site_occupancy
  Rb  Rb0  1  0.099943  0.900057  0.750000  1
  Bi  Bi1  1  0.686367  0.313633  0.250000  1
  Bi  Bi2  1  0.322000  0.678000  0.750000  1
  Bi  Bi3  1  0.888096  0.111904  0.250000  1
  Te  Te4  1  0.623860  0.376140  0.250000  1
  Te  Te5  1  0.387315  0.612685  0.750000  1
  Te  Te6  1  0.824908  0.175092  0.250000  1
  Te  Te7  1  0.184352  0.815648  0.750000  1
  Te  Te8  1  0.958020  0.041980  0.750000  1
  Te  Te9  1  0.028765  0.971235  0.250000  1
  Te  Te10  1  0.526284  0.473716  0.750000  1
  Te  Te11  1  0.460014  0.539986  0.250000  1
  Te  Te12  1  0.753345  0.246655  0.750000  1
  Te  Te13  1  0.256733  0.743267  0.250000  1
