# generated using pymatgen
data_Y3Al12Os3Pt
_symmetry_space_group_name_H-M   'P 1'
_cell_length_a   8.86578305
_cell_length_b   8.82176956
_cell_length_c   9.59262089
_cell_angle_alpha   89.99999874
_cell_angle_beta   90.12875924
_cell_angle_gamma   119.83590729
_symmetry_Int_Tables_number   1
_chemical_formula_structural   Y3Al12Os3Pt
_chemical_formula_sum   'Y6 Al24 Os6 Pt2'
_cell_volume   650.81117472
_cell_formula_units_Z   2
loop_
 _symmetry_equiv_pos_site_id
 _symmetry_equiv_pos_as_xyz
  1  'x, y, z'
loop_
 _atom_site_type_symbol
 _atom_site_label
 _atom_site_symmetry_multiplicity
 _atom_site_fract_x
 _atom_site_fract_y
 _atom_site_fract_z
 _atom_site_occupancy
  Y  Y0  1  0.190655  0.386761  0.252560  1
  Y  Y1  1  0.809345  0.613239  0.747440  1
  Y  Y2  1  0.615716  0.807858  0.252465  1
  Y  Y3  1  0.384284  0.192142  0.747535  1
  Y  Y4  1  0.190655  0.803894  0.252560  1
  Y  Y5  1  0.809345  0.196106  0.747440  1
  Al  Al6  1  0.328568  0.664284  0.024175  1
  Al  Al7  1  0.671432  0.335716  0.975825  1
  Al  Al8  1  0.666753  0.333376  0.522152  1
  Al  Al9  1  0.333247  0.666624  0.477848  1
  Al  Al10  1  0.164530  0.328085  0.575432  1
  Al  Al11  1  0.835470  0.671915  0.424568  1
  Al  Al12  1  0.672603  0.836302  0.574697  1
  Al  Al13  1  0.841747  0.674223  0.077850  1
  Al  Al14  1  0.327397  0.163698  0.425303  1
  Al  Al15  1  0.158253  0.325777  0.922150  1
  Al  Al16  1  0.164530  0.836445  0.575432  1
  Al  Al17  1  0.323577  0.161788  0.078858  1
  Al  Al18  1  0.835470  0.163555  0.424568  1
  Al  Al19  1  0.676423  0.838212  0.921142  1
  Al  Al20  1  0.841747  0.167523  0.077850  1
  Al  Al21  1  0.158253  0.832477  0.922150  1
  Al  Al22  1  0.562266  0.124914  0.251986  1
  Al  Al23  1  0.437734  0.875086  0.748014  1
  Al  Al24  1  0.876760  0.438380  0.249103  1
  Al  Al25  1  0.123240  0.561620  0.750897  1
  Al  Al26  1  0.562266  0.437353  0.251986  1
  Al  Al27  1  0.437734  0.562647  0.748014  1
  Al  Al28  1  0.997908  0.998954  0.250388  1
  Al  Al29  1  0.002092  0.001046  0.749612  1
  Os  Os30  1  0.000000  0.500000  0.000000  1
  Os  Os31  1  0.500000  0.000000  0.500000  1
  Os  Os32  1  0.000000  0.500000  0.500000  1
  Os  Os33  1  0.500000  0.500000  0.500000  1
  Os  Os34  1  0.000000  0.000000  0.000000  1
  Os  Os35  1  0.000000  0.000000  0.500000  1
  Pt  Pt36  1  0.500000  0.000000  0.000000  1
  Pt  Pt37  1  0.500000  0.500000  0.000000  1
