# generated using pymatgen
data_Dy7Co6CuSn22
_symmetry_space_group_name_H-M   'P 1'
_cell_length_a   9.67172300
_cell_length_b   9.67172291
_cell_length_c   9.91188200
_cell_angle_alpha   90.00000000
_cell_angle_beta   90.00000000
_cell_angle_gamma   119.99999689
_symmetry_Int_Tables_number   1
_chemical_formula_structural   Dy7Co6CuSn22
_chemical_formula_sum   'Dy7 Co6 Cu1 Sn22'
_cell_volume   802.96102197
_cell_formula_units_Z   1
loop_
 _symmetry_equiv_pos_site_id
 _symmetry_equiv_pos_as_xyz
  1  'x, y, z'
loop_
 _atom_site_type_symbol
 _atom_site_label
 _atom_site_symmetry_multiplicity
 _atom_site_fract_x
 _atom_site_fract_y
 _atom_site_fract_z
 _atom_site_occupancy
  Dy  Dy0  1  0.000000  0.000000  0.000000  1
  Dy  Dy1  1  0.479399  0.520601  0.306363  1
  Dy  Dy2  1  0.520601  0.479399  0.693637  1
  Dy  Dy3  1  0.479399  0.958798  0.306363  1
  Dy  Dy4  1  0.520601  0.041202  0.693637  1
  Dy  Dy5  1  0.041202  0.520601  0.306363  1
  Dy  Dy6  1  0.958798  0.479399  0.693637  1
  Co  Co7  1  0.831899  0.168101  0.197172  1
  Co  Co8  1  0.168101  0.831899  0.802828  1
  Co  Co9  1  0.831899  0.663797  0.197172  1
  Co  Co10  1  0.168101  0.336203  0.802828  1
  Co  Co11  1  0.336203  0.168101  0.197172  1
  Co  Co12  1  0.663797  0.831899  0.802828  1
  Cu  Cu13  1  0.000000  0.000000  0.500000  1
  Sn  Sn14  1  0.346215  0.000000  0.000000  1
  Sn  Sn15  1  0.653785  0.000000  0.000000  1
  Sn  Sn16  1  0.000000  0.346215  0.000000  1
  Sn  Sn17  1  0.000000  0.653785  0.000000  1
  Sn  Sn18  1  0.653785  0.653785  0.000000  1
  Sn  Sn19  1  0.346215  0.346215  0.000000  1
  Sn  Sn20  1  0.333333  0.666667  0.816380  1
  Sn  Sn21  1  0.666667  0.333333  0.183620  1
  Sn  Sn22  1  0.784265  0.215735  0.453794  1
  Sn  Sn23  1  0.215735  0.784265  0.546206  1
  Sn  Sn24  1  0.784265  0.568531  0.453794  1
  Sn  Sn25  1  0.215735  0.431469  0.546206  1
  Sn  Sn26  1  0.431469  0.215735  0.453794  1
  Sn  Sn27  1  0.568531  0.784265  0.546206  1
  Sn  Sn28  1  0.333333  0.666667  0.119272  1
  Sn  Sn29  1  0.666667  0.333333  0.880728  1
  Sn  Sn30  1  0.110865  0.889135  0.283149  1
  Sn  Sn31  1  0.889135  0.110865  0.716851  1
  Sn  Sn32  1  0.110865  0.221729  0.283149  1
  Sn  Sn33  1  0.889135  0.778271  0.716851  1
  Sn  Sn34  1  0.778271  0.889135  0.283149  1
  Sn  Sn35  1  0.221729  0.110865  0.716851  1
