# generated using pymatgen
data_Zr10In2Sb5
_symmetry_space_group_name_H-M   'P 1'
_cell_length_a   5.91911668
_cell_length_b   8.66985579
_cell_length_c   8.68991678
_cell_angle_alpha   120.07732123
_cell_angle_beta   90.21803191
_cell_angle_gamma   89.89174595
_symmetry_Int_Tables_number   1
_chemical_formula_structural   Zr10In2Sb5
_chemical_formula_sum   'Zr10 In2 Sb5'
_cell_volume   385.89839818
_cell_formula_units_Z   1
loop_
 _symmetry_equiv_pos_site_id
 _symmetry_equiv_pos_as_xyz
  1  'x, y, z'
loop_
 _atom_site_type_symbol
 _atom_site_label
 _atom_site_symmetry_multiplicity
 _atom_site_fract_x
 _atom_site_fract_y
 _atom_site_fract_z
 _atom_site_occupancy
  Zr  Zr0  1  0.500000  0.330400  0.666499  1
  Zr  Zr1  1  0.499991  0.669599  0.336133  1
  Zr  Zr2  1  0.997965  0.668263  0.334620  1
  Zr  Zr3  1  0.997956  0.331747  0.666376  1
  Zr  Zr4  1  0.772763  0.267696  0.999581  1
  Zr  Zr5  1  0.772726  0.732292  0.731882  1
  Zr  Zr6  1  0.774533  0.000000  0.269687  1
  Zr  Zr7  1  0.223387  0.734878  0.999400  1
  Zr  Zr8  1  0.223451  0.265121  0.264515  1
  Zr  Zr9  1  0.230895  0.000006  0.731962  1
  In  In10  1  0.742130  0.613877  0.999889  1
  In  In11  1  0.742137  0.386147  0.385980  1
  Sb  Sb12  1  0.747283  0.000009  0.613649  1
  Sb  Sb13  1  0.256658  0.391868  0.002071  1
  Sb  Sb14  1  0.256626  0.608114  0.610221  1
  Sb  Sb15  1  0.257590  0.000001  0.385902  1
  Sb  Sb16  1  0.503904  0.999983  0.001634  1
