# generated using pymatgen
data_Pr2Nd5PBr12
_symmetry_space_group_name_H-M   'P 1'
_cell_length_a   9.43399506
_cell_length_b   9.44088152
_cell_length_c   9.43478800
_cell_angle_alpha   107.71439079
_cell_angle_beta   107.78425813
_cell_angle_gamma   107.78046764
_symmetry_Int_Tables_number   1
_chemical_formula_structural   Pr2Nd5PBr12
_chemical_formula_sum   'Pr2 Nd5 P1 Br12'
_cell_volume   684.79879556
_cell_formula_units_Z   1
loop_
 _symmetry_equiv_pos_site_id
 _symmetry_equiv_pos_as_xyz
  1  'x, y, z'
loop_
 _atom_site_type_symbol
 _atom_site_label
 _atom_site_symmetry_multiplicity
 _atom_site_fract_x
 _atom_site_fract_y
 _atom_site_fract_z
 _atom_site_occupancy
  Pr  Pr0  1  0.888362  0.679405  0.963325  1
  Pr  Pr1  1  0.678699  0.962392  0.888106  1
  Nd  Nd2  1  0.962720  0.888803  0.680551  1
  Nd  Nd3  1  0.026746  0.102898  0.317087  1
  Nd  Nd4  1  0.103017  0.317407  0.026606  1
  Nd  Nd5  1  0.317572  0.026749  0.103076  1
  Nd  Nd6  1  0.521328  0.521140  0.521062  1
  P  P7  1  0.002712  0.002708  0.002213  1
  Br  Br8  1  0.523867  0.607886  0.846724  1
  Br  Br9  1  0.464875  0.386827  0.166907  1
  Br  Br10  1  0.309065  0.923533  0.771646  1
  Br  Br11  1  0.387368  0.167287  0.464913  1
  Br  Br12  1  0.924844  0.773564  0.313483  1
  Br  Br13  1  0.687278  0.078606  0.226070  1
  Br  Br14  1  0.076566  0.223034  0.686289  1
  Br  Br15  1  0.772342  0.311157  0.923621  1
  Br  Br16  1  0.226221  0.687268  0.078314  1
  Br  Br17  1  0.848695  0.527447  0.608628  1
  Br  Br18  1  0.167076  0.464667  0.386771  1
  Br  Br19  1  0.610648  0.847224  0.524607  1
