# generated using pymatgen
data_Nd6Cd19Ag4Ge
_symmetry_space_group_name_H-M   'P 1'
_cell_length_a   10.02349989
_cell_length_b   10.02349928
_cell_length_c   10.00904500
_cell_angle_alpha   60.04768752
_cell_angle_beta   60.04768953
_cell_angle_gamma   59.90461691
_symmetry_Int_Tables_number   1
_chemical_formula_structural   Nd6Cd19Ag4Ge
_chemical_formula_sum   'Nd6 Cd19 Ag4 Ge1'
_cell_volume   711.07363097
_cell_formula_units_Z   1
loop_
 _symmetry_equiv_pos_site_id
 _symmetry_equiv_pos_as_xyz
  1  'x, y, z'
loop_
 _atom_site_type_symbol
 _atom_site_label
 _atom_site_symmetry_multiplicity
 _atom_site_fract_x
 _atom_site_fract_y
 _atom_site_fract_z
 _atom_site_occupancy
  Nd  Nd0  1  0.790886  0.790886  0.209114  1
  Nd  Nd1  1  0.210726  0.789274  0.210726  1
  Nd  Nd2  1  0.789274  0.210726  0.210726  1
  Nd  Nd3  1  0.209114  0.209114  0.790886  1
  Nd  Nd4  1  0.789274  0.210726  0.789274  1
  Nd  Nd5  1  0.210726  0.789274  0.789274  1
  Cd  Cd6  1  0.832121  0.832121  0.497150  1
  Cd  Cd7  1  0.838607  0.497150  0.832121  1
  Cd  Cd8  1  0.497150  0.838607  0.832121  1
  Cd  Cd9  1  0.832121  0.832121  0.838607  1
  Cd  Cd10  1  0.167879  0.167879  0.502850  1
  Cd  Cd11  1  0.161393  0.502850  0.167879  1
  Cd  Cd12  1  0.502850  0.161393  0.167879  1
  Cd  Cd13  1  0.167879  0.167879  0.161393  1
  Cd  Cd14  1  0.624924  0.624924  0.131746  1
  Cd  Cd15  1  0.618407  0.131746  0.624924  1
  Cd  Cd16  1  0.131746  0.618407  0.624924  1
  Cd  Cd17  1  0.624924  0.624924  0.618407  1
  Cd  Cd18  1  0.375076  0.375076  0.868254  1
  Cd  Cd19  1  0.381593  0.868254  0.375076  1
  Cd  Cd20  1  0.868254  0.381593  0.375076  1
  Cd  Cd21  1  0.375076  0.375076  0.381593  1
  Cd  Cd22  1  0.000000  0.000000  0.500000  1
  Cd  Cd23  1  0.500000  0.500000  0.000000  1
  Cd  Cd24  1  0.500000  0.500000  0.500000  1
  Ag  Ag25  1  0.500000  0.000000  0.500000  1
  Ag  Ag26  1  0.000000  0.500000  0.500000  1
  Ag  Ag27  1  0.000000  0.500000  0.000000  1
  Ag  Ag28  1  0.500000  0.000000  0.000000  1
  Ge  Ge29  1  0.000000  0.000000  0.000000  1
