# generated using pymatgen
data_Ti8Ga15Ir5Rh2
_symmetry_space_group_name_H-M   'P 1'
_cell_length_a   8.68634511
_cell_length_b   8.68634440
_cell_length_c   8.68634548
_cell_angle_alpha   120.17000990
_cell_angle_beta   119.79765853
_cell_angle_gamma   90.02830866
_symmetry_Int_Tables_number   1
_chemical_formula_structural   Ti8Ga15Ir5Rh2
_chemical_formula_sum   'Ti8 Ga15 Ir5 Rh2'
_cell_volume   463.54993998
_cell_formula_units_Z   1
loop_
 _symmetry_equiv_pos_site_id
 _symmetry_equiv_pos_as_xyz
  1  'x, y, z'
loop_
 _atom_site_type_symbol
 _atom_site_label
 _atom_site_symmetry_multiplicity
 _atom_site_fract_x
 _atom_site_fract_y
 _atom_site_fract_z
 _atom_site_occupancy
  Ti  Ti0  1  0.792866  0.290266  0.073152  1
  Ti  Ti1  1  0.217114  0.290266  0.497401  1
  Ti  Ti2  1  0.205300  0.705300  0.500000  1
  Ti  Ti3  1  0.217114  0.719713  0.926848  1
  Ti  Ti4  1  0.792866  0.719713  0.502599  1
  Ti  Ti5  1  0.781662  0.281662  0.500000  1
  Ti  Ti6  1  0.376859  0.123896  0.747037  1
  Ti  Ti7  1  0.376859  0.629821  0.252963  1
  Ga  Ga8  1  0.994728  0.494728  0.500000  1
  Ga  Ga9  1  0.150459  0.348521  0.198061  1
  Ga  Ga10  1  0.150459  0.952397  0.801939  1
  Ga  Ga11  1  0.149592  0.352273  0.797318  1
  Ga  Ga12  1  0.554953  0.352273  0.202682  1
  Ga  Ga13  1  0.850749  0.649752  0.799005  1
  Ga  Ga14  1  0.850749  0.051744  0.200995  1
  Ga  Ga15  1  0.847813  0.650731  0.197082  1
  Ga  Ga16  1  0.453648  0.650731  0.802918  1
  Ga  Ga17  1  0.376722  0.122199  0.254523  1
  Ga  Ga18  1  0.867677  0.122199  0.745477  1
  Ga  Ga19  1  0.619806  0.873231  0.253426  1
  Ga  Ga20  1  0.619806  0.366380  0.746574  1
  Ga  Ga21  1  0.615315  0.877030  0.738285  1
  Ga  Ga22  1  0.138744  0.877030  0.261715  1
  Ir  Ir23  1  0.003053  0.001836  0.503692  1
  Ir  Ir24  1  0.498144  0.001836  0.998783  1
  Ir  Ir25  1  0.496693  0.496693  0.000000  1
  Ir  Ir26  1  0.498144  0.499360  0.496308  1
  Ir  Ir27  1  0.003053  0.499360  0.001217  1
  Rh  Rh28  1  0.999164  0.999164  0.000000  1
  Rh  Rh29  1  0.499891  0.999891  0.500000  1
