# generated using pymatgen
data_Na2Hf(CrSe3)2
_symmetry_space_group_name_H-M   'P 1'
_cell_length_a   6.47367796
_cell_length_b   6.47367836
_cell_length_c   7.47523310
_cell_angle_alpha   81.75668251
_cell_angle_beta   81.75667709
_cell_angle_gamma   120.14856532
_symmetry_Int_Tables_number   1
_chemical_formula_structural   Na2Hf(CrSe3)2
_chemical_formula_sum   'Na2 Hf1 Cr2 Se6'
_cell_volume   259.46878760
_cell_formula_units_Z   1
loop_
 _symmetry_equiv_pos_site_id
 _symmetry_equiv_pos_as_xyz
  1  'x, y, z'
loop_
 _atom_site_type_symbol
 _atom_site_label
 _atom_site_symmetry_multiplicity
 _atom_site_fract_x
 _atom_site_fract_y
 _atom_site_fract_z
 _atom_site_occupancy
  Na  Na0  1  0.164628  0.835372  0.500000  1
  Na  Na1  1  0.835372  0.164628  0.500000  1
  Hf  Hf2  1  0.000000  0.000000  0.000000  1
  Cr  Cr3  1  0.332541  0.667459  0.000000  1
  Cr  Cr4  1  0.667459  0.332541  0.000000  1
  Se  Se5  1  0.932037  0.586113  0.204575  1
  Se  Se6  1  0.278242  0.278242  0.205854  1
  Se  Se7  1  0.586113  0.932037  0.204575  1
  Se  Se8  1  0.721758  0.721758  0.794146  1
  Se  Se9  1  0.067963  0.413887  0.795425  1
  Se  Se10  1  0.413887  0.067963  0.795425  1
