# generated using pymatgen
data_LiEu2ZnP3
_symmetry_space_group_name_H-M   'P 1'
_cell_length_a   7.88520604
_cell_length_b   7.88520594
_cell_length_c   11.55154980
_cell_angle_alpha   55.14672263
_cell_angle_beta   55.14672192
_cell_angle_gamma   30.17672548
_symmetry_Int_Tables_number   1
_chemical_formula_structural   LiEu2ZnP3
_chemical_formula_sum   'Li2 Eu4 Zn2 P6'
_cell_volume   291.00250037
_cell_formula_units_Z   2
loop_
 _symmetry_equiv_pos_site_id
 _symmetry_equiv_pos_as_xyz
  1  'x, y, z'
loop_
 _atom_site_type_symbol
 _atom_site_label
 _atom_site_symmetry_multiplicity
 _atom_site_fract_x
 _atom_site_fract_y
 _atom_site_fract_z
 _atom_site_occupancy
  Li  Li0  1  0.040694  0.040694  0.674770  1
  Li  Li1  1  0.959306  0.959306  0.325230  1
  Eu  Eu2  1  0.267550  0.267550  0.334649  1
  Eu  Eu3  1  0.732450  0.732450  0.665351  1
  Eu  Eu4  1  0.392532  0.392532  0.945808  1
  Eu  Eu5  1  0.607468  0.607468  0.054192  1
  Zn  Zn6  1  0.414627  0.414627  0.651897  1
  Zn  Zn7  1  0.585373  0.585373  0.348103  1
  P  P8  1  0.069146  0.069146  0.884772  1
  P  P9  1  0.930854  0.930854  0.115228  1
  P  P10  1  0.159336  0.159336  0.194407  1
  P  P11  1  0.840664  0.840664  0.805593  1
  P  P12  1  0.381811  0.381811  0.469331  1
  P  P13  1  0.618189  0.618189  0.530669  1
