# generated using pymatgen
data_Nd3ErTl5
_symmetry_space_group_name_H-M   'P 1'
_cell_length_a   8.68127186
_cell_length_b   8.68127270
_cell_length_c   8.68127232
_cell_angle_alpha   66.38800389
_cell_angle_beta   66.38799960
_cell_angle_gamma   66.38796812
_symmetry_Int_Tables_number   1
_chemical_formula_structural   Nd3ErTl5
_chemical_formula_sum   'Nd6 Er2 Tl10'
_cell_volume   526.35204608
_cell_formula_units_Z   2
loop_
 _symmetry_equiv_pos_site_id
 _symmetry_equiv_pos_as_xyz
  1  'x, y, z'
loop_
 _atom_site_type_symbol
 _atom_site_label
 _atom_site_symmetry_multiplicity
 _atom_site_fract_x
 _atom_site_fract_y
 _atom_site_fract_z
 _atom_site_occupancy
  Nd  Nd0  1  0.890025  0.183803  0.624990  1
  Nd  Nd1  1  0.624990  0.890025  0.183803  1
  Nd  Nd2  1  0.183803  0.624990  0.890025  1
  Nd  Nd3  1  0.109975  0.816197  0.375010  1
  Nd  Nd4  1  0.375010  0.109975  0.816197  1
  Nd  Nd5  1  0.816197  0.375010  0.109975  1
  Er  Er6  1  0.656404  0.656404  0.656404  1
  Er  Er7  1  0.343596  0.343596  0.343596  1
  Tl  Tl8  1  0.000000  0.000000  0.000000  1
  Tl  Tl9  1  0.500000  0.500000  0.500000  1
  Tl  Tl10  1  0.810908  0.810908  0.810908  1
  Tl  Tl11  1  0.189092  0.189092  0.189092  1
  Tl  Tl12  1  0.948381  0.565442  0.302824  1
  Tl  Tl13  1  0.302824  0.948381  0.565442  1
  Tl  Tl14  1  0.565442  0.302824  0.948381  1
  Tl  Tl15  1  0.051619  0.434558  0.697176  1
  Tl  Tl16  1  0.697176  0.051619  0.434558  1
  Tl  Tl17  1  0.434558  0.697176  0.051619  1
