# generated using pymatgen
data_La4TbSn4
_symmetry_space_group_name_H-M   'P 1'
_cell_length_a   8.40755600
_cell_length_b   8.55053000
_cell_length_c   16.29753000
_cell_angle_alpha   90.00000000
_cell_angle_beta   90.00000000
_cell_angle_gamma   90.00000000
_symmetry_Int_Tables_number   1
_chemical_formula_structural   La4TbSn4
_chemical_formula_sum   'La16 Tb4 Sn16'
_cell_volume   1171.61410884
_cell_formula_units_Z   4
loop_
 _symmetry_equiv_pos_site_id
 _symmetry_equiv_pos_as_xyz
  1  'x, y, z'
loop_
 _atom_site_type_symbol
 _atom_site_label
 _atom_site_symmetry_multiplicity
 _atom_site_fract_x
 _atom_site_fract_y
 _atom_site_fract_z
 _atom_site_occupancy
  La  La0  1  0.368964  0.840642  0.880642  1
  La  La1  1  0.868964  0.659358  0.619358  1
  La  La2  1  0.631036  0.159358  0.380642  1
  La  La3  1  0.131036  0.340642  0.119358  1
  La  La4  1  0.631036  0.159358  0.119358  1
  La  La5  1  0.131036  0.340642  0.380642  1
  La  La6  1  0.368964  0.840642  0.619358  1
  La  La7  1  0.868964  0.659358  0.880642  1
  La  La8  1  0.520649  0.317950  0.901111  1
  La  La9  1  0.020649  0.182050  0.598889  1
  La  La10  1  0.479351  0.682050  0.401111  1
  La  La11  1  0.979351  0.817950  0.098889  1
  La  La12  1  0.479351  0.682050  0.098889  1
  La  La13  1  0.979351  0.817950  0.401111  1
  La  La14  1  0.520649  0.317950  0.598889  1
  La  La15  1  0.020649  0.182050  0.901111  1
  Tb  Tb16  1  0.201772  0.501753  0.750000  1
  Tb  Tb17  1  0.701772  0.998247  0.750000  1
  Tb  Tb18  1  0.798228  0.498247  0.250000  1
  Tb  Tb19  1  0.298228  0.001753  0.250000  1
  Sn  Sn20  1  0.289110  0.032742  0.045945  1
  Sn  Sn21  1  0.789110  0.467258  0.454055  1
  Sn  Sn22  1  0.710890  0.967258  0.545945  1
  Sn  Sn23  1  0.210890  0.532742  0.954055  1
  Sn  Sn24  1  0.710890  0.967258  0.954055  1
  Sn  Sn25  1  0.210890  0.532742  0.545945  1
  Sn  Sn26  1  0.289110  0.032742  0.454055  1
  Sn  Sn27  1  0.789110  0.467258  0.045945  1
  Sn  Sn28  1  0.565645  0.616080  0.750000  1
  Sn  Sn29  1  0.065645  0.883920  0.750000  1
  Sn  Sn30  1  0.434355  0.383920  0.250000  1
  Sn  Sn31  1  0.934355  0.116080  0.250000  1
  Sn  Sn32  1  0.324452  0.147900  0.750000  1
  Sn  Sn33  1  0.824452  0.352100  0.750000  1
  Sn  Sn34  1  0.675548  0.852100  0.250000  1
  Sn  Sn35  1  0.175548  0.647900  0.250000  1
