# generated using pymatgen
data_DyLu(Ga2Ag)2
_symmetry_space_group_name_H-M   'P 1'
_cell_length_a   4.36539200
_cell_length_b   6.90547901
_cell_length_c   10.22815666
_cell_angle_alpha   90.22903409
_cell_angle_beta   90.00000000
_cell_angle_gamma   90.00000000
_symmetry_Int_Tables_number   1
_chemical_formula_structural   DyLu(Ga2Ag)2
_chemical_formula_sum   'Dy2 Lu2 Ga8 Ag4'
_cell_volume   308.32657543
_cell_formula_units_Z   2
loop_
 _symmetry_equiv_pos_site_id
 _symmetry_equiv_pos_as_xyz
  1  'x, y, z'
loop_
 _atom_site_type_symbol
 _atom_site_label
 _atom_site_symmetry_multiplicity
 _atom_site_fract_x
 _atom_site_fract_y
 _atom_site_fract_z
 _atom_site_occupancy
  Dy  Dy0  1  0.750000  0.721667  0.323019  1
  Dy  Dy1  1  0.250000  0.278333  0.676981  1
  Lu  Lu2  1  0.250000  0.777753  0.824416  1
  Lu  Lu3  1  0.750000  0.222247  0.175584  1
  Ga  Ga4  1  0.250000  0.702894  0.536603  1
  Ga  Ga5  1  0.750000  0.297106  0.463397  1
  Ga  Ga6  1  0.750000  0.801909  0.034401  1
  Ga  Ga7  1  0.250000  0.198091  0.965599  1
  Ga  Ga8  1  0.250000  0.931876  0.154994  1
  Ga  Ga9  1  0.750000  0.068124  0.845006  1
  Ga  Ga10  1  0.750000  0.571527  0.655293  1
  Ga  Ga11  1  0.250000  0.428473  0.344707  1
  Ag  Ag12  1  0.250000  0.545352  0.094568  1
  Ag  Ag13  1  0.750000  0.454648  0.905432  1
  Ag  Ag14  1  0.750000  0.954203  0.595871  1
  Ag  Ag15  1  0.250000  0.045797  0.404129  1
