# generated using pymatgen
data_PaP2AuF12
_symmetry_space_group_name_H-M   'P 1'
_cell_length_a   8.64197932
_cell_length_b   9.37682800
_cell_length_c   8.71091205
_cell_angle_alpha   90.00000000
_cell_angle_beta   119.90447892
_cell_angle_gamma   90.00000000
_symmetry_Int_Tables_number   1
_chemical_formula_structural   PaP2AuF12
_chemical_formula_sum   'Pa2 P4 Au2 F24'
_cell_volume   611.90028020
_cell_formula_units_Z   2
loop_
 _symmetry_equiv_pos_site_id
 _symmetry_equiv_pos_as_xyz
  1  'x, y, z'
loop_
 _atom_site_type_symbol
 _atom_site_label
 _atom_site_symmetry_multiplicity
 _atom_site_fract_x
 _atom_site_fract_y
 _atom_site_fract_z
 _atom_site_occupancy
  Pa  Pa0  1  0.000000  0.500000  0.500000  1
  Pa  Pa1  1  0.000000  0.000000  0.000000  1
  P  P2  1  0.695639  0.027634  0.351232  1
  P  P3  1  0.304361  0.527634  0.148768  1
  P  P4  1  0.304361  0.972366  0.648768  1
  P  P5  1  0.695639  0.472366  0.851232  1
  Au  Au6  1  0.000000  0.000000  0.500000  1
  Au  Au7  1  0.000000  0.500000  0.000000  1
  F  F8  1  0.178219  0.421378  0.755633  1
  F  F9  1  0.821781  0.921378  0.744367  1
  F  F10  1  0.821781  0.578622  0.244367  1
  F  F11  1  0.178219  0.078622  0.255633  1
  F  F12  1  0.156419  0.412199  0.399489  1
  F  F13  1  0.843581  0.912199  0.100511  1
  F  F14  1  0.843581  0.587801  0.600511  1
  F  F15  1  0.156419  0.087801  0.899489  1
  F  F16  1  0.152549  0.690927  0.564762  1
  F  F17  1  0.847451  0.190927  0.935238  1
  F  F18  1  0.847451  0.309073  0.435238  1
  F  F19  1  0.152549  0.809073  0.064762  1
  F  F20  1  0.606613  0.108111  0.442842  1
  F  F21  1  0.393387  0.608111  0.057158  1
  F  F22  1  0.393387  0.891889  0.557158  1
  F  F23  1  0.606613  0.391889  0.942842  1
  F  F24  1  0.610295  0.103536  0.168316  1
  F  F25  1  0.389705  0.603536  0.331684  1
  F  F26  1  0.389705  0.896464  0.831684  1
  F  F27  1  0.610295  0.396464  0.668316  1
  F  F28  1  0.590177  0.884408  0.300930  1
  F  F29  1  0.409823  0.384408  0.199070  1
  F  F30  1  0.409823  0.115592  0.699070  1
  F  F31  1  0.590177  0.615592  0.800930  1
