# generated using pymatgen
data_La2YbPr4CoI12
_symmetry_space_group_name_H-M   'P 1'
_cell_length_a   10.15135205
_cell_length_b   10.15180581
_cell_length_c   9.99294347
_cell_angle_alpha   107.32574211
_cell_angle_beta   106.70175663
_cell_angle_gamma   106.89986504
_symmetry_Int_Tables_number   1
_chemical_formula_structural   La2YbPr4CoI12
_chemical_formula_sum   'La2 Yb1 Pr4 Co1 I12'
_cell_volume   858.18780389
_cell_formula_units_Z   1
loop_
 _symmetry_equiv_pos_site_id
 _symmetry_equiv_pos_as_xyz
  1  'x, y, z'
loop_
 _atom_site_type_symbol
 _atom_site_label
 _atom_site_symmetry_multiplicity
 _atom_site_fract_x
 _atom_site_fract_y
 _atom_site_fract_z
 _atom_site_occupancy
  La  La0  1  0.975544  0.904359  0.711504  1
  La  La1  1  0.024456  0.095641  0.288496  1
  Yb  Yb2  1  0.500000  0.500000  0.500000  1
  Pr  Pr3  1  0.100678  0.304774  0.025855  1
  Pr  Pr4  1  0.304160  0.025714  0.100889  1
  Pr  Pr5  1  0.899322  0.695226  0.974145  1
  Pr  Pr6  1  0.695840  0.974286  0.899111  1
  Co  Co7  1  0.000000  0.000000  0.000000  1
  I  I8  1  0.540110  0.618791  0.840758  1
  I  I9  1  0.459890  0.381209  0.159242  1
  I  I10  1  0.320381  0.927731  0.774236  1
  I  I11  1  0.384666  0.163601  0.463525  1
  I  I12  1  0.927520  0.774592  0.320475  1
  I  I13  1  0.679619  0.072269  0.225764  1
  I  I14  1  0.072480  0.225408  0.679525  1
  I  I15  1  0.776165  0.318391  0.927914  1
  I  I16  1  0.223835  0.681609  0.072086  1
  I  I17  1  0.836433  0.536567  0.615069  1
  I  I18  1  0.163567  0.463433  0.384931  1
  I  I19  1  0.615334  0.836399  0.536475  1
