# generated using pymatgen
data_TmH5Os
_symmetry_space_group_name_H-M   'P 1'
_cell_length_a   4.37938000
_cell_length_b   4.69179700
_cell_length_c   11.52886700
_cell_angle_alpha   90.00000000
_cell_angle_beta   90.00000000
_cell_angle_gamma   90.00000000
_symmetry_Int_Tables_number   1
_chemical_formula_structural   TmH5Os
_chemical_formula_sum   'Tm4 H20 Os4'
_cell_volume   236.88549730
_cell_formula_units_Z   4
loop_
 _symmetry_equiv_pos_site_id
 _symmetry_equiv_pos_as_xyz
  1  'x, y, z'
loop_
 _atom_site_type_symbol
 _atom_site_label
 _atom_site_symmetry_multiplicity
 _atom_site_fract_x
 _atom_site_fract_y
 _atom_site_fract_z
 _atom_site_occupancy
  Tm  Tm0  1  0.718106  0.644633  0.849946  1
  Tm  Tm1  1  0.218106  0.855367  0.150054  1
  Tm  Tm2  1  0.781894  0.355367  0.349946  1
  Tm  Tm3  1  0.281894  0.144633  0.650054  1
  H  H4  1  0.448064  0.865652  0.982277  1
  H  H5  1  0.948064  0.634348  0.017723  1
  H  H6  1  0.051936  0.134348  0.482277  1
  H  H7  1  0.551936  0.365652  0.517723  1
  H  H8  1  0.122727  0.932833  0.817098  1
  H  H9  1  0.622727  0.567167  0.182902  1
  H  H10  1  0.377273  0.067167  0.317098  1
  H  H11  1  0.877273  0.432833  0.682902  1
  H  H12  1  0.696923  0.061604  0.171715  1
  H  H13  1  0.196923  0.438396  0.828285  1
  H  H14  1  0.803077  0.938396  0.671715  1
  H  H15  1  0.303077  0.561604  0.328285  1
  H  H16  1  0.624059  0.137437  0.823308  1
  H  H17  1  0.124059  0.362563  0.176692  1
  H  H18  1  0.875941  0.862563  0.323308  1
  H  H19  1  0.375941  0.637437  0.676692  1
  H  H20  1  0.976754  0.086821  0.998258  1
  H  H21  1  0.476754  0.413179  0.001742  1
  H  H22  1  0.523246  0.913179  0.498258  1
  H  H23  1  0.023246  0.586821  0.501742  1
  Os  Os24  1  0.315304  0.148452  0.908087  1
  Os  Os25  1  0.815304  0.351548  0.091913  1
  Os  Os26  1  0.184696  0.851548  0.408087  1
  Os  Os27  1  0.684696  0.648452  0.591913  1
