# generated using pymatgen
data_Th2Al3SiPtAu3
_symmetry_space_group_name_H-M   'P 1'
_cell_length_a   4.35105600
_cell_length_b   4.35105600
_cell_length_c   10.51609800
_cell_angle_alpha   90.00000000
_cell_angle_beta   90.00000000
_cell_angle_gamma   90.00000000
_symmetry_Int_Tables_number   1
_chemical_formula_structural   Th2Al3SiPtAu3
_chemical_formula_sum   'Th2 Al3 Si1 Pt1 Au3'
_cell_volume   199.08748963
_cell_formula_units_Z   1
loop_
 _symmetry_equiv_pos_site_id
 _symmetry_equiv_pos_as_xyz
  1  'x, y, z'
loop_
 _atom_site_type_symbol
 _atom_site_label
 _atom_site_symmetry_multiplicity
 _atom_site_fract_x
 _atom_site_fract_y
 _atom_site_fract_z
 _atom_site_occupancy
  Th  Th0  1  0.000000  0.500000  0.249201  1
  Th  Th1  1  0.500000  0.000000  0.751977  1
  Al  Al2  1  0.000000  0.000000  0.505609  1
  Al  Al3  1  0.500000  0.500000  0.505609  1
  Al  Al4  1  0.500000  0.000000  0.133664  1
  Si  Si5  1  0.000000  0.500000  0.858191  1
  Pt  Pt6  1  0.000000  0.500000  0.631615  1
  Au  Au7  1  0.000000  0.000000  0.997061  1
  Au  Au8  1  0.500000  0.500000  0.997061  1
  Au  Au9  1  0.500000  0.000000  0.370011  1
