# generated using pymatgen
data_Ti4Co5Si7(Mo4C)2
_symmetry_space_group_name_H-M   'P 1'
_cell_length_a   7.77010018
_cell_length_b   7.77010019
_cell_length_c   7.74052703
_cell_angle_alpha   60.03575785
_cell_angle_beta   60.03575631
_cell_angle_gamma   59.98246802
_symmetry_Int_Tables_number   1
_chemical_formula_structural   Ti4Co5Si7(Mo4C)2
_chemical_formula_sum   'Ti4 Co5 Si7 Mo8 C2'
_cell_volume   330.58690271
_cell_formula_units_Z   1
loop_
 _symmetry_equiv_pos_site_id
 _symmetry_equiv_pos_as_xyz
  1  'x, y, z'
loop_
 _atom_site_type_symbol
 _atom_site_label
 _atom_site_symmetry_multiplicity
 _atom_site_fract_x
 _atom_site_fract_y
 _atom_site_fract_z
 _atom_site_occupancy
  Ti  Ti0  1  0.052865  0.052865  0.449364  1
  Ti  Ti1  1  0.442619  0.056695  0.442784  1
  Ti  Ti2  1  0.056695  0.442619  0.442784  1
  Ti  Ti3  1  0.445208  0.445208  0.053613  1
  Co  Co4  1  0.831848  0.831848  0.831923  1
  Co  Co5  1  0.619994  0.619994  0.134713  1
  Co  Co6  1  0.616674  0.135674  0.620918  1
  Co  Co7  1  0.135674  0.616674  0.620918  1
  Co  Co8  1  0.626627  0.626627  0.625041  1
  Si  Si9  1  0.414331  0.414331  0.754950  1
  Si  Si10  1  0.414243  0.755633  0.415528  1
  Si  Si11  1  0.755633  0.414243  0.415528  1
  Si  Si12  1  0.413817  0.413817  0.413334  1
  Si  Si13  1  0.836589  0.836589  0.501918  1
  Si  Si14  1  0.836627  0.503837  0.835129  1
  Si  Si15  1  0.503837  0.836627  0.835129  1
  Mo  Mo16  1  0.054658  0.446261  0.055701  1
  Mo  Mo17  1  0.446261  0.054658  0.055701  1
  Mo  Mo18  1  0.192746  0.192746  0.805503  1
  Mo  Mo19  1  0.804597  0.193354  0.805282  1
  Mo  Mo20  1  0.193354  0.804597  0.805282  1
  Mo  Mo21  1  0.806352  0.806352  0.190323  1
  Mo  Mo22  1  0.195310  0.804565  0.195381  1
  Mo  Mo23  1  0.804565  0.195310  0.195381  1
  C  C24  1  0.249187  0.249187  0.247288  1
  C  C25  1  0.999688  0.999688  0.000580  1
