# generated using pymatgen
data_Ho3Pa(Ni2Sn)2
_symmetry_space_group_name_H-M   'P 1'
_cell_length_a   7.39687679
_cell_length_b   7.39687679
_cell_length_c   3.56998500
_cell_angle_alpha   90.00000000
_cell_angle_beta   90.00000000
_cell_angle_gamma   92.16800165
_symmetry_Int_Tables_number   1
_chemical_formula_structural   Ho3Pa(Ni2Sn)2
_chemical_formula_sum   'Ho3 Pa1 Ni4 Sn2'
_cell_volume   195.18758075
_cell_formula_units_Z   1
loop_
 _symmetry_equiv_pos_site_id
 _symmetry_equiv_pos_as_xyz
  1  'x, y, z'
loop_
 _atom_site_type_symbol
 _atom_site_label
 _atom_site_symmetry_multiplicity
 _atom_site_fract_x
 _atom_site_fract_y
 _atom_site_fract_z
 _atom_site_occupancy
  Ho  Ho0  1  0.324065  0.824065  0.500000  1
  Ho  Ho1  1  0.171313  0.326281  0.500000  1
  Ho  Ho2  1  0.826281  0.671313  0.500000  1
  Pa  Pa3  1  0.672899  0.172899  0.500000  1
  Ni  Ni4  1  0.863295  0.363295  0.000000  1
  Ni  Ni5  1  0.116176  0.616176  0.000000  1
  Ni  Ni6  1  0.395268  0.132678  0.000000  1
  Ni  Ni7  1  0.632678  0.895268  0.000000  1
  Sn  Sn8  1  0.492375  0.505650  0.000000  1
  Sn  Sn9  1  0.005650  0.992375  0.000000  1
