# generated using pymatgen
data_Ta3W4
_symmetry_space_group_name_H-M   'P 1'
_cell_length_a   4.57690129
_cell_length_b   4.57315190
_cell_length_c   7.08494285
_cell_angle_alpha   71.01059748
_cell_angle_beta   71.02663590
_cell_angle_gamma   59.82895115
_symmetry_Int_Tables_number   1
_chemical_formula_structural   Ta3W4
_chemical_formula_sum   'Ta3 W4'
_cell_volume   118.83539925
_cell_formula_units_Z   1
loop_
 _symmetry_equiv_pos_site_id
 _symmetry_equiv_pos_as_xyz
  1  'x, y, z'
loop_
 _atom_site_type_symbol
 _atom_site_label
 _atom_site_symmetry_multiplicity
 _atom_site_fract_x
 _atom_site_fract_y
 _atom_site_fract_z
 _atom_site_occupancy
  Ta  Ta0  1  0.633321  0.440693  0.076757  1
  Ta  Ta1  1  0.487461  0.294190  0.515322  1
  Ta  Ta2  1  0.060360  0.867487  0.795989  1
  W  W3  1  0.206392  0.013595  0.358575  1
  W  W4  1  0.776062  0.583285  0.648678  1
  W  W5  1  0.914477  0.721214  0.233401  1
  W  W6  1  0.344691  0.151718  0.943351  1
