# generated using pymatgen
data_Y12Er4MgZn3Co4
_symmetry_space_group_name_H-M   'P 1'
_cell_length_a   9.41955948
_cell_length_b   9.39391764
_cell_length_c   9.39391700
_cell_angle_alpha   60.00000579
_cell_angle_beta   60.09001431
_cell_angle_gamma   60.09001586
_symmetry_Int_Tables_number   1
_chemical_formula_structural   Y12Er4MgZn3Co4
_chemical_formula_sum   'Y12 Er4 Mg1 Zn3 Co4'
_cell_volume   588.57069448
_cell_formula_units_Z   1
loop_
 _symmetry_equiv_pos_site_id
 _symmetry_equiv_pos_as_xyz
  1  'x, y, z'
loop_
 _atom_site_type_symbol
 _atom_site_label
 _atom_site_symmetry_multiplicity
 _atom_site_fract_x
 _atom_site_fract_y
 _atom_site_fract_z
 _atom_site_occupancy
  Y  Y0  1  0.808222  0.191188  0.191188  1
  Y  Y1  1  0.187611  0.811934  0.811934  1
  Y  Y2  1  0.187611  0.811934  0.188521  1
  Y  Y3  1  0.808222  0.191188  0.809402  1
  Y  Y4  1  0.187611  0.188521  0.811934  1
  Y  Y5  1  0.808222  0.809402  0.191188  1
  Y  Y6  1  0.933598  0.562481  0.562481  1
  Y  Y7  1  0.560906  0.937821  0.937821  1
  Y  Y8  1  0.560906  0.937821  0.563453  1
  Y  Y9  1  0.933598  0.562481  0.941440  1
  Y  Y10  1  0.560906  0.563453  0.937821  1
  Y  Y11  1  0.933598  0.941440  0.562481  1
  Er  Er12  1  0.348632  0.346303  0.346303  1
  Er  Er13  1  0.348632  0.346303  0.958762  1
  Er  Er14  1  0.348632  0.958762  0.346303  1
  Er  Er15  1  0.949028  0.350324  0.350324  1
  Mg  Mg16  1  0.288487  0.570505  0.570505  1
  Zn  Zn17  1  0.584193  0.577141  0.577141  1
  Zn  Zn18  1  0.584193  0.577141  0.261525  1
  Zn  Zn19  1  0.584193  0.261525  0.577141  1
  Co  Co20  1  0.140504  0.144032  0.144032  1
  Co  Co21  1  0.140504  0.144032  0.571431  1
  Co  Co22  1  0.140504  0.571431  0.144032  1
  Co  Co23  1  0.571487  0.142838  0.142838  1
