# generated using pymatgen
data_Er4Al4Ir2PtRh
_symmetry_space_group_name_H-M   'P 1'
_cell_length_a   4.27320584
_cell_length_b   6.79814371
_cell_length_c   7.89610826
_cell_angle_alpha   90.01675530
_cell_angle_beta   90.00726611
_cell_angle_gamma   90.24212677
_symmetry_Int_Tables_number   1
_chemical_formula_structural   Er4Al4Ir2PtRh
_chemical_formula_sum   'Er4 Al4 Ir2 Pt1 Rh1'
_cell_volume   229.37883801
_cell_formula_units_Z   1
loop_
 _symmetry_equiv_pos_site_id
 _symmetry_equiv_pos_as_xyz
  1  'x, y, z'
loop_
 _atom_site_type_symbol
 _atom_site_label
 _atom_site_symmetry_multiplicity
 _atom_site_fract_x
 _atom_site_fract_y
 _atom_site_fract_z
 _atom_site_occupancy
  Er  Er0  1  0.250047  0.469811  0.180974  1
  Er  Er1  1  0.750103  0.537680  0.819737  1
  Er  Er2  1  0.749978  0.029899  0.676468  1
  Er  Er3  1  0.250110  0.965155  0.321487  1
  Al  Al4  1  0.250448  0.859280  0.939180  1
  Al  Al5  1  0.749889  0.137026  0.061530  1
  Al  Al6  1  0.749871  0.637906  0.439163  1
  Al  Al7  1  0.250167  0.363237  0.559000  1
  Ir  Ir8  1  0.250114  0.736030  0.623104  1
  Ir  Ir9  1  0.749956  0.765309  0.122209  1
  Pt  Pt10  1  0.250104  0.234659  0.877806  1
  Rh  Rh11  1  0.749210  0.264007  0.379344  1
