# generated using pymatgen
data_Dy2Y(CdHg)3
_symmetry_space_group_name_H-M   'P 1'
_cell_length_a   8.10910601
_cell_length_b   8.10910635
_cell_length_c   3.88145700
_cell_angle_alpha   90.00000000
_cell_angle_beta   90.00000000
_cell_angle_gamma   120.00562548
_symmetry_Int_Tables_number   1
_chemical_formula_structural   Dy2Y(CdHg)3
_chemical_formula_sum   'Dy2 Y1 Cd3 Hg3'
_cell_volume   221.02773011
_cell_formula_units_Z   1
loop_
 _symmetry_equiv_pos_site_id
 _symmetry_equiv_pos_as_xyz
  1  'x, y, z'
loop_
 _atom_site_type_symbol
 _atom_site_label
 _atom_site_symmetry_multiplicity
 _atom_site_fract_x
 _atom_site_fract_y
 _atom_site_fract_z
 _atom_site_occupancy
  Dy  Dy0  1  0.396509  0.000013  0.499999  1
  Dy  Dy1  1  0.000013  0.396509  0.499999  1
  Y  Y2  1  0.603550  0.603550  0.499999  1
  Cd  Cd3  1  0.726672  0.000013  0.000000  1
  Cd  Cd4  1  0.273282  0.273282  0.000000  1
  Cd  Cd5  1  0.000013  0.726673  0.000000  1
  Hg  Hg6  1  0.666679  0.333209  0.000000  1
  Hg  Hg7  1  0.333209  0.666678  0.000000  1
  Hg  Hg8  1  0.000072  0.000072  0.499999  1
