# generated using pymatgen
data_Tb4Fe3(CoO4)5
_symmetry_space_group_name_H-M   'P 1'
_cell_length_a   5.74674300
_cell_length_b   7.31955501
_cell_length_c   8.51534000
_cell_angle_alpha   90.00267000
_cell_angle_beta   90.00000000
_cell_angle_gamma   90.00000000
_symmetry_Int_Tables_number   1
_chemical_formula_structural   Tb4Fe3(CoO4)5
_chemical_formula_sum   'Tb4 Fe3 Co5 O20'
_cell_volume   358.18586824
_cell_formula_units_Z   1
loop_
 _symmetry_equiv_pos_site_id
 _symmetry_equiv_pos_as_xyz
  1  'x, y, z'
loop_
 _atom_site_type_symbol
 _atom_site_label
 _atom_site_symmetry_multiplicity
 _atom_site_fract_x
 _atom_site_fract_y
 _atom_site_fract_z
 _atom_site_occupancy
  Tb  Tb0  1  0.000000  0.861250  0.830194  1
  Tb  Tb1  1  0.000000  0.139906  0.168645  1
  Tb  Tb2  1  0.000000  0.367767  0.673350  1
  Tb  Tb3  1  0.000000  0.637743  0.329428  1
  Fe  Fe4  1  0.500000  0.610953  0.646663  1
  Fe  Fe5  1  0.500000  0.392115  0.354855  1
  Fe  Fe6  1  0.500000  0.890419  0.144682  1
  Co  Co7  1  0.749009  0.001558  0.500295  1
  Co  Co8  1  0.500000  0.092343  0.846324  1
  Co  Co9  1  0.252463  0.496045  0.000893  1
  Co  Co10  1  0.747537  0.496045  0.000893  1
  Co  Co11  1  0.250991  0.001558  0.500295  1
  O  O12  1  0.000000  0.337964  0.944423  1
  O  O13  1  0.728077  0.004496  0.995938  1
  O  O14  1  0.271923  0.004496  0.995938  1
  O  O15  1  0.500000  0.149551  0.434481  1
  O  O16  1  0.000000  0.159917  0.447812  1
  O  O17  1  0.734646  0.501853  0.500177  1
  O  O18  1  0.000000  0.843184  0.555388  1
  O  O19  1  0.757915  0.601920  0.797328  1
  O  O20  1  0.244591  0.102307  0.705408  1
  O  O21  1  0.500000  0.647936  0.069780  1
  O  O22  1  0.500000  0.348718  0.937032  1
  O  O23  1  0.000000  0.656499  0.054417  1
  O  O24  1  0.759702  0.901042  0.295709  1
  O  O25  1  0.758813  0.396517  0.203677  1
  O  O26  1  0.755409  0.102307  0.705408  1
  O  O27  1  0.242085  0.601920  0.797328  1
  O  O28  1  0.265354  0.501853  0.500177  1
  O  O29  1  0.240298  0.901042  0.295709  1
  O  O30  1  0.241187  0.396517  0.203677  1
  O  O31  1  0.500000  0.852260  0.563677  1
