# generated using pymatgen
data_ErTm3(Si5Os3)2
_symmetry_space_group_name_H-M   'P 1'
_cell_length_a   8.10421462
_cell_length_b   8.11803621
_cell_length_c   5.76226163
_cell_angle_alpha   70.69479262
_cell_angle_beta   70.54390161
_cell_angle_gamma   94.16689676
_symmetry_Int_Tables_number   1
_chemical_formula_structural   ErTm3(Si5Os3)2
_chemical_formula_sum   'Er1 Tm3 Si10 Os6'
_cell_volume   330.16097481
_cell_formula_units_Z   1
loop_
 _symmetry_equiv_pos_site_id
 _symmetry_equiv_pos_as_xyz
  1  'x, y, z'
loop_
 _atom_site_type_symbol
 _atom_site_label
 _atom_site_symmetry_multiplicity
 _atom_site_fract_x
 _atom_site_fract_y
 _atom_site_fract_z
 _atom_site_occupancy
  Er  Er0  1  0.599070  0.869399  0.254949  1
  Tm  Tm1  1  0.869549  0.602130  0.751427  1
  Tm  Tm2  1  0.399880  0.131479  0.745278  1
  Tm  Tm3  1  0.131576  0.397322  0.247774  1
  Si  Si4  1  0.068585  0.260144  0.834125  1
  Si  Si5  1  0.736572  0.931253  0.668594  1
  Si  Si6  1  0.930737  0.739746  0.165202  1
  Si  Si7  1  0.263693  0.068299  0.331258  1
  Si  Si8  1  0.207968  0.795665  0.743765  1
  Si  Si9  1  0.792966  0.205048  0.254685  1
  Si  Si10  1  0.513369  0.488013  0.748778  1
  Si  Si11  1  0.486809  0.511890  0.252216  1
  Si  Si12  1  0.774870  0.224745  0.747963  1
  Si  Si13  1  0.224581  0.775391  0.252648  1
  Os  Os14  1  0.254134  0.542114  0.633495  1
  Os  Os15  1  0.453626  0.743756  0.871759  1
  Os  Os16  1  0.746030  0.457522  0.366911  1
  Os  Os17  1  0.546326  0.256651  0.129039  1
  Os  Os18  1  0.002493  0.997279  0.749580  1
  Os  Os19  1  0.997166  0.002153  0.250553  1
