# generated using pymatgen
data_Y7Er9MgCo4Hg3
_symmetry_space_group_name_H-M   'P 1'
_cell_length_a   9.46236499
_cell_length_b   9.41716325
_cell_length_c   9.42753700
_cell_angle_alpha   59.96355688
_cell_angle_beta   60.12168508
_cell_angle_gamma   60.18272940
_symmetry_Int_Tables_number   1
_chemical_formula_structural   Y7Er9MgCo4Hg3
_chemical_formula_sum   'Y7 Er9 Mg1 Co4 Hg3'
_cell_volume   595.22041063
_cell_formula_units_Z   1
loop_
 _symmetry_equiv_pos_site_id
 _symmetry_equiv_pos_as_xyz
  1  'x, y, z'
loop_
 _atom_site_type_symbol
 _atom_site_label
 _atom_site_symmetry_multiplicity
 _atom_site_fract_x
 _atom_site_fract_y
 _atom_site_fract_z
 _atom_site_occupancy
  Y  Y0  1  0.808240  0.810674  0.190544  1
  Y  Y1  1  0.940227  0.558719  0.561417  1
  Y  Y2  1  0.558818  0.940344  0.938340  1
  Y  Y3  1  0.558818  0.940344  0.562498  1
  Y  Y4  1  0.940227  0.558719  0.939638  1
  Y  Y5  1  0.560155  0.560840  0.939503  1
  Y  Y6  1  0.939052  0.940932  0.560008  1
  Er  Er7  1  0.345782  0.345398  0.343726  1
  Er  Er8  1  0.345782  0.345398  0.965095  1
  Er  Er9  1  0.345882  0.965465  0.344326  1
  Er  Er10  1  0.954574  0.349094  0.348165  1
  Er  Er11  1  0.808765  0.188965  0.190754  1
  Er  Er12  1  0.185062  0.812603  0.814217  1
  Er  Er13  1  0.185062  0.812603  0.188118  1
  Er  Er14  1  0.808765  0.188965  0.811517  1
  Er  Er15  1  0.185330  0.185736  0.814467  1
  Mg  Mg16  1  0.286237  0.570126  0.571818  1
  Co  Co17  1  0.137938  0.143340  0.141301  1
  Co  Co18  1  0.137938  0.143340  0.577422  1
  Co  Co19  1  0.141655  0.576715  0.140815  1
  Co  Co20  1  0.576842  0.145329  0.138914  1
  Hg  Hg21  1  0.582731  0.584327  0.584289  1
  Hg  Hg22  1  0.582731  0.584327  0.248654  1
  Hg  Hg23  1  0.583384  0.247703  0.584457  1
