# generated using pymatgen
data_Sc8Ta12SiGe15
_symmetry_space_group_name_H-M   'P 1'
_cell_length_a   6.83856672
_cell_length_b   7.00235373
_cell_length_c   13.30236600
_cell_angle_alpha   90.00000000
_cell_angle_beta   90.00000000
_cell_angle_gamma   89.94753421
_symmetry_Int_Tables_number   1
_chemical_formula_structural   Sc8Ta12SiGe15
_chemical_formula_sum   'Sc8 Ta12 Si1 Ge15'
_cell_volume   636.99767171
_cell_formula_units_Z   1
loop_
 _symmetry_equiv_pos_site_id
 _symmetry_equiv_pos_as_xyz
  1  'x, y, z'
loop_
 _atom_site_type_symbol
 _atom_site_label
 _atom_site_symmetry_multiplicity
 _atom_site_fract_x
 _atom_site_fract_y
 _atom_site_fract_z
 _atom_site_occupancy
  Sc  Sc0  1  0.488872  0.673884  0.593883  1
  Sc  Sc1  1  0.988962  0.824460  0.906664  1
  Sc  Sc2  1  0.511022  0.324323  0.093211  1
  Sc  Sc3  1  0.011203  0.175472  0.406757  1
  Sc  Sc4  1  0.511022  0.324323  0.406789  1
  Sc  Sc5  1  0.011203  0.175472  0.093243  1
  Sc  Sc6  1  0.488872  0.673884  0.906117  1
  Sc  Sc7  1  0.988962  0.824460  0.593336  1
  Ta  Ta8  1  0.651407  0.173226  0.626441  1
  Ta  Ta9  1  0.158291  0.330481  0.873674  1
  Ta  Ta10  1  0.345310  0.829886  0.125412  1
  Ta  Ta11  1  0.845185  0.669984  0.374576  1
  Ta  Ta12  1  0.345310  0.829886  0.374588  1
  Ta  Ta13  1  0.845185  0.669984  0.125424  1
  Ta  Ta14  1  0.651407  0.173226  0.873559  1
  Ta  Ta15  1  0.158291  0.330481  0.626326  1
  Ta  Ta16  1  0.827932  0.487307  0.750000  1
  Ta  Ta17  1  0.332126  0.014693  0.750000  1
  Ta  Ta18  1  0.168482  0.512407  0.250000  1
  Ta  Ta19  1  0.668560  0.987716  0.250000  1
  Si  Si20  1  0.452659  0.386193  0.750000  1
  Ge  Ge21  1  0.685089  0.967257  0.460170  1
  Ge  Ge22  1  0.185176  0.533098  0.039888  1
  Ge  Ge23  1  0.314894  0.032857  0.960097  1
  Ge  Ge24  1  0.815270  0.466666  0.539975  1
  Ge  Ge25  1  0.314894  0.032857  0.539903  1
  Ge  Ge26  1  0.815270  0.466666  0.960025  1
  Ge  Ge27  1  0.685089  0.967257  0.039830  1
  Ge  Ge28  1  0.185176  0.533098  0.460112  1
  Ge  Ge29  1  0.953860  0.111586  0.750000  1
  Ge  Ge30  1  0.545836  0.611295  0.250000  1
  Ge  Ge31  1  0.045811  0.888744  0.250000  1
  Ge  Ge32  1  0.689246  0.849356  0.750000  1
  Ge  Ge33  1  0.192368  0.647438  0.750000  1
  Ge  Ge34  1  0.310894  0.150667  0.250000  1
  Ge  Ge35  1  0.810865  0.349407  0.250000  1
