# generated using pymatgen
data_Ho4Cd2IrAu3
_symmetry_space_group_name_H-M   'P 1'
_cell_length_a   3.77695600
_cell_length_b   7.82155161
_cell_length_c   7.82155141
_cell_angle_alpha   89.92845295
_cell_angle_beta   90.00000000
_cell_angle_gamma   90.00000000
_symmetry_Int_Tables_number   1
_chemical_formula_structural   Ho4Cd2IrAu3
_chemical_formula_sum   'Ho4 Cd2 Ir1 Au3'
_cell_volume   231.06140336
_cell_formula_units_Z   1
loop_
 _symmetry_equiv_pos_site_id
 _symmetry_equiv_pos_as_xyz
  1  'x, y, z'
loop_
 _atom_site_type_symbol
 _atom_site_label
 _atom_site_symmetry_multiplicity
 _atom_site_fract_x
 _atom_site_fract_y
 _atom_site_fract_z
 _atom_site_occupancy
  Ho  Ho0  1  0.500000  0.165683  0.665683  1
  Ho  Ho1  1  0.500000  0.815359  0.315359  1
  Ho  Ho2  1  0.500000  0.353311  0.175707  1
  Ho  Ho3  1  0.500000  0.675707  0.853311  1
  Cd  Cd4  1  0.000000  0.999569  0.001506  1
  Cd  Cd5  1  0.000000  0.501506  0.499569  1
  Ir  Ir6  1  0.000000  0.628628  0.128628  1
  Au  Au7  1  0.000000  0.367028  0.867028  1
  Au  Au8  1  0.000000  0.864871  0.628338  1
  Au  Au9  1  0.000000  0.128338  0.364871  1
