# generated using pymatgen
data_LaTb3(WO6)2
_symmetry_space_group_name_H-M   'P 1'
_cell_length_a   5.48864600
_cell_length_b   7.82776490
_cell_length_c   11.64617421
_cell_angle_alpha   75.74258515
_cell_angle_beta   90.00000000
_cell_angle_gamma   90.00000000
_symmetry_Int_Tables_number   1
_chemical_formula_structural   LaTb3(WO6)2
_chemical_formula_sum   'La2 Tb6 W4 O24'
_cell_volume   484.95255880
_cell_formula_units_Z   2
loop_
 _symmetry_equiv_pos_site_id
 _symmetry_equiv_pos_as_xyz
  1  'x, y, z'
loop_
 _atom_site_type_symbol
 _atom_site_label
 _atom_site_symmetry_multiplicity
 _atom_site_fract_x
 _atom_site_fract_y
 _atom_site_fract_z
 _atom_site_occupancy
  La  La0  1  0.686459  0.500000  0.750000  1
  La  La1  1  0.313541  0.500000  0.250000  1
  Tb  Tb2  1  0.740619  0.000000  0.750000  1
  Tb  Tb3  1  0.259381  0.000000  0.250000  1
  Tb  Tb4  1  0.188885  0.798815  0.576215  1
  Tb  Tb5  1  0.811115  0.798815  0.076215  1
  Tb  Tb6  1  0.188885  0.201185  0.923785  1
  Tb  Tb7  1  0.811115  0.201185  0.423785  1
  W  W8  1  0.251860  0.728015  0.884302  1
  W  W9  1  0.748140  0.728015  0.384302  1
  W  W10  1  0.251860  0.271985  0.615698  1
  W  W11  1  0.748140  0.271985  0.115698  1
  O  O12  1  0.040242  0.940721  0.895695  1
  O  O13  1  0.527479  0.847311  0.930648  1
  O  O14  1  0.959758  0.940721  0.395695  1
  O  O15  1  0.454476  0.794089  0.728666  1
  O  O16  1  0.472521  0.847311  0.430648  1
  O  O17  1  0.988127  0.720034  0.769832  1
  O  O18  1  0.545524  0.794089  0.228666  1
  O  O19  1  0.857382  0.643099  0.543536  1
  O  O20  1  0.348245  0.495493  0.887891  1
  O  O21  1  0.011873  0.720034  0.269832  1
  O  O22  1  0.348245  0.504507  0.612109  1
  O  O23  1  0.857382  0.356901  0.956464  1
  O  O24  1  0.142618  0.643099  0.043536  1
  O  O25  1  0.651755  0.495493  0.387891  1
  O  O26  1  0.988127  0.279966  0.730168  1
  O  O27  1  0.651755  0.504507  0.112109  1
  O  O28  1  0.142618  0.356901  0.456464  1
  O  O29  1  0.454476  0.205911  0.771334  1
  O  O30  1  0.011873  0.279966  0.230168  1
  O  O31  1  0.527479  0.152689  0.569352  1
  O  O32  1  0.545524  0.205911  0.271334  1
  O  O33  1  0.040242  0.059279  0.604305  1
  O  O34  1  0.472521  0.152689  0.069352  1
  O  O35  1  0.959758  0.059279  0.104305  1
