# generated using pymatgen
data_Zn3Mo3N
_symmetry_space_group_name_H-M   'P 1'
_cell_length_a   8.03451380
_cell_length_b   8.03451400
_cell_length_c   8.03451300
_cell_angle_alpha   59.99999999
_cell_angle_beta   59.99999918
_cell_angle_gamma   59.99999551
_symmetry_Int_Tables_number   1
_chemical_formula_structural   Zn3Mo3N
_chemical_formula_sum   'Zn12 Mo12 N4'
_cell_volume   366.74462308
_cell_formula_units_Z   4
loop_
 _symmetry_equiv_pos_site_id
 _symmetry_equiv_pos_as_xyz
  1  'x, y, z'
loop_
 _atom_site_type_symbol
 _atom_site_label
 _atom_site_symmetry_multiplicity
 _atom_site_fract_x
 _atom_site_fract_y
 _atom_site_fract_z
 _atom_site_occupancy
  Zn  Zn0  1  0.415107  0.415107  0.754677  1
  Zn  Zn1  1  0.415107  0.415107  0.415107  1
  Zn  Zn2  1  0.754677  0.415107  0.415107  1
  Zn  Zn3  1  0.415107  0.754677  0.415107  1
  Zn  Zn4  1  0.834893  0.834893  0.495323  1
  Zn  Zn5  1  0.834893  0.834893  0.834893  1
  Zn  Zn6  1  0.495323  0.834893  0.834893  1
  Zn  Zn7  1  0.834893  0.495323  0.834893  1
  Zn  Zn8  1  0.625000  0.625000  0.125000  1
  Zn  Zn9  1  0.625000  0.625000  0.625000  1
  Zn  Zn10  1  0.125000  0.625000  0.625000  1
  Zn  Zn11  1  0.625000  0.125000  0.625000  1
  Mo  Mo12  1  0.809717  0.190283  0.190283  1
  Mo  Mo13  1  0.190283  0.809717  0.190283  1
  Mo  Mo14  1  0.809717  0.809717  0.190283  1
  Mo  Mo15  1  0.190283  0.809717  0.809717  1
  Mo  Mo16  1  0.809717  0.190283  0.809717  1
  Mo  Mo17  1  0.190283  0.190283  0.809717  1
  Mo  Mo18  1  0.440283  0.059717  0.059717  1
  Mo  Mo19  1  0.059717  0.440283  0.059717  1
  Mo  Mo20  1  0.440283  0.440283  0.059717  1
  Mo  Mo21  1  0.059717  0.440283  0.440283  1
  Mo  Mo22  1  0.440283  0.059717  0.440283  1
  Mo  Mo23  1  0.059717  0.059717  0.440283  1
  N  N24  1  0.125000  0.125000  0.625000  1
  N  N25  1  0.125000  0.125000  0.125000  1
  N  N26  1  0.625000  0.125000  0.125000  1
  N  N27  1  0.125000  0.625000  0.125000  1
