# generated using pymatgen
data_Ca3CeNd4(SiPd)8
_symmetry_space_group_name_H-M   'P 1'
_cell_length_a   5.86374107
_cell_length_b   7.83360538
_cell_length_c   10.78073089
_cell_angle_alpha   88.49678721
_cell_angle_beta   89.77128373
_cell_angle_gamma   89.63664967
_symmetry_Int_Tables_number   1
_chemical_formula_structural   Ca3CeNd4(SiPd)8
_chemical_formula_sum   'Ca3 Ce1 Nd4 Si8 Pd8'
_cell_volume   495.02060940
_cell_formula_units_Z   1
loop_
 _symmetry_equiv_pos_site_id
 _symmetry_equiv_pos_as_xyz
  1  'x, y, z'
loop_
 _atom_site_type_symbol
 _atom_site_label
 _atom_site_symmetry_multiplicity
 _atom_site_fract_x
 _atom_site_fract_y
 _atom_site_fract_z
 _atom_site_occupancy
  Ca  Ca0  1  0.368657  0.967404  0.140389  1
  Ca  Ca1  1  0.630990  0.031418  0.859123  1
  Ca  Ca2  1  0.863804  0.531264  0.856613  1
  Ce  Ce3  1  0.630349  0.327290  0.370159  1
  Nd  Nd4  1  0.132113  0.470123  0.139496  1
  Nd  Nd5  1  0.874944  0.824651  0.367078  1
  Nd  Nd6  1  0.127993  0.175196  0.633514  1
  Nd  Nd7  1  0.369776  0.675691  0.632348  1
  Si  Si8  1  0.861294  0.537917  0.574918  1
  Si  Si9  1  0.129981  0.463473  0.423632  1
  Si  Si10  1  0.371914  0.964847  0.422690  1
  Si  Si11  1  0.635986  0.039533  0.574308  1
  Si  Si12  1  0.640747  0.625876  0.144577  1
  Si  Si13  1  0.361616  0.371398  0.858061  1
  Si  Si14  1  0.134998  0.872702  0.857156  1
  Si  Si15  1  0.863776  0.125313  0.143643  1
  Pd  Pd16  1  0.897070  0.840436  0.051923  1
  Pd  Pd17  1  0.101259  0.158317  0.947569  1
  Pd  Pd18  1  0.398114  0.660241  0.946739  1
  Pd  Pd19  1  0.605430  0.339271  0.052218  1
  Pd  Pd20  1  0.888033  0.822667  0.669974  1
  Pd  Pd21  1  0.107911  0.177778  0.331235  1
  Pd  Pd22  1  0.395318  0.674577  0.333258  1
  Pd  Pd23  1  0.607926  0.322615  0.669379  1
