# generated using pymatgen
data_Dy2ReB8Rh
_symmetry_space_group_name_H-M   'P 1'
_cell_length_a   3.59919500
_cell_length_b   5.97229140
_cell_length_c   11.57019071
_cell_angle_alpha   90.27662568
_cell_angle_beta   90.00000000
_cell_angle_gamma   90.00000000
_symmetry_Int_Tables_number   1
_chemical_formula_structural   Dy2ReB8Rh
_chemical_formula_sum   'Dy4 Re2 B16 Rh2'
_cell_volume   248.70345723
_cell_formula_units_Z   2
loop_
 _symmetry_equiv_pos_site_id
 _symmetry_equiv_pos_as_xyz
  1  'x, y, z'
loop_
 _atom_site_type_symbol
 _atom_site_label
 _atom_site_symmetry_multiplicity
 _atom_site_fract_x
 _atom_site_fract_y
 _atom_site_fract_z
 _atom_site_occupancy
  Dy  Dy0  1  0.500000  0.371740  0.147669  1
  Dy  Dy1  1  0.500000  0.628260  0.852331  1
  Dy  Dy2  1  0.500000  0.127865  0.651008  1
  Dy  Dy3  1  0.500000  0.872135  0.348992  1
  Re  Re4  1  0.500000  0.367199  0.411727  1
  Re  Re5  1  0.500000  0.632801  0.588273  1
  B  B6  1  0.000000  0.113242  0.047334  1
  B  B7  1  0.000000  0.886758  0.952666  1
  B  B8  1  0.000000  0.386662  0.546845  1
  B  B9  1  0.000000  0.613338  0.453155  1
  B  B10  1  0.000000  0.136109  0.469018  1
  B  B11  1  0.000000  0.863891  0.530982  1
  B  B12  1  0.000000  0.363392  0.969146  1
  B  B13  1  0.000000  0.636608  0.030854  1
  B  B14  1  0.000000  0.023399  0.192970  1
  B  B15  1  0.000000  0.976601  0.807030  1
  B  B16  1  0.000000  0.475654  0.692265  1
  B  B17  1  0.000000  0.524346  0.307735  1
  B  B18  1  0.000000  0.211812  0.314091  1
  B  B19  1  0.000000  0.788188  0.685909  1
  B  B20  1  0.000000  0.289087  0.813922  1
  B  B21  1  0.000000  0.710913  0.186078  1
  Rh  Rh22  1  0.500000  0.140522  0.905312  1
  Rh  Rh23  1  0.500000  0.859478  0.094688  1
