# generated using pymatgen
data_Pr4Tm6Sn7Au
_symmetry_space_group_name_H-M   'P 1'
_cell_length_a   7.83022700
_cell_length_b   8.29309000
_cell_length_c   15.35050500
_cell_angle_alpha   90.00000000
_cell_angle_beta   90.00000000
_cell_angle_gamma   90.00000000
_symmetry_Int_Tables_number   1
_chemical_formula_structural   Pr4Tm6Sn7Au
_chemical_formula_sum   'Pr8 Tm12 Sn14 Au2'
_cell_volume   996.81232357
_cell_formula_units_Z   2
loop_
 _symmetry_equiv_pos_site_id
 _symmetry_equiv_pos_as_xyz
  1  'x, y, z'
loop_
 _atom_site_type_symbol
 _atom_site_label
 _atom_site_symmetry_multiplicity
 _atom_site_fract_x
 _atom_site_fract_y
 _atom_site_fract_z
 _atom_site_occupancy
  Pr  Pr0  1  0.503862  0.319789  0.904934  1
  Pr  Pr1  1  0.003862  0.180211  0.595066  1
  Pr  Pr2  1  0.495796  0.678041  0.406362  1
  Pr  Pr3  1  0.995796  0.821959  0.093638  1
  Pr  Pr4  1  0.495796  0.678041  0.093638  1
  Pr  Pr5  1  0.995796  0.821959  0.406362  1
  Pr  Pr6  1  0.503862  0.319789  0.595066  1
  Pr  Pr7  1  0.003862  0.180211  0.904934  1
  Tm  Tm8  1  0.337744  0.829263  0.868010  1
  Tm  Tm9  1  0.837744  0.670737  0.631990  1
  Tm  Tm10  1  0.659720  0.166728  0.375029  1
  Tm  Tm11  1  0.159720  0.333272  0.124971  1
  Tm  Tm12  1  0.659720  0.166728  0.124971  1
  Tm  Tm13  1  0.159720  0.333272  0.375029  1
  Tm  Tm14  1  0.337744  0.829263  0.631990  1
  Tm  Tm15  1  0.837744  0.670737  0.868010  1
  Tm  Tm16  1  0.186605  0.500629  0.750000  1
  Tm  Tm17  1  0.686605  0.999371  0.750000  1
  Tm  Tm18  1  0.824962  0.501213  0.250000  1
  Tm  Tm19  1  0.324962  0.998787  0.250000  1
  Sn  Sn20  1  0.321770  0.039924  0.038345  1
  Sn  Sn21  1  0.821770  0.460076  0.461655  1
  Sn  Sn22  1  0.679865  0.960164  0.541898  1
  Sn  Sn23  1  0.179865  0.539836  0.958102  1
  Sn  Sn24  1  0.679865  0.960164  0.958102  1
  Sn  Sn25  1  0.179865  0.539836  0.541898  1
  Sn  Sn26  1  0.321770  0.039924  0.461655  1
  Sn  Sn27  1  0.821770  0.460076  0.038345  1
  Sn  Sn28  1  0.461743  0.376878  0.250000  1
  Sn  Sn29  1  0.961743  0.123122  0.250000  1
  Sn  Sn30  1  0.300342  0.134768  0.750000  1
  Sn  Sn31  1  0.800342  0.365232  0.750000  1
  Sn  Sn32  1  0.689239  0.855805  0.250000  1
  Sn  Sn33  1  0.189239  0.644195  0.250000  1
  Au  Au34  1  0.539599  0.625692  0.750000  1
  Au  Au35  1  0.039599  0.874308  0.750000  1
