# generated using pymatgen
data_Ca2Si5Ir3
_symmetry_space_group_name_H-M   'P 1'
_cell_length_a   8.28387688
_cell_length_b   8.28387656
_cell_length_c   8.28387683
_cell_angle_alpha   139.68342382
_cell_angle_beta   107.09834538
_cell_angle_gamma   86.76141200
_symmetry_Int_Tables_number   1
_chemical_formula_structural   Ca2Si5Ir3
_chemical_formula_sum   'Ca4 Si10 Ir6'
_cell_volume   338.37388903
_cell_formula_units_Z   2
loop_
 _symmetry_equiv_pos_site_id
 _symmetry_equiv_pos_as_xyz
  1  'x, y, z'
loop_
 _atom_site_type_symbol
 _atom_site_label
 _atom_site_symmetry_multiplicity
 _atom_site_fract_x
 _atom_site_fract_y
 _atom_site_fract_z
 _atom_site_occupancy
  Ca  Ca0  1  0.864303  0.632707  0.231596  1
  Ca  Ca1  1  0.135697  0.367293  0.768404  1
  Ca  Ca2  1  0.401110  0.132707  0.268404  1
  Ca  Ca3  1  0.598890  0.867293  0.731596  1
  Si  Si4  1  0.500000  0.750000  0.250000  1
  Si  Si5  1  0.500000  0.250000  0.750000  1
  Si  Si6  1  0.216979  0.966979  0.750000  1
  Si  Si7  1  0.783021  0.533021  0.750000  1
  Si  Si8  1  0.783021  0.033021  0.250000  1
  Si  Si9  1  0.216979  0.466979  0.250000  1
  Si  Si10  1  0.056885  0.896694  0.160191  1
  Si  Si11  1  0.943115  0.103306  0.839809  1
  Si  Si12  1  0.736504  0.396694  0.339809  1
  Si  Si13  1  0.263496  0.603306  0.660191  1
  Ir  Ir14  1  0.000000  0.750000  0.750000  1
  Ir  Ir15  1  0.000000  0.250000  0.250000  1
  Ir  Ir16  1  0.254724  0.858995  0.395729  1
  Ir  Ir17  1  0.745276  0.141005  0.604271  1
  Ir  Ir18  1  0.463266  0.358995  0.104271  1
  Ir  Ir19  1  0.536734  0.641005  0.895729  1
