# generated using pymatgen
data_DyHo15(ErPb4)4
_symmetry_space_group_name_H-M   'P 1'
_cell_length_a   8.19874754
_cell_length_b   8.26672109
_cell_length_c   15.60333000
_cell_angle_alpha   90.04807963
_cell_angle_beta   89.66096484
_cell_angle_gamma   89.87368688
_symmetry_Int_Tables_number   1
_chemical_formula_structural   DyHo15(ErPb4)4
_chemical_formula_sum   'Dy1 Ho15 Er4 Pb16'
_cell_volume   1057.52167134
_cell_formula_units_Z   1
loop_
 _symmetry_equiv_pos_site_id
 _symmetry_equiv_pos_as_xyz
  1  'x, y, z'
loop_
 _atom_site_type_symbol
 _atom_site_label
 _atom_site_symmetry_multiplicity
 _atom_site_fract_x
 _atom_site_fract_y
 _atom_site_fract_z
 _atom_site_occupancy
  Dy  Dy0  1  0.966220  0.822423  0.598419  1
  Ho  Ho1  1  0.624012  0.157581  0.621510  1
  Ho  Ho2  1  0.121588  0.341694  0.879569  1
  Ho  Ho3  1  0.378003  0.842405  0.121064  1
  Ho  Ho4  1  0.875558  0.657641  0.377931  1
  Ho  Ho5  1  0.376315  0.842521  0.378440  1
  Ho  Ho6  1  0.878677  0.657836  0.121095  1
  Ho  Ho7  1  0.621133  0.157808  0.879131  1
  Ho  Ho8  1  0.122792  0.342237  0.621608  1
  Ho  Ho9  1  0.462847  0.675234  0.599659  1
  Ho  Ho10  1  0.959586  0.825092  0.899124  1
  Ho  Ho11  1  0.539394  0.324615  0.100672  1
  Ho  Ho12  1  0.037459  0.176391  0.399882  1
  Ho  Ho13  1  0.536267  0.324363  0.400396  1
  Ho  Ho14  1  0.039500  0.175150  0.100847  1
  Ho  Ho15  1  0.461240  0.675234  0.900260  1
  Er  Er16  1  0.790274  0.495712  0.750522  1
  Er  Er17  1  0.290715  0.004729  0.750593  1
  Er  Er18  1  0.209290  0.504131  0.249919  1
  Er  Er19  1  0.709069  0.995601  0.249301  1
  Pb  Pb20  1  0.718337  0.967249  0.456054  1
  Pb  Pb21  1  0.220715  0.531726  0.043594  1
  Pb  Pb22  1  0.279177  0.031041  0.956721  1
  Pb  Pb23  1  0.781051  0.465601  0.542694  1
  Pb  Pb24  1  0.284196  0.036534  0.542696  1
  Pb  Pb25  1  0.779327  0.467552  0.956937  1
  Pb  Pb26  1  0.720273  0.967906  0.043268  1
  Pb  Pb27  1  0.217389  0.535212  0.457283  1
  Pb  Pb28  1  0.427673  0.373898  0.750139  1
  Pb  Pb29  1  0.927817  0.125810  0.750240  1
  Pb  Pb30  1  0.571934  0.625889  0.249545  1
  Pb  Pb31  1  0.071903  0.874456  0.249986  1
  Pb  Pb32  1  0.649524  0.844572  0.749754  1
  Pb  Pb33  1  0.151582  0.654158  0.750771  1
  Pb  Pb34  1  0.349904  0.155224  0.250159  1
  Pb  Pb35  1  0.849260  0.344774  0.250216  1
