# generated using pymatgen
data_Lu6P13IrRh19
_symmetry_space_group_name_H-M   'P 1'
_cell_length_a   13.29919600
_cell_length_b   13.29919499
_cell_length_c   3.88794600
_cell_angle_alpha   90.00000000
_cell_angle_beta   90.00000000
_cell_angle_gamma   119.99999753
_symmetry_Int_Tables_number   1
_chemical_formula_structural   Lu6P13IrRh19
_chemical_formula_sum   'Lu6 P13 Ir1 Rh19'
_cell_volume   595.52720679
_cell_formula_units_Z   1
loop_
 _symmetry_equiv_pos_site_id
 _symmetry_equiv_pos_as_xyz
  1  'x, y, z'
loop_
 _atom_site_type_symbol
 _atom_site_label
 _atom_site_symmetry_multiplicity
 _atom_site_fract_x
 _atom_site_fract_y
 _atom_site_fract_z
 _atom_site_occupancy
  Lu  Lu0  1  0.528607  0.717483  0.248791  1
  Lu  Lu1  1  0.282517  0.811124  0.248791  1
  Lu  Lu2  1  0.188876  0.471393  0.248791  1
  Lu  Lu3  1  0.471334  0.282490  0.751222  1
  Lu  Lu4  1  0.717510  0.188844  0.751222  1
  Lu  Lu5  1  0.811156  0.528666  0.751222  1
  P  P6  1  0.527470  0.140342  0.250291  1
  P  P7  1  0.859658  0.387128  0.250291  1
  P  P8  1  0.612872  0.472530  0.250291  1
  P  P9  1  0.943959  0.713516  0.254283  1
  P  P10  1  0.286484  0.230442  0.254283  1
  P  P11  1  0.769558  0.056041  0.254283  1
  P  P12  1  0.387068  0.527387  0.749685  1
  P  P13  1  0.472613  0.859681  0.749685  1
  P  P14  1  0.140319  0.612932  0.749685  1
  P  P15  1  0.713521  0.769597  0.745708  1
  P  P16  1  0.230403  0.943926  0.745708  1
  P  P17  1  0.056074  0.286479  0.745708  1
  P  P18  1  0.000000  0.000000  0.999986  1
  Ir  Ir19  1  0.333333  0.666667  0.752266  1
  Rh  Rh20  1  0.919906  0.250590  0.252944  1
  Rh  Rh21  1  0.749410  0.669316  0.252944  1
  Rh  Rh22  1  0.330684  0.080094  0.252944  1
  Rh  Rh23  1  0.437568  0.020936  0.751348  1
  Rh  Rh24  1  0.979064  0.416632  0.751348  1
  Rh  Rh25  1  0.583368  0.562432  0.751348  1
  Rh  Rh26  1  0.666667  0.333333  0.247725  1
  Rh  Rh27  1  0.094448  0.187688  0.248165  1
  Rh  Rh28  1  0.812312  0.906759  0.248165  1
  Rh  Rh29  1  0.093241  0.905552  0.248165  1
  Rh  Rh30  1  0.020880  0.583327  0.248663  1
  Rh  Rh31  1  0.416673  0.437552  0.248663  1
  Rh  Rh32  1  0.562448  0.979120  0.248663  1
  Rh  Rh33  1  0.669305  0.919893  0.747071  1
  Rh  Rh34  1  0.080107  0.749411  0.747071  1
  Rh  Rh35  1  0.250589  0.330695  0.747071  1
  Rh  Rh36  1  0.905482  0.812322  0.751837  1
  Rh  Rh37  1  0.187678  0.093160  0.751837  1
  Rh  Rh38  1  0.906840  0.094518  0.751837  1
