# generated using pymatgen
data_La3NdZnCd2Pd3
_symmetry_space_group_name_H-M   'P 1'
_cell_length_a   7.99678066
_cell_length_b   7.99678047
_cell_length_c   3.95356900
_cell_angle_alpha   90.00000000
_cell_angle_beta   90.00000000
_cell_angle_gamma   89.95716133
_symmetry_Int_Tables_number   1
_chemical_formula_structural   La3NdZnCd2Pd3
_chemical_formula_sum   'La3 Nd1 Zn1 Cd2 Pd3'
_cell_volume   252.82473405
_cell_formula_units_Z   1
loop_
 _symmetry_equiv_pos_site_id
 _symmetry_equiv_pos_as_xyz
  1  'x, y, z'
loop_
 _atom_site_type_symbol
 _atom_site_label
 _atom_site_symmetry_multiplicity
 _atom_site_fract_x
 _atom_site_fract_y
 _atom_site_fract_z
 _atom_site_occupancy
  La  La0  1  0.676613  0.176613  0.500000  1
  La  La1  1  0.171440  0.312356  0.500000  1
  La  La2  1  0.812356  0.671440  0.500000  1
  Nd  Nd3  1  0.335045  0.835045  0.500000  1
  Zn  Zn4  1  0.123549  0.623549  0.000000  1
  Cd  Cd5  1  0.000127  0.992941  0.000000  1
  Cd  Cd6  1  0.492941  0.500127  0.000000  1
  Pd  Pd7  1  0.882712  0.382712  0.000000  1
  Pd  Pd8  1  0.628750  0.876467  0.000000  1
  Pd  Pd9  1  0.376467  0.128750  0.000000  1
