# generated using pymatgen
data_HfSc3Si6Ir3Rh4
_symmetry_space_group_name_H-M   'P 1'
_cell_length_a   6.98150637
_cell_length_b   6.95863118
_cell_length_c   6.98150722
_cell_angle_alpha   109.42244772
_cell_angle_beta   109.50751471
_cell_angle_gamma   109.42244914
_symmetry_Int_Tables_number   1
_chemical_formula_structural   HfSc3Si6Ir3Rh4
_chemical_formula_sum   'Hf1 Sc3 Si6 Ir3 Rh4'
_cell_volume   261.29305889
_cell_formula_units_Z   1
loop_
 _symmetry_equiv_pos_site_id
 _symmetry_equiv_pos_as_xyz
  1  'x, y, z'
loop_
 _atom_site_type_symbol
 _atom_site_label
 _atom_site_symmetry_multiplicity
 _atom_site_fract_x
 _atom_site_fract_y
 _atom_site_fract_z
 _atom_site_occupancy
  Hf  Hf0  1  0.000661  0.500440  0.000661  1
  Sc  Sc1  1  0.999899  0.999698  0.499903  1
  Sc  Sc2  1  0.499903  0.999698  0.999899  1
  Sc  Sc3  1  0.499973  0.500279  0.499973  1
  Si  Si4  1  0.680420  0.682891  0.999943  1
  Si  Si5  1  0.319164  0.002828  0.319164  1
  Si  Si6  1  0.999896  0.316940  0.319549  1
  Si  Si7  1  0.319549  0.316940  0.999896  1
  Si  Si8  1  0.680896  0.997452  0.680896  1
  Si  Si9  1  0.999943  0.682891  0.680420  1
  Ir  Ir10  1  0.248685  0.749192  0.498849  1
  Ir  Ir11  1  0.498849  0.749192  0.248685  1
  Ir  Ir12  1  0.000030  0.999974  0.000030  1
  Rh  Rh13  1  0.751170  0.251435  0.501764  1
  Rh  Rh14  1  0.750281  0.499359  0.248915  1
  Rh  Rh15  1  0.501764  0.251435  0.751170  1
  Rh  Rh16  1  0.248915  0.499359  0.750281  1
