# generated using pymatgen
data_Cd4Te(PN2)6
_symmetry_space_group_name_H-M   'P 1'
_cell_length_a   7.51097381
_cell_length_b   7.51097429
_cell_length_c   7.51097400
_cell_angle_alpha   109.47121986
_cell_angle_beta   109.47122114
_cell_angle_gamma   109.47121885
_symmetry_Int_Tables_number   1
_chemical_formula_structural   Cd4Te(PN2)6
_chemical_formula_sum   'Cd4 Te1 P6 N12'
_cell_volume   326.18719039
_cell_formula_units_Z   1
loop_
 _symmetry_equiv_pos_site_id
 _symmetry_equiv_pos_as_xyz
  1  'x, y, z'
loop_
 _atom_site_type_symbol
 _atom_site_label
 _atom_site_symmetry_multiplicity
 _atom_site_fract_x
 _atom_site_fract_y
 _atom_site_fract_z
 _atom_site_occupancy
  Cd  Cd0  1  0.636223  0.000000  0.000000  1
  Cd  Cd1  1  0.000000  0.000000  0.636223  1
  Cd  Cd2  1  0.000000  0.636223  0.000000  1
  Cd  Cd3  1  0.363777  0.363777  0.363777  1
  Te  Te4  1  0.000000  0.000000  0.000000  1
  P  P5  1  0.250000  0.750000  0.500000  1
  P  P6  1  0.750000  0.250000  0.500000  1
  P  P7  1  0.750000  0.500000  0.250000  1
  P  P8  1  0.250000  0.500000  0.750000  1
  P  P9  1  0.500000  0.750000  0.250000  1
  P  P10  1  0.500000  0.250000  0.750000  1
  N  N11  1  0.707616  0.291291  0.291291  1
  N  N12  1  0.291291  0.707616  0.291291  1
  N  N13  1  0.292384  0.583675  0.583675  1
  N  N14  1  0.583675  0.583675  0.292384  1
  N  N15  1  0.416325  0.708709  0.000000  1
  N  N16  1  0.000000  0.708709  0.416325  1
  N  N17  1  0.583675  0.292384  0.583675  1
  N  N18  1  0.708709  0.000000  0.416325  1
  N  N19  1  0.416325  0.000000  0.708709  1
  N  N20  1  0.708709  0.416325  0.000000  1
  N  N21  1  0.291291  0.291291  0.707616  1
  N  N22  1  0.000000  0.416325  0.708709  1
