# generated using pymatgen
data_LaPr3Gd2Nb2O14
_symmetry_space_group_name_H-M   'P 1'
_cell_length_a   6.67592304
_cell_length_b   6.67592300
_cell_length_c   7.76232200
_cell_angle_alpha   89.99976693
_cell_angle_beta   90.00023078
_cell_angle_gamma   109.01121111
_symmetry_Int_Tables_number   1
_chemical_formula_structural   LaPr3Gd2Nb2O14
_chemical_formula_sum   'La1 Pr3 Gd2 Nb2 O14'
_cell_volume   327.08082961
_cell_formula_units_Z   1
loop_
 _symmetry_equiv_pos_site_id
 _symmetry_equiv_pos_as_xyz
  1  'x, y, z'
loop_
 _atom_site_type_symbol
 _atom_site_label
 _atom_site_symmetry_multiplicity
 _atom_site_fract_x
 _atom_site_fract_y
 _atom_site_fract_z
 _atom_site_occupancy
  La  La0  1  0.477690  0.477690  0.500000  1
  Pr  Pr1  1  0.472929  0.472929  0.000000  1
  Pr  Pr2  1  0.536312  0.995972  0.750211  1
  Pr  Pr3  1  0.995972  0.536312  0.249789  1
  Gd  Gd4  1  0.465744  0.997473  0.249830  1
  Gd  Gd5  1  0.997473  0.465744  0.750170  1
  Nb  Nb6  1  0.998033  0.998033  0.500000  1
  Nb  Nb7  1  0.997225  0.997225  0.000000  1
  O  O8  1  0.693281  0.943982  0.461048  1
  O  O9  1  0.943982  0.693281  0.538952  1
  O  O10  1  0.693612  0.943901  0.038912  1
  O  O11  1  0.943901  0.693612  0.961088  1
  O  O12  1  0.321787  0.074535  0.523611  1
  O  O13  1  0.074535  0.321787  0.476389  1
  O  O14  1  0.322609  0.076634  0.976552  1
  O  O15  1  0.076634  0.322609  0.023448  1
  O  O16  1  0.359139  0.624032  0.750860  1
  O  O17  1  0.624032  0.359139  0.249140  1
  O  O18  1  0.641825  0.364339  0.750878  1
  O  O19  1  0.364339  0.641825  0.249122  1
  O  O20  1  0.938379  0.060569  0.750085  1
  O  O21  1  0.060569  0.938379  0.249915  1
