# generated using pymatgen
data_Lu12In2Fe2Tc
_symmetry_space_group_name_H-M   'P 1'
_cell_length_a   8.19766571
_cell_length_b   8.19766630
_cell_length_c   8.19766622
_cell_angle_alpha   108.77930588
_cell_angle_beta   108.77930200
_cell_angle_gamma   110.86408887
_symmetry_Int_Tables_number   1
_chemical_formula_structural   Lu12In2Fe2Tc
_chemical_formula_sum   'Lu12 In2 Fe2 Tc1'
_cell_volume   423.89252250
_cell_formula_units_Z   1
loop_
 _symmetry_equiv_pos_site_id
 _symmetry_equiv_pos_as_xyz
  1  'x, y, z'
loop_
 _atom_site_type_symbol
 _atom_site_label
 _atom_site_symmetry_multiplicity
 _atom_site_fract_x
 _atom_site_fract_y
 _atom_site_fract_z
 _atom_site_occupancy
  Lu  Lu0  1  0.307760  0.307760  0.615521  1
  Lu  Lu1  1  0.692240  0.692240  0.384479  1
  Lu  Lu2  1  0.692240  0.307760  0.000000  1
  Lu  Lu3  1  0.307760  0.692240  0.000000  1
  Lu  Lu4  1  0.193187  0.431284  0.238097  1
  Lu  Lu5  1  0.806813  0.568716  0.761903  1
  Lu  Lu6  1  0.193187  0.955089  0.761903  1
  Lu  Lu7  1  0.955089  0.193187  0.761903  1
  Lu  Lu8  1  0.806813  0.044911  0.238097  1
  Lu  Lu9  1  0.044911  0.806813  0.238097  1
  Lu  Lu10  1  0.431284  0.193187  0.238097  1
  Lu  Lu11  1  0.568716  0.806813  0.761903  1
  In  In12  1  0.000000  0.500000  0.500000  1
  In  In13  1  0.500000  0.000000  0.500000  1
  Fe  Fe14  1  0.382609  0.382609  0.000000  1
  Fe  Fe15  1  0.617391  0.617391  0.000000  1
  Tc  Tc16  1  0.000000  0.000000  0.000000  1
