# generated using pymatgen
data_Sm8TaSi16Mo11
_symmetry_space_group_name_H-M   'P 1'
_cell_length_a   6.87287347
_cell_length_b   7.05884659
_cell_length_c   13.05817400
_cell_angle_alpha   90.00000000
_cell_angle_beta   90.00000000
_cell_angle_gamma   89.90228270
_symmetry_Int_Tables_number   1
_chemical_formula_structural   Sm8TaSi16Mo11
_chemical_formula_sum   'Sm8 Ta1 Si16 Mo11'
_cell_volume   633.51063815
_cell_formula_units_Z   1
loop_
 _symmetry_equiv_pos_site_id
 _symmetry_equiv_pos_as_xyz
  1  'x, y, z'
loop_
 _atom_site_type_symbol
 _atom_site_label
 _atom_site_symmetry_multiplicity
 _atom_site_fract_x
 _atom_site_fract_y
 _atom_site_fract_z
 _atom_site_occupancy
  Sm  Sm0  1  0.997776  0.165827  0.094952  1
  Sm  Sm1  1  0.000363  0.833081  0.905688  1
  Sm  Sm2  1  0.501978  0.667572  0.905788  1
  Sm  Sm3  1  0.000363  0.833081  0.594312  1
  Sm  Sm4  1  0.497822  0.334889  0.094628  1
  Sm  Sm5  1  0.997776  0.165827  0.405048  1
  Sm  Sm6  1  0.497822  0.334889  0.405372  1
  Sm  Sm7  1  0.501978  0.667572  0.594212  1
  Ta  Ta8  1  0.661937  0.008677  0.750000  1
  Si  Si9  1  0.040114  0.138204  0.750000  1
  Si  Si10  1  0.965149  0.860880  0.250000  1
  Si  Si11  1  0.463423  0.639592  0.250000  1
  Si  Si12  1  0.532924  0.369904  0.750000  1
  Si  Si13  1  0.299649  0.875874  0.750000  1
  Si  Si14  1  0.693339  0.121314  0.250000  1
  Si  Si15  1  0.194327  0.379152  0.250000  1
  Si  Si16  1  0.804961  0.618937  0.750000  1
  Si  Si17  1  0.157402  0.454475  0.548254  1
  Si  Si18  1  0.844123  0.543912  0.451192  1
  Si  Si19  1  0.343699  0.955246  0.451269  1
  Si  Si20  1  0.844123  0.543912  0.048808  1
  Si  Si21  1  0.657841  0.044576  0.544521  1
  Si  Si22  1  0.157402  0.454475  0.951746  1
  Si  Si23  1  0.657841  0.044576  0.955479  1
  Si  Si24  1  0.343699  0.955246  0.048731  1
  Mo  Mo25  1  0.164698  0.495089  0.750000  1
  Mo  Mo26  1  0.834880  0.502223  0.250000  1
  Mo  Mo27  1  0.335772  0.997595  0.250000  1
  Mo  Mo28  1  0.333700  0.164439  0.625703  1
  Mo  Mo29  1  0.669317  0.834762  0.372919  1
  Mo  Mo30  1  0.168207  0.665168  0.373939  1
  Mo  Mo31  1  0.669317  0.834762  0.127081  1
  Mo  Mo32  1  0.832185  0.332333  0.625593  1
  Mo  Mo33  1  0.333700  0.164439  0.874297  1
  Mo  Mo34  1  0.832185  0.332333  0.874407  1
  Mo  Mo35  1  0.168207  0.665168  0.126061  1
