# generated using pymatgen
data_Rb2Ge(WO4)3
_symmetry_space_group_name_H-M   'P 1'
_cell_length_a   7.20092899
_cell_length_b   7.20092890
_cell_length_c   7.20092886
_cell_angle_alpha   61.49515226
_cell_angle_beta   61.49514947
_cell_angle_gamma   61.49515348
_symmetry_Int_Tables_number   1
_chemical_formula_structural   Rb2Ge(WO4)3
_chemical_formula_sum   'Rb2 Ge1 W3 O12'
_cell_volume   272.89006274
_cell_formula_units_Z   1
loop_
 _symmetry_equiv_pos_site_id
 _symmetry_equiv_pos_as_xyz
  1  'x, y, z'
loop_
 _atom_site_type_symbol
 _atom_site_label
 _atom_site_symmetry_multiplicity
 _atom_site_fract_x
 _atom_site_fract_y
 _atom_site_fract_z
 _atom_site_occupancy
  Rb  Rb0  1  0.369383  0.369383  0.369383  1
  Rb  Rb1  1  0.630617  0.630617  0.630617  1
  Ge  Ge2  1  0.000000  0.000000  0.000000  1
  W  W3  1  0.500000  0.000000  0.000000  1
  W  W4  1  0.000000  0.000000  0.500000  1
  W  W5  1  0.000000  0.500000  0.000000  1
  O  O6  1  0.942125  0.315752  0.315752  1
  O  O7  1  0.307041  0.940152  0.940152  1
  O  O8  1  0.315752  0.315752  0.942125  1
  O  O9  1  0.940152  0.940152  0.307041  1
  O  O10  1  0.940152  0.307041  0.940152  1
  O  O11  1  0.315752  0.942125  0.315752  1
  O  O12  1  0.057875  0.684248  0.684248  1
  O  O13  1  0.692959  0.059848  0.059848  1
  O  O14  1  0.684248  0.684248  0.057875  1
  O  O15  1  0.059848  0.059848  0.692959  1
  O  O16  1  0.059848  0.692959  0.059848  1
  O  O17  1  0.684248  0.057875  0.684248  1
