# generated using pymatgen
data_Dy11Ho5(ErPt4)4
_symmetry_space_group_name_H-M   'P 1'
_cell_length_a   7.46499667
_cell_length_b   7.54878830
_cell_length_c   14.72528030
_cell_angle_alpha   90.04669105
_cell_angle_beta   89.98835369
_cell_angle_gamma   90.11299271
_symmetry_Int_Tables_number   1
_chemical_formula_structural   Dy11Ho5(ErPt4)4
_chemical_formula_sum   'Dy11 Ho5 Er4 Pt16'
_cell_volume   829.79236949
_cell_formula_units_Z   1
loop_
 _symmetry_equiv_pos_site_id
 _symmetry_equiv_pos_as_xyz
  1  'x, y, z'
loop_
 _atom_site_type_symbol
 _atom_site_label
 _atom_site_symmetry_multiplicity
 _atom_site_fract_x
 _atom_site_fract_y
 _atom_site_fract_z
 _atom_site_occupancy
  Dy  Dy0  1  0.843644  0.668274  0.122397  1
  Dy  Dy1  1  0.656476  0.168210  0.877634  1
  Dy  Dy2  1  0.156364  0.331744  0.622363  1
  Dy  Dy3  1  0.502159  0.679769  0.593137  1
  Dy  Dy4  1  0.002325  0.820416  0.906592  1
  Dy  Dy5  1  0.497686  0.320377  0.093424  1
  Dy  Dy6  1  0.998038  0.179253  0.406594  1
  Dy  Dy7  1  0.498073  0.320561  0.406773  1
  Dy  Dy8  1  0.998192  0.179389  0.093381  1
  Dy  Dy9  1  0.501764  0.679448  0.906708  1
  Dy  Dy10  1  0.001762  0.820692  0.593294  1
  Ho  Ho11  1  0.656368  0.168290  0.622490  1
  Ho  Ho12  1  0.156389  0.331701  0.877518  1
  Ho  Ho13  1  0.343522  0.831764  0.122540  1
  Ho  Ho14  1  0.843602  0.668351  0.377600  1
  Ho  Ho15  1  0.343563  0.831750  0.377624  1
  Er  Er16  1  0.819232  0.512104  0.749998  1
  Er  Er17  1  0.319294  0.988053  0.750021  1
  Er  Er18  1  0.180815  0.488109  0.250116  1
  Er  Er19  1  0.680585  0.011812  0.250097  1
  Pt  Pt20  1  0.683226  0.967936  0.458058  1
  Pt  Pt21  1  0.183723  0.531877  0.041874  1
  Pt  Pt22  1  0.316351  0.031977  0.957970  1
  Pt  Pt23  1  0.816446  0.468078  0.541956  1
  Pt  Pt24  1  0.317097  0.031611  0.542090  1
  Pt  Pt25  1  0.817194  0.468480  0.957567  1
  Pt  Pt26  1  0.682852  0.968244  0.042273  1
  Pt  Pt27  1  0.183069  0.532019  0.457733  1
  Pt  Pt28  1  0.453665  0.388102  0.749898  1
  Pt  Pt29  1  0.953731  0.111756  0.749842  1
  Pt  Pt30  1  0.546157  0.612157  0.250213  1
  Pt  Pt31  1  0.046579  0.888002  0.250216  1
  Pt  Pt32  1  0.681838  0.855726  0.749692  1
  Pt  Pt33  1  0.182260  0.644051  0.749973  1
  Pt  Pt34  1  0.318049  0.144046  0.250119  1
  Pt  Pt35  1  0.817912  0.355872  0.250226  1
