# generated using pymatgen
data_Hf3ZrAl4Mo3Au
_symmetry_space_group_name_H-M   'P 1'
_cell_length_a   5.29311300
_cell_length_b   5.29311416
_cell_length_c   8.76128329
_cell_angle_alpha   89.94604586
_cell_angle_beta   90.05395515
_cell_angle_gamma   119.50927636
_symmetry_Int_Tables_number   1
_chemical_formula_structural   Hf3ZrAl4Mo3Au
_chemical_formula_sum   'Hf3 Zr1 Al4 Mo3 Au1'
_cell_volume   213.62244378
_cell_formula_units_Z   1
loop_
 _symmetry_equiv_pos_site_id
 _symmetry_equiv_pos_as_xyz
  1  'x, y, z'
loop_
 _atom_site_type_symbol
 _atom_site_label
 _atom_site_symmetry_multiplicity
 _atom_site_fract_x
 _atom_site_fract_y
 _atom_site_fract_z
 _atom_site_occupancy
  Hf  Hf0  1  0.665353  0.334647  0.318877  1
  Hf  Hf1  1  0.665545  0.334455  0.681445  1
  Hf  Hf2  1  0.333636  0.666364  0.808655  1
  Zr  Zr3  1  0.334025  0.665975  0.189864  1
  Al  Al4  1  0.999854  0.000146  0.248477  1
  Al  Al5  1  0.999847  0.000153  0.751636  1
  Al  Al6  1  0.829104  0.653443  0.999611  1
  Al  Al7  1  0.346557  0.170896  0.999611  1
  Mo  Mo8  1  0.167995  0.342783  0.500773  1
  Mo  Mo9  1  0.657217  0.832005  0.500773  1
  Mo  Mo10  1  0.169504  0.830496  0.501026  1
  Au  Au11  1  0.831454  0.168546  0.999254  1
