# generated using pymatgen
data_Pa5Sn3Sb
_symmetry_space_group_name_H-M   'P 1'
_cell_length_a   9.29053794
_cell_length_b   9.33849103
_cell_length_c   6.25698600
_cell_angle_alpha   90.00000000
_cell_angle_beta   90.00000000
_cell_angle_gamma   120.17089004
_symmetry_Int_Tables_number   1
_chemical_formula_structural   Pa5Sn3Sb
_chemical_formula_sum   'Pa10 Sn6 Sb2'
_cell_volume   469.31339282
_cell_formula_units_Z   2
loop_
 _symmetry_equiv_pos_site_id
 _symmetry_equiv_pos_as_xyz
  1  'x, y, z'
loop_
 _atom_site_type_symbol
 _atom_site_label
 _atom_site_symmetry_multiplicity
 _atom_site_fract_x
 _atom_site_fract_y
 _atom_site_fract_z
 _atom_site_occupancy
  Pa  Pa0  1  0.290811  0.291594  0.750000  1
  Pa  Pa1  1  0.709189  0.708406  0.250000  1
  Pa  Pa2  1  0.709189  0.000784  0.750000  1
  Pa  Pa3  1  0.000000  0.292557  0.250000  1
  Pa  Pa4  1  0.332140  0.666071  0.500000  1
  Pa  Pa5  1  0.667860  0.333929  0.500000  1
  Pa  Pa6  1  0.000000  0.707443  0.750000  1
  Pa  Pa7  1  0.332140  0.666071  0.000000  1
  Pa  Pa8  1  0.290811  0.999216  0.250000  1
  Pa  Pa9  1  0.667860  0.333929  0.000000  1
  Sn  Sn10  1  0.000000  0.000000  0.500000  1
  Sn  Sn11  1  0.626484  0.627499  0.750000  1
  Sn  Sn12  1  0.373516  0.001015  0.750000  1
  Sn  Sn13  1  0.000000  0.000000  0.000000  1
  Sn  Sn14  1  0.626484  0.998985  0.250000  1
  Sn  Sn15  1  0.373516  0.372501  0.250000  1
  Sb  Sb16  1  0.000000  0.373879  0.750000  1
  Sb  Sb17  1  0.000000  0.626121  0.250000  1
