# generated using pymatgen
data_Cs6ErTmI12
_symmetry_space_group_name_H-M   'P 1'
_cell_length_a   10.64034313
_cell_length_b   10.64157313
_cell_length_c   8.81376400
_cell_angle_alpha   90.00000000
_cell_angle_beta   90.00000000
_cell_angle_gamma   89.98197822
_symmetry_Int_Tables_number   1
_chemical_formula_structural   Cs6ErTmI12
_chemical_formula_sum   'Cs6 Er1 Tm1 I12'
_cell_volume   997.98235651
_cell_formula_units_Z   1
loop_
 _symmetry_equiv_pos_site_id
 _symmetry_equiv_pos_as_xyz
  1  'x, y, z'
loop_
 _atom_site_type_symbol
 _atom_site_label
 _atom_site_symmetry_multiplicity
 _atom_site_fract_x
 _atom_site_fract_y
 _atom_site_fract_z
 _atom_site_occupancy
  Cs  Cs0  1  0.000000  0.000000  0.500000  1
  Cs  Cs1  1  0.000000  0.000000  0.000000  1
  Cs  Cs2  1  0.233375  0.586666  0.500000  1
  Cs  Cs3  1  0.766625  0.413334  0.500000  1
  Cs  Cs4  1  0.413325  0.233384  0.000000  1
  Cs  Cs5  1  0.586675  0.766616  0.000000  1
  Er  Er6  1  0.500000  0.000000  0.500000  1
  Tm  Tm7  1  0.000000  0.500000  0.000000  1
  I  I8  1  0.693313  0.058695  0.742530  1
  I  I9  1  0.306687  0.941305  0.742530  1
  I  I10  1  0.941465  0.692747  0.241838  1
  I  I11  1  0.058535  0.307253  0.241838  1
  I  I12  1  0.306687  0.941305  0.257470  1
  I  I13  1  0.693313  0.058695  0.257470  1
  I  I14  1  0.058535  0.307253  0.758162  1
  I  I15  1  0.941465  0.692747  0.758162  1
  I  I16  1  0.571589  0.727068  0.500000  1
  I  I17  1  0.428411  0.272932  0.500000  1
  I  I18  1  0.272135  0.571415  0.000000  1
  I  I19  1  0.727865  0.428585  0.000000  1
