# generated using pymatgen
data_Eu2Si2OsPd3
_symmetry_space_group_name_H-M   'P 1'
_cell_length_a   4.16271334
_cell_length_b   4.19507100
_cell_length_c   9.40294263
_cell_angle_alpha   90.00000000
_cell_angle_beta   102.78841568
_cell_angle_gamma   90.00000000
_symmetry_Int_Tables_number   1
_chemical_formula_structural   Eu2Si2OsPd3
_chemical_formula_sum   'Eu2 Si2 Os1 Pd3'
_cell_volume   160.12925532
_cell_formula_units_Z   1
loop_
 _symmetry_equiv_pos_site_id
 _symmetry_equiv_pos_as_xyz
  1  'x, y, z'
loop_
 _atom_site_type_symbol
 _atom_site_label
 _atom_site_symmetry_multiplicity
 _atom_site_fract_x
 _atom_site_fract_y
 _atom_site_fract_z
 _atom_site_occupancy
  Eu  Eu0  1  0.601409  0.250000  0.202817  1
  Eu  Eu1  1  0.398561  0.750000  0.797123  1
  Si  Si2  1  0.819489  0.250000  0.638978  1
  Si  Si3  1  0.180226  0.750000  0.360451  1
  Os  Os4  1  0.749999  0.750000  0.500001  1
  Pd  Pd5  1  0.951923  0.250000  0.903846  1
  Pd  Pd6  1  0.048442  0.750000  0.096885  1
  Pd  Pd7  1  0.249950  0.250000  0.499899  1
