# generated using pymatgen
data_ScGa(TcO4)6
_symmetry_space_group_name_H-M   'P 1'
_cell_length_a   10.44534529
_cell_length_b   10.44534450
_cell_length_c   10.44534524
_cell_angle_alpha   49.15973341
_cell_angle_beta   49.15974770
_cell_angle_gamma   49.15974312
_symmetry_Int_Tables_number   1
_chemical_formula_structural   ScGa(TcO4)6
_chemical_formula_sum   'Sc1 Ga1 Tc6 O24'
_cell_volume   599.11917178
_cell_formula_units_Z   1
loop_
 _symmetry_equiv_pos_site_id
 _symmetry_equiv_pos_as_xyz
  1  'x, y, z'
loop_
 _atom_site_type_symbol
 _atom_site_label
 _atom_site_symmetry_multiplicity
 _atom_site_fract_x
 _atom_site_fract_y
 _atom_site_fract_z
 _atom_site_occupancy
  Sc  Sc0  1  0.000000  0.000000  0.000000  1
  Ga  Ga1  1  0.500000  0.500000  0.500000  1
  Tc  Tc2  1  0.591243  0.901397  0.253791  1
  Tc  Tc3  1  0.253791  0.591243  0.901397  1
  Tc  Tc4  1  0.901397  0.253791  0.591243  1
  Tc  Tc5  1  0.746209  0.408757  0.098603  1
  Tc  Tc6  1  0.098603  0.746209  0.408757  1
  Tc  Tc7  1  0.408757  0.098603  0.746209  1
  O  O8  1  0.811471  0.878866  0.178724  1
  O  O9  1  0.178724  0.811471  0.878866  1
  O  O10  1  0.878866  0.178724  0.811471  1
  O  O11  1  0.669707  0.390762  0.317604  1
  O  O12  1  0.317604  0.669707  0.390762  1
  O  O13  1  0.390762  0.317604  0.669707  1
  O  O14  1  0.188529  0.121134  0.821276  1
  O  O15  1  0.821276  0.188529  0.121134  1
  O  O16  1  0.121134  0.821276  0.188529  1
  O  O17  1  0.330293  0.609238  0.682396  1
  O  O18  1  0.682396  0.330293  0.609238  1
  O  O19  1  0.609238  0.682396  0.330293  1
  O  O20  1  0.437217  0.977762  0.427357  1
  O  O21  1  0.427357  0.437217  0.977762  1
  O  O22  1  0.977762  0.427357  0.437217  1
  O  O23  1  0.924696  0.478599  0.942011  1
  O  O24  1  0.942011  0.924696  0.478599  1
  O  O25  1  0.478599  0.942011  0.924696  1
  O  O26  1  0.562783  0.022238  0.572643  1
  O  O27  1  0.572643  0.562783  0.022238  1
  O  O28  1  0.022238  0.572643  0.562783  1
  O  O29  1  0.075304  0.521401  0.057989  1
  O  O30  1  0.057989  0.075304  0.521401  1
  O  O31  1  0.521401  0.057989  0.075304  1
