# generated using pymatgen
data_NdSm3ReTc5B12
_symmetry_space_group_name_H-M   'P 1'
_cell_length_a   6.26363294
_cell_length_b   6.27850190
_cell_length_c   7.59388813
_cell_angle_alpha   90.46780568
_cell_angle_beta   90.78508123
_cell_angle_gamma   114.32475810
_symmetry_Int_Tables_number   1
_chemical_formula_structural   NdSm3ReTc5B12
_chemical_formula_sum   'Nd1 Sm3 Re1 Tc5 B12'
_cell_volume   272.07063882
_cell_formula_units_Z   1
loop_
 _symmetry_equiv_pos_site_id
 _symmetry_equiv_pos_as_xyz
  1  'x, y, z'
loop_
 _atom_site_type_symbol
 _atom_site_label
 _atom_site_symmetry_multiplicity
 _atom_site_fract_x
 _atom_site_fract_y
 _atom_site_fract_z
 _atom_site_occupancy
  Nd  Nd0  1  0.437158  0.093035  0.826434  1
  Sm  Sm1  1  0.096288  0.441227  0.324332  1
  Sm  Sm2  1  0.560466  0.903976  0.175267  1
  Sm  Sm3  1  0.903454  0.555977  0.675480  1
  Re  Re4  1  0.805780  0.989267  0.589285  1
  Tc  Tc5  1  0.585601  0.414686  0.249568  1
  Tc  Tc6  1  0.414290  0.584202  0.748821  1
  Tc  Tc7  1  0.989609  0.803878  0.089049  1
  Tc  Tc8  1  0.195688  0.010521  0.411046  1
  Tc  Tc9  1  0.009928  0.197825  0.912678  1
  B  B10  1  0.241370  0.152944  0.132505  1
  B  B11  1  0.846876  0.757889  0.370417  1
  B  B12  1  0.760411  0.847809  0.867279  1
  B  B13  1  0.152202  0.246310  0.629588  1
  B  B14  1  0.584844  0.157302  0.481441  1
  B  B15  1  0.842395  0.417624  0.019236  1
  B  B16  1  0.415965  0.840853  0.516615  1
  B  B17  1  0.158050  0.584259  0.982201  1
  B  B18  1  0.441282  0.349384  0.532349  1
  B  B19  1  0.650200  0.559386  0.966816  1
  B  B20  1  0.558091  0.649212  0.466098  1
  B  B21  1  0.350052  0.442435  0.033497  1
