# generated using pymatgen
data_Tb2Fe2CoP7Ru9
_symmetry_space_group_name_H-M   'P 1'
_cell_length_a   9.34417819
_cell_length_b   9.30162136
_cell_length_c   3.84554500
_cell_angle_alpha   90.00000000
_cell_angle_beta   90.00000000
_cell_angle_gamma   119.97363080
_symmetry_Int_Tables_number   1
_chemical_formula_structural   Tb2Fe2CoP7Ru9
_chemical_formula_sum   'Tb2 Fe2 Co1 P7 Ru9'
_cell_volume   289.53670953
_cell_formula_units_Z   1
loop_
 _symmetry_equiv_pos_site_id
 _symmetry_equiv_pos_as_xyz
  1  'x, y, z'
loop_
 _atom_site_type_symbol
 _atom_site_label
 _atom_site_symmetry_multiplicity
 _atom_site_fract_x
 _atom_site_fract_y
 _atom_site_fract_z
 _atom_site_occupancy
  Tb  Tb0  1  0.000296  0.998535  0.000000  1
  Tb  Tb1  1  0.333831  0.667005  0.500000  1
  Fe  Fe2  1  0.823642  0.600777  0.000000  1
  Fe  Fe3  1  0.399000  0.222225  0.000000  1
  Co  Co4  1  0.776151  0.175088  0.000000  1
  P  P5  1  0.782351  0.730220  0.500000  1
  P  P6  1  0.270667  0.052017  0.500000  1
  P  P7  1  0.951193  0.220004  0.500000  1
  P  P8  1  0.665634  0.333531  0.000000  1
  P  P9  1  0.077941  0.637347  0.000000  1
  P  P10  1  0.362366  0.441465  0.000000  1
  P  P11  1  0.557258  0.920480  0.000000  1
  Ru  Ru12  1  0.088737  0.394773  0.000000  1
  Ru  Ru13  1  0.605918  0.695185  0.000000  1
  Ru  Ru14  1  0.305213  0.911075  0.000000  1
  Ru  Ru15  1  0.051576  0.770759  0.500000  1
  Ru  Ru16  1  0.229459  0.281231  0.500000  1
  Ru  Ru17  1  0.720699  0.949857  0.500000  1
  Ru  Ru18  1  0.869298  0.420103  0.500000  1
  Ru  Ru19  1  0.579726  0.450456  0.500000  1
  Ru  Ru20  1  0.549044  0.127867  0.500000  1
