# generated using pymatgen
data_CaGaAsIr2
_symmetry_space_group_name_H-M   'P 1'
_cell_length_a   6.02417724
_cell_length_b   6.02417795
_cell_length_c   6.02417683
_cell_angle_alpha   139.15249466
_cell_angle_beta   139.15250211
_cell_angle_gamma   59.14240185
_symmetry_Int_Tables_number   1
_chemical_formula_structural   CaGaAsIr2
_chemical_formula_sum   'Ca1 Ga1 As1 Ir2'
_cell_volume   92.61831740
_cell_formula_units_Z   1
loop_
 _symmetry_equiv_pos_site_id
 _symmetry_equiv_pos_as_xyz
  1  'x, y, z'
loop_
 _atom_site_type_symbol
 _atom_site_label
 _atom_site_symmetry_multiplicity
 _atom_site_fract_x
 _atom_site_fract_y
 _atom_site_fract_z
 _atom_site_occupancy
  Ca  Ca0  1  0.999173  0.999173  0.000000  1
  Ga  Ga1  1  0.622870  0.622870  0.000000  1
  As  As2  1  0.373696  0.373696  0.000000  1
  Ir  Ir3  1  0.752129  0.252129  0.500000  1
  Ir  Ir4  1  0.252129  0.752129  0.500000  1
