# generated using pymatgen
data_HfNb18Al10Mo
_symmetry_space_group_name_H-M   'P 1'
_cell_length_a   9.99929600
_cell_length_b   10.00190710
_cell_length_c   5.21254400
_cell_angle_alpha   90.00000000
_cell_angle_beta   90.00000000
_cell_angle_gamma   89.96282786
_symmetry_Int_Tables_number   1
_chemical_formula_structural   HfNb18Al10Mo
_chemical_formula_sum   'Hf1 Nb18 Al10 Mo1'
_cell_volume   521.31699566
_cell_formula_units_Z   1
loop_
 _symmetry_equiv_pos_site_id
 _symmetry_equiv_pos_as_xyz
  1  'x, y, z'
loop_
 _atom_site_type_symbol
 _atom_site_label
 _atom_site_symmetry_multiplicity
 _atom_site_fract_x
 _atom_site_fract_y
 _atom_site_fract_z
 _atom_site_occupancy
  Hf  Hf0  1  0.391802  0.397142  0.000000  1
  Nb  Nb1  1  0.896880  0.104175  0.500000  1
  Nb  Nb2  1  0.103410  0.895885  0.500000  1
  Nb  Nb3  1  0.603284  0.605348  0.000000  1
  Nb  Nb4  1  0.965084  0.372920  0.500000  1
  Nb  Nb5  1  0.035076  0.627626  0.500000  1
  Nb  Nb6  1  0.876956  0.534310  0.000000  1
  Nb  Nb7  1  0.371528  0.963082  0.500000  1
  Nb  Nb8  1  0.629385  0.033920  0.500000  1
  Nb  Nb9  1  0.465315  0.124555  0.000000  1
  Nb  Nb10  1  0.536183  0.871887  0.000000  1
  Nb  Nb11  1  0.181369  0.181429  0.252814  1
  Nb  Nb12  1  0.681561  0.319540  0.753199  1
  Nb  Nb13  1  0.317734  0.680908  0.751960  1
  Nb  Nb14  1  0.818798  0.818516  0.252288  1
  Nb  Nb15  1  0.317734  0.680908  0.248040  1
  Nb  Nb16  1  0.681561  0.319540  0.246801  1
  Nb  Nb17  1  0.181369  0.181429  0.747186  1
  Nb  Nb18  1  0.818798  0.818516  0.747712  1
  Al  Al19  1  0.999917  0.000033  0.000000  1
  Al  Al20  1  0.501747  0.502009  0.500000  1
  Al  Al21  1  0.261374  0.932571  0.000000  1
  Al  Al22  1  0.433763  0.235934  0.500000  1
  Al  Al23  1  0.567030  0.761849  0.500000  1
  Al  Al24  1  0.739101  0.067473  0.000000  1
  Al  Al25  1  0.235273  0.434038  0.500000  1
  Al  Al26  1  0.762199  0.567500  0.500000  1
  Al  Al27  1  0.934857  0.262608  0.000000  1
  Al  Al28  1  0.067571  0.737518  0.000000  1
  Mo  Mo29  1  0.123343  0.466831  0.000000  1
