# generated using pymatgen
data_TbHo4(ThS4)3
_symmetry_space_group_name_H-M   'P 1'
_cell_length_a   3.91851900
_cell_length_b   10.48781418
_cell_length_c   10.69982338
_cell_angle_alpha   89.82551741
_cell_angle_beta   90.00000000
_cell_angle_gamma   90.00000000
_symmetry_Int_Tables_number   1
_chemical_formula_structural   TbHo4(ThS4)3
_chemical_formula_sum   'Tb1 Ho4 Th3 S12'
_cell_volume   439.72538328
_cell_formula_units_Z   1
loop_
 _symmetry_equiv_pos_site_id
 _symmetry_equiv_pos_as_xyz
  1  'x, y, z'
loop_
 _atom_site_type_symbol
 _atom_site_label
 _atom_site_symmetry_multiplicity
 _atom_site_fract_x
 _atom_site_fract_y
 _atom_site_fract_z
 _atom_site_occupancy
  Tb  Tb0  1  0.250000  0.503609  0.305119  1
  Ho  Ho1  1  0.250000  0.187525  0.486001  1
  Ho  Ho2  1  0.750000  0.812601  0.510885  1
  Ho  Ho3  1  0.750000  0.684188  0.014775  1
  Ho  Ho4  1  0.250000  0.315326  0.990501  1
  Th  Th5  1  0.250000  0.000245  0.804390  1
  Th  Th6  1  0.750000  0.998378  0.196059  1
  Th  Th7  1  0.750000  0.499442  0.691953  1
  S  S8  1  0.250000  0.295902  0.728969  1
  S  S9  1  0.750000  0.701538  0.272664  1
  S  S10  1  0.750000  0.796911  0.772450  1
  S  S11  1  0.250000  0.200248  0.226678  1
  S  S12  1  0.250000  0.944777  0.384147  1
  S  S13  1  0.750000  0.055798  0.615418  1
  S  S14  1  0.750000  0.446183  0.119785  1
  S  S15  1  0.250000  0.554657  0.883332  1
  S  S16  1  0.250000  0.868988  0.045458  1
  S  S17  1  0.750000  0.131400  0.954198  1
  S  S18  1  0.750000  0.371608  0.452157  1
  S  S19  1  0.250000  0.630677  0.545062  1
