# generated using pymatgen
data_Y8Ta4Nb8Si15Ge
_symmetry_space_group_name_H-M   'P 1'
_cell_length_a   6.88736407
_cell_length_b   7.08247578
_cell_length_c   13.45778301
_cell_angle_alpha   90.04420624
_cell_angle_beta   89.92273177
_cell_angle_gamma   90.01909213
_symmetry_Int_Tables_number   1
_chemical_formula_structural   Y8Ta4Nb8Si15Ge
_chemical_formula_sum   'Y8 Ta4 Nb8 Si15 Ge1'
_cell_volume   656.46429782
_cell_formula_units_Z   1
loop_
 _symmetry_equiv_pos_site_id
 _symmetry_equiv_pos_as_xyz
  1  'x, y, z'
loop_
 _atom_site_type_symbol
 _atom_site_label
 _atom_site_symmetry_multiplicity
 _atom_site_fract_x
 _atom_site_fract_y
 _atom_site_fract_z
 _atom_site_occupancy
  Y  Y0  1  0.503493  0.329025  0.095958  1
  Y  Y1  1  0.002425  0.170631  0.403617  1
  Y  Y2  1  0.499759  0.673138  0.596719  1
  Y  Y3  1  0.996411  0.828697  0.904527  1
  Y  Y4  1  0.496305  0.670915  0.904330  1
  Y  Y5  1  0.996388  0.829649  0.596199  1
  Y  Y6  1  0.503985  0.327595  0.403158  1
  Y  Y7  1  0.003441  0.171510  0.095701  1
  Ta  Ta8  1  0.663854  0.009489  0.750220  1
  Ta  Ta9  1  0.163822  0.489683  0.752000  1
  Ta  Ta10  1  0.335813  0.990545  0.249731  1
  Ta  Ta11  1  0.836104  0.509782  0.249854  1
  Nb  Nb12  1  0.835986  0.323967  0.625867  1
  Nb  Nb13  1  0.337499  0.175441  0.874852  1
  Nb  Nb14  1  0.162412  0.675696  0.125156  1
  Nb  Nb15  1  0.662020  0.824902  0.374156  1
  Nb  Nb16  1  0.160737  0.678187  0.372977  1
  Nb  Nb17  1  0.661539  0.824150  0.125193  1
  Nb  Nb18  1  0.837522  0.324178  0.874867  1
  Nb  Nb19  1  0.340168  0.171886  0.626653  1
  Si  Si20  1  0.797179  0.625364  0.750255  1
  Si  Si21  1  0.296000  0.873474  0.750640  1
  Si  Si22  1  0.203289  0.374612  0.249669  1
  Si  Si23  1  0.703447  0.125418  0.249521  1
  Si  Si24  1  0.542280  0.375785  0.750403  1
  Si  Si25  1  0.042245  0.124460  0.750108  1
  Si  Si26  1  0.457328  0.624364  0.249891  1
  Si  Si27  1  0.956671  0.876195  0.248954  1
  Si  Si28  1  0.663252  0.037362  0.540433  1
  Si  Si29  1  0.162294  0.463177  0.959216  1
  Si  Si30  1  0.337168  0.963429  0.040866  1
  Si  Si31  1  0.833538  0.537667  0.458369  1
  Si  Si32  1  0.337004  0.962734  0.459242  1
  Si  Si33  1  0.837671  0.536795  0.041072  1
  Si  Si34  1  0.662397  0.036757  0.959178  1
  Ge  Ge35  1  0.168550  0.463343  0.540447  1
