# generated using pymatgen
data_Dy2GaCoRu
_symmetry_space_group_name_H-M   'P 1'
_cell_length_a   4.10168616
_cell_length_b   5.57812980
_cell_length_c   5.45074241
_cell_angle_alpha   120.77616171
_cell_angle_beta   112.10160963
_cell_angle_gamma   89.99999126
_symmetry_Int_Tables_number   1
_chemical_formula_structural   Dy2GaCoRu
_chemical_formula_sum   'Dy2 Ga1 Co1 Ru1'
_cell_volume   96.32817720
_cell_formula_units_Z   1
loop_
 _symmetry_equiv_pos_site_id
 _symmetry_equiv_pos_as_xyz
  1  'x, y, z'
loop_
 _atom_site_type_symbol
 _atom_site_label
 _atom_site_symmetry_multiplicity
 _atom_site_fract_x
 _atom_site_fract_y
 _atom_site_fract_z
 _atom_site_occupancy
  Dy  Dy0  1  0.791470  0.283707  0.582939  1
  Dy  Dy1  1  0.208530  0.700766  0.417061  1
  Ga  Ga2  1  0.000000  0.990354  0.000000  1
  Co  Co3  1  0.500000  0.727139  0.000000  1
  Ru  Ru4  1  0.500000  0.298034  0.000000  1
