# generated using pymatgen
data_Sr4TlIn(Pt2Pb)2
_symmetry_space_group_name_H-M   'P 1'
_cell_length_a   4.60018800
_cell_length_b   7.78339698
_cell_length_c   8.68374634
_cell_angle_alpha   90.31778842
_cell_angle_beta   90.00000000
_cell_angle_gamma   90.00000000
_symmetry_Int_Tables_number   1
_chemical_formula_structural   Sr4TlIn(Pt2Pb)2
_chemical_formula_sum   'Sr4 Tl1 In1 Pt4 Pb2'
_cell_volume   310.91753134
_cell_formula_units_Z   1
loop_
 _symmetry_equiv_pos_site_id
 _symmetry_equiv_pos_as_xyz
  1  'x, y, z'
loop_
 _atom_site_type_symbol
 _atom_site_label
 _atom_site_symmetry_multiplicity
 _atom_site_fract_x
 _atom_site_fract_y
 _atom_site_fract_z
 _atom_site_occupancy
  Sr  Sr0  1  0.750000  0.970026  0.680164  1
  Sr  Sr1  1  0.250000  0.026068  0.319866  1
  Sr  Sr2  1  0.750000  0.471977  0.820407  1
  Sr  Sr3  1  0.250000  0.530277  0.181705  1
  Tl  Tl4  1  0.250000  0.655225  0.569527  1
  In  In5  1  0.750000  0.850062  0.066460  1
  Pt  Pt6  1  0.250000  0.776260  0.885932  1
  Pt  Pt7  1  0.250000  0.269656  0.620944  1
  Pt  Pt8  1  0.750000  0.728971  0.367250  1
  Pt  Pt9  1  0.750000  0.221724  0.120487  1
  Pb  Pb10  1  0.750000  0.350708  0.433252  1
  Pb  Pb11  1  0.250000  0.149046  0.934005  1
