# generated using pymatgen
data_Tb8Nd12Si15P
_symmetry_space_group_name_H-M   'P 1'
_cell_length_a   7.86626484
_cell_length_b   7.85451194
_cell_length_c   14.57777900
_cell_angle_alpha   89.54033838
_cell_angle_beta   89.80870694
_cell_angle_gamma   90.19279365
_symmetry_Int_Tables_number   1
_chemical_formula_structural   Tb8Nd12Si15P
_chemical_formula_sum   'Tb8 Nd12 Si15 P1'
_cell_volume   900.65867367
_cell_formula_units_Z   1
loop_
 _symmetry_equiv_pos_site_id
 _symmetry_equiv_pos_as_xyz
  1  'x, y, z'
loop_
 _atom_site_type_symbol
 _atom_site_label
 _atom_site_symmetry_multiplicity
 _atom_site_fract_x
 _atom_site_fract_y
 _atom_site_fract_z
 _atom_site_occupancy
  Tb  Tb0  1  0.490498  0.362643  0.124223  1
  Tb  Tb1  1  0.995932  0.137400  0.626595  1
  Tb  Tb2  1  0.861730  0.010760  0.873144  1
  Tb  Tb3  1  0.139185  0.984591  0.378928  1
  Tb  Tb4  1  0.504280  0.644897  0.619793  1
  Tb  Tb5  1  0.363719  0.493205  0.875729  1
  Tb  Tb6  1  0.640614  0.505160  0.376554  1
  Tb  Tb7  1  0.008965  0.863098  0.126165  1
  Nd  Nd8  1  0.631797  0.989562  0.458270  1
  Nd  Nd9  1  0.364228  0.007789  0.954937  1
  Nd  Nd10  1  0.995066  0.638205  0.543366  1
  Nd  Nd11  1  0.490250  0.858362  0.208828  1
  Nd  Nd12  1  0.507252  0.139856  0.705894  1
  Nd  Nd13  1  0.862589  0.493478  0.792718  1
  Nd  Nd14  1  0.134384  0.504216  0.292810  1
  Nd  Nd15  1  0.008332  0.361791  0.043780  1
  Nd  Nd16  1  0.316799  0.318530  0.498983  1
  Nd  Nd17  1  0.183432  0.819057  0.749499  1
  Nd  Nd18  1  0.815275  0.179125  0.250795  1
  Nd  Nd19  1  0.683987  0.683730  0.999191  1
  Si  Si20  1  0.710271  0.069814  0.058118  1
  Si  Si21  1  0.930032  0.285181  0.443423  1
  Si  Si22  1  0.431363  0.202673  0.308615  1
  Si  Si23  1  0.568736  0.790746  0.806563  1
  Si  Si24  1  0.209761  0.436701  0.690838  1
  Si  Si25  1  0.788777  0.568211  0.191762  1
  Si  Si26  1  0.068799  0.710723  0.941666  1
  Si  Si27  1  0.793379  0.846903  0.686570  1
  Si  Si28  1  0.205968  0.152248  0.191066  1
  Si  Si29  1  0.845041  0.793484  0.312317  1
  Si  Si30  1  0.347541  0.693161  0.428725  1
  Si  Si31  1  0.655061  0.295243  0.939028  1
  Si  Si32  1  0.707064  0.347105  0.562935  1
  Si  Si33  1  0.293355  0.655010  0.060748  1
  Si  Si34  1  0.154152  0.208543  0.812166  1
  P  P35  1  0.292387  0.948799  0.565256  1
