# generated using pymatgen
data_KPr2Sb3Se8
_symmetry_space_group_name_H-M   'P 1'
_cell_length_a   17.22656100
_cell_length_b   4.13572400
_cell_length_c   22.23476700
_cell_angle_alpha   90.00000000
_cell_angle_beta   90.00000000
_cell_angle_gamma   90.00000000
_symmetry_Int_Tables_number   1
_chemical_formula_structural   KPr2Sb3Se8
_chemical_formula_sum   'K4 Pr8 Sb12 Se32'
_cell_volume   1584.10044983
_cell_formula_units_Z   4
loop_
 _symmetry_equiv_pos_site_id
 _symmetry_equiv_pos_as_xyz
  1  'x, y, z'
loop_
 _atom_site_type_symbol
 _atom_site_label
 _atom_site_symmetry_multiplicity
 _atom_site_fract_x
 _atom_site_fract_y
 _atom_site_fract_z
 _atom_site_occupancy
  K  K0  1  0.300734  0.750002  0.242092  1
  K  K1  1  0.800734  0.750002  0.257907  1
  K  K2  1  0.199266  0.250000  0.742092  1
  K  K3  1  0.699266  0.250000  0.757908  1
  Pr  Pr4  1  0.208226  0.750002  0.044197  1
  Pr  Pr5  1  0.961834  0.750002  0.091911  1
  Pr  Pr6  1  0.461834  0.750002  0.408089  1
  Pr  Pr7  1  0.708226  0.750002  0.455803  1
  Pr  Pr8  1  0.291774  0.250000  0.544197  1
  Pr  Pr9  1  0.538166  0.250000  0.591912  1
  Pr  Pr10  1  0.038166  0.250000  0.908088  1
  Pr  Pr11  1  0.791774  0.250000  0.955803  1
  Sb  Sb12  1  0.422259  0.250000  0.083760  1
  Sb  Sb13  1  0.646432  0.750002  0.102441  1
  Sb  Sb14  1  0.037164  0.250000  0.245458  1
  Sb  Sb15  1  0.537165  0.250000  0.254542  1
  Sb  Sb16  1  0.146432  0.750002  0.397559  1
  Sb  Sb17  1  0.922258  0.250000  0.416240  1
  Sb  Sb18  1  0.077742  0.750002  0.583760  1
  Sb  Sb19  1  0.853568  0.250000  0.602441  1
  Sb  Sb20  1  0.462836  0.750002  0.745458  1
  Sb  Sb21  1  0.962836  0.750002  0.754542  1
  Sb  Sb22  1  0.353568  0.250000  0.897559  1
  Sb  Sb23  1  0.577741  0.750002  0.916240  1
  Se  Se24  1  0.618455  0.250000  0.001537  1
  Se  Se25  1  0.074387  0.250000  0.043737  1
  Se  Se26  1  0.789937  0.750002  0.056279  1
  Se  Se27  1  0.280034  0.250000  0.126980  1
  Se  Se28  1  0.474111  0.750002  0.166129  1
  Se  Se29  1  0.906585  0.250000  0.175037  1
  Se  Se30  1  0.104282  0.750002  0.179507  1
  Se  Se31  1  0.681986  0.250000  0.179170  1
  Se  Se32  1  0.181986  0.250000  0.320831  1
  Se  Se33  1  0.604282  0.750002  0.320493  1
  Se  Se34  1  0.406585  0.250000  0.324963  1
  Se  Se35  1  0.974111  0.750002  0.333871  1
  Se  Se36  1  0.780034  0.250000  0.373019  1
  Se  Se37  1  0.289937  0.750002  0.443722  1
  Se  Se38  1  0.574386  0.250000  0.456263  1
  Se  Se39  1  0.118455  0.250000  0.498463  1
  Se  Se40  1  0.881545  0.750002  0.501537  1
  Se  Se41  1  0.425614  0.750002  0.543737  1
  Se  Se42  1  0.710063  0.250000  0.556278  1
  Se  Se43  1  0.219966  0.750002  0.626980  1
  Se  Se44  1  0.025889  0.250000  0.666129  1
  Se  Se45  1  0.593415  0.750002  0.675037  1
  Se  Se46  1  0.395718  0.250000  0.679507  1
  Se  Se47  1  0.818014  0.750002  0.679169  1
  Se  Se48  1  0.318014  0.750002  0.820831  1
  Se  Se49  1  0.895718  0.250000  0.820494  1
  Se  Se50  1  0.093415  0.750002  0.824963  1
  Se  Se51  1  0.525889  0.250000  0.833871  1
  Se  Se52  1  0.719966  0.750002  0.873020  1
  Se  Se53  1  0.210062  0.250000  0.943721  1
  Se  Se54  1  0.925613  0.750002  0.956263  1
  Se  Se55  1  0.381545  0.750002  0.998463  1
