# generated using pymatgen
data_Ho8Er7Lu5Pb16
_symmetry_space_group_name_H-M   'P 1'
_cell_length_a   8.15312112
_cell_length_b   15.53308602
_cell_length_c   8.22855300
_cell_angle_alpha   90.00277385
_cell_angle_beta   90.00968385
_cell_angle_gamma   89.99990363
_symmetry_Int_Tables_number   1
_chemical_formula_structural   Ho8Er7Lu5Pb16
_chemical_formula_sum   'Ho8 Er7 Lu5 Pb16'
_cell_volume   1042.08970450
_cell_formula_units_Z   1
loop_
 _symmetry_equiv_pos_site_id
 _symmetry_equiv_pos_as_xyz
  1  'x, y, z'
loop_
 _atom_site_type_symbol
 _atom_site_label
 _atom_site_symmetry_multiplicity
 _atom_site_fract_x
 _atom_site_fract_y
 _atom_site_fract_z
 _atom_site_occupancy
  Ho  Ho0  1  0.464304  0.599592  0.676509  1
  Ho  Ho1  1  0.964182  0.900233  0.823681  1
  Ho  Ho2  1  0.535675  0.099648  0.323587  1
  Ho  Ho3  1  0.035935  0.400291  0.176510  1
  Ho  Ho4  1  0.535712  0.400713  0.323350  1
  Ho  Ho5  1  0.035799  0.099718  0.176251  1
  Ho  Ho6  1  0.464386  0.900247  0.676321  1
  Ho  Ho7  1  0.964169  0.599791  0.823820  1
  Er  Er8  1  0.123338  0.878689  0.341485  1
  Er  Er9  1  0.376719  0.121138  0.841695  1
  Er  Er10  1  0.876590  0.379074  0.658673  1
  Er  Er11  1  0.376636  0.378772  0.841476  1
  Er  Er12  1  0.876887  0.121294  0.658503  1
  Er  Er13  1  0.623269  0.878940  0.158320  1
  Er  Er14  1  0.123064  0.621050  0.341632  1
  Lu  Lu15  1  0.623062  0.621220  0.158597  1
  Lu  Lu16  1  0.791249  0.749869  0.495287  1
  Lu  Lu17  1  0.291711  0.749850  0.004497  1
  Lu  Lu18  1  0.208512  0.249985  0.504392  1
  Lu  Lu19  1  0.708508  0.250063  0.995661  1
  Pb  Pb20  1  0.718175  0.457384  0.966759  1
  Pb  Pb21  1  0.218241  0.042905  0.533383  1
  Pb  Pb22  1  0.281609  0.956985  0.033326  1
  Pb  Pb23  1  0.781504  0.543217  0.465563  1
  Pb  Pb24  1  0.282669  0.543153  0.033947  1
  Pb  Pb25  1  0.781889  0.957032  0.466547  1
  Pb  Pb26  1  0.718198  0.042945  0.966556  1
  Pb  Pb27  1  0.218084  0.456952  0.533453  1
  Pb  Pb28  1  0.429126  0.749586  0.373485  1
  Pb  Pb29  1  0.928182  0.749720  0.126378  1
  Pb  Pb30  1  0.571114  0.249946  0.626115  1
  Pb  Pb31  1  0.071333  0.250109  0.873390  1
  Pb  Pb32  1  0.651992  0.749778  0.845550  1
  Pb  Pb33  1  0.151963  0.749987  0.655009  1
  Pb  Pb34  1  0.348038  0.250053  0.155133  1
  Pb  Pb35  1  0.848175  0.250069  0.345154  1
