# generated using pymatgen
data_NdSb5(ClO4)2
_symmetry_space_group_name_H-M   'P 1'
_cell_length_a   5.70106400
_cell_length_b   5.67611877
_cell_length_c   9.05505000
_cell_angle_alpha   87.66578121
_cell_angle_beta   90.00000000
_cell_angle_gamma   90.00000000
_symmetry_Int_Tables_number   1
_chemical_formula_structural   NdSb5(ClO4)2
_chemical_formula_sum   'Nd1 Sb5 Cl2 O8'
_cell_volume   292.77752638
_cell_formula_units_Z   1
loop_
 _symmetry_equiv_pos_site_id
 _symmetry_equiv_pos_as_xyz
  1  'x, y, z'
loop_
 _atom_site_type_symbol
 _atom_site_label
 _atom_site_symmetry_multiplicity
 _atom_site_fract_x
 _atom_site_fract_y
 _atom_site_fract_z
 _atom_site_occupancy
  Nd  Nd0  1  0.762599  0.750000  0.500000  1
  Sb  Sb1  1  0.692043  0.298495  0.792465  1
  Sb  Sb2  1  0.165841  0.250000  0.500000  1
  Sb  Sb3  1  0.692043  0.201505  0.207535  1
  Sb  Sb4  1  0.307280  0.692244  0.209145  1
  Sb  Sb5  1  0.307280  0.807756  0.790855  1
  Cl  Cl6  1  0.756415  0.750000  0.000000  1
  Cl  Cl7  1  0.258854  0.250000  0.000000  1
  O  O8  1  0.081858  0.915422  0.633879  1
  O  O9  1  0.081858  0.584578  0.366121  1
  O  O10  1  0.914948  0.100769  0.371788  1
  O  O11  1  0.914948  0.399231  0.628212  1
  O  O12  1  0.480796  0.544970  0.682305  1
  O  O13  1  0.551220  0.476064  0.314448  1
  O  O14  1  0.480796  0.955030  0.317695  1
  O  O15  1  0.551220  0.023936  0.685552  1
