# generated using pymatgen
data_AsRh(SeO3)4
_symmetry_space_group_name_H-M   'P 1'
_cell_length_a   8.01803600
_cell_length_b   7.97458701
_cell_length_c   8.01871312
_cell_angle_alpha   89.53760507
_cell_angle_beta   90.00000000
_cell_angle_gamma   90.00000000
_symmetry_Int_Tables_number   1
_chemical_formula_structural   AsRh(SeO3)4
_chemical_formula_sum   'As2 Rh2 Se8 O24'
_cell_volume   512.70403586
_cell_formula_units_Z   2
loop_
 _symmetry_equiv_pos_site_id
 _symmetry_equiv_pos_as_xyz
  1  'x, y, z'
loop_
 _atom_site_type_symbol
 _atom_site_label
 _atom_site_symmetry_multiplicity
 _atom_site_fract_x
 _atom_site_fract_y
 _atom_site_fract_z
 _atom_site_occupancy
  As  As0  1  0.000000  0.000000  0.500000  1
  As  As1  1  0.500000  0.000000  0.000000  1
  Rh  Rh2  1  0.000000  0.500000  0.000000  1
  Rh  Rh3  1  0.500000  0.500000  0.500000  1
  Se  Se4  1  0.333265  0.668165  0.165369  1
  Se  Se5  1  0.833265  0.331835  0.334631  1
  Se  Se6  1  0.677586  0.828553  0.676307  1
  Se  Se7  1  0.177586  0.171447  0.823693  1
  Se  Se8  1  0.666735  0.331835  0.834631  1
  Se  Se9  1  0.166735  0.668165  0.665369  1
  Se  Se10  1  0.322414  0.171447  0.323693  1
  Se  Se11  1  0.822414  0.828553  0.176307  1
  O  O12  1  0.251303  0.537981  0.016392  1
  O  O13  1  0.751303  0.462019  0.483608  1
  O  O14  1  0.768600  0.984676  0.543277  1
  O  O15  1  0.268600  0.015324  0.956723  1
  O  O16  1  0.541496  0.978655  0.768916  1
  O  O17  1  0.480817  0.535163  0.248633  1
  O  O18  1  0.980817  0.464837  0.251367  1
  O  O19  1  0.041496  0.021345  0.731084  1
  O  O20  1  0.981908  0.229309  0.477337  1
  O  O21  1  0.540051  0.751619  0.534156  1
  O  O22  1  0.481908  0.770691  0.022663  1
  O  O23  1  0.040051  0.248381  0.965844  1
  O  O24  1  0.748697  0.462019  0.983608  1
  O  O25  1  0.248697  0.537981  0.516392  1
  O  O26  1  0.231400  0.015324  0.456723  1
  O  O27  1  0.731400  0.984676  0.043277  1
  O  O28  1  0.458504  0.021345  0.231084  1
  O  O29  1  0.519183  0.464837  0.751367  1
  O  O30  1  0.019183  0.535163  0.748633  1
  O  O31  1  0.958504  0.978655  0.268916  1
  O  O32  1  0.018092  0.770691  0.522663  1
  O  O33  1  0.459949  0.248381  0.465844  1
  O  O34  1  0.518092  0.229309  0.977337  1
  O  O35  1  0.959949  0.751619  0.034156  1
