# generated using pymatgen
data_Sc8Al15Ir7
_symmetry_space_group_name_H-M   'P 1'
_cell_length_a   8.89248926
_cell_length_b   8.89248919
_cell_length_c   8.89248831
_cell_angle_alpha   120.12451158
_cell_angle_beta   119.97886089
_cell_angle_gamma   89.91054518
_symmetry_Int_Tables_number   1
_chemical_formula_structural   Sc8Al15Ir7
_chemical_formula_sum   'Sc8 Al15 Ir7'
_cell_volume   496.83723192
_cell_formula_units_Z   1
loop_
 _symmetry_equiv_pos_site_id
 _symmetry_equiv_pos_as_xyz
  1  'x, y, z'
loop_
 _atom_site_type_symbol
 _atom_site_label
 _atom_site_symmetry_multiplicity
 _atom_site_fract_x
 _atom_site_fract_y
 _atom_site_fract_z
 _atom_site_occupancy
  Sc  Sc0  1  0.790050  0.283486  0.063517  1
  Sc  Sc1  1  0.219969  0.283486  0.493436  1
  Sc  Sc2  1  0.208873  0.708873  0.500000  1
  Sc  Sc3  1  0.219969  0.726533  0.936483  1
  Sc  Sc4  1  0.790050  0.726533  0.506564  1
  Sc  Sc5  1  0.772374  0.272374  0.500000  1
  Sc  Sc6  1  0.378948  0.120085  0.741137  1
  Sc  Sc7  1  0.378948  0.637810  0.258863  1
  Al  Al8  1  0.990479  0.490479  0.500000  1
  Al  Al9  1  0.159906  0.337235  0.177328  1
  Al  Al10  1  0.159906  0.982579  0.822672  1
  Al  Al11  1  0.153782  0.343219  0.810563  1
  Al  Al12  1  0.532656  0.343219  0.189437  1
  Al  Al13  1  0.841457  0.656038  0.814581  1
  Al  Al14  1  0.841457  0.026876  0.185419  1
  Al  Al15  1  0.837962  0.659193  0.178769  1
  Al  Al16  1  0.480424  0.659193  0.821231  1
  Al  Al17  1  0.378889  0.123091  0.255798  1
  Al  Al18  1  0.867294  0.123091  0.744202  1
  Al  Al19  1  0.621405  0.874121  0.252717  1
  Al  Al20  1  0.621405  0.368688  0.747283  1
  Al  Al21  1  0.621713  0.877103  0.744609  1
  Al  Al22  1  0.132493  0.877103  0.255391  1
  Ir  Ir23  1  0.994804  0.998001  0.497839  1
  Ir  Ir24  1  0.500162  0.998001  0.003197  1
  Ir  Ir25  1  0.501487  0.501487  0.000000  1
  Ir  Ir26  1  0.500162  0.496965  0.502161  1
  Ir  Ir27  1  0.994804  0.496965  0.996803  1
  Ir  Ir28  1  0.000001  0.000001  0.000000  1
  Ir  Ir29  1  0.508170  0.008170  0.500000  1
