# generated using pymatgen
data_Yb2TmLu(MnB4)4
_symmetry_space_group_name_H-M   'P 1'
_cell_length_a   3.35839100
_cell_length_b   5.88065742
_cell_length_c   11.36834501
_cell_angle_alpha   89.90657495
_cell_angle_beta   90.00000000
_cell_angle_gamma   90.00000000
_symmetry_Int_Tables_number   1
_chemical_formula_structural   Yb2TmLu(MnB4)4
_chemical_formula_sum   'Yb2 Tm1 Lu1 Mn4 B16'
_cell_volume   224.51936492
_cell_formula_units_Z   1
loop_
 _symmetry_equiv_pos_site_id
 _symmetry_equiv_pos_as_xyz
  1  'x, y, z'
loop_
 _atom_site_type_symbol
 _atom_site_label
 _atom_site_symmetry_multiplicity
 _atom_site_fract_x
 _atom_site_fract_y
 _atom_site_fract_z
 _atom_site_occupancy
  Yb  Yb0  1  0.500000  0.374651  0.150289  1
  Yb  Yb1  1  0.500000  0.625357  0.849674  1
  Tm  Tm2  1  0.500000  0.873296  0.348779  1
  Lu  Lu3  1  0.500000  0.126893  0.651179  1
  Mn  Mn4  1  0.500000  0.372860  0.417446  1
  Mn  Mn5  1  0.500000  0.627073  0.582740  1
  Mn  Mn6  1  0.500000  0.122668  0.919550  1
  Mn  Mn7  1  0.500000  0.877309  0.080275  1
  B  B8  1  0.000000  0.113548  0.046685  1
  B  B9  1  0.000000  0.886568  0.953212  1
  B  B10  1  0.000000  0.386676  0.547220  1
  B  B11  1  0.000000  0.612649  0.453102  1
  B  B12  1  0.000000  0.137107  0.468212  1
  B  B13  1  0.000000  0.863162  0.532221  1
  B  B14  1  0.000000  0.362249  0.967213  1
  B  B15  1  0.000000  0.637683  0.032734  1
  B  B16  1  0.000000  0.023752  0.191180  1
  B  B17  1  0.000000  0.976492  0.808456  1
  B  B18  1  0.000000  0.474130  0.691588  1
  B  B19  1  0.000000  0.525391  0.308474  1
  B  B20  1  0.000000  0.219149  0.316156  1
  B  B21  1  0.000000  0.781463  0.683890  1
  B  B22  1  0.000000  0.280436  0.816528  1
  B  B23  1  0.000000  0.719437  0.183197  1
