# generated using pymatgen
data_Tb2ErPa(InPd2)2
_symmetry_space_group_name_H-M   'P 1'
_cell_length_a   7.79597708
_cell_length_b   7.79597594
_cell_length_c   3.68765400
_cell_angle_alpha   90.00000000
_cell_angle_beta   90.00000000
_cell_angle_gamma   91.64603817
_symmetry_Int_Tables_number   1
_chemical_formula_structural   Tb2ErPa(InPd2)2
_chemical_formula_sum   'Tb2 Er1 Pa1 In2 Pd4'
_cell_volume   224.03298416
_cell_formula_units_Z   1
loop_
 _symmetry_equiv_pos_site_id
 _symmetry_equiv_pos_as_xyz
  1  'x, y, z'
loop_
 _atom_site_type_symbol
 _atom_site_label
 _atom_site_symmetry_multiplicity
 _atom_site_fract_x
 _atom_site_fract_y
 _atom_site_fract_z
 _atom_site_occupancy
  Tb  Tb0  1  0.825124  0.670475  0.500000  1
  Tb  Tb1  1  0.170475  0.325124  0.500000  1
  Er  Er2  1  0.674954  0.174954  0.500000  1
  Pa  Pa3  1  0.330452  0.830452  0.500000  1
  In  In4  1  0.996335  0.000182  0.000000  1
  In  In5  1  0.500182  0.496335  0.000000  1
  Pd  Pd6  1  0.370404  0.120394  0.000000  1
  Pd  Pd7  1  0.874224  0.374224  0.000000  1
  Pd  Pd8  1  0.137456  0.637456  0.000000  1
  Pd  Pd9  1  0.620394  0.870404  0.000000  1
