# generated using pymatgen
data_Al4Ga2CoCu2Ni
_symmetry_space_group_name_H-M   'P 1'
_cell_length_a   4.09833300
_cell_length_b   4.09833282
_cell_length_c   9.81871900
_cell_angle_alpha   90.00000000
_cell_angle_beta   90.00000000
_cell_angle_gamma   120.00000949
_symmetry_Int_Tables_number   1
_chemical_formula_structural   Al4Ga2CoCu2Ni
_chemical_formula_sum   'Al4 Ga2 Co1 Cu2 Ni1'
_cell_volume   142.82357146
_cell_formula_units_Z   1
loop_
 _symmetry_equiv_pos_site_id
 _symmetry_equiv_pos_as_xyz
  1  'x, y, z'
loop_
 _atom_site_type_symbol
 _atom_site_label
 _atom_site_symmetry_multiplicity
 _atom_site_fract_x
 _atom_site_fract_y
 _atom_site_fract_z
 _atom_site_occupancy
  Al  Al0  1  0.000000  0.000000  0.328119  1
  Al  Al1  1  0.000000  0.000000  0.826191  1
  Al  Al2  1  0.333333  0.666667  0.987395  1
  Al  Al3  1  0.333333  0.666667  0.475233  1
  Ga  Ga4  1  0.666667  0.333333  0.186173  1
  Ga  Ga5  1  0.666667  0.333333  0.680893  1
  Co  Co6  1  0.666667  0.333333  0.432438  1
  Cu  Cu7  1  0.000000  0.000000  0.075618  1
  Cu  Cu8  1  0.000000  0.000000  0.576298  1
  Ni  Ni9  1  0.666667  0.333333  0.931639  1
