# generated using pymatgen
data_Ac7Au3
_symmetry_space_group_name_H-M   'P 1'
_cell_length_a   11.08884700
_cell_length_b   11.08884608
_cell_length_c   6.97416600
_cell_angle_alpha   90.00000000
_cell_angle_beta   90.00000000
_cell_angle_gamma   119.99999381
_symmetry_Int_Tables_number   1
_chemical_formula_structural   Ac7Au3
_chemical_formula_sum   'Ac14 Au6'
_cell_volume   742.66966556
_cell_formula_units_Z   2
loop_
 _symmetry_equiv_pos_site_id
 _symmetry_equiv_pos_as_xyz
  1  'x, y, z'
loop_
 _atom_site_type_symbol
 _atom_site_label
 _atom_site_symmetry_multiplicity
 _atom_site_fract_x
 _atom_site_fract_y
 _atom_site_fract_z
 _atom_site_occupancy
  Ac  Ac0  1  0.333333  0.666667  0.691441  1
  Ac  Ac1  1  0.666667  0.333333  0.191441  1
  Ac  Ac2  1  0.127624  0.872376  0.515499  1
  Ac  Ac3  1  0.744752  0.872376  0.515499  1
  Ac  Ac4  1  0.127624  0.255248  0.515499  1
  Ac  Ac5  1  0.872376  0.127624  0.015499  1
  Ac  Ac6  1  0.255248  0.127624  0.015499  1
  Ac  Ac7  1  0.872376  0.744752  0.015499  1
  Ac  Ac8  1  0.541446  0.458554  0.702425  1
  Ac  Ac9  1  0.917107  0.458554  0.702425  1
  Ac  Ac10  1  0.541446  0.082893  0.702425  1
  Ac  Ac11  1  0.458554  0.541446  0.202425  1
  Ac  Ac12  1  0.082893  0.541446  0.202425  1
  Ac  Ac13  1  0.458554  0.917107  0.202425  1
  Au  Au14  1  0.811424  0.188576  0.437622  1
  Au  Au15  1  0.377153  0.188576  0.437622  1
  Au  Au16  1  0.811424  0.622847  0.437622  1
  Au  Au17  1  0.188576  0.811424  0.937622  1
  Au  Au18  1  0.622847  0.811424  0.937622  1
  Au  Au19  1  0.188576  0.377153  0.937622  1
