# generated using pymatgen
data_Mn5CrFe6(Mo3N)4
_symmetry_space_group_name_H-M   'P 1'
_cell_length_a   7.82804353
_cell_length_b   7.82925748
_cell_length_c   7.82913500
_cell_angle_alpha   60.00051325
_cell_angle_beta   59.99538332
_cell_angle_gamma   60.02437071
_symmetry_Int_Tables_number   1
_chemical_formula_structural   Mn5CrFe6(Mo3N)4
_chemical_formula_sum   'Mn5 Cr1 Fe6 Mo12 N4'
_cell_volume   339.34311423
_cell_formula_units_Z   1
loop_
 _symmetry_equiv_pos_site_id
 _symmetry_equiv_pos_as_xyz
  1  'x, y, z'
loop_
 _atom_site_type_symbol
 _atom_site_label
 _atom_site_symmetry_multiplicity
 _atom_site_fract_x
 _atom_site_fract_y
 _atom_site_fract_z
 _atom_site_occupancy
  Mn  Mn0  1  0.625678  0.124261  0.625031  1
  Mn  Mn1  1  0.625176  0.625025  0.125212  1
  Mn  Mn2  1  0.625176  0.625025  0.624588  1
  Mn  Mn3  1  0.728971  0.421031  0.425000  1
  Mn  Mn4  1  0.421877  0.732713  0.422705  1
  Cr  Cr5  1  0.124555  0.625108  0.625169  1
  Fe  Fe6  1  0.419240  0.420604  0.736766  1
  Fe  Fe7  1  0.419240  0.420604  0.423390  1
  Fe  Fe8  1  0.518584  0.826060  0.827677  1
  Fe  Fe9  1  0.829285  0.516372  0.827172  1
  Fe  Fe10  1  0.828126  0.827973  0.516060  1
  Fe  Fe11  1  0.828126  0.827973  0.827841  1
  Mo  Mo12  1  0.797977  0.799413  0.201305  1
  Mo  Mo13  1  0.202678  0.198476  0.799423  1
  Mo  Mo14  1  0.798385  0.201959  0.798106  1
  Mo  Mo15  1  0.201537  0.800259  0.198770  1
  Mo  Mo16  1  0.201537  0.800259  0.799436  1
  Mo  Mo17  1  0.798385  0.201959  0.201550  1
  Mo  Mo18  1  0.452673  0.452909  0.047209  1
  Mo  Mo19  1  0.050005  0.051546  0.449224  1
  Mo  Mo20  1  0.452854  0.048584  0.451385  1
  Mo  Mo21  1  0.048194  0.450606  0.051201  1
  Mo  Mo22  1  0.048194  0.450606  0.449998  1
  Mo  Mo23  1  0.452854  0.048584  0.047177  1
  N  N24  1  0.624096  0.126587  0.124658  1
  N  N25  1  0.125442  0.624509  0.125025  1
  N  N26  1  0.125578  0.125498  0.624348  1
  N  N27  1  0.125578  0.125498  0.124576  1
