# generated using pymatgen
data_Tb13Y(Lu3Pb8)2
_symmetry_space_group_name_H-M   'P 1'
_cell_length_a   8.17683800
_cell_length_b   8.26529118
_cell_length_c   15.63735700
_cell_angle_alpha   89.98820851
_cell_angle_beta   90.00000000
_cell_angle_gamma   90.00000000
_symmetry_Int_Tables_number   1
_chemical_formula_structural   Tb13Y(Lu3Pb8)2
_chemical_formula_sum   'Tb13 Y1 Lu6 Pb16'
_cell_volume   1056.83428372
_cell_formula_units_Z   1
loop_
 _symmetry_equiv_pos_site_id
 _symmetry_equiv_pos_as_xyz
  1  'x, y, z'
loop_
 _atom_site_type_symbol
 _atom_site_label
 _atom_site_symmetry_multiplicity
 _atom_site_fract_x
 _atom_site_fract_y
 _atom_site_fract_z
 _atom_site_occupancy
  Tb  Tb0  1  0.126858  0.342770  0.119701  1
  Tb  Tb1  1  0.624878  0.158922  0.121447  1
  Tb  Tb2  1  0.124878  0.341078  0.378553  1
  Tb  Tb3  1  0.375334  0.842643  0.621323  1
  Tb  Tb4  1  0.875334  0.657357  0.878677  1
  Tb  Tb5  1  0.533575  0.323428  0.901110  1
  Tb  Tb6  1  0.033575  0.176572  0.598890  1
  Tb  Tb7  1  0.466206  0.676838  0.401735  1
  Tb  Tb8  1  0.966206  0.823162  0.098265  1
  Tb  Tb9  1  0.468781  0.678650  0.096766  1
  Tb  Tb10  1  0.968781  0.821350  0.403234  1
  Tb  Tb11  1  0.532842  0.325020  0.599772  1
  Tb  Tb12  1  0.032842  0.174980  0.900228  1
  Y  Y13  1  0.626858  0.157230  0.380299  1
  Lu  Lu14  1  0.372448  0.844033  0.876262  1
  Lu  Lu15  1  0.872448  0.655967  0.623738  1
  Lu  Lu16  1  0.206371  0.505537  0.749966  1
  Lu  Lu17  1  0.706371  0.994463  0.750034  1
  Lu  Lu18  1  0.793738  0.495262  0.250757  1
  Lu  Lu19  1  0.293738  0.004738  0.249243  1
  Pb  Pb20  1  0.284233  0.032665  0.041449  1
  Pb  Pb21  1  0.784233  0.467335  0.458551  1
  Pb  Pb22  1  0.719252  0.961609  0.544927  1
  Pb  Pb23  1  0.219252  0.538391  0.955073  1
  Pb  Pb24  1  0.711691  0.964067  0.955505  1
  Pb  Pb25  1  0.211691  0.535933  0.544495  1
  Pb  Pb26  1  0.284012  0.034172  0.455859  1
  Pb  Pb27  1  0.784012  0.465828  0.044141  1
  Pb  Pb28  1  0.568297  0.626219  0.750507  1
  Pb  Pb29  1  0.068297  0.873781  0.749493  1
  Pb  Pb30  1  0.430997  0.375751  0.250651  1
  Pb  Pb31  1  0.930997  0.124249  0.249349  1
  Pb  Pb32  1  0.346187  0.156257  0.750369  1
  Pb  Pb33  1  0.846187  0.343743  0.749631  1
  Pb  Pb34  1  0.654298  0.844003  0.250116  1
  Pb  Pb35  1  0.154298  0.655997  0.249884  1
