# generated using pymatgen
data_ErCd4In(SbO6)2
_symmetry_space_group_name_H-M   'P 1'
_cell_length_a   6.53624094
_cell_length_b   6.56807097
_cell_length_c   6.57018969
_cell_angle_alpha   90.72530370
_cell_angle_beta   90.34229083
_cell_angle_gamma   90.71256299
_symmetry_Int_Tables_number   1
_chemical_formula_structural   ErCd4In(SbO6)2
_chemical_formula_sum   'Er1 Cd4 In1 Sb2 O12'
_cell_volume   282.01177789
_cell_formula_units_Z   1
loop_
 _symmetry_equiv_pos_site_id
 _symmetry_equiv_pos_as_xyz
  1  'x, y, z'
loop_
 _atom_site_type_symbol
 _atom_site_label
 _atom_site_symmetry_multiplicity
 _atom_site_fract_x
 _atom_site_fract_y
 _atom_site_fract_z
 _atom_site_occupancy
  Er  Er0  1  0.061176  0.749775  0.563903  1
  Cd  Cd1  1  0.560806  0.050145  0.748269  1
  Cd  Cd2  1  0.946837  0.249983  0.440372  1
  Cd  Cd3  1  0.252273  0.432683  0.949010  1
  Cd  Cd4  1  0.438577  0.960081  0.251566  1
  In  In5  1  0.748028  0.565205  0.054746  1
  Sb  Sb6  1  0.506452  0.501864  0.500505  1
  Sb  Sb7  1  0.994463  0.001261  0.003273  1
  O  O8  1  0.030634  0.699816  0.912304  1
  O  O9  1  0.704331  0.901480  0.042686  1
  O  O10  1  0.922130  0.031279  0.707576  1
  O  O11  1  0.939275  0.294922  0.084185  1
  O  O12  1  0.286622  0.081763  0.958416  1
  O  O13  1  0.073138  0.946772  0.292024  1
  O  O14  1  0.799763  0.583098  0.420979  1
  O  O15  1  0.578199  0.445206  0.794707  1
  O  O16  1  0.413518  0.790807  0.559726  1
  O  O17  1  0.210885  0.438215  0.569502  1
  O  O18  1  0.450295  0.562879  0.203763  1
  O  O19  1  0.582596  0.212768  0.442485  1
