# generated using pymatgen
data_TmMn2(Al4Fe)2
_symmetry_space_group_name_H-M   'P 1'
_cell_length_a   5.11902788
_cell_length_b   6.65615340
_cell_length_c   6.68445372
_cell_angle_alpha   81.64614990
_cell_angle_beta   67.16918193
_cell_angle_gamma   67.71836508
_symmetry_Int_Tables_number   1
_chemical_formula_structural   TmMn2(Al4Fe)2
_chemical_formula_sum   'Tm1 Mn2 Al8 Fe2'
_cell_volume   194.24112075
_cell_formula_units_Z   1
loop_
 _symmetry_equiv_pos_site_id
 _symmetry_equiv_pos_as_xyz
  1  'x, y, z'
loop_
 _atom_site_type_symbol
 _atom_site_label
 _atom_site_symmetry_multiplicity
 _atom_site_fract_x
 _atom_site_fract_y
 _atom_site_fract_z
 _atom_site_occupancy
  Tm  Tm0  1  0.000000  0.000000  0.000000  1
  Mn  Mn1  1  0.000000  0.500000  0.000000  1
  Mn  Mn2  1  0.500000  0.000000  0.500000  1
  Al  Al3  1  0.001405  0.661950  0.338216  1
  Al  Al4  1  0.998595  0.338050  0.661784  1
  Al  Al5  1  0.662297  0.337912  0.337733  1
  Al  Al6  1  0.337703  0.662088  0.662267  1
  Al  Al7  1  0.504826  0.222625  0.777371  1
  Al  Al8  1  0.495174  0.777375  0.222629  1
  Al  Al9  1  0.723121  0.776955  0.776795  1
  Al  Al10  1  0.276879  0.223045  0.223205  1
  Fe  Fe11  1  0.500000  0.500000  0.000000  1
  Fe  Fe12  1  0.000000  0.000000  0.500000  1
