# generated using pymatgen
data_Dy4Al14Ga4Ir5Pt
_symmetry_space_group_name_H-M   'P 1'
_cell_length_a   7.54848231
_cell_length_b   7.55293278
_cell_length_c   9.52662926
_cell_angle_alpha   90.02652003
_cell_angle_beta   89.98464505
_cell_angle_gamma   119.58649276
_symmetry_Int_Tables_number   1
_chemical_formula_structural   Dy4Al14Ga4Ir5Pt
_chemical_formula_sum   'Dy4 Al14 Ga4 Ir5 Pt1'
_cell_volume   472.32363498
_cell_formula_units_Z   1
loop_
 _symmetry_equiv_pos_site_id
 _symmetry_equiv_pos_as_xyz
  1  'x, y, z'
loop_
 _atom_site_type_symbol
 _atom_site_label
 _atom_site_symmetry_multiplicity
 _atom_site_fract_x
 _atom_site_fract_y
 _atom_site_fract_z
 _atom_site_occupancy
  Dy  Dy0  1  0.998502  0.673527  0.750827  1
  Dy  Dy1  1  0.001498  0.326473  0.249173  1
  Dy  Dy2  1  0.669484  0.994121  0.750826  1
  Dy  Dy3  1  0.330516  0.005879  0.249174  1
  Al  Al4  1  0.001292  0.337878  0.575512  1
  Al  Al5  1  0.998708  0.662122  0.424488  1
  Al  Al6  1  0.999604  0.665502  0.073292  1
  Al  Al7  1  0.335160  0.001374  0.926755  1
  Al  Al8  1  0.000396  0.334498  0.926708  1
  Al  Al9  1  0.664840  0.998626  0.073245  1
  Al  Al10  1  0.661463  0.998043  0.424531  1
  Al  Al11  1  0.338537  0.001957  0.575469  1
  Al  Al12  1  0.333770  0.334282  0.055402  1
  Al  Al13  1  0.666230  0.665718  0.944598  1
  Al  Al14  1  0.663317  0.662849  0.557332  1
  Al  Al15  1  0.336683  0.337151  0.442668  1
  Al  Al16  1  0.550223  0.338820  0.750431  1
  Al  Al17  1  0.449777  0.661180  0.249569  1
  Ga  Ga18  1  0.131943  0.132917  0.752253  1
  Ga  Ga19  1  0.868057  0.867083  0.247747  1
  Ga  Ga20  1  0.338281  0.546520  0.750412  1
  Ga  Ga21  1  0.661719  0.453480  0.249588  1
  Ir  Ir22  1  0.671245  0.328125  0.502317  1
  Ir  Ir23  1  0.328755  0.671875  0.497683  1
  Ir  Ir24  1  0.328814  0.671918  0.002312  1
  Ir  Ir25  1  0.671186  0.328082  0.997688  1
  Ir  Ir26  1  0.000000  0.000000  0.000000  1
  Pt  Pt27  1  0.000000  0.000000  0.500000  1
