# generated using pymatgen
data_Ho7ErZn3Si12Rh
_symmetry_space_group_name_H-M   'P 1'
_cell_length_a   8.09351400
_cell_length_b   8.09351473
_cell_length_c   8.02916600
_cell_angle_alpha   90.00000000
_cell_angle_beta   90.00000000
_cell_angle_gamma   120.00000517
_symmetry_Int_Tables_number   1
_chemical_formula_structural   Ho7ErZn3Si12Rh
_chemical_formula_sum   'Ho7 Er1 Zn3 Si12 Rh1'
_cell_volume   455.48631152
_cell_formula_units_Z   1
loop_
 _symmetry_equiv_pos_site_id
 _symmetry_equiv_pos_as_xyz
  1  'x, y, z'
loop_
 _atom_site_type_symbol
 _atom_site_label
 _atom_site_symmetry_multiplicity
 _atom_site_fract_x
 _atom_site_fract_y
 _atom_site_fract_z
 _atom_site_occupancy
  Ho  Ho0  1  0.998510  0.499255  0.250148  1
  Ho  Ho1  1  0.500745  0.499255  0.250148  1
  Ho  Ho2  1  0.496637  0.993272  0.749692  1
  Ho  Ho3  1  0.006728  0.503363  0.749692  1
  Ho  Ho4  1  0.496637  0.503363  0.749692  1
  Ho  Ho5  1  0.500745  0.001490  0.250148  1
  Ho  Ho6  1  0.000000  0.000000  0.751374  1
  Er  Er7  1  0.000000  0.000000  0.248824  1
  Zn  Zn8  1  0.333333  0.666667  0.013020  1
  Zn  Zn9  1  0.666667  0.333333  0.987987  1
  Zn  Zn10  1  0.666667  0.333333  0.503468  1
  Si  Si11  1  0.169773  0.830227  0.497073  1
  Si  Si12  1  0.169773  0.339546  0.497073  1
  Si  Si13  1  0.660454  0.830227  0.497073  1
  Si  Si14  1  0.333257  0.166630  0.002698  1
  Si  Si15  1  0.836714  0.673429  0.502196  1
  Si  Si16  1  0.833370  0.166630  0.002698  1
  Si  Si17  1  0.833370  0.666743  0.002698  1
  Si  Si18  1  0.166797  0.333595  0.997736  1
  Si  Si19  1  0.666405  0.833203  0.997736  1
  Si  Si20  1  0.326571  0.163286  0.502196  1
  Si  Si21  1  0.836714  0.163286  0.502196  1
  Si  Si22  1  0.166797  0.833203  0.997736  1
  Rh  Rh23  1  0.333333  0.666667  0.496694  1
