# generated using pymatgen
data_Y9Th(Ir2Ru)2
_symmetry_space_group_name_H-M   'P 1'
_cell_length_a   10.95496440
_cell_length_b   10.90768600
_cell_length_c   6.45755938
_cell_angle_alpha   90.00000000
_cell_angle_beta   89.46610666
_cell_angle_gamma   90.00000000
_symmetry_Int_Tables_number   1
_chemical_formula_structural   Y9Th(Ir2Ru)2
_chemical_formula_sum   'Y18 Th2 Ir8 Ru4'
_cell_volume   771.60165713
_cell_formula_units_Z   2
loop_
 _symmetry_equiv_pos_site_id
 _symmetry_equiv_pos_as_xyz
  1  'x, y, z'
loop_
 _atom_site_type_symbol
 _atom_site_label
 _atom_site_symmetry_multiplicity
 _atom_site_fract_x
 _atom_site_fract_y
 _atom_site_fract_z
 _atom_site_occupancy
  Y  Y0  1  0.706628  0.087543  0.880936  1
  Y  Y1  1  0.706628  0.912457  0.380936  1
  Y  Y2  1  0.592694  0.791851  0.880580  1
  Y  Y3  1  0.592694  0.208149  0.380580  1
  Y  Y4  1  0.416190  0.787488  0.378377  1
  Y  Y5  1  0.416190  0.212512  0.878377  1
  Y  Y6  1  0.205155  0.413882  0.620880  1
  Y  Y7  1  0.205155  0.586118  0.120880  1
  Y  Y8  1  0.793652  0.413679  0.119242  1
  Y  Y9  1  0.793652  0.586321  0.619242  1
  Y  Y10  1  0.913040  0.706207  0.119114  1
  Y  Y11  1  0.913040  0.293793  0.619114  1
  Y  Y12  1  0.084889  0.705227  0.618214  1
  Y  Y13  1  0.084889  0.294773  0.118214  1
  Y  Y14  1  0.996922  0.998657  0.500923  1
  Y  Y15  1  0.996922  0.001343  0.000923  1
  Y  Y16  1  0.501092  0.500874  0.005076  1
  Y  Y17  1  0.501092  0.499126  0.505076  1
  Th  Th18  1  0.294721  0.089803  0.378934  1
  Th  Th19  1  0.294721  0.910197  0.878934  1
  Ir  Ir20  1  0.846108  0.153315  0.250465  1
  Ir  Ir21  1  0.846108  0.846685  0.750465  1
  Ir  Ir22  1  0.156717  0.148495  0.745119  1
  Ir  Ir23  1  0.156717  0.851505  0.245119  1
  Ir  Ir24  1  0.653133  0.347444  0.750138  1
  Ir  Ir25  1  0.653133  0.652556  0.250138  1
  Ir  Ir26  1  0.347999  0.345708  0.254577  1
  Ir  Ir27  1  0.347999  0.654292  0.754577  1
  Ru  Ru28  1  0.491925  0.000989  0.124641  1
  Ru  Ru29  1  0.491925  0.999011  0.624641  1
  Ru  Ru30  1  0.999136  0.499385  0.872785  1
  Ru  Ru31  1  0.999136  0.500615  0.372785  1
