# generated using pymatgen
data_Ho8TaTi7(Si4W)4
_symmetry_space_group_name_H-M   'P 1'
_cell_length_a   6.96572557
_cell_length_b   6.95638813
_cell_length_c   12.82562402
_cell_angle_alpha   89.91788277
_cell_angle_beta   90.07949026
_cell_angle_gamma   90.00356193
_symmetry_Int_Tables_number   1
_chemical_formula_structural   Ho8TaTi7(Si4W)4
_chemical_formula_sum   'Ho8 Ta1 Ti7 Si16 W4'
_cell_volume   621.48092741
_cell_formula_units_Z   1
loop_
 _symmetry_equiv_pos_site_id
 _symmetry_equiv_pos_as_xyz
  1  'x, y, z'
loop_
 _atom_site_type_symbol
 _atom_site_label
 _atom_site_symmetry_multiplicity
 _atom_site_fract_x
 _atom_site_fract_y
 _atom_site_fract_z
 _atom_site_occupancy
  Ho  Ho0  1  0.342067  0.000283  0.467540  1
  Ho  Ho1  1  0.499383  0.841023  0.718849  1
  Ho  Ho2  1  0.500813  0.158365  0.217751  1
  Ho  Ho3  1  0.841261  0.499394  0.282651  1
  Ho  Ho4  1  0.158057  0.500650  0.781349  1
  Ho  Ho5  1  0.659151  0.998395  0.967715  1
  Ho  Ho6  1  0.000252  0.340828  0.532839  1
  Ho  Ho7  1  0.998785  0.659849  0.030965  1
  Ta  Ta8  1  0.324882  0.325818  0.999329  1
  Ti  Ti9  1  0.491200  0.655127  0.125103  1
  Ti  Ti10  1  0.506754  0.346368  0.626213  1
  Ti  Ti11  1  0.653095  0.490704  0.873185  1
  Ti  Ti12  1  0.347017  0.508492  0.375201  1
  Ti  Ti13  1  0.847132  0.992178  0.375325  1
  Ti  Ti14  1  0.006032  0.152869  0.125482  1
  Ti  Ti15  1  0.992075  0.846246  0.624844  1
  Si  Si16  1  0.201640  0.130252  0.684214  1
  Si  Si17  1  0.369194  0.704533  0.932318  1
  Si  Si18  1  0.630830  0.299732  0.434264  1
  Si  Si19  1  0.702582  0.369042  0.066412  1
  Si  Si20  1  0.300371  0.631405  0.566345  1
  Si  Si21  1  0.798921  0.868280  0.183946  1
  Si  Si22  1  0.131125  0.201684  0.316479  1
  Si  Si23  1  0.869831  0.799249  0.818022  1
  Si  Si24  1  0.292937  0.953155  0.065312  1
  Si  Si25  1  0.546348  0.791633  0.314988  1
  Si  Si26  1  0.454165  0.207777  0.814001  1
  Si  Si27  1  0.791816  0.546880  0.684268  1
  Si  Si28  1  0.207152  0.454905  0.185788  1
  Si  Si29  1  0.709227  0.045862  0.565204  1
  Si  Si30  1  0.952728  0.291366  0.934547  1
  Si  Si31  1  0.046107  0.708337  0.434742  1
  W  W32  1  0.171468  0.827201  0.249981  1
  W  W33  1  0.828590  0.170653  0.749723  1
  W  W34  1  0.673669  0.673033  0.499785  1
  W  W35  1  0.153340  0.008432  0.875319  1
