# generated using pymatgen
data_Hf4Co3Si4Ru
_symmetry_space_group_name_H-M   'P 1'
_cell_length_a   3.89356900
_cell_length_b   6.42972922
_cell_length_c   7.16113591
_cell_angle_alpha   89.69822033
_cell_angle_beta   90.00000000
_cell_angle_gamma   90.00000000
_symmetry_Int_Tables_number   1
_chemical_formula_structural   Hf4Co3Si4Ru
_chemical_formula_sum   'Hf4 Co3 Si4 Ru1'
_cell_volume   179.27364622
_cell_formula_units_Z   1
loop_
 _symmetry_equiv_pos_site_id
 _symmetry_equiv_pos_as_xyz
  1  'x, y, z'
loop_
 _atom_site_type_symbol
 _atom_site_label
 _atom_site_symmetry_multiplicity
 _atom_site_fract_x
 _atom_site_fract_y
 _atom_site_fract_z
 _atom_site_occupancy
  Hf  Hf0  1  0.250000  0.006241  0.313304  1
  Hf  Hf1  1  0.250000  0.510350  0.198778  1
  Hf  Hf2  1  0.750000  0.991444  0.685960  1
  Hf  Hf3  1  0.750000  0.490011  0.801834  1
  Co  Co4  1  0.250000  0.646831  0.566505  1
  Co  Co5  1  0.750000  0.846806  0.065779  1
  Co  Co6  1  0.750000  0.355199  0.430107  1
  Si  Si7  1  0.250000  0.284967  0.602459  1
  Si  Si8  1  0.250000  0.778315  0.890852  1
  Si  Si9  1  0.750000  0.719870  0.391672  1
  Si  Si10  1  0.750000  0.217030  0.118981  1
  Ru  Ru11  1  0.250000  0.152937  0.933768  1
