# generated using pymatgen
data_Sr3Co4(TcP3)2
_symmetry_space_group_name_H-M   'P 1'
_cell_length_a   8.50800921
_cell_length_b   8.51171419
_cell_length_c   8.51171425
_cell_angle_alpha   153.93841360
_cell_angle_beta   92.13270326
_cell_angle_gamma   93.69859987
_symmetry_Int_Tables_number   1
_chemical_formula_structural   Sr3Co4(TcP3)2
_chemical_formula_sum   'Sr3 Co4 Tc2 P6'
_cell_volume   263.79996204
_cell_formula_units_Z   1
loop_
 _symmetry_equiv_pos_site_id
 _symmetry_equiv_pos_as_xyz
  1  'x, y, z'
loop_
 _atom_site_type_symbol
 _atom_site_label
 _atom_site_symmetry_multiplicity
 _atom_site_fract_x
 _atom_site_fract_y
 _atom_site_fract_z
 _atom_site_occupancy
  Sr  Sr0  1  0.330979  0.333413  0.997566  1
  Sr  Sr1  1  0.670453  0.666880  0.003573  1
  Sr  Sr2  1  0.997385  0.999732  0.997653  1
  Co  Co3  1  0.759291  0.507774  0.251517  1
  Co  Co4  1  0.077625  0.825530  0.252094  1
  Co  Co5  1  0.414311  0.166711  0.247600  1
  Co  Co6  1  0.923422  0.166551  0.756872  1
  Tc  Tc7  1  0.581459  0.836754  0.744703  1
  Tc  Tc8  1  0.241688  0.496645  0.745042  1
  P  P9  1  0.311519  0.666572  0.644946  1
  P  P10  1  0.685010  0.333198  0.351812  1
  P  P11  1  0.975832  0.323919  0.651913  1
  P  P12  1  0.352617  0.000474  0.352144  1
  P  P13  1  0.017628  0.666501  0.351126  1
  P  P14  1  0.660783  0.009345  0.651439  1
