# generated using pymatgen
data_HfZr3B4(MoRu5)2
_symmetry_space_group_name_H-M   'P 1'
_cell_length_a   9.46963178
_cell_length_b   9.46963178
_cell_length_c   3.08601000
_cell_angle_alpha   90.00000000
_cell_angle_beta   90.00000000
_cell_angle_gamma   90.08773191
_symmetry_Int_Tables_number   1
_chemical_formula_structural   HfZr3B4(MoRu5)2
_chemical_formula_sum   'Hf1 Zr3 B4 Mo2 Ru10'
_cell_volume   276.73430784
_cell_formula_units_Z   1
loop_
 _symmetry_equiv_pos_site_id
 _symmetry_equiv_pos_as_xyz
  1  'x, y, z'
loop_
 _atom_site_type_symbol
 _atom_site_label
 _atom_site_symmetry_multiplicity
 _atom_site_fract_x
 _atom_site_fract_y
 _atom_site_fract_z
 _atom_site_occupancy
  Hf  Hf0  1  0.676800  0.176800  0.000000  1
  Zr  Zr1  1  0.323336  0.823336  0.000000  1
  Zr  Zr2  1  0.176813  0.323018  0.000000  1
  Zr  Zr3  1  0.823018  0.676813  0.000000  1
  B  B4  1  0.121046  0.621046  0.000000  1
  B  B5  1  0.878625  0.378625  0.000000  1
  B  B6  1  0.621018  0.879131  0.000000  1
  B  B7  1  0.379131  0.121018  0.000000  1
  Mo  Mo8  1  0.999607  0.000108  0.000000  1
  Mo  Mo9  1  0.500108  0.499607  0.000000  1
  Ru  Ru10  1  0.216594  0.071356  0.500000  1
  Ru  Ru11  1  0.783672  0.930057  0.500000  1
  Ru  Ru12  1  0.070977  0.783687  0.500000  1
  Ru  Ru13  1  0.715925  0.427415  0.500000  1
  Ru  Ru14  1  0.927415  0.215925  0.500000  1
  Ru  Ru15  1  0.283687  0.570977  0.500000  1
  Ru  Ru16  1  0.571356  0.716594  0.500000  1
  Ru  Ru17  1  0.430057  0.283672  0.500000  1
  Ru  Ru18  1  0.501116  0.001116  0.500000  1
  Ru  Ru19  1  0.999697  0.499697  0.500000  1
