# generated using pymatgen
data_La6Pr4Bi6PBr
_symmetry_space_group_name_H-M   'P 1'
_cell_length_a   9.72915100
_cell_length_b   9.72915082
_cell_length_c   6.91378800
_cell_angle_alpha   90.00000000
_cell_angle_beta   90.00000000
_cell_angle_gamma   119.99999722
_symmetry_Int_Tables_number   1
_chemical_formula_structural   La6Pr4Bi6PBr
_chemical_formula_sum   'La6 Pr4 Bi6 P1 Br1'
_cell_volume   566.75659421
_cell_formula_units_Z   1
loop_
 _symmetry_equiv_pos_site_id
 _symmetry_equiv_pos_as_xyz
  1  'x, y, z'
loop_
 _atom_site_type_symbol
 _atom_site_label
 _atom_site_symmetry_multiplicity
 _atom_site_fract_x
 _atom_site_fract_y
 _atom_site_fract_z
 _atom_site_occupancy
  La  La0  1  0.253684  0.000000  0.732675  1
  La  La1  1  0.746316  0.000000  0.267325  1
  La  La2  1  0.000000  0.253684  0.732675  1
  La  La3  1  0.000000  0.746316  0.267325  1
  La  La4  1  0.746316  0.746316  0.732675  1
  La  La5  1  0.253684  0.253684  0.267325  1
  Pr  Pr6  1  0.333333  0.666667  0.500000  1
  Pr  Pr7  1  0.666667  0.333333  0.500000  1
  Pr  Pr8  1  0.666667  0.333333  0.000000  1
  Pr  Pr9  1  0.333333  0.666667  0.000000  1
  Bi  Bi10  1  0.607958  0.000000  0.751083  1
  Bi  Bi11  1  0.392042  0.000000  0.248917  1
  Bi  Bi12  1  0.000000  0.607958  0.751083  1
  Bi  Bi13  1  0.000000  0.392042  0.248917  1
  Bi  Bi14  1  0.392042  0.392042  0.751083  1
  Bi  Bi15  1  0.607958  0.607958  0.248917  1
  P  P16  1  0.000000  0.000000  0.500000  1
  Br  Br17  1  0.000000  0.000000  0.000000  1
