# generated using pymatgen
data_Tb2Tm3ReRuO12
_symmetry_space_group_name_H-M   'P 1'
_cell_length_a   6.80251972
_cell_length_b   6.80252083
_cell_length_c   7.45962384
_cell_angle_alpha   73.97495366
_cell_angle_beta   73.97495105
_cell_angle_gamma   49.17765865
_symmetry_Int_Tables_number   1
_chemical_formula_structural   Tb2Tm3ReRuO12
_chemical_formula_sum   'Tb2 Tm3 Re1 Ru1 O12'
_cell_volume   248.88961056
_cell_formula_units_Z   1
loop_
 _symmetry_equiv_pos_site_id
 _symmetry_equiv_pos_as_xyz
  1  'x, y, z'
loop_
 _atom_site_type_symbol
 _atom_site_label
 _atom_site_symmetry_multiplicity
 _atom_site_fract_x
 _atom_site_fract_y
 _atom_site_fract_z
 _atom_site_occupancy
  Tb  Tb0  1  0.819279  0.786978  0.356444  1
  Tb  Tb1  1  0.213022  0.180721  0.643556  1
  Tm  Tm2  1  0.191420  0.179616  0.173579  1
  Tm  Tm3  1  0.820384  0.808580  0.826421  1
  Tm  Tm4  1  0.511687  0.488313  0.500000  1
  Re  Re5  1  0.700570  0.299430  0.000000  1
  Ru  Ru6  1  0.267128  0.732872  0.000000  1
  O  O7  1  0.415704  0.934104  0.918420  1
  O  O8  1  0.065896  0.584296  0.081580  1
  O  O9  1  0.585840  0.095579  0.084903  1
  O  O10  1  0.904421  0.414160  0.915097  1
  O  O11  1  0.611919  0.090485  0.571469  1
  O  O12  1  0.909515  0.388081  0.428531  1
  O  O13  1  0.411241  0.896455  0.420072  1
  O  O14  1  0.983332  0.014469  0.824235  1
  O  O15  1  0.985531  0.016668  0.175765  1
  O  O16  1  0.498437  0.498869  0.794890  1
  O  O17  1  0.501131  0.501563  0.205110  1
  O  O18  1  0.103545  0.588759  0.579928  1
