# generated using pymatgen
data_Al12Cr4Si4Ge
_symmetry_space_group_name_H-M   'P 1'
_cell_length_a   7.69740800
_cell_length_b   7.69740772
_cell_length_c   7.69740800
_cell_angle_alpha   120.00000120
_cell_angle_beta   90.00000000
_cell_angle_gamma   120.00000120
_symmetry_Int_Tables_number   1
_chemical_formula_structural   Al12Cr4Si4Ge
_chemical_formula_sum   'Al12 Cr4 Si4 Ge1'
_cell_volume   322.49166267
_cell_formula_units_Z   1
loop_
 _symmetry_equiv_pos_site_id
 _symmetry_equiv_pos_as_xyz
  1  'x, y, z'
loop_
 _atom_site_type_symbol
 _atom_site_label
 _atom_site_symmetry_multiplicity
 _atom_site_fract_x
 _atom_site_fract_y
 _atom_site_fract_z
 _atom_site_occupancy
  Al  Al0  1  0.310742  0.000000  0.310742  1
  Al  Al1  1  0.310742  0.621485  0.310742  1
  Al  Al2  1  0.689258  0.000000  0.310742  1
  Al  Al3  1  0.060322  0.500000  0.560322  1
  Al  Al4  1  0.439678  0.500000  0.560322  1
  Al  Al5  1  0.060322  0.120644  0.560322  1
  Al  Al6  1  0.689258  0.000000  0.689258  1
  Al  Al7  1  0.310742  0.000000  0.689258  1
  Al  Al8  1  0.689258  0.378515  0.689258  1
  Al  Al9  1  0.060322  0.500000  0.939678  1
  Al  Al10  1  0.439678  0.500000  0.939678  1
  Al  Al11  1  0.439678  0.879356  0.939678  1
  Cr  Cr12  1  0.657277  0.314556  0.342723  1
  Cr  Cr13  1  0.028167  0.685444  0.342723  1
  Cr  Cr14  1  0.657277  0.685444  0.342723  1
  Cr  Cr15  1  0.657277  0.314556  0.971833  1
  Si  Si16  1  0.383894  0.255929  0.127965  1
  Si  Si17  1  0.872035  0.255929  0.127965  1
  Si  Si18  1  0.872035  0.744070  0.127965  1
  Si  Si19  1  0.872035  0.744070  0.616106  1
  Ge  Ge20  1  0.000000  0.000000  0.000000  1
