# generated using pymatgen
data_Tm4Al15(SiIr2)3
_symmetry_space_group_name_H-M   'P 1'
_cell_length_a   7.53182269
_cell_length_b   7.51446874
_cell_length_c   9.30757400
_cell_angle_alpha   89.99975601
_cell_angle_beta   89.91297406
_cell_angle_gamma   119.75879356
_symmetry_Int_Tables_number   1
_chemical_formula_structural   Tm4Al15(SiIr2)3
_chemical_formula_sum   'Tm4 Al15 Si3 Ir6'
_cell_volume   457.31483130
_cell_formula_units_Z   1
loop_
 _symmetry_equiv_pos_site_id
 _symmetry_equiv_pos_as_xyz
  1  'x, y, z'
loop_
 _atom_site_type_symbol
 _atom_site_label
 _atom_site_symmetry_multiplicity
 _atom_site_fract_x
 _atom_site_fract_y
 _atom_site_fract_z
 _atom_site_occupancy
  Tm  Tm0  1  0.993931  0.668630  0.248455  1
  Tm  Tm1  1  0.004778  0.325445  0.753382  1
  Tm  Tm2  1  0.679660  0.000616  0.248053  1
  Tm  Tm3  1  0.325716  0.005434  0.749323  1
  Al  Al4  1  0.998303  0.668540  0.921887  1
  Al  Al5  1  0.999426  0.664167  0.575488  1
  Al  Al6  1  0.335991  0.999807  0.424305  1
  Al  Al7  1  0.001511  0.336297  0.428627  1
  Al  Al8  1  0.663481  0.999310  0.575566  1
  Al  Al9  1  0.659163  0.994416  0.922167  1
  Al  Al10  1  0.335582  0.999824  0.076047  1
  Al  Al11  1  0.335591  0.335043  0.558949  1
  Al  Al12  1  0.665240  0.665858  0.441075  1
  Al  Al13  1  0.664600  0.665463  0.060141  1
  Al  Al14  1  0.338524  0.335089  0.940983  1
  Al  Al15  1  0.334497  0.547129  0.250322  1
  Al  Al16  1  0.665658  0.450813  0.750121  1
  Al  Al17  1  0.546436  0.335428  0.250258  1
  Al  Al18  1  0.450035  0.663274  0.749373  1
  Si  Si19  1  0.131850  0.127255  0.250918  1
  Si  Si20  1  0.871368  0.872863  0.749734  1
  Si  Si21  1  0.000864  0.337960  0.073132  1
  Ir  Ir22  1  0.679629  0.328390  0.001734  1
  Ir  Ir23  1  0.319563  0.664031  0.000096  1
  Ir  Ir24  1  0.327687  0.671535  0.499350  1
  Ir  Ir25  1  0.672378  0.328325  0.499053  1
  Ir  Ir26  1  0.998921  0.008446  0.002020  1
  Ir  Ir27  1  0.999614  0.000612  0.499442  1
