# generated using pymatgen
data_Eu2Al2Ga(O3F)2
_symmetry_space_group_name_H-M   'P 1'
_cell_length_a   7.90367153
_cell_length_b   7.90367137
_cell_length_c   7.90367293
_cell_angle_alpha   109.37177888
_cell_angle_beta   109.37178145
_cell_angle_gamma   109.67029100
_symmetry_Int_Tables_number   1
_chemical_formula_structural   Eu2Al2Ga(O3F)2
_chemical_formula_sum   'Eu4 Al4 Ga2 O12 F4'
_cell_volume   380.06761139
_cell_formula_units_Z   2
loop_
 _symmetry_equiv_pos_site_id
 _symmetry_equiv_pos_as_xyz
  1  'x, y, z'
loop_
 _atom_site_type_symbol
 _atom_site_label
 _atom_site_symmetry_multiplicity
 _atom_site_fract_x
 _atom_site_fract_y
 _atom_site_fract_z
 _atom_site_occupancy
  Eu  Eu0  1  0.306059  0.306059  0.305613  1
  Eu  Eu1  1  0.693941  0.999555  0.000000  1
  Eu  Eu2  1  0.999555  0.693941  0.000000  1
  Eu  Eu3  1  0.000445  0.000445  0.694387  1
  Al  Al4  1  0.746743  0.500000  0.246743  1
  Al  Al5  1  0.253257  0.500000  0.753257  1
  Al  Al6  1  0.500000  0.253257  0.753257  1
  Al  Al7  1  0.500000  0.746743  0.246743  1
  Ga  Ga8  1  0.250000  0.750000  0.500000  1
  Ga  Ga9  1  0.750000  0.250000  0.500000  1
  O  O10  1  0.281551  0.549340  0.557919  1
  O  O11  1  0.718449  0.276367  0.267788  1
  O  O12  1  0.008578  0.450660  0.732212  1
  O  O13  1  0.554069  0.554069  0.276276  1
  O  O14  1  0.991422  0.723633  0.442081  1
  O  O15  1  0.277792  0.277792  0.723724  1
  O  O16  1  0.445931  0.722208  0.000000  1
  O  O17  1  0.722208  0.445931  0.000000  1
  O  O18  1  0.549340  0.281551  0.557919  1
  O  O19  1  0.723633  0.991422  0.442081  1
  O  O20  1  0.450660  0.008578  0.732212  1
  O  O21  1  0.276367  0.718449  0.267788  1
  F  F22  1  0.782082  0.782082  0.781536  1
  F  F23  1  0.217918  0.999454  0.000000  1
  F  F24  1  0.999454  0.217918  0.000000  1
  F  F25  1  0.000546  0.000546  0.218464  1
