# generated using pymatgen
data_Nd6Al24Tc5Ni3
_symmetry_space_group_name_H-M   'P 1'
_cell_length_a   8.91617838
_cell_length_b   8.87964610
_cell_length_c   9.70704835
_cell_angle_alpha   90.38539148
_cell_angle_beta   90.06513017
_cell_angle_gamma   119.46211165
_symmetry_Int_Tables_number   1
_chemical_formula_structural   Nd6Al24Tc5Ni3
_chemical_formula_sum   'Nd6 Al24 Tc5 Ni3'
_cell_volume   669.12190590
_cell_formula_units_Z   1
loop_
 _symmetry_equiv_pos_site_id
 _symmetry_equiv_pos_as_xyz
  1  'x, y, z'
loop_
 _atom_site_type_symbol
 _atom_site_label
 _atom_site_symmetry_multiplicity
 _atom_site_fract_x
 _atom_site_fract_y
 _atom_site_fract_z
 _atom_site_occupancy
  Nd  Nd0  1  0.187410  0.384901  0.248625  1
  Nd  Nd1  1  0.812590  0.615099  0.751375  1
  Nd  Nd2  1  0.618698  0.812642  0.249272  1
  Nd  Nd3  1  0.381302  0.187358  0.750728  1
  Nd  Nd4  1  0.190470  0.804071  0.251654  1
  Nd  Nd5  1  0.809530  0.195929  0.748346  1
  Al  Al6  1  0.336426  0.668256  0.011905  1
  Al  Al7  1  0.663574  0.331744  0.988095  1
  Al  Al8  1  0.663949  0.336028  0.514621  1
  Al  Al9  1  0.336051  0.663972  0.485379  1
  Al  Al10  1  0.164898  0.327618  0.573928  1
  Al  Al11  1  0.835102  0.672382  0.426072  1
  Al  Al12  1  0.673492  0.835848  0.575022  1
  Al  Al13  1  0.837014  0.674557  0.074440  1
  Al  Al14  1  0.326508  0.164152  0.424978  1
  Al  Al15  1  0.162986  0.325443  0.925560  1
  Al  Al16  1  0.163017  0.836854  0.576118  1
  Al  Al17  1  0.326957  0.165705  0.074081  1
  Al  Al18  1  0.836983  0.163146  0.423882  1
  Al  Al19  1  0.673043  0.834295  0.925919  1
  Al  Al20  1  0.837559  0.166083  0.073642  1
  Al  Al21  1  0.162441  0.833917  0.926358  1
  Al  Al22  1  0.561426  0.126098  0.247358  1
  Al  Al23  1  0.438574  0.873902  0.752642  1
  Al  Al24  1  0.869354  0.436242  0.248311  1
  Al  Al25  1  0.130646  0.563758  0.751689  1
  Al  Al26  1  0.560211  0.439246  0.248322  1
  Al  Al27  1  0.439789  0.560754  0.751678  1
  Al  Al28  1  0.998758  0.001331  0.249686  1
  Al  Al29  1  0.001242  0.998669  0.750314  1
  Tc  Tc30  1  0.000000  0.500000  0.000000  1
  Tc  Tc31  1  0.500000  0.000000  0.500000  1
  Tc  Tc32  1  0.000000  0.500000  0.500000  1
  Tc  Tc33  1  0.000000  0.000000  0.000000  1
  Tc  Tc34  1  0.000000  0.000000  0.500000  1
  Ni  Ni35  1  0.500000  0.000000  0.000000  1
  Ni  Ni36  1  0.500000  0.500000  0.000000  1
  Ni  Ni37  1  0.500000  0.500000  0.500000  1
