# generated using pymatgen
data_Nd2Dy3Cr3(P3Ir4)4
_symmetry_space_group_name_H-M   'P 1'
_cell_length_a   12.67988100
_cell_length_b   12.67872630
_cell_length_c   3.97001000
_cell_angle_alpha   90.00000000
_cell_angle_beta   90.00000000
_cell_angle_gamma   120.00301013
_symmetry_Int_Tables_number   1
_chemical_formula_structural   Nd2Dy3Cr3(P3Ir4)4
_chemical_formula_sum   'Nd2 Dy3 Cr3 P12 Ir16'
_cell_volume   552.71323358
_cell_formula_units_Z   1
loop_
 _symmetry_equiv_pos_site_id
 _symmetry_equiv_pos_as_xyz
  1  'x, y, z'
loop_
 _atom_site_type_symbol
 _atom_site_label
 _atom_site_symmetry_multiplicity
 _atom_site_fract_x
 _atom_site_fract_y
 _atom_site_fract_z
 _atom_site_occupancy
  Nd  Nd0  1  0.999926  0.809717  0.000000  1
  Nd  Nd1  1  0.190209  0.190283  0.000000  1
  Dy  Dy2  1  0.333359  0.666329  0.500000  1
  Dy  Dy3  1  0.667031  0.333671  0.500000  1
  Dy  Dy4  1  0.809460  0.000000  0.000000  1
  Cr  Cr5  1  0.998336  0.450610  0.500000  1
  Cr  Cr6  1  0.547726  0.549390  0.500000  1
  Cr  Cr7  1  0.453665  0.000000  0.500000  1
  P  P8  1  0.000020  0.628613  0.500000  1
  P  P9  1  0.371408  0.371387  0.500000  1
  P  P10  1  0.631480  0.000000  0.500000  1
  P  P11  1  0.515955  0.685009  0.000000  1
  P  P12  1  0.315161  0.830681  0.000000  1
  P  P13  1  0.168159  0.482837  0.000000  1
  P  P14  1  0.484480  0.169319  0.000000  1
  P  P15  1  0.685322  0.517163  0.000000  1
  P  P16  1  0.830946  0.314991  0.000000  1
  P  P17  1  0.997719  0.177563  0.500000  1
  P  P18  1  0.820155  0.822437  0.500000  1
  P  P19  1  0.179369  0.000000  0.500000  1
  Ir  Ir20  1  0.508684  0.868622  0.000000  1
  Ir  Ir21  1  0.130912  0.638783  0.000000  1
  Ir  Ir22  1  0.360040  0.491463  0.000000  1
  Ir  Ir23  1  0.492129  0.361217  0.000000  1
  Ir  Ir24  1  0.868578  0.508537  0.000000  1
  Ir  Ir25  1  0.640063  0.131378  0.000000  1
  Ir  Ir26  1  0.998349  0.286677  0.000000  1
  Ir  Ir27  1  0.711672  0.713323  0.000000  1
  Ir  Ir28  1  0.289173  0.000000  0.000000  1
  Ir  Ir29  1  0.623062  0.803106  0.500000  1
  Ir  Ir30  1  0.201981  0.821056  0.500000  1
  Ir  Ir31  1  0.177887  0.379930  0.500000  1
  Ir  Ir32  1  0.380925  0.178944  0.500000  1
  Ir  Ir33  1  0.797957  0.620070  0.500000  1
  Ir  Ir34  1  0.819956  0.196894  0.500000  1
  Ir  Ir35  1  0.998749  0.000000  0.500000  1
