# generated using pymatgen
data_Ho4TmGa4P8Ir19
_symmetry_space_group_name_H-M   'P 1'
_cell_length_a   12.90082626
_cell_length_b   12.88187477
_cell_length_c   3.95550400
_cell_angle_alpha   90.00000000
_cell_angle_beta   90.00000000
_cell_angle_gamma   120.05657424
_symmetry_Int_Tables_number   1
_chemical_formula_structural   Ho4TmGa4P8Ir19
_chemical_formula_sum   'Ho4 Tm1 Ga4 P8 Ir19'
_cell_volume   568.95929170
_cell_formula_units_Z   1
loop_
 _symmetry_equiv_pos_site_id
 _symmetry_equiv_pos_as_xyz
  1  'x, y, z'
loop_
 _atom_site_type_symbol
 _atom_site_label
 _atom_site_symmetry_multiplicity
 _atom_site_fract_x
 _atom_site_fract_y
 _atom_site_fract_z
 _atom_site_occupancy
  Ho  Ho0  1  0.335334  0.669157  0.500000  1
  Ho  Ho1  1  0.180425  0.180654  0.000000  1
  Ho  Ho2  1  0.818378  0.999241  0.000000  1
  Ho  Ho3  1  0.002229  0.816963  0.000000  1
  Tm  Tm4  1  0.665941  0.331742  0.500000  1
  Ga  Ga5  1  0.318135  0.834467  0.000000  1
  Ga  Ga6  1  0.356692  0.357714  0.500000  1
  Ga  Ga7  1  0.641713  0.000946  0.500000  1
  Ga  Ga8  1  0.996968  0.638572  0.500000  1
  P  P9  1  0.173292  0.484494  0.000000  1
  P  P10  1  0.521001  0.690318  0.000000  1
  P  P11  1  0.823661  0.306462  0.000000  1
  P  P12  1  0.482674  0.175194  0.000000  1
  P  P13  1  0.691521  0.514654  0.000000  1
  P  P14  1  0.822885  0.819080  0.500000  1
  P  P15  1  0.178454  0.001057  0.500000  1
  P  P16  1  0.000007  0.179812  0.500000  1
  Ir  Ir17  1  0.190824  0.825373  0.500000  1
  Ir  Ir18  1  0.174564  0.381849  0.500000  1
  Ir  Ir19  1  0.625952  0.795318  0.500000  1
  Ir  Ir20  1  0.825491  0.205361  0.500000  1
  Ir  Ir21  1  0.385527  0.178444  0.500000  1
  Ir  Ir22  1  0.790790  0.614863  0.500000  1
  Ir  Ir23  1  0.128576  0.633420  0.000000  1
  Ir  Ir24  1  0.362784  0.497484  0.000000  1
  Ir  Ir25  1  0.521913  0.871070  0.000000  1
  Ir  Ir26  1  0.633999  0.132961  0.000000  1
  Ir  Ir27  1  0.497385  0.365804  0.000000  1
  Ir  Ir28  1  0.865410  0.500279  0.000000  1
  Ir  Ir29  1  0.547582  0.550341  0.500000  1
  Ir  Ir30  1  0.443945  0.993216  0.500000  1
  Ir  Ir31  1  0.997793  0.447321  0.500000  1
  Ir  Ir32  1  0.719434  0.716010  0.000000  1
  Ir  Ir33  1  0.279852  0.008021  0.000000  1
  Ir  Ir34  1  0.000058  0.281741  0.000000  1
  Ir  Ir35  1  0.998811  0.000594  0.500000  1
