# generated using pymatgen
data_Pr12PdRu3
_symmetry_space_group_name_H-M   'P 1'
_cell_length_a   6.53121476
_cell_length_b   7.49292592
_cell_length_c   9.97216000
_cell_angle_alpha   90.00000000
_cell_angle_beta   90.00000000
_cell_angle_gamma   90.20620561
_symmetry_Int_Tables_number   1
_chemical_formula_structural   Pr12PdRu3
_chemical_formula_sum   'Pr12 Pd1 Ru3'
_cell_volume   488.01349178
_cell_formula_units_Z   1
loop_
 _symmetry_equiv_pos_site_id
 _symmetry_equiv_pos_as_xyz
  1  'x, y, z'
loop_
 _atom_site_type_symbol
 _atom_site_label
 _atom_site_symmetry_multiplicity
 _atom_site_fract_x
 _atom_site_fract_y
 _atom_site_fract_z
 _atom_site_occupancy
  Pr  Pr0  1  0.337544  0.670734  0.064508  1
  Pr  Pr1  1  0.169502  0.183175  0.437209  1
  Pr  Pr2  1  0.672404  0.322511  0.569067  1
  Pr  Pr3  1  0.827331  0.824724  0.929401  1
  Pr  Pr4  1  0.672404  0.322511  0.930933  1
  Pr  Pr5  1  0.827331  0.824724  0.570599  1
  Pr  Pr6  1  0.337544  0.670734  0.435492  1
  Pr  Pr7  1  0.169502  0.183175  0.062791  1
  Pr  Pr8  1  0.850295  0.529836  0.250000  1
  Pr  Pr9  1  0.635101  0.044151  0.250000  1
  Pr  Pr10  1  0.146084  0.462811  0.750000  1
  Pr  Pr11  1  0.351024  0.960964  0.750000  1
  Pd  Pd12  1  0.065285  0.884339  0.250000  1
  Ru  Ru13  1  0.435927  0.382314  0.250000  1
  Ru  Ru14  1  0.944718  0.115818  0.750000  1
  Ru  Ru15  1  0.558004  0.617481  0.750000  1
