# generated using pymatgen
data_Tm10Al3Os
_symmetry_space_group_name_H-M   'P 1'
_cell_length_a   9.38541600
_cell_length_b   9.38541628
_cell_length_c   9.55173700
_cell_angle_alpha   90.00000000
_cell_angle_beta   90.00000000
_cell_angle_gamma   119.99999903
_symmetry_Int_Tables_number   1
_chemical_formula_structural   Tm10Al3Os
_chemical_formula_sum   'Tm20 Al6 Os2'
_cell_volume   728.65182820
_cell_formula_units_Z   2
loop_
 _symmetry_equiv_pos_site_id
 _symmetry_equiv_pos_as_xyz
  1  'x, y, z'
loop_
 _atom_site_type_symbol
 _atom_site_label
 _atom_site_symmetry_multiplicity
 _atom_site_fract_x
 _atom_site_fract_y
 _atom_site_fract_z
 _atom_site_occupancy
  Tm  Tm0  1  0.000000  0.000000  0.500000  1
  Tm  Tm1  1  0.000000  0.000000  0.000000  1
  Tm  Tm2  1  0.206973  0.793027  0.440591  1
  Tm  Tm3  1  0.206973  0.413948  0.440591  1
  Tm  Tm4  1  0.586052  0.793027  0.440591  1
  Tm  Tm5  1  0.793027  0.206973  0.559409  1
  Tm  Tm6  1  0.793027  0.586052  0.559409  1
  Tm  Tm7  1  0.413948  0.206973  0.559409  1
  Tm  Tm8  1  0.793027  0.206973  0.940591  1
  Tm  Tm9  1  0.793027  0.586052  0.940591  1
  Tm  Tm10  1  0.413948  0.206973  0.940591  1
  Tm  Tm11  1  0.206973  0.793027  0.059409  1
  Tm  Tm12  1  0.206973  0.413948  0.059409  1
  Tm  Tm13  1  0.586052  0.793027  0.059409  1
  Tm  Tm14  1  0.538845  0.461155  0.250000  1
  Tm  Tm15  1  0.538845  0.077691  0.250000  1
  Tm  Tm16  1  0.922309  0.461155  0.250000  1
  Tm  Tm17  1  0.461155  0.538845  0.750000  1
  Tm  Tm18  1  0.461155  0.922309  0.750000  1
  Tm  Tm19  1  0.077691  0.538845  0.750000  1
  Al  Al20  1  0.889225  0.110775  0.250000  1
  Al  Al21  1  0.889225  0.778451  0.250000  1
  Al  Al22  1  0.221549  0.110775  0.250000  1
  Al  Al23  1  0.110775  0.889225  0.750000  1
  Al  Al24  1  0.110775  0.221549  0.750000  1
  Al  Al25  1  0.778451  0.889225  0.750000  1
  Os  Os26  1  0.333333  0.666667  0.250000  1
  Os  Os27  1  0.666667  0.333333  0.750000  1
