# generated using pymatgen
data_Dy2Er5Tm3(CoSb2)2
_symmetry_space_group_name_H-M   'P 1'
_cell_length_a   7.79701912
_cell_length_b   8.73610614
_cell_length_c   12.09052500
_cell_angle_alpha   90.00000000
_cell_angle_beta   90.00000000
_cell_angle_gamma   89.97947257
_symmetry_Int_Tables_number   1
_chemical_formula_structural   Dy2Er5Tm3(CoSb2)2
_chemical_formula_sum   'Dy4 Er10 Tm6 Co4 Sb8'
_cell_volume   823.55315047
_cell_formula_units_Z   2
loop_
 _symmetry_equiv_pos_site_id
 _symmetry_equiv_pos_as_xyz
  1  'x, y, z'
loop_
 _atom_site_type_symbol
 _atom_site_label
 _atom_site_symmetry_multiplicity
 _atom_site_fract_x
 _atom_site_fract_y
 _atom_site_fract_z
 _atom_site_occupancy
  Dy  Dy0  1  0.621686  0.749856  0.307237  1
  Dy  Dy1  1  0.878314  0.750144  0.807237  1
  Dy  Dy2  1  0.377994  0.250090  0.692736  1
  Dy  Dy3  1  0.122006  0.249910  0.192736  1
  Er  Er4  1  0.155462  0.750069  0.203807  1
  Er  Er5  1  0.344538  0.749931  0.703807  1
  Er  Er6  1  0.844808  0.250008  0.796258  1
  Er  Er7  1  0.655192  0.249992  0.296258  1
  Er  Er8  1  0.450505  0.750103  0.998028  1
  Er  Er9  1  0.049495  0.749897  0.498028  1
  Er  Er10  1  0.548979  0.249818  0.001920  1
  Er  Er11  1  0.951021  0.250182  0.501920  1
  Er  Er12  1  0.822558  0.536061  0.065451  1
  Er  Er13  1  0.677442  0.963939  0.565451  1
  Tm  Tm14  1  0.176534  0.036313  0.934683  1
  Tm  Tm15  1  0.323466  0.463687  0.434683  1
  Tm  Tm16  1  0.176711  0.463706  0.934625  1
  Tm  Tm17  1  0.323289  0.036294  0.434625  1
  Tm  Tm18  1  0.823444  0.963779  0.065264  1
  Tm  Tm19  1  0.676556  0.536221  0.565264  1
  Co  Co20  1  0.433154  0.749756  0.491241  1
  Co  Co21  1  0.066846  0.750244  0.991241  1
  Co  Co22  1  0.566184  0.250190  0.508612  1
  Co  Co23  1  0.933816  0.249810  0.008612  1
  Sb  Sb24  1  0.930035  0.508609  0.327992  1
  Sb  Sb25  1  0.569965  0.991391  0.827992  1
  Sb  Sb26  1  0.070300  0.008711  0.672150  1
  Sb  Sb27  1  0.429700  0.491289  0.172150  1
  Sb  Sb28  1  0.070006  0.491344  0.672099  1
  Sb  Sb29  1  0.429994  0.008656  0.172099  1
  Sb  Sb30  1  0.929916  0.991388  0.327897  1
  Sb  Sb31  1  0.570084  0.508612  0.827897  1
