# generated using pymatgen
data_Hf2Zr4SiPb2
_symmetry_space_group_name_H-M   'P 1'
_cell_length_a   3.89059900
_cell_length_b   7.76557556
_cell_length_c   7.75366000
_cell_angle_alpha   120.05085127
_cell_angle_beta   90.00000000
_cell_angle_gamma   90.00000000
_symmetry_Int_Tables_number   1
_chemical_formula_structural   Hf2Zr4SiPb2
_chemical_formula_sum   'Hf2 Zr4 Si1 Pb2'
_cell_volume   202.77048499
_cell_formula_units_Z   1
loop_
 _symmetry_equiv_pos_site_id
 _symmetry_equiv_pos_as_xyz
  1  'x, y, z'
loop_
 _atom_site_type_symbol
 _atom_site_label
 _atom_site_symmetry_multiplicity
 _atom_site_fract_x
 _atom_site_fract_y
 _atom_site_fract_z
 _atom_site_occupancy
  Hf  Hf0  1  0.500000  0.999352  0.238359  1
  Hf  Hf1  1  0.500000  0.760993  0.761641  1
  Zr  Zr2  1  0.500000  0.238647  0.000000  1
  Zr  Zr3  1  0.000000  0.616076  0.000000  1
  Zr  Zr4  1  0.000000  0.385732  0.385786  1
  Zr  Zr5  1  0.000000  0.999946  0.614215  1
  Si  Si6  1  0.000000  0.998752  0.000000  1
  Pb  Pb7  1  0.500000  0.667238  0.333970  1
  Pb  Pb8  1  0.500000  0.333268  0.666032  1
