# generated using pymatgen
data_TbTaMn3FeP3
_symmetry_space_group_name_H-M   'P 1'
_cell_length_a   3.64293800
_cell_length_b   10.79411500
_cell_length_c   12.44086500
_cell_angle_alpha   90.00000000
_cell_angle_beta   90.00000000
_cell_angle_gamma   90.00000000
_symmetry_Int_Tables_number   1
_chemical_formula_structural   TbTaMn3FeP3
_chemical_formula_sum   'Tb4 Ta4 Mn12 Fe4 P12'
_cell_volume   489.20332265
_cell_formula_units_Z   4
loop_
 _symmetry_equiv_pos_site_id
 _symmetry_equiv_pos_as_xyz
  1  'x, y, z'
loop_
 _atom_site_type_symbol
 _atom_site_label
 _atom_site_symmetry_multiplicity
 _atom_site_fract_x
 _atom_site_fract_y
 _atom_site_fract_z
 _atom_site_occupancy
  Tb  Tb0  1  0.250000  0.585287  0.710242  1
  Tb  Tb1  1  0.250000  0.914713  0.210242  1
  Tb  Tb2  1  0.750000  0.414713  0.289758  1
  Tb  Tb3  1  0.750000  0.085287  0.789758  1
  Ta  Ta4  1  0.250000  0.704061  0.986910  1
  Ta  Ta5  1  0.250000  0.795939  0.486910  1
  Ta  Ta6  1  0.750000  0.295939  0.013090  1
  Ta  Ta7  1  0.750000  0.204061  0.513090  1
  Mn  Mn8  1  0.250000  0.408524  0.492573  1
  Mn  Mn9  1  0.250000  0.091476  0.992573  1
  Mn  Mn10  1  0.750000  0.591476  0.507427  1
  Mn  Mn11  1  0.750000  0.908524  0.007427  1
  Mn  Mn12  1  0.250000  0.216066  0.175349  1
  Mn  Mn13  1  0.250000  0.283934  0.675349  1
  Mn  Mn14  1  0.750000  0.783934  0.824651  1
  Mn  Mn15  1  0.750000  0.716066  0.324651  1
  Mn  Mn16  1  0.250000  0.879478  0.700186  1
  Mn  Mn17  1  0.250000  0.620522  0.200186  1
  Mn  Mn18  1  0.750000  0.120522  0.299814  1
  Mn  Mn19  1  0.750000  0.379478  0.799814  1
  Fe  Fe20  1  0.250000  0.462707  0.932961  1
  Fe  Fe21  1  0.250000  0.037293  0.432961  1
  Fe  Fe22  1  0.750000  0.537293  0.067039  1
  Fe  Fe23  1  0.750000  0.962707  0.567039  1
  P  P24  1  0.250000  0.427057  0.112640  1
  P  P25  1  0.250000  0.072943  0.612640  1
  P  P26  1  0.750000  0.572943  0.887360  1
  P  P27  1  0.750000  0.927057  0.387360  1
  P  P28  1  0.250000  0.266896  0.865178  1
  P  P29  1  0.250000  0.233104  0.365178  1
  P  P30  1  0.750000  0.733104  0.134822  1
  P  P31  1  0.750000  0.766896  0.634822  1
  P  P32  1  0.250000  0.587452  0.384817  1
  P  P33  1  0.250000  0.912548  0.884817  1
  P  P34  1  0.750000  0.412548  0.615183  1
  P  P35  1  0.750000  0.087452  0.115183  1
