# generated using pymatgen
data_Pr5Nd3(HoPb3)2
_symmetry_space_group_name_H-M   'P 1'
_cell_length_a   9.36239404
_cell_length_b   9.36239432
_cell_length_c   6.87369302
_cell_angle_alpha   89.99600714
_cell_angle_beta   89.99600215
_cell_angle_gamma   119.92447028
_symmetry_Int_Tables_number   1
_chemical_formula_structural   Pr5Nd3(HoPb3)2
_chemical_formula_sum   'Pr5 Nd3 Ho2 Pb6'
_cell_volume   522.18529456
_cell_formula_units_Z   1
loop_
 _symmetry_equiv_pos_site_id
 _symmetry_equiv_pos_as_xyz
  1  'x, y, z'
loop_
 _atom_site_type_symbol
 _atom_site_label
 _atom_site_symmetry_multiplicity
 _atom_site_fract_x
 _atom_site_fract_y
 _atom_site_fract_z
 _atom_site_occupancy
  Pr  Pr0  1  0.240584  0.999955  0.751822  1
  Pr  Pr1  1  0.999955  0.240584  0.751822  1
  Pr  Pr2  1  0.240859  0.240859  0.248196  1
  Pr  Pr3  1  0.759331  0.999892  0.248163  1
  Pr  Pr4  1  0.999892  0.759331  0.248163  1
  Nd  Nd5  1  0.333465  0.666680  0.500072  1
  Nd  Nd6  1  0.666680  0.333465  0.500072  1
  Nd  Nd7  1  0.758966  0.758966  0.751920  1
  Ho  Ho8  1  0.666696  0.333432  0.999956  1
  Ho  Ho9  1  0.333432  0.666696  0.999956  1
  Pb  Pb10  1  0.397428  0.397428  0.756775  1
  Pb  Pb11  1  0.603281  0.999531  0.756753  1
  Pb  Pb12  1  0.999531  0.603281  0.756753  1
  Pb  Pb13  1  0.602988  0.602988  0.243165  1
  Pb  Pb14  1  0.396954  0.999959  0.243206  1
  Pb  Pb15  1  0.999959  0.396954  0.243206  1
