# generated using pymatgen
data_Ac8TmNi6
_symmetry_space_group_name_H-M   'P 1'
_cell_length_a   7.79223746
_cell_length_b   7.79223748
_cell_length_c   7.79223723
_cell_angle_alpha   74.76754181
_cell_angle_beta   74.76754225
_cell_angle_gamma   74.76754288
_symmetry_Int_Tables_number   1
_chemical_formula_structural   Ac8TmNi6
_chemical_formula_sum   'Ac8 Tm1 Ni6'
_cell_volume   430.83574716
_cell_formula_units_Z   1
loop_
 _symmetry_equiv_pos_site_id
 _symmetry_equiv_pos_as_xyz
  1  'x, y, z'
loop_
 _atom_site_type_symbol
 _atom_site_label
 _atom_site_symmetry_multiplicity
 _atom_site_fract_x
 _atom_site_fract_y
 _atom_site_fract_z
 _atom_site_occupancy
  Ac  Ac0  1  0.292867  0.292867  0.292867  1
  Ac  Ac1  1  0.707133  0.707133  0.707133  1
  Ac  Ac2  1  0.816472  0.332321  0.131115  1
  Ac  Ac3  1  0.332321  0.131115  0.816472  1
  Ac  Ac4  1  0.131115  0.816472  0.332321  1
  Ac  Ac5  1  0.183528  0.667679  0.868885  1
  Ac  Ac6  1  0.667679  0.868885  0.183528  1
  Ac  Ac7  1  0.868885  0.183528  0.667679  1
  Tm  Tm8  1  0.500000  0.500000  0.500000  1
  Ni  Ni9  1  0.468696  0.623805  0.103244  1
  Ni  Ni10  1  0.623805  0.103244  0.468696  1
  Ni  Ni11  1  0.103244  0.468696  0.623805  1
  Ni  Ni12  1  0.531304  0.376195  0.896756  1
  Ni  Ni13  1  0.376195  0.896756  0.531304  1
  Ni  Ni14  1  0.896756  0.531304  0.376195  1
