# generated using pymatgen
data_SmEr2Cd3Sn2Au
_symmetry_space_group_name_H-M   'P 1'
_cell_length_a   7.49330157
_cell_length_b   7.49330024
_cell_length_c   4.56874800
_cell_angle_alpha   90.00000000
_cell_angle_beta   90.00000000
_cell_angle_gamma   120.24811627
_symmetry_Int_Tables_number   1
_chemical_formula_structural   SmEr2Cd3Sn2Au
_chemical_formula_sum   'Sm1 Er2 Cd3 Sn2 Au1'
_cell_volume   221.60672025
_cell_formula_units_Z   1
loop_
 _symmetry_equiv_pos_site_id
 _symmetry_equiv_pos_as_xyz
  1  'x, y, z'
loop_
 _atom_site_type_symbol
 _atom_site_label
 _atom_site_symmetry_multiplicity
 _atom_site_fract_x
 _atom_site_fract_y
 _atom_site_fract_z
 _atom_site_occupancy
  Sm  Sm0  1  0.408066  0.408066  0.000000  1
  Er  Er1  1  0.593926  0.000224  0.000000  1
  Er  Er2  1  0.000224  0.593926  0.000000  1
  Cd  Cd3  1  0.239052  0.999513  0.500000  1
  Cd  Cd4  1  0.999513  0.239052  0.500000  1
  Cd  Cd5  1  0.761038  0.761038  0.500000  1
  Sn  Sn6  1  0.332170  0.668920  0.500000  1
  Sn  Sn7  1  0.668920  0.332170  0.500000  1
  Au  Au8  1  0.997092  0.997092  0.000000  1
