# generated using pymatgen
data_TbNdMn5(PRh)7
_symmetry_space_group_name_H-M   'P 1'
_cell_length_a   9.45863089
_cell_length_b   9.44865547
_cell_length_c   3.84228200
_cell_angle_alpha   90.00000000
_cell_angle_beta   90.00000000
_cell_angle_gamma   119.94365740
_symmetry_Int_Tables_number   1
_chemical_formula_structural   TbNdMn5(PRh)7
_chemical_formula_sum   'Tb1 Nd1 Mn5 P7 Rh7'
_cell_volume   297.55307877
_cell_formula_units_Z   1
loop_
 _symmetry_equiv_pos_site_id
 _symmetry_equiv_pos_as_xyz
  1  'x, y, z'
loop_
 _atom_site_type_symbol
 _atom_site_label
 _atom_site_symmetry_multiplicity
 _atom_site_fract_x
 _atom_site_fract_y
 _atom_site_fract_z
 _atom_site_occupancy
  Tb  Tb0  1  0.334157  0.667415  0.500000  1
  Nd  Nd1  1  0.666697  0.332041  0.000000  1
  Mn  Mn2  1  0.268427  0.111379  0.000000  1
  Mn  Mn3  1  0.841734  0.729603  0.000000  1
  Mn  Mn4  1  0.891748  0.159682  0.000000  1
  Mn  Mn5  1  0.778326  0.898116  0.500000  1
  Mn  Mn6  1  0.120128  0.224029  0.500000  1
  P  P7  1  0.300954  0.891928  0.000000  1
  P  P8  1  0.593308  0.701710  0.000000  1
  P  P9  1  0.111502  0.411309  0.000000  1
  P  P10  1  0.393064  0.275378  0.500000  1
  P  P11  1  0.879043  0.606151  0.500000  1
  P  P12  1  0.725966  0.115582  0.500000  1
  P  P13  1  0.997181  0.996634  0.000000  1
  Rh  Rh14  1  0.064910  0.638672  0.000000  1
  Rh  Rh15  1  0.574096  0.936175  0.000000  1
  Rh  Rh16  1  0.363433  0.427729  0.000000  1
  Rh  Rh17  1  0.439629  0.049270  0.500000  1
  Rh  Rh18  1  0.610174  0.561257  0.500000  1
  Rh  Rh19  1  0.951786  0.391213  0.500000  1
  Rh  Rh20  1  0.093737  0.874726  0.500000  1
