# generated using pymatgen
data_Er12AlFe4Pb
_symmetry_space_group_name_H-M   'P 1'
_cell_length_a   8.30539427
_cell_length_b   8.30539366
_cell_length_c   8.30539456
_cell_angle_alpha   106.81925444
_cell_angle_beta   110.29828286
_cell_angle_gamma   111.32999591
_symmetry_Int_Tables_number   1
_chemical_formula_structural   Er12AlFe4Pb
_chemical_formula_sum   'Er12 Al1 Fe4 Pb1'
_cell_volume   440.27858315
_cell_formula_units_Z   1
loop_
 _symmetry_equiv_pos_site_id
 _symmetry_equiv_pos_as_xyz
  1  'x, y, z'
loop_
 _atom_site_type_symbol
 _atom_site_label
 _atom_site_symmetry_multiplicity
 _atom_site_fract_x
 _atom_site_fract_y
 _atom_site_fract_z
 _atom_site_occupancy
  Er  Er0  1  0.711315  0.274121  0.985437  1
  Er  Er1  1  0.288685  0.725879  0.014563  1
  Er  Er2  1  0.711315  0.725879  0.437195  1
  Er  Er3  1  0.288685  0.274121  0.562805  1
  Er  Er4  1  0.800066  0.110264  0.310197  1
  Er  Er5  1  0.800066  0.489870  0.689803  1
  Er  Er6  1  0.199934  0.889736  0.689803  1
  Er  Er7  1  0.199934  0.510130  0.310197  1
  Er  Er8  1  0.599060  0.785046  0.814014  1
  Er  Er9  1  0.971032  0.785046  0.185986  1
  Er  Er10  1  0.028968  0.214954  0.814014  1
  Er  Er11  1  0.400940  0.214954  0.185986  1
  Al  Al12  1  0.500000  0.500000  0.000000  1
  Fe  Fe13  1  0.884904  0.500000  0.384904  1
  Fe  Fe14  1  0.115096  0.500000  0.615096  1
  Fe  Fe15  1  0.000000  0.108390  0.108390  1
  Fe  Fe16  1  0.000000  0.891610  0.891610  1
  Pb  Pb17  1  0.500000  0.000000  0.500000  1
