# generated using pymatgen
data_Yb3LuCu2Sn5
_symmetry_space_group_name_H-M   'P 1'
_cell_length_a   4.41355500
_cell_length_b   8.81560100
_cell_length_c   14.04188800
_cell_angle_alpha   90.00000000
_cell_angle_beta   90.00000000
_cell_angle_gamma   90.00000000
_symmetry_Int_Tables_number   1
_chemical_formula_structural   Yb3LuCu2Sn5
_chemical_formula_sum   'Yb6 Lu2 Cu4 Sn10'
_cell_volume   546.34374236
_cell_formula_units_Z   2
loop_
 _symmetry_equiv_pos_site_id
 _symmetry_equiv_pos_as_xyz
  1  'x, y, z'
loop_
 _atom_site_type_symbol
 _atom_site_label
 _atom_site_symmetry_multiplicity
 _atom_site_fract_x
 _atom_site_fract_y
 _atom_site_fract_z
 _atom_site_occupancy
  Yb  Yb0  1  0.500000  0.792845  0.742033  1
  Yb  Yb1  1  0.000000  0.207155  0.757967  1
  Yb  Yb2  1  0.000000  0.207155  0.242033  1
  Yb  Yb3  1  0.500000  0.135069  0.000000  1
  Yb  Yb4  1  0.000000  0.864931  0.500000  1
  Yb  Yb5  1  0.500000  0.792845  0.257967  1
  Lu  Lu6  1  0.500000  0.698922  0.000000  1
  Lu  Lu7  1  0.000000  0.301078  0.500000  1
  Cu  Cu8  1  0.500000  0.377616  0.642949  1
  Cu  Cu9  1  0.000000  0.622384  0.857051  1
  Cu  Cu10  1  0.000000  0.622384  0.142949  1
  Cu  Cu11  1  0.500000  0.377616  0.357051  1
  Sn  Sn12  1  0.500000  0.086286  0.395909  1
  Sn  Sn13  1  0.000000  0.555173  0.663356  1
  Sn  Sn14  1  0.000000  0.406777  0.000000  1
  Sn  Sn15  1  0.500000  0.444827  0.163356  1
  Sn  Sn16  1  0.500000  0.593223  0.500000  1
  Sn  Sn17  1  0.500000  0.444827  0.836644  1
  Sn  Sn18  1  0.000000  0.913714  0.895909  1
  Sn  Sn19  1  0.000000  0.555173  0.336644  1
  Sn  Sn20  1  0.500000  0.086286  0.604091  1
  Sn  Sn21  1  0.000000  0.913714  0.104091  1
