# generated using pymatgen
data_SmThNi2Hg
_symmetry_space_group_name_H-M   'P 1'
_cell_length_a   7.59425800
_cell_length_b   7.56462400
_cell_length_c   3.70491900
_cell_angle_alpha   90.00000000
_cell_angle_beta   90.00000000
_cell_angle_gamma   90.00000000
_symmetry_Int_Tables_number   1
_chemical_formula_structural   SmThNi2Hg
_chemical_formula_sum   'Sm2 Th2 Ni4 Hg2'
_cell_volume   212.83909868
_cell_formula_units_Z   2
loop_
 _symmetry_equiv_pos_site_id
 _symmetry_equiv_pos_as_xyz
  1  'x, y, z'
loop_
 _atom_site_type_symbol
 _atom_site_label
 _atom_site_symmetry_multiplicity
 _atom_site_fract_x
 _atom_site_fract_y
 _atom_site_fract_z
 _atom_site_occupancy
  Sm  Sm0  1  0.175482  0.325609  0.500000  1
  Sm  Sm1  1  0.675482  0.174391  0.500000  1
  Th  Th2  1  0.324226  0.827653  0.500000  1
  Th  Th3  1  0.824226  0.672347  0.500000  1
  Ni  Ni4  1  0.381413  0.105096  0.000000  1
  Ni  Ni5  1  0.881413  0.394904  0.000000  1
  Ni  Ni6  1  0.120830  0.633256  0.000000  1
  Ni  Ni7  1  0.620830  0.866744  0.000000  1
  Hg  Hg8  1  0.998049  0.009626  0.000000  1
  Hg  Hg9  1  0.498049  0.490374  0.000000  1
