# generated using pymatgen
data_Ta3Cr2Si2TcGe
_symmetry_space_group_name_H-M   'P 1'
_cell_length_a   6.74446593
_cell_length_b   6.78418466
_cell_length_c   3.31628300
_cell_angle_alpha   90.00000000
_cell_angle_beta   90.00000000
_cell_angle_gamma   120.20764015
_symmetry_Int_Tables_number   1
_chemical_formula_structural   Ta3Cr2Si2TcGe
_chemical_formula_sum   'Ta3 Cr2 Si2 Tc1 Ge1'
_cell_volume   131.13389200
_cell_formula_units_Z   1
loop_
 _symmetry_equiv_pos_site_id
 _symmetry_equiv_pos_as_xyz
  1  'x, y, z'
loop_
 _atom_site_type_symbol
 _atom_site_label
 _atom_site_symmetry_multiplicity
 _atom_site_fract_x
 _atom_site_fract_y
 _atom_site_fract_z
 _atom_site_occupancy
  Ta  Ta0  1  0.403001  0.407670  0.500000  1
  Ta  Ta1  1  0.590842  0.988306  0.500000  1
  Ta  Ta2  1  0.008613  0.611889  0.500000  1
  Cr  Cr3  1  0.742133  0.748061  0.000000  1
  Cr  Cr4  1  0.251454  0.994086  0.000000  1
  Si  Si5  1  0.334416  0.668448  0.000000  1
  Si  Si6  1  0.000004  0.993177  0.500000  1
  Tc  Tc7  1  0.004409  0.254264  0.000000  1
  Ge  Ge8  1  0.665129  0.334100  0.000000  1
