# generated using pymatgen
data_EuErCo12SiP6
_symmetry_space_group_name_H-M   'P 1'
_cell_length_a   9.07317600
_cell_length_b   9.07317644
_cell_length_c   3.60725800
_cell_angle_alpha   90.00000000
_cell_angle_beta   90.00000000
_cell_angle_gamma   119.99999109
_symmetry_Int_Tables_number   1
_chemical_formula_structural   EuErCo12SiP6
_chemical_formula_sum   'Eu1 Er1 Co12 Si1 P6'
_cell_volume   257.17370872
_cell_formula_units_Z   1
loop_
 _symmetry_equiv_pos_site_id
 _symmetry_equiv_pos_as_xyz
  1  'x, y, z'
loop_
 _atom_site_type_symbol
 _atom_site_label
 _atom_site_symmetry_multiplicity
 _atom_site_fract_x
 _atom_site_fract_y
 _atom_site_fract_z
 _atom_site_occupancy
  Eu  Eu0  1  0.666667  0.333333  0.500000  1
  Er  Er1  1  0.333333  0.666667  0.000000  1
  Co  Co2  1  0.122140  0.841381  0.000000  1
  Co  Co3  1  0.383512  0.436937  0.500000  1
  Co  Co4  1  0.719240  0.877860  0.000000  1
  Co  Co5  1  0.563063  0.946575  0.500000  1
  Co  Co6  1  0.228859  0.099760  0.500000  1
  Co  Co7  1  0.870900  0.771141  0.500000  1
  Co  Co8  1  0.900240  0.129100  0.500000  1
  Co  Co9  1  0.944742  0.376163  0.000000  1
  Co  Co10  1  0.623837  0.568579  0.000000  1
  Co  Co11  1  0.431421  0.055258  0.000000  1
  Co  Co12  1  0.053425  0.616488  0.500000  1
  Co  Co13  1  0.158619  0.280760  0.000000  1
  Si  Si14  1  0.000000  0.000000  0.000000  1
  P  P15  1  0.598092  0.709626  0.500000  1
  P  P16  1  0.706915  0.110996  0.000000  1
  P  P17  1  0.889004  0.595919  0.000000  1
  P  P18  1  0.404081  0.293085  0.000000  1
  P  P19  1  0.290374  0.888466  0.500000  1
  P  P20  1  0.111534  0.401908  0.500000  1
