# generated using pymatgen
data_Zr8Co7Ni5As12
_symmetry_space_group_name_H-M   'P 1'
_cell_length_a   3.76977100
_cell_length_b   10.40349399
_cell_length_c   12.65022948
_cell_angle_alpha   89.92866111
_cell_angle_beta   90.00000000
_cell_angle_gamma   90.00000000
_symmetry_Int_Tables_number   1
_chemical_formula_structural   Zr8Co7Ni5As12
_chemical_formula_sum   'Zr8 Co7 Ni5 As12'
_cell_volume   496.12630826
_cell_formula_units_Z   1
loop_
 _symmetry_equiv_pos_site_id
 _symmetry_equiv_pos_as_xyz
  1  'x, y, z'
loop_
 _atom_site_type_symbol
 _atom_site_label
 _atom_site_symmetry_multiplicity
 _atom_site_fract_x
 _atom_site_fract_y
 _atom_site_fract_z
 _atom_site_occupancy
  Zr  Zr0  1  0.250000  0.335109  0.994578  1
  Zr  Zr1  1  0.250000  0.165486  0.494524  1
  Zr  Zr2  1  0.750000  0.665900  0.004986  1
  Zr  Zr3  1  0.750000  0.834925  0.505129  1
  Zr  Zr4  1  0.250000  0.422906  0.706770  1
  Zr  Zr5  1  0.250000  0.074064  0.207861  1
  Zr  Zr6  1  0.750000  0.573459  0.292016  1
  Zr  Zr7  1  0.750000  0.929586  0.792869  1
  Co  Co8  1  0.250000  0.907100  0.986256  1
  Co  Co9  1  0.250000  0.594868  0.484173  1
  Co  Co10  1  0.750000  0.094925  0.016157  1
  Co  Co11  1  0.750000  0.405211  0.515148  1
  Co  Co12  1  0.250000  0.140197  0.718791  1
  Co  Co13  1  0.250000  0.358759  0.218245  1
  Co  Co14  1  0.750000  0.859079  0.281655  1
  Ni  Ni15  1  0.750000  0.639983  0.779989  1
  Ni  Ni16  1  0.250000  0.770270  0.164875  1
  Ni  Ni17  1  0.250000  0.727701  0.665654  1
  Ni  Ni18  1  0.750000  0.227973  0.835136  1
  Ni  Ni19  1  0.750000  0.271204  0.335321  1
  As  As20  1  0.250000  0.100867  0.899400  1
  As  As21  1  0.250000  0.399918  0.398430  1
  As  As22  1  0.750000  0.900365  0.102085  1
  As  As23  1  0.750000  0.599702  0.598999  1
  As  As24  1  0.250000  0.740901  0.857905  1
  As  As25  1  0.250000  0.763381  0.355909  1
  As  As26  1  0.750000  0.263342  0.143912  1
  As  As27  1  0.750000  0.235293  0.643066  1
  As  As28  1  0.250000  0.548988  0.127220  1
  As  As29  1  0.250000  0.950095  0.627252  1
  As  As30  1  0.750000  0.449306  0.872809  1
  As  As31  1  0.750000  0.049138  0.372878  1
