# generated using pymatgen
data_Dy6Y5TmCo5Sn
_symmetry_space_group_name_H-M   'P 1'
_cell_length_a   8.27391851
_cell_length_b   8.28676867
_cell_length_c   8.27391900
_cell_angle_alpha   106.99210745
_cell_angle_beta   110.60959818
_cell_angle_gamma   110.77853518
_symmetry_Int_Tables_number   1
_chemical_formula_structural   Dy6Y5TmCo5Sn
_chemical_formula_sum   'Dy6 Y5 Tm1 Co5 Sn1'
_cell_volume   436.43053599
_cell_formula_units_Z   1
loop_
 _symmetry_equiv_pos_site_id
 _symmetry_equiv_pos_as_xyz
  1  'x, y, z'
loop_
 _atom_site_type_symbol
 _atom_site_label
 _atom_site_symmetry_multiplicity
 _atom_site_fract_x
 _atom_site_fract_y
 _atom_site_fract_z
 _atom_site_occupancy
  Dy  Dy0  1  0.693350  0.380255  0.686906  1
  Dy  Dy1  1  0.693181  0.006544  0.313363  1
  Dy  Dy2  1  0.192484  0.206629  0.400780  1
  Dy  Dy3  1  0.808235  0.793162  0.600380  1
  Dy  Dy4  1  0.192782  0.793162  0.984926  1
  Dy  Dy5  1  0.805850  0.206629  0.014146  1
  Y  Y6  1  0.479409  0.291903  0.186269  1
  Y  Y7  1  0.105634  0.291903  0.812493  1
  Y  Y8  1  0.894750  0.708014  0.187957  1
  Y  Y9  1  0.520058  0.708014  0.813264  1
  Y  Y10  1  0.304764  0.618596  0.313832  1
  Tm  Tm11  1  0.307475  0.993612  0.686135  1
  Co  Co12  1  0.500848  0.611790  0.110942  1
  Co  Co13  1  0.499401  0.385841  0.886441  1
  Co  Co14  1  0.378768  0.001390  0.379155  1
  Co  Co15  1  0.622235  0.001390  0.622622  1
  Co  Co16  1  0.000326  0.000467  0.000141  1
  Sn  Sn17  1  0.000448  0.500697  0.500249  1
