# generated using pymatgen
data_Y2Re3Si4Mo3Os2
_symmetry_space_group_name_H-M   'P 1'
_cell_length_a   7.81587998
_cell_length_b   7.06388298
_cell_length_c   4.17877000
_cell_angle_alpha   90.00000000
_cell_angle_beta   90.00000000
_cell_angle_gamma   90.08368360
_symmetry_Int_Tables_number   1
_chemical_formula_structural   Y2Re3Si4Mo3Os2
_chemical_formula_sum   'Y2 Re3 Si4 Mo3 Os2'
_cell_volume   230.71157439
_cell_formula_units_Z   1
loop_
 _symmetry_equiv_pos_site_id
 _symmetry_equiv_pos_as_xyz
  1  'x, y, z'
loop_
 _atom_site_type_symbol
 _atom_site_label
 _atom_site_symmetry_multiplicity
 _atom_site_fract_x
 _atom_site_fract_y
 _atom_site_fract_z
 _atom_site_occupancy
  Y  Y0  1  0.500511  0.500581  0.000000  1
  Y  Y1  1  0.998970  0.998855  0.500000  1
  Re  Re2  1  0.607323  0.155854  0.500000  1
  Re  Re3  1  0.342319  0.079493  0.000000  1
  Re  Re4  1  0.835218  0.420269  0.500000  1
  Si  Si5  1  0.190588  0.771927  0.000000  1
  Si  Si6  1  0.807092  0.223632  0.000000  1
  Si  Si7  1  0.691119  0.728888  0.500000  1
  Si  Si8  1  0.309213  0.274000  0.500000  1
  Mo  Mo9  1  0.107984  0.346832  0.000000  1
  Mo  Mo10  1  0.891185  0.650216  0.000000  1
  Mo  Mo11  1  0.392433  0.849819  0.500000  1
  Os  Os12  1  0.662508  0.919870  0.000000  1
  Os  Os13  1  0.163536  0.579764  0.500000  1
