# generated using pymatgen
data_NdYHo2(Ir2O7)2
_symmetry_space_group_name_H-M   'P 1'
_cell_length_a   7.30025353
_cell_length_b   7.30049533
_cell_length_c   7.30049435
_cell_angle_alpha   59.56540635
_cell_angle_beta   59.57348889
_cell_angle_gamma   59.57348875
_symmetry_Int_Tables_number   1
_chemical_formula_structural   NdYHo2(Ir2O7)2
_chemical_formula_sum   'Nd1 Y1 Ho2 Ir4 O14'
_cell_volume   272.43900339
_cell_formula_units_Z   1
loop_
 _symmetry_equiv_pos_site_id
 _symmetry_equiv_pos_as_xyz
  1  'x, y, z'
loop_
 _atom_site_type_symbol
 _atom_site_label
 _atom_site_symmetry_multiplicity
 _atom_site_fract_x
 _atom_site_fract_y
 _atom_site_fract_z
 _atom_site_occupancy
  Nd  Nd0  1  0.125000  0.125000  0.125000  1
  Y  Y1  1  0.625000  0.125000  0.125000  1
  Ho  Ho2  1  0.125000  0.625000  0.125000  1
  Ho  Ho3  1  0.125000  0.125000  0.625000  1
  Ir  Ir4  1  0.125000  0.625000  0.625000  1
  Ir  Ir5  1  0.625000  0.125000  0.625000  1
  Ir  Ir6  1  0.625000  0.625000  0.125000  1
  Ir  Ir7  1  0.625000  0.625000  0.625000  1
  O  O8  1  0.712336  0.710597  0.289043  1
  O  O9  1  0.288507  0.288583  0.703020  1
  O  O10  1  0.712336  0.289043  0.710597  1
  O  O11  1  0.288507  0.703020  0.288583  1
  O  O12  1  0.288674  0.711814  0.711814  1
  O  O13  1  0.703500  0.288950  0.288950  1
  O  O14  1  0.537664  0.539403  0.960957  1
  O  O15  1  0.961493  0.961417  0.546980  1
  O  O16  1  0.537664  0.960957  0.539403  1
  O  O17  1  0.961493  0.546980  0.961417  1
  O  O18  1  0.961326  0.538186  0.538186  1
  O  O19  1  0.546500  0.961050  0.961050  1
  O  O20  1  0.251879  0.254335  0.254335  1
  O  O21  1  0.998121  0.995665  0.995665  1
