# generated using pymatgen
data_Hf4B8MoRu9
_symmetry_space_group_name_H-M   'P 1'
_cell_length_a   3.04569800
_cell_length_b   8.74416266
_cell_length_c   9.95924524
_cell_angle_alpha   89.55855558
_cell_angle_beta   90.00000000
_cell_angle_gamma   90.00000000
_symmetry_Int_Tables_number   1
_chemical_formula_structural   Hf4B8MoRu9
_chemical_formula_sum   'Hf4 B8 Mo1 Ru9'
_cell_volume   265.22753104
_cell_formula_units_Z   1
loop_
 _symmetry_equiv_pos_site_id
 _symmetry_equiv_pos_as_xyz
  1  'x, y, z'
loop_
 _atom_site_type_symbol
 _atom_site_label
 _atom_site_symmetry_multiplicity
 _atom_site_fract_x
 _atom_site_fract_y
 _atom_site_fract_z
 _atom_site_occupancy
  Hf  Hf0  1  0.500000  0.836112  0.181405  1
  Hf  Hf1  1  0.500000  0.162045  0.816737  1
  Hf  Hf2  1  0.500000  0.664212  0.681454  1
  Hf  Hf3  1  0.500000  0.335225  0.321571  1
  B  B4  1  0.500000  0.966293  0.582351  1
  B  B5  1  0.500000  0.032228  0.415174  1
  B  B6  1  0.500000  0.853601  0.898282  1
  B  B7  1  0.500000  0.149025  0.099898  1
  B  B8  1  0.500000  0.642175  0.398902  1
  B  B9  1  0.500000  0.353921  0.603002  1
  B  B10  1  0.500000  0.470498  0.913368  1
  B  B11  1  0.500000  0.536975  0.086476  1
  Mo  Mo12  1  0.000000  0.662475  0.951674  1
  Ru  Ru13  1  0.000000  0.334700  0.051228  1
  Ru  Ru14  1  0.000000  0.822114  0.445145  1
  Ru  Ru15  1  0.000000  0.177400  0.552601  1
  Ru  Ru16  1  0.000000  0.002411  0.999794  1
  Ru  Ru17  1  0.000000  0.409982  0.763519  1
  Ru  Ru18  1  0.000000  0.587138  0.238464  1
  Ru  Ru19  1  0.000000  0.499641  0.501781  1
  Ru  Ru20  1  0.000000  0.912957  0.732771  1
  Ru  Ru21  1  0.000000  0.088868  0.264403  1
