# generated using pymatgen
data_Ta3Ti4Co8Si14Mo
_symmetry_space_group_name_H-M   'P 1'
_cell_length_a   9.15336864
_cell_length_b   9.15336462
_cell_length_c   9.16681747
_cell_angle_alpha   94.19936803
_cell_angle_beta   94.19982672
_cell_angle_gamma   148.57580518
_symmetry_Int_Tables_number   1
_chemical_formula_structural   Ta3Ti4Co8Si14Mo
_chemical_formula_sum   'Ta3 Ti4 Co8 Si14 Mo1'
_cell_volume   385.51054841
_cell_formula_units_Z   1
loop_
 _symmetry_equiv_pos_site_id
 _symmetry_equiv_pos_as_xyz
  1  'x, y, z'
loop_
 _atom_site_type_symbol
 _atom_site_label
 _atom_site_symmetry_multiplicity
 _atom_site_fract_x
 _atom_site_fract_y
 _atom_site_fract_z
 _atom_site_occupancy
  Ta  Ta0  1  0.867526  0.867547  0.735060  1
  Ta  Ta1  1  0.865275  0.132799  0.998091  1
  Ta  Ta2  1  0.132813  0.865299  0.998084  1
  Ti  Ti3  1  0.500144  0.691575  0.191699  1
  Ti  Ti4  1  0.500191  0.309446  0.809655  1
  Ti  Ti5  1  0.309432  0.500204  0.809624  1
  Ti  Ti6  1  0.691536  0.500130  0.191674  1
  Co  Co7  1  0.399451  0.899430  0.798901  1
  Co  Co8  1  0.100865  0.600846  0.201691  1
  Co  Co9  1  0.100547  0.900066  0.499856  1
  Co  Co10  1  0.399298  0.599806  0.499849  1
  Co  Co11  1  0.599783  0.399290  0.499855  1
  Co  Co12  1  0.900053  0.100539  0.499842  1
  Co  Co13  1  0.899461  0.399438  0.798904  1
  Co  Co14  1  0.600857  0.100832  0.201675  1
  Si  Si15  1  0.293793  0.293897  0.587597  1
  Si  Si16  1  0.705577  0.705673  0.411362  1
  Si  Si17  1  0.705973  0.294303  0.000249  1
  Si  Si18  1  0.294287  0.705937  0.000247  1
  Si  Si19  1  0.001628  0.294349  0.295920  1
  Si  Si20  1  0.999592  0.702644  0.702248  1
  Si  Si21  1  0.702611  0.999526  0.702167  1
  Si  Si22  1  0.294284  0.001537  0.295828  1
  Si  Si23  1  0.500030  0.905524  0.405571  1
  Si  Si24  1  0.499996  0.094373  0.594403  1
  Si  Si25  1  0.094444  0.499967  0.594394  1
  Si  Si26  1  0.905586  0.499996  0.405567  1
  Si  Si27  1  0.749877  0.749894  0.002957  1
  Si  Si28  1  0.253062  0.253085  0.002955  1
  Mo  Mo29  1  0.132029  0.132048  0.264074  1
