# generated using pymatgen
data_CsZn2Au3
_symmetry_space_group_name_H-M   'P 1'
_cell_length_a   5.74076900
_cell_length_b   7.15985400
_cell_length_c   13.79087100
_cell_angle_alpha   90.00000000
_cell_angle_beta   90.00000000
_cell_angle_gamma   90.00000000
_symmetry_Int_Tables_number   1
_chemical_formula_structural   CsZn2Au3
_chemical_formula_sum   'Cs4 Zn8 Au12'
_cell_volume   566.84710694
_cell_formula_units_Z   4
loop_
 _symmetry_equiv_pos_site_id
 _symmetry_equiv_pos_as_xyz
  1  'x, y, z'
loop_
 _atom_site_type_symbol
 _atom_site_label
 _atom_site_symmetry_multiplicity
 _atom_site_fract_x
 _atom_site_fract_y
 _atom_site_fract_z
 _atom_site_occupancy
  Cs  Cs0  1  0.250000  0.094096  0.073993  1
  Cs  Cs1  1  0.250000  0.405904  0.573993  1
  Cs  Cs2  1  0.750000  0.905904  0.926007  1
  Cs  Cs3  1  0.750000  0.594096  0.426007  1
  Zn  Zn4  1  0.001800  0.906926  0.652618  1
  Zn  Zn5  1  0.498200  0.593074  0.152618  1
  Zn  Zn6  1  0.501800  0.093074  0.347382  1
  Zn  Zn7  1  0.998200  0.406926  0.847382  1
  Zn  Zn8  1  0.998200  0.093074  0.347382  1
  Zn  Zn9  1  0.501800  0.406926  0.847382  1
  Zn  Zn10  1  0.498200  0.906926  0.652618  1
  Zn  Zn11  1  0.001800  0.593074  0.152618  1
  Au  Au12  1  0.250000  0.119460  0.783455  1
  Au  Au13  1  0.250000  0.380540  0.283455  1
  Au  Au14  1  0.750000  0.880540  0.216545  1
  Au  Au15  1  0.750000  0.619460  0.716545  1
  Au  Au16  1  0.250000  0.712557  0.787685  1
  Au  Au17  1  0.250000  0.787443  0.287685  1
  Au  Au18  1  0.750000  0.287443  0.212315  1
  Au  Au19  1  0.750000  0.212557  0.712315  1
  Au  Au20  1  0.250000  0.570037  0.990223  1
  Au  Au21  1  0.250000  0.929963  0.490223  1
  Au  Au22  1  0.750000  0.429963  0.009777  1
  Au  Au23  1  0.750000  0.070037  0.509777  1
