# generated using pymatgen
data_Rb4Sr2HfP4
_symmetry_space_group_name_H-M   'P 1'
_cell_length_a   10.53088303
_cell_length_b   10.53088268
_cell_length_c   7.73201207
_cell_angle_alpha   87.82192449
_cell_angle_beta   87.82192126
_cell_angle_gamma   119.40133525
_symmetry_Int_Tables_number   1
_chemical_formula_structural   Rb4Sr2HfP4
_chemical_formula_sum   'Rb8 Sr4 Hf2 P8'
_cell_volume   744.91271925
_cell_formula_units_Z   2
loop_
 _symmetry_equiv_pos_site_id
 _symmetry_equiv_pos_as_xyz
  1  'x, y, z'
loop_
 _atom_site_type_symbol
 _atom_site_label
 _atom_site_symmetry_multiplicity
 _atom_site_fract_x
 _atom_site_fract_y
 _atom_site_fract_z
 _atom_site_occupancy
  Rb  Rb0  1  0.475771  0.942836  0.387536  1
  Rb  Rb1  1  0.942836  0.475771  0.887536  1
  Rb  Rb2  1  0.866513  0.720514  0.163858  1
  Rb  Rb3  1  0.265155  0.126328  0.231949  1
  Rb  Rb4  1  0.856606  0.140234  0.190898  1
  Rb  Rb5  1  0.126328  0.265155  0.731949  1
  Rb  Rb6  1  0.720514  0.866513  0.663858  1
  Rb  Rb7  1  0.140234  0.856606  0.690898  1
  Sr  Sr8  1  0.076903  0.533427  0.394520  1
  Sr  Sr9  1  0.473022  0.531048  0.377585  1
  Sr  Sr10  1  0.533427  0.076903  0.894520  1
  Sr  Sr11  1  0.531048  0.473022  0.877585  1
  Hf  Hf12  1  0.664161  0.336920  0.490286  1
  Hf  Hf13  1  0.336920  0.664161  0.990286  1
  P  P14  1  0.636158  0.327981  0.162973  1
  P  P15  1  0.327981  0.636158  0.662973  1
  P  P16  1  0.215450  0.410228  0.138821  1
  P  P17  1  0.597078  0.789026  0.076541  1
  P  P18  1  0.213901  0.800860  0.099065  1
  P  P19  1  0.789026  0.597078  0.576541  1
  P  P20  1  0.410228  0.215450  0.638821  1
  P  P21  1  0.800860  0.213901  0.599065  1
