# generated using pymatgen
data_Li6Al5SiPd12
_symmetry_space_group_name_H-M   'P 1'
_cell_length_a   4.21985100
_cell_length_b   6.13185600
_cell_length_c   12.67264100
_cell_angle_alpha   90.00000000
_cell_angle_beta   89.99947981
_cell_angle_gamma   90.00000000
_symmetry_Int_Tables_number   1
_chemical_formula_structural   Li6Al5SiPd12
_chemical_formula_sum   'Li6 Al5 Si1 Pd12'
_cell_volume   327.91115883
_cell_formula_units_Z   1
loop_
 _symmetry_equiv_pos_site_id
 _symmetry_equiv_pos_as_xyz
  1  'x, y, z'
loop_
 _atom_site_type_symbol
 _atom_site_label
 _atom_site_symmetry_multiplicity
 _atom_site_fract_x
 _atom_site_fract_y
 _atom_site_fract_z
 _atom_site_occupancy
  Li  Li0  1  0.000002  0.500000  0.000632  1
  Li  Li1  1  0.500027  0.000000  0.165498  1
  Li  Li2  1  0.000013  0.500000  0.333337  1
  Li  Li3  1  0.500000  0.000000  0.501160  1
  Li  Li4  1  0.999985  0.500000  0.666038  1
  Li  Li5  1  0.499977  0.000000  0.833341  1
  Al  Al6  1  0.999999  0.000000  0.999907  1
  Al  Al7  1  0.500022  0.500000  0.166357  1
  Al  Al8  1  0.999998  0.000000  0.333331  1
  Al  Al9  1  0.500000  0.500000  0.500310  1
  Al  Al10  1  0.999992  0.000000  0.666760  1
  Si  Si11  1  0.499983  0.500000  0.833334  1
  Pd  Pd12  1  0.499999  0.254165  0.996546  1
  Pd  Pd13  1  0.499999  0.745835  0.996546  1
  Pd  Pd14  1  0.000016  0.249721  0.166004  1
  Pd  Pd15  1  0.000016  0.750279  0.166004  1
  Pd  Pd16  1  0.500019  0.249667  0.333331  1
  Pd  Pd17  1  0.500019  0.750333  0.333331  1
  Pd  Pd18  1  0.999998  0.249717  0.500662  1
  Pd  Pd19  1  0.999998  0.750283  0.500662  1
  Pd  Pd20  1  0.499981  0.254162  0.670120  1
  Pd  Pd21  1  0.499981  0.745838  0.670120  1
  Pd  Pd22  1  0.999988  0.256135  0.833334  1
  Pd  Pd23  1  0.999988  0.743865  0.833334  1
