# generated using pymatgen
data_Nd2Ga3PRh6
_symmetry_space_group_name_H-M   'P 1'
_cell_length_a   6.76957485
_cell_length_b   6.79870464
_cell_length_c   6.76957400
_cell_angle_alpha   130.51169445
_cell_angle_beta   113.16939082
_cell_angle_gamma   87.38336051
_symmetry_Int_Tables_number   1
_chemical_formula_structural   Nd2Ga3PRh6
_chemical_formula_sum   'Nd2 Ga3 P1 Rh6'
_cell_volume   207.71481438
_cell_formula_units_Z   1
loop_
 _symmetry_equiv_pos_site_id
 _symmetry_equiv_pos_as_xyz
  1  'x, y, z'
loop_
 _atom_site_type_symbol
 _atom_site_label
 _atom_site_symmetry_multiplicity
 _atom_site_fract_x
 _atom_site_fract_y
 _atom_site_fract_z
 _atom_site_occupancy
  Nd  Nd0  1  0.750912  0.024593  0.273682  1
  Nd  Nd1  1  0.246196  0.958745  0.712548  1
  Ga  Ga2  1  0.558739  0.345369  0.786630  1
  Ga  Ga3  1  0.410974  0.629623  0.218648  1
  Ga  Ga4  1  0.111255  0.330605  0.219351  1
  P  P5  1  0.923365  0.701711  0.778345  1
  Rh  Rh6  1  0.211329  0.500014  0.715895  1
  Rh  Rh7  1  0.750279  0.996188  0.746643  1
  Rh  Rh8  1  0.784119  0.500014  0.288685  1
  Rh  Rh9  1  0.249545  0.996188  0.245909  1
  Rh  Rh10  1  0.534613  0.508474  0.539801  1
  Rh  Rh11  1  0.968673  0.508474  0.973861  1
