# generated using pymatgen
data_DyNp3Al12Ag
_symmetry_space_group_name_H-M   'P 1'
_cell_length_a   7.48303076
_cell_length_b   7.48303002
_cell_length_c   7.53691500
_cell_angle_alpha   109.61715714
_cell_angle_beta   109.61715511
_cell_angle_gamma   109.32489856
_symmetry_Int_Tables_number   1
_chemical_formula_structural   DyNp3Al12Ag
_chemical_formula_sum   'Dy1 Np3 Al12 Ag1'
_cell_volume   324.29582300
_cell_formula_units_Z   1
loop_
 _symmetry_equiv_pos_site_id
 _symmetry_equiv_pos_as_xyz
  1  'x, y, z'
loop_
 _atom_site_type_symbol
 _atom_site_label
 _atom_site_symmetry_multiplicity
 _atom_site_fract_x
 _atom_site_fract_y
 _atom_site_fract_z
 _atom_site_occupancy
  Dy  Dy0  1  0.000000  0.000000  0.500000  1
  Np  Np1  1  0.500000  0.500000  0.500000  1
  Np  Np2  1  0.000000  0.500000  0.000000  1
  Np  Np3  1  0.500000  0.000000  0.000000  1
  Al  Al4  1  0.497955  0.748978  0.248978  1
  Al  Al5  1  0.502045  0.251022  0.751022  1
  Al  Al6  1  0.251022  0.502045  0.751022  1
  Al  Al7  1  0.748978  0.497955  0.248978  1
  Al  Al8  1  0.748978  0.251022  0.500000  1
  Al  Al9  1  0.251022  0.748978  0.500000  1
  Al  Al10  1  0.000000  0.301572  0.297590  1
  Al  Al11  1  0.000000  0.698428  0.702410  1
  Al  Al12  1  0.301572  0.000000  0.297590  1
  Al  Al13  1  0.698428  0.000000  0.702410  1
  Al  Al14  1  0.301572  0.301572  0.003980  1
  Al  Al15  1  0.698428  0.698428  0.996020  1
  Ag  Ag16  1  0.000000  0.000000  0.000000  1
