# generated using pymatgen
data_TbSmDyRh9
_symmetry_space_group_name_H-M   'P 1'
_cell_length_a   5.29208803
_cell_length_b   5.29351738
_cell_length_c   17.56294500
_cell_angle_alpha   89.99984653
_cell_angle_beta   90.00021266
_cell_angle_gamma   120.05178303
_symmetry_Int_Tables_number   1
_chemical_formula_structural   TbSmDyRh9
_chemical_formula_sum   'Tb2 Sm2 Dy2 Rh18'
_cell_volume   425.86556518
_cell_formula_units_Z   2
loop_
 _symmetry_equiv_pos_site_id
 _symmetry_equiv_pos_as_xyz
  1  'x, y, z'
loop_
 _atom_site_type_symbol
 _atom_site_label
 _atom_site_symmetry_multiplicity
 _atom_site_fract_x
 _atom_site_fract_y
 _atom_site_fract_z
 _atom_site_occupancy
  Tb  Tb0  1  0.333327  0.666667  0.957848  1
  Tb  Tb1  1  0.666673  0.333333  0.042152  1
  Sm  Sm2  1  0.333336  0.666666  0.749985  1
  Sm  Sm3  1  0.666664  0.333334  0.250015  1
  Dy  Dy4  1  0.666672  0.333333  0.457844  1
  Dy  Dy5  1  0.333328  0.666667  0.542156  1
  Rh  Rh6  1  0.167357  0.832640  0.374338  1
  Rh  Rh7  1  0.167351  0.334715  0.374351  1
  Rh  Rh8  1  0.665286  0.832648  0.374359  1
  Rh  Rh9  1  0.832643  0.167360  0.625662  1
  Rh  Rh10  1  0.832649  0.665285  0.625649  1
  Rh  Rh11  1  0.334714  0.167352  0.625641  1
  Rh  Rh12  1  0.832668  0.167334  0.874312  1
  Rh  Rh13  1  0.832674  0.665336  0.874325  1
  Rh  Rh14  1  0.334664  0.167327  0.874333  1
  Rh  Rh15  1  0.167332  0.832666  0.125688  1
  Rh  Rh16  1  0.167326  0.334664  0.125675  1
  Rh  Rh17  1  0.665336  0.832673  0.125667  1
  Rh  Rh18  1  0.333359  0.666666  0.250004  1
  Rh  Rh19  1  0.666641  0.333334  0.749996  1
  Rh  Rh20  1  0.000020  0.999988  0.250016  1
  Rh  Rh21  1  0.999980  0.000012  0.749984  1
  Rh  Rh22  1  0.000000  0.000000  0.500000  1
  Rh  Rh23  1  0.000000  0.000000  0.000000  1
