# generated using pymatgen
data_Y4Tm(SiHg)2
_symmetry_space_group_name_H-M   'P 1'
_cell_length_a   8.79083060
_cell_length_b   8.79083101
_cell_length_c   7.53865400
_cell_angle_alpha   90.00000000
_cell_angle_beta   90.00000000
_cell_angle_gamma   129.34236448
_symmetry_Int_Tables_number   1
_chemical_formula_structural   Y4Tm(SiHg)2
_chemical_formula_sum   'Y8 Tm2 Si4 Hg4'
_cell_volume   450.54888211
_cell_formula_units_Z   2
loop_
 _symmetry_equiv_pos_site_id
 _symmetry_equiv_pos_as_xyz
  1  'x, y, z'
loop_
 _atom_site_type_symbol
 _atom_site_label
 _atom_site_symmetry_multiplicity
 _atom_site_fract_x
 _atom_site_fract_y
 _atom_site_fract_z
 _atom_site_occupancy
  Y  Y0  1  0.055347  0.310066  0.324246  1
  Y  Y1  1  0.944653  0.689934  0.675754  1
  Y  Y2  1  0.444653  0.189934  0.824246  1
  Y  Y3  1  0.810066  0.555347  0.175754  1
  Y  Y4  1  0.555347  0.810066  0.175754  1
  Y  Y5  1  0.189934  0.444653  0.824246  1
  Y  Y6  1  0.689934  0.944653  0.675754  1
  Y  Y7  1  0.310066  0.055347  0.324246  1
  Tm  Tm8  1  0.000000  0.000000  0.000000  1
  Tm  Tm9  1  0.500000  0.500000  0.500000  1
  Si  Si10  1  0.380864  0.380864  0.122541  1
  Si  Si11  1  0.619136  0.619136  0.877459  1
  Si  Si12  1  0.119136  0.119136  0.622541  1
  Si  Si13  1  0.880864  0.880864  0.377459  1
  Hg  Hg14  1  0.781932  0.218068  0.000000  1
  Hg  Hg15  1  0.218068  0.781932  0.000000  1
  Hg  Hg16  1  0.718068  0.281932  0.500000  1
  Hg  Hg17  1  0.281932  0.718068  0.500000  1
