# generated using pymatgen
data_Er6CuSi4Ni
_symmetry_space_group_name_H-M   'P 1'
_cell_length_a   4.12015200
_cell_length_b   11.15563400
_cell_length_c   11.16022400
_cell_angle_alpha   90.00000000
_cell_angle_beta   90.00000000
_cell_angle_gamma   90.00000000
_symmetry_Int_Tables_number   1
_chemical_formula_structural   Er6CuSi4Ni
_chemical_formula_sum   'Er12 Cu2 Si8 Ni2'
_cell_volume   512.95634603
_cell_formula_units_Z   2
loop_
 _symmetry_equiv_pos_site_id
 _symmetry_equiv_pos_as_xyz
  1  'x, y, z'
loop_
 _atom_site_type_symbol
 _atom_site_label
 _atom_site_symmetry_multiplicity
 _atom_site_fract_x
 _atom_site_fract_y
 _atom_site_fract_z
 _atom_site_occupancy
  Er  Er0  1  0.250000  0.059516  0.877358  1
  Er  Er1  1  0.250000  0.440484  0.377358  1
  Er  Er2  1  0.750000  0.936952  0.116799  1
  Er  Er3  1  0.750000  0.563048  0.616799  1
  Er  Er4  1  0.250000  0.118351  0.558161  1
  Er  Er5  1  0.250000  0.381649  0.058161  1
  Er  Er6  1  0.750000  0.873387  0.440340  1
  Er  Er7  1  0.750000  0.626613  0.940340  1
  Er  Er8  1  0.250000  0.803433  0.714208  1
  Er  Er9  1  0.250000  0.696567  0.214208  1
  Er  Er10  1  0.750000  0.195110  0.291057  1
  Er  Er11  1  0.750000  0.304890  0.791057  1
  Cu  Cu12  1  0.250000  0.363288  0.631763  1
  Cu  Cu13  1  0.250000  0.136712  0.131763  1
  Si  Si14  1  0.250000  0.815435  0.975786  1
  Si  Si15  1  0.250000  0.684565  0.475786  1
  Si  Si16  1  0.750000  0.189287  0.024397  1
  Si  Si17  1  0.750000  0.310713  0.524397  1
  Si  Si18  1  0.250000  0.498064  0.805628  1
  Si  Si19  1  0.250000  0.001936  0.305628  1
  Si  Si20  1  0.750000  0.507522  0.194804  1
  Si  Si21  1  0.750000  0.992478  0.694804  1
  Ni  Ni22  1  0.750000  0.633055  0.369694  1
  Ni  Ni23  1  0.750000  0.866945  0.869694  1
