# generated using pymatgen
data_Rb4Hf3Zr3FeI18
_symmetry_space_group_name_H-M   'P 1'
_cell_length_a   11.38616663
_cell_length_b   11.60152865
_cell_length_c   11.73306338
_cell_angle_alpha   118.47230418
_cell_angle_beta   100.24750968
_cell_angle_gamma   103.89881099
_symmetry_Int_Tables_number   1
_chemical_formula_structural   Rb4Hf3Zr3FeI18
_chemical_formula_sum   'Rb4 Hf3 Zr3 Fe1 I18'
_cell_volume   1242.46795367
_cell_formula_units_Z   1
loop_
 _symmetry_equiv_pos_site_id
 _symmetry_equiv_pos_as_xyz
  1  'x, y, z'
loop_
 _atom_site_type_symbol
 _atom_site_label
 _atom_site_symmetry_multiplicity
 _atom_site_fract_x
 _atom_site_fract_y
 _atom_site_fract_z
 _atom_site_occupancy
  Rb  Rb0  1  0.651694  0.537256  0.226660  1
  Rb  Rb1  1  0.348146  0.462796  0.773577  1
  Rb  Rb2  1  0.686789  0.226178  0.564711  1
  Rb  Rb3  1  0.313130  0.774100  0.435534  1
  Hf  Hf4  1  0.144146  0.053446  0.219573  1
  Hf  Hf5  1  0.855649  0.946745  0.780645  1
  Hf  Hf6  1  0.868396  0.119296  0.125208  1
  Zr  Zr7  1  0.133704  0.878800  0.872706  1
  Zr  Zr8  1  0.139969  0.228951  0.043799  1
  Zr  Zr9  1  0.859809  0.771337  0.956452  1
  Fe  Fe10  1  0.000651  0.999418  0.999359  1
  I  I11  1  0.005499  0.404465  0.195258  1
  I  I12  1  0.992016  0.593164  0.804899  1
  I  I13  1  0.328054  0.329355  0.310416  1
  I  I14  1  0.671703  0.670947  0.689919  1
  I  I15  1  0.318312  0.518200  0.099405  1
  I  I16  1  0.680950  0.482510  0.901326  1
  I  I17  1  0.006018  0.799689  0.209039  1
  I  I18  1  0.993681  0.200483  0.791158  1
  I  I19  1  0.706167  0.268595  0.281075  1
  I  I20  1  0.296779  0.728678  0.716123  1
  I  I21  1  0.316453  0.127610  0.904226  1
  I  I22  1  0.684698  0.876224  0.097028  1
  I  I23  1  0.014891  0.201560  0.401698  1
  I  I24  1  0.982396  0.798204  0.595775  1
  I  I25  1  0.319632  0.925816  0.112515  1
  I  I26  1  0.681433  0.075410  0.891078  1
  I  I27  1  0.327652  0.119592  0.494182  1
  I  I28  1  0.671583  0.881173  0.506653  1
