# generated using pymatgen
data_Hf3TiGa6Re
_symmetry_space_group_name_H-M   'P 1'
_cell_length_a   5.44150361
_cell_length_b   7.84362622
_cell_length_c   8.88651900
_cell_angle_alpha   90.00000000
_cell_angle_beta   90.00000000
_cell_angle_gamma   90.16282296
_symmetry_Int_Tables_number   1
_chemical_formula_structural   Hf3TiGa6Re
_chemical_formula_sum   'Hf6 Ti2 Ga12 Re2'
_cell_volume   379.28505570
_cell_formula_units_Z   2
loop_
 _symmetry_equiv_pos_site_id
 _symmetry_equiv_pos_as_xyz
  1  'x, y, z'
loop_
 _atom_site_type_symbol
 _atom_site_label
 _atom_site_symmetry_multiplicity
 _atom_site_fract_x
 _atom_site_fract_y
 _atom_site_fract_z
 _atom_site_occupancy
  Hf  Hf0  1  0.995658  0.849222  0.723479  1
  Hf  Hf1  1  0.504342  0.150778  0.223479  1
  Hf  Hf2  1  0.995396  0.284726  0.000000  1
  Hf  Hf3  1  0.995658  0.849222  0.276521  1
  Hf  Hf4  1  0.504342  0.150778  0.776521  1
  Hf  Hf5  1  0.504604  0.715274  0.500000  1
  Ti  Ti6  1  0.250000  0.500000  0.750000  1
  Ti  Ti7  1  0.250000  0.500000  0.250000  1
  Ga  Ga8  1  0.999811  0.572466  0.500000  1
  Ga  Ga9  1  0.975407  0.636740  0.000000  1
  Ga  Ga10  1  0.756787  0.968338  0.000000  1
  Ga  Ga11  1  0.000909  0.221212  0.308732  1
  Ga  Ga12  1  0.500189  0.427534  0.000000  1
  Ga  Ga13  1  0.499091  0.778788  0.191268  1
  Ga  Ga14  1  0.263650  0.037866  0.500000  1
  Ga  Ga15  1  0.524593  0.363260  0.500000  1
  Ga  Ga16  1  0.000909  0.221212  0.691268  1
  Ga  Ga17  1  0.499091  0.778788  0.808732  1
  Ga  Ga18  1  0.743213  0.031662  0.500000  1
  Ga  Ga19  1  0.236350  0.962134  0.000000  1
  Re  Re20  1  0.750000  0.500000  0.250000  1
  Re  Re21  1  0.750000  0.500000  0.750000  1
