# generated using pymatgen
data_Ta3Nb3Co16Si6P
_symmetry_space_group_name_H-M   'P 1'
_cell_length_a   7.90336104
_cell_length_b   7.89240100
_cell_length_c   7.89376069
_cell_angle_alpha   60.10864259
_cell_angle_beta   59.94848034
_cell_angle_gamma   59.96705230
_symmetry_Int_Tables_number   1
_chemical_formula_structural   Ta3Nb3Co16Si6P
_chemical_formula_sum   'Ta3 Nb3 Co16 Si6 P1'
_cell_volume   348.23083703
_cell_formula_units_Z   1
loop_
 _symmetry_equiv_pos_site_id
 _symmetry_equiv_pos_as_xyz
  1  'x, y, z'
loop_
 _atom_site_type_symbol
 _atom_site_label
 _atom_site_symmetry_multiplicity
 _atom_site_fract_x
 _atom_site_fract_y
 _atom_site_fract_z
 _atom_site_occupancy
  Ta  Ta0  1  0.202106  0.795909  0.204059  1
  Ta  Ta1  1  0.203080  0.796944  0.797243  1
  Ta  Ta2  1  0.797258  0.202741  0.203047  1
  Nb  Nb3  1  0.798432  0.796476  0.203561  1
  Nb  Nb4  1  0.201810  0.203242  0.796727  1
  Nb  Nb5  1  0.798056  0.203688  0.796359  1
  Co  Co6  1  0.171182  0.162640  0.163809  1
  Co  Co7  1  0.497737  0.836138  0.837331  1
  Co  Co8  1  0.833216  0.498450  0.835140  1
  Co  Co9  1  0.834265  0.835012  0.497619  1
  Co  Co10  1  0.166910  0.502454  0.164974  1
  Co  Co11  1  0.166820  0.164834  0.501653  1
  Co  Co12  1  0.501535  0.163748  0.163755  1
  Co  Co13  1  0.829024  0.836221  0.836227  1
  Co  Co14  1  0.382459  0.380893  0.379791  1
  Co  Co15  1  0.143115  0.620198  0.619109  1
  Co  Co16  1  0.618511  0.144889  0.617977  1
  Co  Co17  1  0.617817  0.618347  0.144878  1
  Co  Co18  1  0.381077  0.855119  0.381655  1
  Co  Co19  1  0.381418  0.382030  0.855096  1
  Co  Co20  1  0.856830  0.380187  0.380130  1
  Co  Co21  1  0.617142  0.619846  0.619804  1
  Si  Si22  1  0.500038  0.500012  0.500020  1
  Si  Si23  1  0.999915  0.499963  0.999949  1
  Si  Si24  1  0.999914  0.500135  0.500126  1
  Si  Si25  1  0.500090  0.999827  0.500197  1
  Si  Si26  1  0.000068  0.999897  0.499927  1
  Si  Si27  1  0.500153  0.500240  0.999875  1
  P  P28  1  0.500020  0.999920  0.999961  1
