# generated using pymatgen
data_La3Sn3IrPdRh
_symmetry_space_group_name_H-M   'P 1'
_cell_length_a   7.66040600
_cell_length_b   7.66040633
_cell_length_c   4.20028900
_cell_angle_alpha   90.00000000
_cell_angle_beta   90.00000000
_cell_angle_gamma   120.00000722
_symmetry_Int_Tables_number   1
_chemical_formula_structural   La3Sn3IrPdRh
_chemical_formula_sum   'La3 Sn3 Ir1 Pd1 Rh1'
_cell_volume   213.45845767
_cell_formula_units_Z   1
loop_
 _symmetry_equiv_pos_site_id
 _symmetry_equiv_pos_as_xyz
  1  'x, y, z'
loop_
 _atom_site_type_symbol
 _atom_site_label
 _atom_site_symmetry_multiplicity
 _atom_site_fract_x
 _atom_site_fract_y
 _atom_site_fract_z
 _atom_site_occupancy
  La  La0  1  0.591313  0.009157  0.000000  1
  La  La1  1  0.990843  0.582156  0.000000  1
  La  La2  1  0.417844  0.408687  0.000000  1
  Sn  Sn3  1  0.247395  0.000982  0.500000  1
  Sn  Sn4  1  0.999018  0.246413  0.500000  1
  Sn  Sn5  1  0.753587  0.752605  0.500000  1
  Ir  Ir6  1  0.666667  0.333333  0.500000  1
  Pd  Pd7  1  0.333333  0.666667  0.500000  1
  Rh  Rh8  1  0.000000  0.000000  0.000000  1
