# generated using pymatgen
data_DyPa3Ge4Ir3Pt
_symmetry_space_group_name_H-M   'P 1'
_cell_length_a   4.33739000
_cell_length_b   6.98103977
_cell_length_c   7.70558745
_cell_angle_alpha   89.86899690
_cell_angle_beta   90.00000000
_cell_angle_gamma   90.00000000
_symmetry_Int_Tables_number   1
_chemical_formula_structural   DyPa3Ge4Ir3Pt
_chemical_formula_sum   'Dy1 Pa3 Ge4 Ir3 Pt1'
_cell_volume   233.32066406
_cell_formula_units_Z   1
loop_
 _symmetry_equiv_pos_site_id
 _symmetry_equiv_pos_as_xyz
  1  'x, y, z'
loop_
 _atom_site_type_symbol
 _atom_site_label
 _atom_site_symmetry_multiplicity
 _atom_site_fract_x
 _atom_site_fract_y
 _atom_site_fract_z
 _atom_site_occupancy
  Dy  Dy0  1  0.250000  0.489842  0.202142  1
  Pa  Pa1  1  0.750000  0.499709  0.793147  1
  Pa  Pa2  1  0.250000  0.997272  0.303562  1
  Pa  Pa3  1  0.750000  0.007589  0.702325  1
  Ge  Ge4  1  0.250000  0.814471  0.915045  1
  Ge  Ge5  1  0.250000  0.321511  0.581891  1
  Ge  Ge6  1  0.750000  0.187649  0.087798  1
  Ge  Ge7  1  0.750000  0.679127  0.412507  1
  Ir  Ir8  1  0.250000  0.728723  0.589205  1
  Ir  Ir9  1  0.250000  0.220730  0.906344  1
  Ir  Ir10  1  0.750000  0.266888  0.418710  1
  Pt  Pt11  1  0.750000  0.786490  0.087323  1
