# generated using pymatgen
data_Tm4Lu8ZnCo4Sn
_symmetry_space_group_name_H-M   'P 1'
_cell_length_a   8.14933301
_cell_length_b   8.14933143
_cell_length_c   8.14933261
_cell_angle_alpha   111.85476330
_cell_angle_beta   109.88111694
_cell_angle_gamma   106.71882719
_symmetry_Int_Tables_number   1
_chemical_formula_structural   Tm4Lu8ZnCo4Sn
_chemical_formula_sum   'Tm4 Lu8 Zn1 Co4 Sn1'
_cell_volume   415.77728000
_cell_formula_units_Z   1
loop_
 _symmetry_equiv_pos_site_id
 _symmetry_equiv_pos_as_xyz
  1  'x, y, z'
loop_
 _atom_site_type_symbol
 _atom_site_label
 _atom_site_symmetry_multiplicity
 _atom_site_fract_x
 _atom_site_fract_y
 _atom_site_fract_z
 _atom_site_occupancy
  Tm  Tm0  1  0.431895  0.228826  0.203067  1
  Tm  Tm1  1  0.568105  0.771174  0.796933  1
  Tm  Tm2  1  0.025758  0.228826  0.796933  1
  Tm  Tm3  1  0.974242  0.771174  0.203067  1
  Lu  Lu4  1  0.182489  0.282922  0.465412  1
  Lu  Lu5  1  0.817511  0.717078  0.534588  1
  Lu  Lu6  1  0.182489  0.717078  0.899567  1
  Lu  Lu7  1  0.817511  0.282922  0.100433  1
  Lu  Lu8  1  0.319371  0.626444  0.307074  1
  Lu  Lu9  1  0.680629  0.373556  0.692926  1
  Lu  Lu10  1  0.319371  0.012297  0.692926  1
  Lu  Lu11  1  0.680629  0.987703  0.307074  1
  Zn  Zn12  1  0.000000  0.000000  0.000000  1
  Co  Co13  1  0.361963  0.000000  0.361963  1
  Co  Co14  1  0.638037  0.000000  0.638037  1
  Co  Co15  1  0.114989  0.614989  0.500000  1
  Co  Co16  1  0.885011  0.385011  0.500000  1
  Sn  Sn17  1  0.500000  0.500000  0.000000  1
