# generated using pymatgen
data_LaFe7NiP5
_symmetry_space_group_name_H-M   'P 1'
_cell_length_a   3.59789100
_cell_length_b   9.24808200
_cell_length_c   10.51792000
_cell_angle_alpha   90.00000000
_cell_angle_beta   90.00000000
_cell_angle_gamma   90.00000000
_symmetry_Int_Tables_number   1
_chemical_formula_structural   LaFe7NiP5
_chemical_formula_sum   'La2 Fe14 Ni2 P10'
_cell_volume   349.96896820
_cell_formula_units_Z   2
loop_
 _symmetry_equiv_pos_site_id
 _symmetry_equiv_pos_as_xyz
  1  'x, y, z'
loop_
 _atom_site_type_symbol
 _atom_site_label
 _atom_site_symmetry_multiplicity
 _atom_site_fract_x
 _atom_site_fract_y
 _atom_site_fract_z
 _atom_site_occupancy
  La  La0  1  0.750000  0.823380  0.750000  1
  La  La1  1  0.250000  0.176620  0.250000  1
  Fe  Fe2  1  0.750000  0.519803  0.916779  1
  Fe  Fe3  1  0.750000  0.519803  0.583221  1
  Fe  Fe4  1  0.250000  0.480197  0.083221  1
  Fe  Fe5  1  0.250000  0.480197  0.416779  1
  Fe  Fe6  1  0.750000  0.108911  0.991559  1
  Fe  Fe7  1  0.750000  0.108911  0.508441  1
  Fe  Fe8  1  0.250000  0.891089  0.008441  1
  Fe  Fe9  1  0.250000  0.891089  0.491559  1
  Fe  Fe10  1  0.750000  0.695793  0.106884  1
  Fe  Fe11  1  0.750000  0.695793  0.393116  1
  Fe  Fe12  1  0.250000  0.304207  0.893116  1
  Fe  Fe13  1  0.250000  0.304207  0.606884  1
  Fe  Fe14  1  0.750000  0.151319  0.750000  1
  Fe  Fe15  1  0.250000  0.848681  0.250000  1
  Ni  Ni16  1  0.250000  0.548587  0.750000  1
  Ni  Ni17  1  0.750000  0.451413  0.250000  1
  P  P18  1  0.750000  0.933742  0.130146  1
  P  P19  1  0.750000  0.933742  0.369854  1
  P  P20  1  0.250000  0.066258  0.869854  1
  P  P21  1  0.250000  0.066258  0.630146  1
  P  P22  1  0.750000  0.339075  0.054611  1
  P  P23  1  0.750000  0.339075  0.445389  1
  P  P24  1  0.250000  0.660925  0.945389  1
  P  P25  1  0.250000  0.660925  0.554611  1
  P  P26  1  0.750000  0.384333  0.750000  1
  P  P27  1  0.250000  0.615667  0.250000  1
