# generated using pymatgen
data_EuFe2(CoP6)2
_symmetry_space_group_name_H-M   'P 1'
_cell_length_a   6.73997874
_cell_length_b   6.73997841
_cell_length_c   6.73199719
_cell_angle_alpha   109.47109901
_cell_angle_beta   109.49060958
_cell_angle_gamma   109.49995977
_symmetry_Int_Tables_number   1
_chemical_formula_structural   EuFe2(CoP6)2
_chemical_formula_sum   'Eu1 Fe2 Co2 P12'
_cell_volume   235.27808413
_cell_formula_units_Z   1
loop_
 _symmetry_equiv_pos_site_id
 _symmetry_equiv_pos_as_xyz
  1  'x, y, z'
loop_
 _atom_site_type_symbol
 _atom_site_label
 _atom_site_symmetry_multiplicity
 _atom_site_fract_x
 _atom_site_fract_y
 _atom_site_fract_z
 _atom_site_occupancy
  Eu  Eu0  1  0.000000  0.000000  0.000000  1
  Fe  Fe1  1  0.000000  0.000000  0.500000  1
  Fe  Fe2  1  0.500000  0.500000  0.500000  1
  Co  Co3  1  0.500000  0.000000  0.000000  1
  Co  Co4  1  0.000000  0.500000  0.000000  1
  P  P5  1  0.498659  0.848120  0.646079  1
  P  P6  1  0.202042  0.852579  0.353921  1
  P  P7  1  0.797958  0.147421  0.646079  1
  P  P8  1  0.150508  0.350875  0.501383  1
  P  P9  1  0.353654  0.501264  0.151533  1
  P  P10  1  0.501341  0.151880  0.353921  1
  P  P11  1  0.148906  0.647634  0.796539  1
  P  P12  1  0.349731  0.202122  0.848467  1
  P  P13  1  0.849492  0.649125  0.498617  1
  P  P14  1  0.650269  0.797878  0.151533  1
  P  P15  1  0.851094  0.352366  0.203461  1
  P  P16  1  0.646346  0.498736  0.848467  1
