# generated using pymatgen
data_Tb4DySc5(Si5Ir2)4
_symmetry_space_group_name_H-M   'P 1'
_cell_length_a   12.52236400
_cell_length_b   12.52236400
_cell_length_c   4.17984800
_cell_angle_alpha   90.00000000
_cell_angle_beta   90.00000000
_cell_angle_gamma   90.00000000
_symmetry_Int_Tables_number   1
_chemical_formula_structural   Tb4DySc5(Si5Ir2)4
_chemical_formula_sum   'Tb4 Dy1 Sc5 Si20 Ir8'
_cell_volume   655.44029356
_cell_formula_units_Z   1
loop_
 _symmetry_equiv_pos_site_id
 _symmetry_equiv_pos_as_xyz
  1  'x, y, z'
loop_
 _atom_site_type_symbol
 _atom_site_label
 _atom_site_symmetry_multiplicity
 _atom_site_fract_x
 _atom_site_fract_y
 _atom_site_fract_z
 _atom_site_occupancy
  Tb  Tb0  1  0.883975  0.385215  0.500000  1
  Tb  Tb1  1  0.116025  0.614785  0.500000  1
  Tb  Tb2  1  0.385215  0.116025  0.500000  1
  Tb  Tb3  1  0.614785  0.883975  0.500000  1
  Dy  Dy4  1  0.000000  0.000000  0.000000  1
  Sc  Sc5  1  0.500000  0.500000  0.000000  1
  Sc  Sc6  1  0.672786  0.174738  0.500000  1
  Sc  Sc7  1  0.327214  0.825262  0.500000  1
  Sc  Sc8  1  0.174738  0.327214  0.500000  1
  Sc  Sc9  1  0.825262  0.672786  0.500000  1
  Si  Si10  1  0.566709  0.068568  0.000000  1
  Si  Si11  1  0.433291  0.931432  0.000000  1
  Si  Si12  1  0.068568  0.433291  0.000000  1
  Si  Si13  1  0.931432  0.566709  0.000000  1
  Si  Si14  1  0.665658  0.699193  0.000000  1
  Si  Si15  1  0.334342  0.300807  0.000000  1
  Si  Si16  1  0.166177  0.800240  0.000000  1
  Si  Si17  1  0.833823  0.199760  0.000000  1
  Si  Si18  1  0.300807  0.665658  0.000000  1
  Si  Si19  1  0.699193  0.334342  0.000000  1
  Si  Si20  1  0.199760  0.166177  0.000000  1
  Si  Si21  1  0.800240  0.833823  0.000000  1
  Si  Si22  1  0.650591  0.506982  0.500000  1
  Si  Si23  1  0.349409  0.493018  0.500000  1
  Si  Si24  1  0.157166  0.993494  0.500000  1
  Si  Si25  1  0.842834  0.006506  0.500000  1
  Si  Si26  1  0.493018  0.650591  0.500000  1
  Si  Si27  1  0.506982  0.349409  0.500000  1
  Si  Si28  1  0.006506  0.157166  0.500000  1
  Si  Si29  1  0.993494  0.842834  0.500000  1
  Ir  Ir30  1  0.743443  0.519996  0.000000  1
  Ir  Ir31  1  0.256557  0.480004  0.000000  1
  Ir  Ir32  1  0.246988  0.979729  0.000000  1
  Ir  Ir33  1  0.753012  0.020271  0.000000  1
  Ir  Ir34  1  0.480004  0.743443  0.000000  1
  Ir  Ir35  1  0.519996  0.256557  0.000000  1
  Ir  Ir36  1  0.020271  0.246988  0.000000  1
  Ir  Ir37  1  0.979729  0.753012  0.000000  1
