# generated using pymatgen
data_Nb3Re(PO4)6
_symmetry_space_group_name_H-M   'P 1'
_cell_length_a   8.78730050
_cell_length_b   8.78747920
_cell_length_c   9.08330324
_cell_angle_alpha   90.12764745
_cell_angle_beta   118.81062076
_cell_angle_gamma   120.02933281
_symmetry_Int_Tables_number   1
_chemical_formula_structural   Nb3Re(PO4)6
_chemical_formula_sum   'Nb3 Re1 P6 O24'
_cell_volume   503.94927449
_cell_formula_units_Z   1
loop_
 _symmetry_equiv_pos_site_id
 _symmetry_equiv_pos_as_xyz
  1  'x, y, z'
loop_
 _atom_site_type_symbol
 _atom_site_label
 _atom_site_symmetry_multiplicity
 _atom_site_fract_x
 _atom_site_fract_y
 _atom_site_fract_z
 _atom_site_occupancy
  Nb  Nb0  1  0.783583  0.640886  0.425244  1
  Nb  Nb1  1  0.212893  0.357405  0.569643  1
  Nb  Nb2  1  0.784426  0.140996  0.925841  1
  Re  Re3  1  0.211669  0.857452  0.068303  1
  P  P4  1  0.002316  0.965891  0.246600  1
  P  P5  1  0.280663  0.537439  0.249425  1
  P  P6  1  0.280850  0.750328  0.749433  1
  P  P7  1  0.711391  0.243227  0.250159  1
  P  P8  1  0.720392  0.470245  0.750327  1
  P  P9  1  0.004238  0.032931  0.753570  1
  O  O10  1  0.290274  0.712355  0.222713  1
  O  O11  1  0.860508  0.990209  0.077533  1
  O  O12  1  0.859472  0.856307  0.593279  1
  O  O13  1  0.854658  0.798001  0.279736  1
  O  O14  1  0.148498  0.932463  0.229471  1
  O  O15  1  0.483680  0.560268  0.284321  1
  O  O16  1  0.090834  0.730547  0.583145  1
  O  O17  1  0.906586  0.640409  0.915671  1
  O  O18  1  0.279532  0.775914  0.915260  1
  O  O19  1  0.484700  0.917768  0.774985  1
  O  O20  1  0.731240  0.492179  0.586784  1
  O  O21  1  0.719152  0.422259  0.276982  1
  O  O22  1  0.276262  0.574308  0.720721  1
  O  O23  1  0.271378  0.509727  0.413229  1
  O  O24  1  0.513379  0.077829  0.229697  1
  O  O25  1  0.716826  0.215471  0.085487  1
  O  O26  1  0.088446  0.364764  0.084943  1
  O  O27  1  0.906871  0.269428  0.416175  1
  O  O28  1  0.515151  0.441467  0.713387  1
  O  O29  1  0.860195  0.069148  0.775517  1
  O  O30  1  0.146358  0.200673  0.718161  1
  O  O31  1  0.140527  0.140775  0.407277  1
  O  O32  1  0.150005  0.016090  0.924512  1
  O  O33  1  0.713052  0.294841  0.782469  1
