# generated using pymatgen
data_SrPtAu4
_symmetry_space_group_name_H-M   'P 1'
_cell_length_a   5.64358429
_cell_length_b   5.69298557
_cell_length_c   4.64134000
_cell_angle_alpha   90.00000000
_cell_angle_beta   90.00000000
_cell_angle_gamma   120.28999617
_symmetry_Int_Tables_number   1
_chemical_formula_structural   SrPtAu4
_chemical_formula_sum   'Sr1 Pt1 Au4'
_cell_volume   128.76344562
_cell_formula_units_Z   1
loop_
 _symmetry_equiv_pos_site_id
 _symmetry_equiv_pos_as_xyz
  1  'x, y, z'
loop_
 _atom_site_type_symbol
 _atom_site_label
 _atom_site_symmetry_multiplicity
 _atom_site_fract_x
 _atom_site_fract_y
 _atom_site_fract_z
 _atom_site_occupancy
  Sr  Sr0  1  0.000000  0.000000  0.000000  1
  Pt  Pt1  1  0.000000  0.500000  0.500000  1
  Au  Au2  1  0.500000  0.500000  0.500000  1
  Au  Au3  1  0.684510  0.342254  0.000000  1
  Au  Au4  1  0.315490  0.657746  0.000000  1
  Au  Au5  1  0.500000  0.000000  0.500000  1
