# generated using pymatgen
data_Nd3YAl2(ZnPd2)2
_symmetry_space_group_name_H-M   'P 1'
_cell_length_a   4.43400800
_cell_length_b   7.09804820
_cell_length_c   8.01908505
_cell_angle_alpha   90.66591685
_cell_angle_beta   90.00000000
_cell_angle_gamma   90.00000000
_symmetry_Int_Tables_number   1
_chemical_formula_structural   Nd3YAl2(ZnPd2)2
_chemical_formula_sum   'Nd3 Y1 Al2 Zn2 Pd4'
_cell_volume   252.36603381
_cell_formula_units_Z   1
loop_
 _symmetry_equiv_pos_site_id
 _symmetry_equiv_pos_as_xyz
  1  'x, y, z'
loop_
 _atom_site_type_symbol
 _atom_site_label
 _atom_site_symmetry_multiplicity
 _atom_site_fract_x
 _atom_site_fract_y
 _atom_site_fract_z
 _atom_site_occupancy
  Nd  Nd0  1  0.250000  0.531188  0.810945  1
  Nd  Nd1  1  0.750000  0.469942  0.192081  1
  Nd  Nd2  1  0.250000  0.034250  0.679920  1
  Y  Y3  1  0.750000  0.965109  0.314792  1
  Al  Al4  1  0.250000  0.144148  0.063739  1
  Al  Al5  1  0.750000  0.855430  0.939868  1
  Zn  Zn6  1  0.250000  0.651885  0.431124  1
  Zn  Zn7  1  0.750000  0.348210  0.566710  1
  Pd  Pd8  1  0.750000  0.736469  0.617433  1
  Pd  Pd9  1  0.250000  0.260532  0.377914  1
  Pd  Pd10  1  0.750000  0.221065  0.895390  1
  Pd  Pd11  1  0.250000  0.781771  0.110087  1
