# generated using pymatgen
data_Sr(S8I)3
_symmetry_space_group_name_H-M   'P 1'
_cell_length_a   15.29861322
_cell_length_b   15.29861337
_cell_length_c   15.29861306
_cell_angle_alpha   118.90542185
_cell_angle_beta   118.90542141
_cell_angle_gamma   118.90542245
_symmetry_Int_Tables_number   1
_chemical_formula_structural   Sr(S8I)3
_chemical_formula_sum   'Sr1 S24 I3'
_cell_volume   968.78573221
_cell_formula_units_Z   1
loop_
 _symmetry_equiv_pos_site_id
 _symmetry_equiv_pos_as_xyz
  1  'x, y, z'
loop_
 _atom_site_type_symbol
 _atom_site_label
 _atom_site_symmetry_multiplicity
 _atom_site_fract_x
 _atom_site_fract_y
 _atom_site_fract_z
 _atom_site_occupancy
  Sr  Sr0  1  0.456544  0.456544  0.456544  1
  S  S1  1  0.008946  0.600771  0.600771  1
  S  S2  1  0.600771  0.600771  0.008946  1
  S  S3  1  0.600771  0.008946  0.600771  1
  S  S4  1  0.238539  0.846397  0.719212  1
  S  S5  1  0.846397  0.719212  0.238539  1
  S  S6  1  0.719212  0.238539  0.846397  1
  S  S7  1  0.846397  0.238539  0.719212  1
  S  S8  1  0.238539  0.719212  0.846397  1
  S  S9  1  0.719212  0.846397  0.238539  1
  S  S10  1  0.098664  0.624941  0.444500  1
  S  S11  1  0.624941  0.444500  0.098664  1
  S  S12  1  0.444500  0.098664  0.624941  1
  S  S13  1  0.624941  0.098664  0.444500  1
  S  S14  1  0.098664  0.444500  0.624941  1
  S  S15  1  0.444500  0.624941  0.098664  1
  S  S16  1  0.361528  0.748662  0.620844  1
  S  S17  1  0.748662  0.620844  0.361528  1
  S  S18  1  0.620844  0.361528  0.748662  1
  S  S19  1  0.748662  0.361528  0.620844  1
  S  S20  1  0.361528  0.620844  0.748662  1
  S  S21  1  0.620844  0.748662  0.361528  1
  S  S22  1  0.183007  0.463158  0.463158  1
  S  S23  1  0.463158  0.463158  0.183007  1
  S  S24  1  0.463158  0.183007  0.463158  1
  I  I25  1  0.057105  0.903534  0.903534  1
  I  I26  1  0.903534  0.903534  0.057105  1
  I  I27  1  0.903534  0.057105  0.903534  1
