# generated using pymatgen
data_Ho11LuCo4SnOs
_symmetry_space_group_name_H-M   'P 1'
_cell_length_a   8.25105682
_cell_length_b   8.25790999
_cell_length_c   8.25105610
_cell_angle_alpha   111.63256933
_cell_angle_beta   110.44796897
_cell_angle_gamma   106.34677634
_symmetry_Int_Tables_number   1
_chemical_formula_structural   Ho11LuCo4SnOs
_chemical_formula_sum   'Ho11 Lu1 Co4 Sn1 Os1'
_cell_volume   431.95464346
_cell_formula_units_Z   1
loop_
 _symmetry_equiv_pos_site_id
 _symmetry_equiv_pos_as_xyz
  1  'x, y, z'
loop_
 _atom_site_type_symbol
 _atom_site_label
 _atom_site_symmetry_multiplicity
 _atom_site_fract_x
 _atom_site_fract_y
 _atom_site_fract_z
 _atom_site_occupancy
  Ho  Ho0  1  0.413284  0.217983  0.194260  1
  Ho  Ho1  1  0.587843  0.782130  0.806885  1
  Ho  Ho2  1  0.023724  0.217983  0.804700  1
  Ho  Ho3  1  0.975244  0.782130  0.194286  1
  Ho  Ho4  1  0.180694  0.281260  0.463609  1
  Ho  Ho5  1  0.817979  0.719104  0.535902  1
  Ho  Ho6  1  0.183201  0.719104  0.901125  1
  Ho  Ho7  1  0.817652  0.281260  0.100566  1
  Ho  Ho8  1  0.314402  0.620994  0.306592  1
  Ho  Ho9  1  0.685947  0.378626  0.692680  1
  Ho  Ho10  1  0.314133  0.006846  0.692712  1
  Lu  Lu11  1  0.685121  0.993490  0.308369  1
  Co  Co12  1  0.377937  0.999401  0.375510  1
  Co  Co13  1  0.623892  0.999401  0.621464  1
  Co  Co14  1  0.110598  0.611106  0.500508  1
  Co  Co15  1  0.887517  0.387030  0.499513  1
  Sn  Sn16  1  0.500891  0.502607  0.001715  1
  Os  Os17  1  0.999941  0.999545  0.999603  1
