# generated using pymatgen
data_Dy2Zn(PIr2)6
_symmetry_space_group_name_H-M   'P 1'
_cell_length_a   9.67123200
_cell_length_b   9.67123112
_cell_length_c   3.95463400
_cell_angle_alpha   90.00000000
_cell_angle_beta   90.00000000
_cell_angle_gamma   120.00000394
_symmetry_Int_Tables_number   1
_chemical_formula_structural   Dy2Zn(PIr2)6
_chemical_formula_sum   'Dy2 Zn1 P6 Ir12'
_cell_volume   320.33210954
_cell_formula_units_Z   1
loop_
 _symmetry_equiv_pos_site_id
 _symmetry_equiv_pos_as_xyz
  1  'x, y, z'
loop_
 _atom_site_type_symbol
 _atom_site_label
 _atom_site_symmetry_multiplicity
 _atom_site_fract_x
 _atom_site_fract_y
 _atom_site_fract_z
 _atom_site_occupancy
  Dy  Dy0  1  0.333333  0.666667  0.752716  1
  Dy  Dy1  1  0.666667  0.333333  0.247284  1
  Zn  Zn2  1  0.000000  0.000000  0.500000  1
  P  P3  1  0.403336  0.281857  0.746992  1
  P  P4  1  0.718143  0.121479  0.746992  1
  P  P5  1  0.878521  0.596664  0.746992  1
  P  P6  1  0.596664  0.718143  0.253008  1
  P  P7  1  0.281857  0.878521  0.253008  1
  P  P8  1  0.121479  0.403336  0.253008  1
  Ir  Ir9  1  0.457247  0.068660  0.748571  1
  Ir  Ir10  1  0.931340  0.388587  0.748571  1
  Ir  Ir11  1  0.611413  0.542753  0.748571  1
  Ir  Ir12  1  0.542753  0.931340  0.251429  1
  Ir  Ir13  1  0.068660  0.611413  0.251429  1
  Ir  Ir14  1  0.388587  0.457247  0.251429  1
  Ir  Ir15  1  0.161447  0.286550  0.756747  1
  Ir  Ir16  1  0.713450  0.874898  0.756747  1
  Ir  Ir17  1  0.125102  0.838553  0.756747  1
  Ir  Ir18  1  0.838553  0.713450  0.243253  1
  Ir  Ir19  1  0.286550  0.125102  0.243253  1
  Ir  Ir20  1  0.874898  0.161447  0.243253  1
