# generated using pymatgen
data_La8Sm5Tm7Sn16
_symmetry_space_group_name_H-M   'P 1'
_cell_length_a   8.23731258
_cell_length_b   8.41176890
_cell_length_c   15.87052100
_cell_angle_alpha   89.98224954
_cell_angle_beta   90.02147902
_cell_angle_gamma   89.96585438
_symmetry_Int_Tables_number   1
_chemical_formula_structural   La8Sm5Tm7Sn16
_chemical_formula_sum   'La8 Sm5 Tm7 Sn16'
_cell_volume   1099.67394287
_cell_formula_units_Z   1
loop_
 _symmetry_equiv_pos_site_id
 _symmetry_equiv_pos_as_xyz
  1  'x, y, z'
loop_
 _atom_site_type_symbol
 _atom_site_label
 _atom_site_symmetry_multiplicity
 _atom_site_fract_x
 _atom_site_fract_y
 _atom_site_fract_z
 _atom_site_occupancy
  La  La0  1  0.511949  0.321036  0.902270  1
  La  La1  1  0.012035  0.178985  0.596234  1
  La  La2  1  0.487793  0.679007  0.404835  1
  La  La3  1  0.987594  0.820157  0.096534  1
  La  La4  1  0.486429  0.679442  0.096550  1
  La  La5  1  0.986826  0.820319  0.403951  1
  La  La6  1  0.514112  0.320935  0.596776  1
  La  La7  1  0.013989  0.178586  0.902669  1
  Sm  Sm8  1  0.358238  0.837421  0.877375  1
  Sm  Sm9  1  0.858245  0.662808  0.622669  1
  Sm  Sm10  1  0.641878  0.162984  0.377912  1
  Sm  Sm11  1  0.142274  0.336464  0.123325  1
  Sm  Sm12  1  0.644932  0.162371  0.122001  1
  Tm  Tm13  1  0.145217  0.338781  0.377319  1
  Tm  Tm14  1  0.354150  0.838219  0.623957  1
  Tm  Tm15  1  0.855234  0.661436  0.874182  1
  Tm  Tm16  1  0.191032  0.503824  0.749155  1
  Tm  Tm17  1  0.690695  0.996133  0.750231  1
  Tm  Tm18  1  0.809780  0.497294  0.250593  1
  Tm  Tm19  1  0.308099  0.003612  0.251144  1
  Sn  Sn20  1  0.304160  0.038753  0.044571  1
  Sn  Sn21  1  0.810398  0.459656  0.455303  1
  Sn  Sn22  1  0.688771  0.959258  0.544985  1
  Sn  Sn23  1  0.188622  0.540362  0.954927  1
  Sn  Sn24  1  0.700584  0.956651  0.955133  1
  Sn  Sn25  1  0.198962  0.540651  0.542757  1
  Sn  Sn26  1  0.301861  0.040643  0.458229  1
  Sn  Sn27  1  0.804972  0.463170  0.040722  1
  Sn  Sn28  1  0.553038  0.625122  0.749086  1
  Sn  Sn29  1  0.054026  0.875915  0.749759  1
  Sn  Sn30  1  0.444626  0.377480  0.251059  1
  Sn  Sn31  1  0.947643  0.125179  0.252386  1
  Sn  Sn32  1  0.321388  0.143580  0.748558  1
  Sn  Sn33  1  0.820851  0.356055  0.750598  1
  Sn  Sn34  1  0.679801  0.854432  0.250438  1
  Sn  Sn35  1  0.179797  0.643276  0.251803  1
