# generated using pymatgen
data_Ho16MgIn3(PtRh)2
_symmetry_space_group_name_H-M   'P 1'
_cell_length_a   9.62803248
_cell_length_b   9.65847925
_cell_length_c   9.62803287
_cell_angle_alpha   60.21826146
_cell_angle_beta   60.28548834
_cell_angle_gamma   60.21826566
_symmetry_Int_Tables_number   1
_chemical_formula_structural   Ho16MgIn3(PtRh)2
_chemical_formula_sum   'Ho16 Mg1 In3 Pt2 Rh2'
_cell_volume   636.54367748
_cell_formula_units_Z   1
loop_
 _symmetry_equiv_pos_site_id
 _symmetry_equiv_pos_as_xyz
  1  'x, y, z'
loop_
 _atom_site_type_symbol
 _atom_site_label
 _atom_site_symmetry_multiplicity
 _atom_site_fract_x
 _atom_site_fract_y
 _atom_site_fract_z
 _atom_site_occupancy
  Ho  Ho0  1  0.188416  0.187823  0.812021  1
  Ho  Ho1  1  0.604049  0.599538  0.197633  1
  Ho  Ho2  1  0.441526  0.058557  0.441526  1
  Ho  Ho3  1  0.440963  0.440764  0.056639  1
  Ho  Ho4  1  0.814465  0.186240  0.814465  1
  Ho  Ho5  1  0.188104  0.811541  0.188104  1
  Ho  Ho6  1  0.438914  0.064485  0.058589  1
  Ho  Ho7  1  0.186112  0.813913  0.815107  1
  Ho  Ho8  1  0.062201  0.438174  0.062201  1
  Ho  Ho9  1  0.815107  0.813913  0.186112  1
  Ho  Ho10  1  0.197633  0.599538  0.604049  1
  Ho  Ho11  1  0.056639  0.440764  0.440963  1
  Ho  Ho12  1  0.058589  0.064485  0.438914  1
  Ho  Ho13  1  0.812021  0.187823  0.188416  1
  Ho  Ho14  1  0.601458  0.200828  0.601458  1
  Ho  Ho15  1  0.599702  0.596698  0.599702  1
  Mg  Mg16  1  0.827669  0.827844  0.827669  1
  In  In17  1  0.832881  0.833381  0.501012  1
  In  In18  1  0.501012  0.833381  0.832881  1
  In  In19  1  0.833074  0.501050  0.833074  1
  Pt  Pt20  1  0.391778  0.822360  0.391778  1
  Pt  Pt21  1  0.392674  0.392994  0.392674  1
  Rh  Rh22  1  0.823542  0.391954  0.391474  1
  Rh  Rh23  1  0.391474  0.391954  0.823542  1
