# generated using pymatgen
data_Nd4PdPb2Au3
_symmetry_space_group_name_H-M   'P 1'
_cell_length_a   3.85078000
_cell_length_b   8.21507488
_cell_length_c   8.21507488
_cell_angle_alpha   89.65663246
_cell_angle_beta   90.00000000
_cell_angle_gamma   90.00000000
_symmetry_Int_Tables_number   1
_chemical_formula_structural   Nd4PdPb2Au3
_chemical_formula_sum   'Nd4 Pd1 Pb2 Au3'
_cell_volume   259.87467634
_cell_formula_units_Z   1
loop_
 _symmetry_equiv_pos_site_id
 _symmetry_equiv_pos_as_xyz
  1  'x, y, z'
loop_
 _atom_site_type_symbol
 _atom_site_label
 _atom_site_symmetry_multiplicity
 _atom_site_fract_x
 _atom_site_fract_y
 _atom_site_fract_z
 _atom_site_occupancy
  Nd  Nd0  1  0.500000  0.174357  0.664869  1
  Nd  Nd1  1  0.500000  0.835131  0.325643  1
  Nd  Nd2  1  0.500000  0.320208  0.179792  1
  Nd  Nd3  1  0.500000  0.672213  0.827787  1
  Pd  Pd4  1  0.000000  0.125054  0.374946  1
  Pb  Pb5  1  0.000000  0.002634  0.004909  1
  Pb  Pb6  1  0.000000  0.495091  0.497366  1
  Au  Au7  1  0.000000  0.622826  0.125773  1
  Au  Au8  1  0.000000  0.374227  0.877174  1
  Au  Au9  1  0.000000  0.878259  0.621741  1
