# generated using pymatgen
data_Nd2B4Os3Rh
_symmetry_space_group_name_H-M   'P 1'
_cell_length_a   6.85802108
_cell_length_b   6.03832560
_cell_length_c   5.63418815
_cell_angle_alpha   71.86996131
_cell_angle_beta   56.79987165
_cell_angle_gamma   51.29238428
_symmetry_Int_Tables_number   1
_chemical_formula_structural   Nd2B4Os3Rh
_chemical_formula_sum   'Nd2 B4 Os3 Rh1'
_cell_volume   152.17363557
_cell_formula_units_Z   1
loop_
 _symmetry_equiv_pos_site_id
 _symmetry_equiv_pos_as_xyz
  1  'x, y, z'
loop_
 _atom_site_type_symbol
 _atom_site_label
 _atom_site_symmetry_multiplicity
 _atom_site_fract_x
 _atom_site_fract_y
 _atom_site_fract_z
 _atom_site_occupancy
  Nd  Nd0  1  0.003555  0.003555  0.996445  1
  Nd  Nd1  1  0.248465  0.248465  0.251535  1
  B  B2  1  0.314909  0.676493  0.311032  1
  B  B3  1  0.676493  0.314909  0.697565  1
  B  B4  1  0.570410  0.932616  0.571738  1
  B  B5  1  0.932616  0.570410  0.925237  1
  Os  Os6  1  0.365955  0.365955  0.634045  1
  Os  Os7  1  0.614780  0.614780  0.885220  1
  Os  Os8  1  0.886644  0.886644  0.613356  1
  Rh  Rh9  1  0.636174  0.636174  0.363826  1
