# generated using pymatgen
data_V2Te4Ru
_symmetry_space_group_name_H-M   'P 1'
_cell_length_a   7.04281372
_cell_length_b   7.01109972
_cell_length_c   7.06013027
_cell_angle_alpha   92.30436720
_cell_angle_beta   92.80409608
_cell_angle_gamma   93.72305175
_symmetry_Int_Tables_number   1
_chemical_formula_structural   V2Te4Ru
_chemical_formula_sum   'V4 Te8 Ru2'
_cell_volume   347.13260158
_cell_formula_units_Z   2
loop_
 _symmetry_equiv_pos_site_id
 _symmetry_equiv_pos_as_xyz
  1  'x, y, z'
loop_
 _atom_site_type_symbol
 _atom_site_label
 _atom_site_symmetry_multiplicity
 _atom_site_fract_x
 _atom_site_fract_y
 _atom_site_fract_z
 _atom_site_occupancy
  V  V0  1  0.758434  0.592438  0.457844  1
  V  V1  1  0.419739  0.543623  0.249457  1
  V  V2  1  0.542294  0.248194  0.410408  1
  V  V3  1  0.247375  0.415723  0.548335  1
  Te  Te4  1  0.880327  0.267635  0.605390  1
  Te  Te5  1  0.276397  0.603804  0.882962  1
  Te  Te6  1  0.612550  0.885233  0.272055  1
  Te  Te7  1  0.123253  0.731899  0.377772  1
  Te  Te8  1  0.737536  0.389770  0.117354  1
  Te  Te9  1  0.373200  0.115929  0.734579  1
  Te  Te10  1  0.782885  0.788597  0.788052  1
  Te  Te11  1  0.204458  0.211344  0.214771  1
  Ru  Ru12  1  0.588814  0.447067  0.752550  1
  Ru  Ru13  1  0.452738  0.758746  0.588470  1
