# generated using pymatgen
data_Nd4Ho2Al24Os5Pd3
_symmetry_space_group_name_H-M   'P 1'
_cell_length_a   8.89441728
_cell_length_b   8.91105786
_cell_length_c   9.64316067
_cell_angle_alpha   90.06099908
_cell_angle_beta   89.83398198
_cell_angle_gamma   119.63641121
_symmetry_Int_Tables_number   1
_chemical_formula_structural   Nd4Ho2Al24Os5Pd3
_chemical_formula_sum   'Nd4 Ho2 Al24 Os5 Pd3'
_cell_volume   664.31560921
_cell_formula_units_Z   1
loop_
 _symmetry_equiv_pos_site_id
 _symmetry_equiv_pos_as_xyz
  1  'x, y, z'
loop_
 _atom_site_type_symbol
 _atom_site_label
 _atom_site_symmetry_multiplicity
 _atom_site_fract_x
 _atom_site_fract_y
 _atom_site_fract_z
 _atom_site_occupancy
  Nd  Nd0  1  0.186764  0.378925  0.250016  1
  Nd  Nd1  1  0.813236  0.621075  0.749984  1
  Nd  Nd2  1  0.617917  0.814745  0.252381  1
  Nd  Nd3  1  0.382083  0.185255  0.747619  1
  Ho  Ho4  1  0.196565  0.808412  0.251333  1
  Ho  Ho5  1  0.803435  0.191588  0.748667  1
  Al  Al6  1  0.334774  0.671545  0.025551  1
  Al  Al7  1  0.665226  0.328455  0.974449  1
  Al  Al8  1  0.669998  0.331204  0.524074  1
  Al  Al9  1  0.330002  0.668796  0.475926  1
  Al  Al10  1  0.155517  0.325084  0.575111  1
  Al  Al11  1  0.844483  0.674916  0.424889  1
  Al  Al12  1  0.674167  0.843361  0.576357  1
  Al  Al13  1  0.838305  0.676453  0.078557  1
  Al  Al14  1  0.325833  0.156639  0.423643  1
  Al  Al15  1  0.161695  0.323547  0.921443  1
  Al  Al16  1  0.164058  0.834706  0.573211  1
  Al  Al17  1  0.325332  0.156514  0.076201  1
  Al  Al18  1  0.835942  0.165294  0.426789  1
  Al  Al19  1  0.674668  0.843486  0.923799  1
  Al  Al20  1  0.831281  0.159121  0.075741  1
  Al  Al21  1  0.168719  0.840879  0.924259  1
  Al  Al22  1  0.560734  0.125370  0.249724  1
  Al  Al23  1  0.439266  0.874630  0.750276  1
  Al  Al24  1  0.874331  0.438167  0.252805  1
  Al  Al25  1  0.125669  0.561833  0.747195  1
  Al  Al26  1  0.563501  0.435894  0.249761  1
  Al  Al27  1  0.436499  0.564106  0.750239  1
  Al  Al28  1  0.001030  0.000273  0.250252  1
  Al  Al29  1  0.998970  0.999727  0.749748  1
  Os  Os30  1  0.500000  0.000000  0.000000  1
  Os  Os31  1  0.500000  0.000000  0.500000  1
  Os  Os32  1  0.000000  0.500000  0.500000  1
  Os  Os33  1  0.000000  0.000000  0.000000  1
  Os  Os34  1  0.000000  0.000000  0.500000  1
  Pd  Pd35  1  0.000000  0.500000  0.000000  1
  Pd  Pd36  1  0.500000  0.500000  0.000000  1
  Pd  Pd37  1  0.500000  0.500000  0.500000  1
