# generated using pymatgen
data_MgZn3Te2(MoO7)2
_symmetry_space_group_name_H-M   'P 1'
_cell_length_a   5.23374344
_cell_length_b   8.68200469
_cell_length_c   7.41993919
_cell_angle_alpha   90.09290515
_cell_angle_beta   100.80153694
_cell_angle_gamma   89.90947008
_symmetry_Int_Tables_number   1
_chemical_formula_structural   MgZn3Te2(MoO7)2
_chemical_formula_sum   'Mg1 Zn3 Te2 Mo2 O14'
_cell_volume   331.18307866
_cell_formula_units_Z   1
loop_
 _symmetry_equiv_pos_site_id
 _symmetry_equiv_pos_as_xyz
  1  'x, y, z'
loop_
 _atom_site_type_symbol
 _atom_site_label
 _atom_site_symmetry_multiplicity
 _atom_site_fract_x
 _atom_site_fract_y
 _atom_site_fract_z
 _atom_site_occupancy
  Mg  Mg0  1  0.478527  0.864461  0.242276  1
  Zn  Zn1  1  0.939090  0.535572  0.478905  1
  Zn  Zn2  1  0.058576  0.035267  0.520789  1
  Zn  Zn3  1  0.523751  0.363701  0.758997  1
  Te  Te4  1  0.508926  0.242824  0.358434  1
  Te  Te5  1  0.490003  0.744229  0.640850  1
  Mo  Mo6  1  0.084692  0.531899  0.018632  1
  Mo  Mo7  1  0.917789  0.032099  0.980856  1
  O  O8  1  0.257717  0.709038  0.061009  1
  O  O9  1  0.709556  0.889150  0.047882  1
  O  O10  1  0.213818  0.048521  0.154242  1
  O  O11  1  0.003672  0.470557  0.232715  1
  O  O12  1  0.705885  0.055918  0.374367  1
  O  O13  1  0.254047  0.853591  0.456053  1
  O  O14  1  0.681582  0.704509  0.449081  1
  O  O15  1  0.312832  0.205842  0.547663  1
  O  O16  1  0.744945  0.352222  0.543862  1
  O  O17  1  0.289259  0.559196  0.628224  1
  O  O18  1  0.993792  0.969666  0.765531  1
  O  O19  1  0.790854  0.552965  0.843595  1
  O  O20  1  0.291699  0.386379  0.951773  1
  O  O21  1  0.748985  0.211670  0.944266  1
