# generated using pymatgen
data_Ho5Lu5(AlSb2)2
_symmetry_space_group_name_H-M   'P 1'
_cell_length_a   8.77538685
_cell_length_b   8.78777882
_cell_length_c   6.30557400
_cell_angle_alpha   89.99963764
_cell_angle_beta   90.00103379
_cell_angle_gamma   119.90848302
_symmetry_Int_Tables_number   1
_chemical_formula_structural   Ho5Lu5(AlSb2)2
_chemical_formula_sum   'Ho5 Lu5 Al2 Sb4'
_cell_volume   421.50274650
_cell_formula_units_Z   1
loop_
 _symmetry_equiv_pos_site_id
 _symmetry_equiv_pos_as_xyz
  1  'x, y, z'
loop_
 _atom_site_type_symbol
 _atom_site_label
 _atom_site_symmetry_multiplicity
 _atom_site_fract_x
 _atom_site_fract_y
 _atom_site_fract_z
 _atom_site_occupancy
  Ho  Ho0  1  0.755752  0.998470  0.750000  1
  Ho  Ho1  1  0.008759  0.243793  0.249999  1
  Ho  Ho2  1  0.008665  0.765337  0.750030  1
  Ho  Ho3  1  0.243187  0.233391  0.749991  1
  Ho  Ho4  1  0.242173  0.009425  0.249993  1
  Lu  Lu5  1  0.335234  0.667656  0.000264  1
  Lu  Lu6  1  0.655651  0.327809  0.499624  1
  Lu  Lu7  1  0.655617  0.327798  0.000363  1
  Lu  Lu8  1  0.335225  0.667642  0.499740  1
  Lu  Lu9  1  0.755025  0.756312  0.250000  1
  Al  Al10  1  0.397809  0.996581  0.750004  1
  Al  Al11  1  0.398866  0.402107  0.250006  1
  Sb  Sb12  1  0.997158  0.607108  0.249987  1
  Sb  Sb13  1  0.998523  0.391893  0.750009  1
  Sb  Sb14  1  0.605826  0.604398  0.749995  1
  Sb  Sb15  1  0.606532  0.000275  0.249995  1
