# generated using pymatgen
data_KMnFe2Sb12Pt
_symmetry_space_group_name_H-M   'P 1'
_cell_length_a   8.09510816
_cell_length_b   8.10184597
_cell_length_c   8.05074846
_cell_angle_alpha   109.45359643
_cell_angle_beta   109.31753284
_cell_angle_gamma   109.83654041
_symmetry_Int_Tables_number   1
_chemical_formula_structural   KMnFe2Sb12Pt
_chemical_formula_sum   'K1 Mn1 Fe2 Sb12 Pt1'
_cell_volume   405.48015762
_cell_formula_units_Z   1
loop_
 _symmetry_equiv_pos_site_id
 _symmetry_equiv_pos_as_xyz
  1  'x, y, z'
loop_
 _atom_site_type_symbol
 _atom_site_label
 _atom_site_symmetry_multiplicity
 _atom_site_fract_x
 _atom_site_fract_y
 _atom_site_fract_z
 _atom_site_occupancy
  K  K0  1  0.000000  0.000000  0.000000  1
  Mn  Mn1  1  0.000000  0.000000  0.500000  1
  Fe  Fe2  1  0.500000  0.000000  0.000000  1
  Fe  Fe3  1  0.000000  0.500000  0.000000  1
  Sb  Sb4  1  0.850497  0.659181  0.499695  1
  Sb  Sb5  1  0.149503  0.340819  0.500305  1
  Sb  Sb6  1  0.163194  0.667801  0.830238  1
  Sb  Sb7  1  0.836806  0.332199  0.169762  1
  Sb  Sb8  1  0.669637  0.501519  0.854020  1
  Sb  Sb9  1  0.330363  0.498481  0.145980  1
  Sb  Sb10  1  0.656974  0.823979  0.154800  1
  Sb  Sb11  1  0.343026  0.176021  0.845200  1
  Sb  Sb12  1  0.500568  0.853065  0.668463  1
  Sb  Sb13  1  0.499432  0.146935  0.331537  1
  Sb  Sb14  1  0.176725  0.832620  0.330885  1
  Sb  Sb15  1  0.823275  0.167380  0.669115  1
  Pt  Pt16  1  0.500000  0.500000  0.500000  1
