# generated using pymatgen
data_Ho3Er7(GaCo5)2
_symmetry_space_group_name_H-M   'P 1'
_cell_length_a   5.41576396
_cell_length_b   5.41581329
_cell_length_c   20.37876313
_cell_angle_alpha   90.05855701
_cell_angle_beta   89.94027021
_cell_angle_gamma   136.64639435
_symmetry_Int_Tables_number   1
_chemical_formula_structural   Ho3Er7(GaCo5)2
_chemical_formula_sum   'Ho3 Er7 Ga2 Co10'
_cell_volume   410.33715593
_cell_formula_units_Z   1
loop_
 _symmetry_equiv_pos_site_id
 _symmetry_equiv_pos_as_xyz
  1  'x, y, z'
loop_
 _atom_site_type_symbol
 _atom_site_label
 _atom_site_symmetry_multiplicity
 _atom_site_fract_x
 _atom_site_fract_y
 _atom_site_fract_z
 _atom_site_occupancy
  Ho  Ho0  1  0.292854  0.707122  0.066020  1
  Ho  Ho1  1  0.996377  0.003587  0.842851  1
  Ho  Ho2  1  0.707288  0.292691  0.565924  1
  Er  Er3  1  0.290974  0.708979  0.249836  1
  Er  Er4  1  0.709008  0.290965  0.750072  1
  Er  Er5  1  0.003693  0.996271  0.342407  1
  Er  Er6  1  0.995829  0.004137  0.657558  1
  Er  Er7  1  0.707639  0.292342  0.934213  1
  Er  Er8  1  0.004358  0.995596  0.157459  1
  Er  Er9  1  0.292635  0.707334  0.433629  1
  Ga  Ga10  1  0.999782  0.000614  0.499852  1
  Ga  Ga11  1  0.000400  0.999555  0.999988  1
  Co  Co12  1  0.291748  0.708232  0.654821  1
  Co  Co13  1  0.583191  0.416898  0.440864  1
  Co  Co14  1  0.412493  0.587479  0.750110  1
  Co  Co15  1  0.416717  0.583270  0.941462  1
  Co  Co16  1  0.587017  0.412947  0.249998  1
  Co  Co17  1  0.416601  0.583473  0.558617  1
  Co  Co18  1  0.708500  0.291469  0.345262  1
  Co  Co19  1  0.708390  0.291580  0.154746  1
  Co  Co20  1  0.583467  0.416519  0.058660  1
  Co  Co21  1  0.291040  0.708940  0.845652  1
