# generated using pymatgen
data_Zn6Sn4Ru3Rh
_symmetry_space_group_name_H-M   'P 1'
_cell_length_a   4.22414900
_cell_length_b   8.29731200
_cell_length_c   13.79574100
_cell_angle_alpha   90.00000000
_cell_angle_beta   90.00000000
_cell_angle_gamma   90.00000000
_symmetry_Int_Tables_number   1
_chemical_formula_structural   Zn6Sn4Ru3Rh
_chemical_formula_sum   'Zn12 Sn8 Ru6 Rh2'
_cell_volume   483.52806015
_cell_formula_units_Z   2
loop_
 _symmetry_equiv_pos_site_id
 _symmetry_equiv_pos_as_xyz
  1  'x, y, z'
loop_
 _atom_site_type_symbol
 _atom_site_label
 _atom_site_symmetry_multiplicity
 _atom_site_fract_x
 _atom_site_fract_y
 _atom_site_fract_z
 _atom_site_occupancy
  Zn  Zn0  1  0.750000  0.464041  0.958517  1
  Zn  Zn1  1  0.750000  0.964041  0.541483  1
  Zn  Zn2  1  0.250000  0.535612  0.041211  1
  Zn  Zn3  1  0.250000  0.035612  0.458789  1
  Zn  Zn4  1  0.750000  0.157771  0.869173  1
  Zn  Zn5  1  0.750000  0.657771  0.630827  1
  Zn  Zn6  1  0.250000  0.841563  0.129955  1
  Zn  Zn7  1  0.250000  0.341563  0.370045  1
  Zn  Zn8  1  0.750000  0.910116  0.743916  1
  Zn  Zn9  1  0.750000  0.410116  0.756084  1
  Zn  Zn10  1  0.250000  0.089731  0.256135  1
  Zn  Zn11  1  0.250000  0.589731  0.243865  1
  Sn  Sn12  1  0.750000  0.346113  0.196451  1
  Sn  Sn13  1  0.750000  0.846113  0.303549  1
  Sn  Sn14  1  0.250000  0.654035  0.803507  1
  Sn  Sn15  1  0.250000  0.154035  0.696493  1
  Sn  Sn16  1  0.750000  0.849617  0.974787  1
  Sn  Sn17  1  0.750000  0.349617  0.525213  1
  Sn  Sn18  1  0.250000  0.149206  0.023456  1
  Sn  Sn19  1  0.250000  0.649206  0.476544  1
  Ru  Ru20  1  0.250000  0.957726  0.857912  1
  Ru  Ru21  1  0.250000  0.457726  0.642088  1
  Ru  Ru22  1  0.750000  0.652889  0.132366  1
  Ru  Ru23  1  0.750000  0.152889  0.367634  1
  Ru  Ru24  1  0.250000  0.350201  0.868955  1
  Ru  Ru25  1  0.250000  0.850201  0.631045  1
  Rh  Rh26  1  0.750000  0.041379  0.142253  1
  Rh  Rh27  1  0.750000  0.541379  0.357747  1
