# generated using pymatgen
data_Nd10Os3Ru
_symmetry_space_group_name_H-M   'P 1'
_cell_length_a   8.81959901
_cell_length_b   8.82418411
_cell_length_c   7.46447904
_cell_angle_alpha   83.52677111
_cell_angle_beta   83.57689700
_cell_angle_gamma   44.10452536
_symmetry_Int_Tables_number   1
_chemical_formula_structural   Nd10Os3Ru
_chemical_formula_sum   'Nd10 Os3 Ru1'
_cell_volume   401.32947783
_cell_formula_units_Z   1
loop_
 _symmetry_equiv_pos_site_id
 _symmetry_equiv_pos_as_xyz
  1  'x, y, z'
loop_
 _atom_site_type_symbol
 _atom_site_label
 _atom_site_symmetry_multiplicity
 _atom_site_fract_x
 _atom_site_fract_y
 _atom_site_fract_z
 _atom_site_occupancy
  Nd  Nd0  1  0.021192  0.794994  0.914473  1
  Nd  Nd1  1  0.205506  0.978517  0.584907  1
  Nd  Nd2  1  0.979424  0.205656  0.084790  1
  Nd  Nd3  1  0.794725  0.021501  0.414315  1
  Nd  Nd4  1  0.359832  0.206463  0.814971  1
  Nd  Nd5  1  0.793218  0.641221  0.684923  1
  Nd  Nd6  1  0.640921  0.792072  0.185718  1
  Nd  Nd7  1  0.205163  0.360032  0.315585  1
  Nd  Nd8  1  0.575346  0.425004  0.749064  1
  Nd  Nd9  1  0.424420  0.576142  0.250474  1
  Os  Os10  1  0.176138  0.602695  0.575213  1
  Os  Os11  1  0.398107  0.822657  0.925727  1
  Os  Os12  1  0.823109  0.397789  0.424867  1
  Ru  Ru13  1  0.602900  0.175257  0.074972  1
