# generated using pymatgen
data_Ce4Mg4Re3H22
_symmetry_space_group_name_H-M   'P 1'
_cell_length_a   6.84767900
_cell_length_b   6.84767900
_cell_length_c   6.84767900
_cell_angle_alpha   90.00000000
_cell_angle_beta   90.00000000
_cell_angle_gamma   90.00000000
_symmetry_Int_Tables_number   1
_chemical_formula_structural   Ce4Mg4Re3H22
_chemical_formula_sum   'Ce4 Mg4 Re3 H22'
_cell_volume   321.09251432
_cell_formula_units_Z   1
loop_
 _symmetry_equiv_pos_site_id
 _symmetry_equiv_pos_as_xyz
  1  'x, y, z'
loop_
 _atom_site_type_symbol
 _atom_site_label
 _atom_site_symmetry_multiplicity
 _atom_site_fract_x
 _atom_site_fract_y
 _atom_site_fract_z
 _atom_site_occupancy
  Ce  Ce0  1  0.290544  0.290544  0.709456  1
  Ce  Ce1  1  0.290544  0.709456  0.290544  1
  Ce  Ce2  1  0.709456  0.290544  0.290544  1
  Ce  Ce3  1  0.709456  0.709456  0.709456  1
  Mg  Mg4  1  0.787241  0.787241  0.212759  1
  Mg  Mg5  1  0.787241  0.212759  0.787241  1
  Mg  Mg6  1  0.212759  0.787241  0.787241  1
  Mg  Mg7  1  0.212759  0.212759  0.212759  1
  Re  Re8  1  0.000000  0.000000  0.500000  1
  Re  Re9  1  0.000000  0.500000  0.000000  1
  Re  Re10  1  0.500000  0.000000  0.000000  1
  H  H11  1  0.000000  0.500000  0.258074  1
  H  H12  1  0.500000  0.741926  0.000000  1
  H  H13  1  0.741926  0.000000  0.500000  1
  H  H14  1  0.000000  0.741926  0.500000  1
  H  H15  1  0.500000  0.000000  0.258074  1
  H  H16  1  0.741926  0.500000  0.000000  1
  H  H17  1  0.000000  0.500000  0.741926  1
  H  H18  1  0.500000  0.258074  0.000000  1
  H  H19  1  0.000000  0.258074  0.500000  1
  H  H20  1  0.500000  0.000000  0.741926  1
  H  H21  1  0.258074  0.000000  0.500000  1
  H  H22  1  0.258074  0.500000  0.000000  1
  H  H23  1  0.000000  0.000000  0.243385  1
  H  H24  1  0.000000  0.756615  0.000000  1
  H  H25  1  0.756615  0.000000  0.000000  1
  H  H26  1  0.000000  0.000000  0.756615  1
  H  H27  1  0.000000  0.243385  0.000000  1
  H  H28  1  0.243385  0.000000  0.000000  1
  H  H29  1  0.625373  0.625373  0.374627  1
  H  H30  1  0.625373  0.374627  0.625373  1
  H  H31  1  0.374627  0.625373  0.625373  1
  H  H32  1  0.374627  0.374627  0.374627  1
