# generated using pymatgen
data_La8Fe3Si12Au
_symmetry_space_group_name_H-M   'P 1'
_cell_length_a   8.14761800
_cell_length_b   8.14761872
_cell_length_c   8.57940700
_cell_angle_alpha   90.00000000
_cell_angle_beta   90.00000000
_cell_angle_gamma   119.99999708
_symmetry_Int_Tables_number   1
_chemical_formula_structural   La8Fe3Si12Au
_chemical_formula_sum   'La8 Fe3 Si12 Au1'
_cell_volume   493.22975883
_cell_formula_units_Z   1
loop_
 _symmetry_equiv_pos_site_id
 _symmetry_equiv_pos_as_xyz
  1  'x, y, z'
loop_
 _atom_site_type_symbol
 _atom_site_label
 _atom_site_symmetry_multiplicity
 _atom_site_fract_x
 _atom_site_fract_y
 _atom_site_fract_z
 _atom_site_occupancy
  La  La0  1  0.496668  0.503332  0.755480  1
  La  La1  1  0.496721  0.503279  0.244507  1
  La  La2  1  0.006665  0.503332  0.755480  1
  La  La3  1  0.006559  0.503279  0.244507  1
  La  La4  1  0.496668  0.993335  0.755480  1
  La  La5  1  0.496721  0.993441  0.244507  1
  La  La6  1  0.000000  0.000000  0.751547  1
  La  La7  1  0.000000  0.000000  0.248524  1
  Fe  Fe8  1  0.666667  0.333333  0.000070  1
  Fe  Fe9  1  0.333333  0.666667  0.999845  1
  Fe  Fe10  1  0.333333  0.666667  0.499799  1
  Si  Si11  1  0.829726  0.170274  0.999979  1
  Si  Si12  1  0.169400  0.830600  0.000035  1
  Si  Si13  1  0.340547  0.170274  0.999979  1
  Si  Si14  1  0.171914  0.828086  0.499915  1
  Si  Si15  1  0.661199  0.830600  0.000035  1
  Si  Si16  1  0.840217  0.159783  0.500135  1
  Si  Si17  1  0.829726  0.659453  0.999979  1
  Si  Si18  1  0.656173  0.828086  0.499915  1
  Si  Si19  1  0.169400  0.338801  0.000035  1
  Si  Si20  1  0.319565  0.159783  0.500135  1
  Si  Si21  1  0.171914  0.343827  0.499915  1
  Si  Si22  1  0.840217  0.680435  0.500135  1
  Au  Au23  1  0.666667  0.333333  0.500063  1
