# generated using pymatgen
data_Th3Al7Pd2
_symmetry_space_group_name_H-M   'P 1'
_cell_length_a   9.32634393
_cell_length_b   9.32634337
_cell_length_c   9.32634347
_cell_angle_alpha   35.22194087
_cell_angle_beta   35.22194828
_cell_angle_gamma   35.22194736
_symmetry_Int_Tables_number   1
_chemical_formula_structural   Th3Al7Pd2
_chemical_formula_sum   'Th3 Al7 Pd2'
_cell_volume   241.02433150
_cell_formula_units_Z   1
loop_
 _symmetry_equiv_pos_site_id
 _symmetry_equiv_pos_as_xyz
  1  'x, y, z'
loop_
 _atom_site_type_symbol
 _atom_site_label
 _atom_site_symmetry_multiplicity
 _atom_site_fract_x
 _atom_site_fract_y
 _atom_site_fract_z
 _atom_site_occupancy
  Th  Th0  1  0.000000  0.000000  0.000000  1
  Th  Th1  1  0.141243  0.141243  0.141243  1
  Th  Th2  1  0.858757  0.858757  0.858757  1
  Al  Al3  1  0.582739  0.582739  0.071807  1
  Al  Al4  1  0.928193  0.417262  0.417261  1
  Al  Al5  1  0.417262  0.928193  0.417261  1
  Al  Al6  1  0.500000  0.500000  0.500000  1
  Al  Al7  1  0.582739  0.071807  0.582739  1
  Al  Al8  1  0.071807  0.582739  0.582739  1
  Al  Al9  1  0.417261  0.417261  0.928193  1
  Pd  Pd10  1  0.336068  0.336068  0.336068  1
  Pd  Pd11  1  0.663932  0.663932  0.663932  1
