# generated using pymatgen
data_Tb8Ho12FeCo3Bi8
_symmetry_space_group_name_H-M   'P 1'
_cell_length_a   7.99253207
_cell_length_b   8.89152600
_cell_length_c   12.36471165
_cell_angle_alpha   90.00000000
_cell_angle_beta   90.01093220
_cell_angle_gamma   90.00000000
_symmetry_Int_Tables_number   1
_chemical_formula_structural   Tb8Ho12FeCo3Bi8
_chemical_formula_sum   'Tb8 Ho12 Fe1 Co3 Bi8'
_cell_volume   878.70819235
_cell_formula_units_Z   1
loop_
 _symmetry_equiv_pos_site_id
 _symmetry_equiv_pos_as_xyz
  1  'x, y, z'
loop_
 _atom_site_type_symbol
 _atom_site_label
 _atom_site_symmetry_multiplicity
 _atom_site_fract_x
 _atom_site_fract_y
 _atom_site_fract_z
 _atom_site_occupancy
  Tb  Tb0  1  0.346649  0.750000  0.700598  1
  Tb  Tb1  1  0.652606  0.250000  0.300413  1
  Tb  Tb2  1  0.847553  0.250000  0.800206  1
  Tb  Tb3  1  0.151777  0.750000  0.199152  1
  Tb  Tb4  1  0.886093  0.750000  0.811296  1
  Tb  Tb5  1  0.115232  0.250000  0.189362  1
  Tb  Tb6  1  0.384755  0.250000  0.688888  1
  Tb  Tb7  1  0.614497  0.750000  0.311923  1
  Ho  Ho8  1  0.676133  0.537061  0.563277  1
  Ho  Ho9  1  0.323875  0.461758  0.436845  1
  Ho  Ho10  1  0.174930  0.464450  0.937491  1
  Ho  Ho11  1  0.323875  0.038242  0.436845  1
  Ho  Ho12  1  0.823764  0.538539  0.062761  1
  Ho  Ho13  1  0.676133  0.962939  0.563277  1
  Ho  Ho14  1  0.823764  0.961461  0.062761  1
  Ho  Ho15  1  0.174930  0.035550  0.937491  1
  Ho  Ho16  1  0.052373  0.750000  0.496835  1
  Ho  Ho17  1  0.947958  0.250000  0.502715  1
  Ho  Ho18  1  0.553539  0.250000  0.002917  1
  Ho  Ho19  1  0.446046  0.750000  0.996518  1
  Fe  Fe20  1  0.069269  0.750000  0.991030  1
  Co  Co21  1  0.932605  0.250000  0.008365  1
  Co  Co22  1  0.566335  0.250000  0.508233  1
  Co  Co23  1  0.434022  0.750000  0.492393  1
  Bi  Bi24  1  0.572098  0.509285  0.827188  1
  Bi  Bi25  1  0.428778  0.490818  0.172430  1
  Bi  Bi26  1  0.071839  0.490865  0.672268  1
  Bi  Bi27  1  0.428778  0.009182  0.172430  1
  Bi  Bi28  1  0.927928  0.509314  0.327316  1
  Bi  Bi29  1  0.572098  0.990715  0.827188  1
  Bi  Bi30  1  0.927928  0.990686  0.327316  1
  Bi  Bi31  1  0.071839  0.009135  0.672268  1
