# generated using pymatgen
data_CaTb3(ReN3)4
_symmetry_space_group_name_H-M   'P 1'
_cell_length_a   7.39921541
_cell_length_b   7.39921488
_cell_length_c   6.29490681
_cell_angle_alpha   73.46223099
_cell_angle_beta   73.46223347
_cell_angle_gamma   82.90252983
_symmetry_Int_Tables_number   1
_chemical_formula_structural   CaTb3(ReN3)4
_chemical_formula_sum   'Ca1 Tb3 Re4 N12'
_cell_volume   316.37275422
_cell_formula_units_Z   1
loop_
 _symmetry_equiv_pos_site_id
 _symmetry_equiv_pos_as_xyz
  1  'x, y, z'
loop_
 _atom_site_type_symbol
 _atom_site_label
 _atom_site_symmetry_multiplicity
 _atom_site_fract_x
 _atom_site_fract_y
 _atom_site_fract_z
 _atom_site_occupancy
  Ca  Ca0  1  0.704744  0.295256  0.250000  1
  Tb  Tb1  1  0.908218  0.091782  0.750000  1
  Tb  Tb2  1  0.292903  0.707097  0.750000  1
  Tb  Tb3  1  0.092312  0.907688  0.250000  1
  Re  Re4  1  0.622246  0.794526  0.272793  1
  Re  Re5  1  0.205474  0.377754  0.227207  1
  Re  Re6  1  0.378435  0.202401  0.728004  1
  Re  Re7  1  0.797599  0.621565  0.771996  1
  N  N8  1  0.340132  0.359914  0.930681  1
  N  N9  1  0.011816  0.218619  0.342875  1
  N  N10  1  0.781381  0.988184  0.157125  1
  N  N11  1  0.220312  0.003404  0.840108  1
  N  N12  1  0.656536  0.648959  0.062033  1
  N  N13  1  0.876842  0.379576  0.830669  1
  N  N14  1  0.128171  0.625269  0.158588  1
  N  N15  1  0.996596  0.779688  0.659892  1
  N  N16  1  0.374731  0.871829  0.341412  1
  N  N17  1  0.640086  0.659868  0.569319  1
  N  N18  1  0.620424  0.123158  0.669331  1
  N  N19  1  0.351041  0.343464  0.437967  1
