# generated using pymatgen
data_Tb4SmHoTa2O14
_symmetry_space_group_name_H-M   'P 1'
_cell_length_a   6.52523286
_cell_length_b   6.53251167
_cell_length_c   7.52182353
_cell_angle_alpha   89.94016281
_cell_angle_beta   90.01852566
_cell_angle_gamma   108.62692816
_symmetry_Int_Tables_number   1
_chemical_formula_structural   Tb4SmHoTa2O14
_chemical_formula_sum   'Tb4 Sm1 Ho1 Ta2 O14'
_cell_volume   303.83135915
_cell_formula_units_Z   1
loop_
 _symmetry_equiv_pos_site_id
 _symmetry_equiv_pos_as_xyz
  1  'x, y, z'
loop_
 _atom_site_type_symbol
 _atom_site_label
 _atom_site_symmetry_multiplicity
 _atom_site_fract_x
 _atom_site_fract_y
 _atom_site_fract_z
 _atom_site_occupancy
  Tb  Tb0  1  0.461737  0.460181  0.000159  1
  Tb  Tb1  1  0.999611  0.535562  0.239997  1
  Tb  Tb2  1  0.999754  0.464877  0.742074  1
  Tb  Tb3  1  0.535014  0.999454  0.759828  1
  Sm  Sm4  1  0.529604  0.530514  0.499294  1
  Ho  Ho5  1  0.465360  0.999339  0.257748  1
  Ta  Ta6  1  0.002014  0.002059  0.499320  1
  Ta  Ta7  1  0.997632  0.997880  0.000397  1
  O  O8  1  0.932871  0.065622  0.749765  1
  O  O9  1  0.067995  0.933216  0.250117  1
  O  O10  1  0.360143  0.643188  0.245462  1
  O  O11  1  0.639719  0.359284  0.753966  1
  O  O12  1  0.369544  0.630391  0.754261  1
  O  O13  1  0.628308  0.365998  0.246738  1
  O  O14  1  0.327564  0.080871  0.977553  1
  O  O15  1  0.673596  0.922034  0.473583  1
  O  O16  1  0.308211  0.050429  0.542508  1
  O  O17  1  0.695447  0.955667  0.047003  1
  O  O18  1  0.053755  0.308741  0.456666  1
  O  O19  1  0.950260  0.693970  0.956110  1
  O  O20  1  0.919203  0.673307  0.523932  1
  O  O21  1  0.082659  0.327416  0.023517  1
