# generated using pymatgen
data_CaHo2Al3Si2Pd
_symmetry_space_group_name_H-M   'P 1'
_cell_length_a   6.91724500
_cell_length_b   6.88845745
_cell_length_c   4.26966500
_cell_angle_alpha   90.00000000
_cell_angle_beta   90.00000000
_cell_angle_gamma   120.13833525
_symmetry_Int_Tables_number   1
_chemical_formula_structural   CaHo2Al3Si2Pd
_chemical_formula_sum   'Ca1 Ho2 Al3 Si2 Pd1'
_cell_volume   175.94320297
_cell_formula_units_Z   1
loop_
 _symmetry_equiv_pos_site_id
 _symmetry_equiv_pos_as_xyz
  1  'x, y, z'
loop_
 _atom_site_type_symbol
 _atom_site_label
 _atom_site_symmetry_multiplicity
 _atom_site_fract_x
 _atom_site_fract_y
 _atom_site_fract_z
 _atom_site_occupancy
  Ca  Ca0  1  0.419680  0.000000  0.000000  1
  Ho  Ho1  1  0.000575  0.419537  0.000000  1
  Ho  Ho2  1  0.581037  0.580462  0.000000  1
  Al  Al3  1  0.763193  0.000000  0.499999  1
  Al  Al4  1  0.236025  0.241827  0.499999  1
  Al  Al5  1  0.994198  0.758172  0.499999  1
  Si  Si6  1  0.673869  0.341091  0.499999  1
  Si  Si7  1  0.332778  0.658908  0.499999  1
  Pd  Pd8  1  0.998643  0.000000  0.000000  1
