# generated using pymatgen
data_BeNb3Ge
_symmetry_space_group_name_H-M   'P 1'
_cell_length_a   6.69753200
_cell_length_b   6.72389000
_cell_length_c   3.46695400
_cell_angle_alpha   90.00000000
_cell_angle_beta   90.00000000
_cell_angle_gamma   90.00000000
_symmetry_Int_Tables_number   1
_chemical_formula_structural   BeNb3Ge
_chemical_formula_sum   'Be2 Nb6 Ge2'
_cell_volume   156.12896354
_cell_formula_units_Z   2
loop_
 _symmetry_equiv_pos_site_id
 _symmetry_equiv_pos_as_xyz
  1  'x, y, z'
loop_
 _atom_site_type_symbol
 _atom_site_label
 _atom_site_symmetry_multiplicity
 _atom_site_fract_x
 _atom_site_fract_y
 _atom_site_fract_z
 _atom_site_occupancy
  Be  Be0  1  0.621298  0.876152  0.000000  1
  Be  Be1  1  0.121298  0.623848  0.000000  1
  Nb  Nb2  1  0.995700  0.990871  0.000000  1
  Nb  Nb3  1  0.495700  0.509129  0.000000  1
  Nb  Nb4  1  0.680587  0.166076  0.500000  1
  Nb  Nb5  1  0.180587  0.333924  0.500000  1
  Nb  Nb6  1  0.821107  0.688624  0.500000  1
  Nb  Nb7  1  0.321107  0.811376  0.500000  1
  Ge  Ge8  1  0.881308  0.386057  0.000000  1
  Ge  Ge9  1  0.381308  0.113943  0.000000  1
