# generated using pymatgen
data_Lu2MgAl3SiAu2
_symmetry_space_group_name_H-M   'P 1'
_cell_length_a   6.88779400
_cell_length_b   6.80939254
_cell_length_c   4.16570400
_cell_angle_alpha   90.00000000
_cell_angle_beta   90.00000000
_cell_angle_gamma   118.73683659
_symmetry_Int_Tables_number   1
_chemical_formula_structural   Lu2MgAl3SiAu2
_chemical_formula_sum   'Lu2 Mg1 Al3 Si1 Au2'
_cell_volume   171.31520592
_cell_formula_units_Z   1
loop_
 _symmetry_equiv_pos_site_id
 _symmetry_equiv_pos_as_xyz
  1  'x, y, z'
loop_
 _atom_site_type_symbol
 _atom_site_label
 _atom_site_symmetry_multiplicity
 _atom_site_fract_x
 _atom_site_fract_y
 _atom_site_fract_z
 _atom_site_occupancy
  Lu  Lu0  1  0.577564  0.004318  0.500000  1
  Lu  Lu1  1  0.994399  0.573660  0.500000  1
  Mg  Mg2  1  0.414189  0.418923  0.500000  1
  Al  Al3  1  0.754040  0.756770  0.000000  1
  Al  Al4  1  0.244040  0.995759  0.000000  1
  Al  Al5  1  0.001485  0.246601  0.000000  1
  Si  Si6  1  0.667615  0.334554  0.000000  1
  Au  Au7  1  0.336562  0.660315  0.000000  1
  Au  Au8  1  0.010105  0.009100  0.500000  1
