# generated using pymatgen
data_Tb3Pr3Al24Os5Pt3
_symmetry_space_group_name_H-M   'P 1'
_cell_length_a   8.87960093
_cell_length_b   8.88870876
_cell_length_c   9.63946114
_cell_angle_alpha   90.03226604
_cell_angle_beta   89.85069098
_cell_angle_gamma   119.59844993
_symmetry_Int_Tables_number   1
_chemical_formula_structural   Tb3Pr3Al24Os5Pt3
_chemical_formula_sum   'Tb3 Pr3 Al24 Os5 Pt3'
_cell_volume   661.54133401
_cell_formula_units_Z   1
loop_
 _symmetry_equiv_pos_site_id
 _symmetry_equiv_pos_as_xyz
  1  'x, y, z'
loop_
 _atom_site_type_symbol
 _atom_site_label
 _atom_site_symmetry_multiplicity
 _atom_site_fract_x
 _atom_site_fract_y
 _atom_site_fract_z
 _atom_site_occupancy
  Tb  Tb0  1  0.386806  0.186328  0.748115  1
  Tb  Tb1  1  0.194091  0.809455  0.250666  1
  Tb  Tb2  1  0.804819  0.190448  0.749244  1
  Pr  Pr3  1  0.187395  0.379208  0.249510  1
  Pr  Pr4  1  0.812316  0.621346  0.750548  1
  Pr  Pr5  1  0.617786  0.813158  0.251527  1
  Al  Al6  1  0.334170  0.671720  0.025931  1
  Al  Al7  1  0.663917  0.327913  0.970436  1
  Al  Al8  1  0.669238  0.330843  0.528310  1
  Al  Al9  1  0.329406  0.669128  0.474897  1
  Al  Al10  1  0.157855  0.325145  0.574838  1
  Al  Al11  1  0.843051  0.673827  0.426855  1
  Al  Al12  1  0.673168  0.842151  0.575467  1
  Al  Al13  1  0.837682  0.675122  0.076496  1
  Al  Al14  1  0.326639  0.158145  0.427530  1
  Al  Al15  1  0.163267  0.323545  0.921742  1
  Al  Al16  1  0.165094  0.835936  0.574787  1
  Al  Al17  1  0.326170  0.157690  0.073209  1
  Al  Al18  1  0.835130  0.165758  0.427083  1
  Al  Al19  1  0.673753  0.842611  0.923887  1
  Al  Al20  1  0.830950  0.159989  0.074930  1
  Al  Al21  1  0.169513  0.842144  0.923017  1
  Al  Al22  1  0.559795  0.125440  0.249817  1
  Al  Al23  1  0.439161  0.875578  0.750279  1
  Al  Al24  1  0.872843  0.437698  0.253222  1
  Al  Al25  1  0.126837  0.562015  0.747129  1
  Al  Al26  1  0.563688  0.434334  0.249711  1
  Al  Al27  1  0.435295  0.562694  0.750293  1
  Al  Al28  1  0.000225  0.001277  0.250232  1
  Al  Al29  1  0.004661  0.001668  0.749783  1
  Os  Os30  1  0.499440  0.000838  0.998601  1
  Os  Os31  1  0.499333  0.000939  0.501575  1
  Os  Os32  1  0.999556  0.499666  0.500590  1
  Os  Os33  1  0.999872  0.999933  0.999581  1
  Os  Os34  1  0.999886  0.999937  0.500371  1
  Pt  Pt35  1  0.999212  0.499555  0.999659  1
  Pt  Pt36  1  0.499052  0.498509  0.998890  1
  Pt  Pt37  1  0.498928  0.498309  0.501244  1
