# generated using pymatgen
data_AcNpTe3
_symmetry_space_group_name_H-M   'P 1'
_cell_length_a   4.64059300
_cell_length_b   12.03161300
_cell_length_c   12.43753100
_cell_angle_alpha   90.00000000
_cell_angle_beta   90.00000000
_cell_angle_gamma   90.00000000
_symmetry_Int_Tables_number   1
_chemical_formula_structural   AcNpTe3
_chemical_formula_sum   'Ac4 Np4 Te12'
_cell_volume   694.43485549
_cell_formula_units_Z   4
loop_
 _symmetry_equiv_pos_site_id
 _symmetry_equiv_pos_as_xyz
  1  'x, y, z'
loop_
 _atom_site_type_symbol
 _atom_site_label
 _atom_site_symmetry_multiplicity
 _atom_site_fract_x
 _atom_site_fract_y
 _atom_site_fract_z
 _atom_site_occupancy
  Ac  Ac0  1  0.250000  0.497915  0.697396  1
  Ac  Ac1  1  0.750000  0.502085  0.302604  1
  Ac  Ac2  1  0.750000  0.997915  0.802604  1
  Ac  Ac3  1  0.250000  0.002085  0.197396  1
  Np  Np4  1  0.250000  0.190393  0.506500  1
  Np  Np5  1  0.750000  0.809607  0.493500  1
  Np  Np6  1  0.750000  0.690393  0.993500  1
  Np  Np7  1  0.250000  0.309607  0.006500  1
  Te  Te8  1  0.250000  0.866536  0.955461  1
  Te  Te9  1  0.750000  0.133464  0.044539  1
  Te  Te10  1  0.750000  0.366536  0.544539  1
  Te  Te11  1  0.250000  0.633464  0.455461  1
  Te  Te12  1  0.250000  0.205015  0.768401  1
  Te  Te13  1  0.750000  0.794985  0.231599  1
  Te  Te14  1  0.750000  0.705015  0.731599  1
  Te  Te15  1  0.250000  0.294985  0.268401  1
  Te  Te16  1  0.250000  0.555699  0.109678  1
  Te  Te17  1  0.750000  0.444301  0.890322  1
  Te  Te18  1  0.750000  0.055699  0.390322  1
  Te  Te19  1  0.250000  0.944301  0.609678  1
