# generated using pymatgen
data_Tm3Zr2Sc3Pt4
_symmetry_space_group_name_H-M   'P 1'
_cell_length_a   4.64698900
_cell_length_b   6.89688371
_cell_length_c   8.26250220
_cell_angle_alpha   89.15500223
_cell_angle_beta   90.00000000
_cell_angle_gamma   90.00000000
_symmetry_Int_Tables_number   1
_chemical_formula_structural   Tm3Zr2Sc3Pt4
_chemical_formula_sum   'Tm3 Zr2 Sc3 Pt4'
_cell_volume   264.78227197
_cell_formula_units_Z   1
loop_
 _symmetry_equiv_pos_site_id
 _symmetry_equiv_pos_as_xyz
  1  'x, y, z'
loop_
 _atom_site_type_symbol
 _atom_site_label
 _atom_site_symmetry_multiplicity
 _atom_site_fract_x
 _atom_site_fract_y
 _atom_site_fract_z
 _atom_site_occupancy
  Tm  Tm0  1  0.250000  0.982909  0.326283  1
  Tm  Tm1  1  0.250000  0.483777  0.176468  1
  Tm  Tm2  1  0.750000  0.516462  0.819408  1
  Zr  Zr3  1  0.250000  0.860423  0.920839  1
  Zr  Zr4  1  0.250000  0.350656  0.574225  1
  Sc  Sc5  1  0.750000  0.146089  0.077153  1
  Sc  Sc6  1  0.750000  0.648856  0.423650  1
  Sc  Sc7  1  0.750000  0.014551  0.675407  1
  Pt  Pt8  1  0.250000  0.245170  0.902996  1
  Pt  Pt9  1  0.250000  0.740398  0.601144  1
  Pt  Pt10  1  0.750000  0.757659  0.093663  1
  Pt  Pt11  1  0.750000  0.253051  0.408764  1
