# generated using pymatgen
data_Lu20Cd6ReIr
_symmetry_space_group_name_H-M   'P 1'
_cell_length_a   9.39938200
_cell_length_b   9.39938149
_cell_length_c   9.64612800
_cell_angle_alpha   90.00000000
_cell_angle_beta   90.00000000
_cell_angle_gamma   120.00000180
_symmetry_Int_Tables_number   1
_chemical_formula_structural   Lu20Cd6ReIr
_chemical_formula_sum   'Lu20 Cd6 Re1 Ir1'
_cell_volume   738.04394378
_cell_formula_units_Z   1
loop_
 _symmetry_equiv_pos_site_id
 _symmetry_equiv_pos_as_xyz
  1  'x, y, z'
loop_
 _atom_site_type_symbol
 _atom_site_label
 _atom_site_symmetry_multiplicity
 _atom_site_fract_x
 _atom_site_fract_y
 _atom_site_fract_z
 _atom_site_occupancy
  Lu  Lu0  1  0.000000  0.000000  0.499844  1
  Lu  Lu1  1  0.000000  0.000000  0.000156  1
  Lu  Lu2  1  0.209438  0.790562  0.442140  1
  Lu  Lu3  1  0.209438  0.418877  0.442140  1
  Lu  Lu4  1  0.581123  0.790562  0.442140  1
  Lu  Lu5  1  0.790438  0.209562  0.556925  1
  Lu  Lu6  1  0.790438  0.580874  0.556925  1
  Lu  Lu7  1  0.419126  0.209562  0.556925  1
  Lu  Lu8  1  0.790438  0.209562  0.943075  1
  Lu  Lu9  1  0.790438  0.580874  0.943075  1
  Lu  Lu10  1  0.419126  0.209562  0.943075  1
  Lu  Lu11  1  0.209438  0.790562  0.057860  1
  Lu  Lu12  1  0.209438  0.418877  0.057860  1
  Lu  Lu13  1  0.581123  0.790562  0.057860  1
  Lu  Lu14  1  0.540633  0.459367  0.250000  1
  Lu  Lu15  1  0.540633  0.081265  0.250000  1
  Lu  Lu16  1  0.918735  0.459367  0.250000  1
  Lu  Lu17  1  0.461697  0.538303  0.750000  1
  Lu  Lu18  1  0.461697  0.923395  0.750000  1
  Lu  Lu19  1  0.076605  0.538303  0.750000  1
  Cd  Cd20  1  0.886550  0.113450  0.250000  1
  Cd  Cd21  1  0.886550  0.773101  0.250000  1
  Cd  Cd22  1  0.226899  0.113450  0.250000  1
  Cd  Cd23  1  0.114219  0.885781  0.750000  1
  Cd  Cd24  1  0.114219  0.228436  0.750000  1
  Cd  Cd25  1  0.771564  0.885781  0.750000  1
  Re  Re26  1  0.666667  0.333333  0.750000  1
  Ir  Ir27  1  0.333333  0.666667  0.250000  1
