# generated using pymatgen
data_Tb3TmP3S
_symmetry_space_group_name_H-M   'P 1'
_cell_length_a   3.99232600
_cell_length_b   5.62427100
_cell_length_c   7.97451200
_cell_angle_alpha   90.00000000
_cell_angle_beta   90.00000000
_cell_angle_gamma   90.00000000
_symmetry_Int_Tables_number   1
_chemical_formula_structural   Tb3TmP3S
_chemical_formula_sum   'Tb3 Tm1 P3 S1'
_cell_volume   179.05908116
_cell_formula_units_Z   1
loop_
 _symmetry_equiv_pos_site_id
 _symmetry_equiv_pos_as_xyz
  1  'x, y, z'
loop_
 _atom_site_type_symbol
 _atom_site_label
 _atom_site_symmetry_multiplicity
 _atom_site_fract_x
 _atom_site_fract_y
 _atom_site_fract_z
 _atom_site_occupancy
  Tb  Tb0  1  0.500000  0.500000  0.243705  1
  Tb  Tb1  1  0.000000  0.000000  0.500000  1
  Tb  Tb2  1  0.500000  0.500000  0.756295  1
  Tm  Tm3  1  0.000000  0.000000  0.000000  1
  P  P4  1  0.500000  0.000000  0.750878  1
  P  P5  1  0.000000  0.500000  0.000000  1
  P  P6  1  0.500000  0.000000  0.249122  1
  S  S7  1  0.000000  0.500000  0.500000  1
