# generated using pymatgen
data_K2Pd11PtO24
_symmetry_space_group_name_H-M   'P 1'
_cell_length_a   8.69954096
_cell_length_b   8.69954128
_cell_length_c   8.70591700
_cell_angle_alpha   107.24308542
_cell_angle_beta   107.09631454
_cell_angle_gamma   114.15220865
_symmetry_Int_Tables_number   1
_chemical_formula_structural   K2Pd11PtO24
_chemical_formula_sum   'K2 Pd11 Pt1 O24'
_cell_volume   504.80072807
_cell_formula_units_Z   1
loop_
 _symmetry_equiv_pos_site_id
 _symmetry_equiv_pos_as_xyz
  1  'x, y, z'
loop_
 _atom_site_type_symbol
 _atom_site_label
 _atom_site_symmetry_multiplicity
 _atom_site_fract_x
 _atom_site_fract_y
 _atom_site_fract_z
 _atom_site_occupancy
  K  K0  1  0.785300  0.784495  0.999191  1
  K  K1  1  0.214696  0.213891  0.999191  1
  Pd  Pd2  1  0.315686  0.833428  0.815765  1
  Pd  Pd3  1  0.648624  0.167503  0.816127  1
  Pd  Pd4  1  0.982337  0.500078  0.815765  1
  Pd  Pd5  1  0.016954  0.499562  0.183824  1
  Pd  Pd6  1  0.351605  0.832266  0.183872  1
  Pd  Pd7  1  0.684264  0.166871  0.183824  1
  Pd  Pd8  1  0.832731  0.648479  0.481211  1
  Pd  Pd9  1  0.167200  0.982226  0.482057  1
  Pd  Pd10  1  0.499830  0.314856  0.482057  1
  Pd  Pd11  1  0.500791  0.684988  0.518299  1
  Pd  Pd12  1  0.833310  0.017508  0.518299  1
  Pt  Pt13  1  0.166986  0.351407  0.518392  1
  O  O14  1  0.787304  0.507450  0.628625  1
  O  O15  1  0.121175  0.841321  0.628625  1
  O  O16  1  0.454111  0.173075  0.627186  1
  O  O17  1  0.880618  0.159688  0.372098  1
  O  O18  1  0.212411  0.491481  0.372098  1
  O  O19  1  0.546075  0.826741  0.372816  1
  O  O20  1  0.491342  0.120444  0.278486  1
  O  O21  1  0.825960  0.454268  0.280227  1
  O  O22  1  0.158041  0.787143  0.278486  1
  O  O23  1  0.174953  0.544675  0.719629  1
  O  O24  1  0.508307  0.879998  0.720867  1
  O  O25  1  0.840870  0.212560  0.720867  1
  O  O26  1  0.515224  0.870317  0.049357  1
  O  O27  1  0.846602  0.201168  0.047767  1
  O  O28  1  0.179041  0.534135  0.049357  1
  O  O29  1  0.153109  0.798215  0.951325  1
  O  O30  1  0.485474  0.129654  0.951710  1
  O  O31  1  0.822055  0.466235  0.951710  1
  O  O32  1  0.132654  0.183469  0.645332  1
  O  O33  1  0.461864  0.512679  0.645332  1
  O  O34  1  0.798079  0.846460  0.644539  1
  O  O35  1  0.534345  0.484746  0.356107  1
  O  O36  1  0.871360  0.821761  0.356107  1
  O  O37  1  0.198711  0.154761  0.353472  1
