# generated using pymatgen
data_Tb16Tm4Si15Os
_symmetry_space_group_name_H-M   'P 1'
_cell_length_a   7.39919499
_cell_length_b   7.77028789
_cell_length_c   14.61314600
_cell_angle_alpha   90.00000000
_cell_angle_beta   90.00000000
_cell_angle_gamma   90.04663067
_symmetry_Int_Tables_number   1
_chemical_formula_structural   Tb16Tm4Si15Os
_chemical_formula_sum   'Tb16 Tm4 Si15 Os1'
_cell_volume   840.16611444
_cell_formula_units_Z   1
loop_
 _symmetry_equiv_pos_site_id
 _symmetry_equiv_pos_as_xyz
  1  'x, y, z'
loop_
 _atom_site_type_symbol
 _atom_site_label
 _atom_site_symmetry_multiplicity
 _atom_site_fract_x
 _atom_site_fract_y
 _atom_site_fract_z
 _atom_site_occupancy
  Tb  Tb0  1  0.673137  0.185078  0.625946  1
  Tb  Tb1  1  0.191723  0.325180  0.873208  1
  Tb  Tb2  1  0.318087  0.819720  0.123801  1
  Tb  Tb3  1  0.816960  0.677898  0.376708  1
  Tb  Tb4  1  0.318087  0.819720  0.376199  1
  Tb  Tb5  1  0.816960  0.677898  0.123292  1
  Tb  Tb6  1  0.673137  0.185078  0.874054  1
  Tb  Tb7  1  0.191723  0.325180  0.626792  1
  Tb  Tb8  1  0.522478  0.673402  0.598035  1
  Tb  Tb9  1  0.026008  0.816476  0.903110  1
  Tb  Tb10  1  0.473605  0.315255  0.097252  1
  Tb  Tb11  1  0.973965  0.182611  0.402928  1
  Tb  Tb12  1  0.473605  0.315255  0.402748  1
  Tb  Tb13  1  0.973965  0.182611  0.097072  1
  Tb  Tb14  1  0.522478  0.673402  0.901965  1
  Tb  Tb15  1  0.026008  0.816476  0.596890  1
  Tm  Tm16  1  0.841632  0.513527  0.750000  1
  Tm  Tm17  1  0.355004  0.987244  0.750000  1
  Tm  Tm18  1  0.150390  0.483883  0.250000  1
  Tm  Tm19  1  0.649184  0.014651  0.250000  1
  Si  Si20  1  0.645248  0.972649  0.459650  1
  Si  Si21  1  0.148620  0.527447  0.040061  1
  Si  Si22  1  0.349676  0.025390  0.960579  1
  Si  Si23  1  0.856858  0.471465  0.539789  1
  Si  Si24  1  0.349676  0.025390  0.539421  1
  Si  Si25  1  0.856858  0.471465  0.960211  1
  Si  Si26  1  0.645248  0.972649  0.040350  1
  Si  Si27  1  0.148620  0.527447  0.459939  1
  Si  Si28  1  0.981851  0.098033  0.750000  1
  Si  Si29  1  0.521416  0.600438  0.250000  1
  Si  Si30  1  0.017892  0.897306  0.250000  1
  Si  Si31  1  0.739714  0.874665  0.750000  1
  Si  Si32  1  0.230124  0.636101  0.750000  1
  Si  Si33  1  0.267592  0.129584  0.250000  1
  Si  Si34  1  0.770112  0.370567  0.250000  1
  Os  Os35  1  0.482360  0.408859  0.750000  1
