# generated using pymatgen
data_La2Ga2Ir2Pt3
_symmetry_space_group_name_H-M   'P 1'
_cell_length_a   12.95987227
_cell_length_b   12.94682749
_cell_length_c   12.94682689
_cell_angle_alpha   24.93195250
_cell_angle_beta   25.02213046
_cell_angle_gamma   25.02213307
_symmetry_Int_Tables_number   1
_chemical_formula_structural   La2Ga2Ir2Pt3
_chemical_formula_sum   'La4 Ga4 Ir4 Pt6'
_cell_volume   341.13022920
_cell_formula_units_Z   2
loop_
 _symmetry_equiv_pos_site_id
 _symmetry_equiv_pos_as_xyz
  1  'x, y, z'
loop_
 _atom_site_type_symbol
 _atom_site_label
 _atom_site_symmetry_multiplicity
 _atom_site_fract_x
 _atom_site_fract_y
 _atom_site_fract_z
 _atom_site_occupancy
  La  La0  1  0.953899  0.953709  0.953709  1
  La  La1  1  0.046194  0.048506  0.048506  1
  La  La2  1  0.850655  0.851280  0.851280  1
  La  La3  1  0.144930  0.147741  0.147741  1
  Ga  Ga4  1  0.724580  0.718327  0.718327  1
  Ga  Ga5  1  0.281824  0.278846  0.278846  1
  Ga  Ga6  1  0.613334  0.614648  0.614648  1
  Ga  Ga7  1  0.381408  0.389055  0.389055  1
  Ir  Ir8  1  0.497995  0.501405  0.001561  1
  Ir  Ir9  1  0.999078  0.499898  0.499898  1
  Ir  Ir10  1  0.497995  0.001561  0.501405  1
  Ir  Ir11  1  0.111157  0.604852  0.604852  1
  Pt  Pt12  1  0.495300  0.501713  0.501713  1
  Pt  Pt13  1  0.393859  0.892160  0.392620  1
  Pt  Pt14  1  0.393859  0.392620  0.892160  1
  Pt  Pt15  1  0.894175  0.392152  0.392152  1
  Pt  Pt16  1  0.609879  0.105512  0.606014  1
  Pt  Pt17  1  0.609879  0.606014  0.105512  1
