# generated using pymatgen
data_Pa4Ni3As8
_symmetry_space_group_name_H-M   'P 1'
_cell_length_a   4.04524600
_cell_length_b   4.04524600
_cell_length_c   17.73438500
_cell_angle_alpha   90.00000000
_cell_angle_beta   90.00000000
_cell_angle_gamma   90.00000000
_symmetry_Int_Tables_number   1
_chemical_formula_structural   Pa4Ni3As8
_chemical_formula_sum   'Pa4 Ni3 As8'
_cell_volume   290.20574571
_cell_formula_units_Z   1
loop_
 _symmetry_equiv_pos_site_id
 _symmetry_equiv_pos_as_xyz
  1  'x, y, z'
loop_
 _atom_site_type_symbol
 _atom_site_label
 _atom_site_symmetry_multiplicity
 _atom_site_fract_x
 _atom_site_fract_y
 _atom_site_fract_z
 _atom_site_occupancy
  Pa  Pa0  1  0.500000  0.000000  0.117749  1
  Pa  Pa1  1  0.500000  0.000000  0.626938  1
  Pa  Pa2  1  0.000000  0.500000  0.882251  1
  Pa  Pa3  1  0.000000  0.500000  0.373062  1
  Ni  Ni4  1  0.500000  0.500000  0.500000  1
  Ni  Ni5  1  0.000000  0.000000  0.000000  1
  Ni  Ni6  1  0.000000  0.000000  0.500000  1
  As  As7  1  0.500000  0.000000  0.927825  1
  As  As8  1  0.500000  0.000000  0.421045  1
  As  As9  1  0.000000  0.500000  0.072175  1
  As  As10  1  0.000000  0.500000  0.578955  1
  As  As11  1  0.500000  0.500000  0.754193  1
  As  As12  1  0.500000  0.500000  0.245807  1
  As  As13  1  0.000000  0.000000  0.753941  1
  As  As14  1  0.000000  0.000000  0.246059  1
