# generated using pymatgen
data_HoEr7(Sc3Sn4)4
_symmetry_space_group_name_H-M   'P 1'
_cell_length_a   7.67140002
_cell_length_b   7.92338706
_cell_length_c   14.80663411
_cell_angle_alpha   89.99871956
_cell_angle_beta   89.99282183
_cell_angle_gamma   90.00246084
_symmetry_Int_Tables_number   1
_chemical_formula_structural   HoEr7(Sc3Sn4)4
_chemical_formula_sum   'Ho1 Er7 Sc12 Sn16'
_cell_volume   899.99861653
_cell_formula_units_Z   1
loop_
 _symmetry_equiv_pos_site_id
 _symmetry_equiv_pos_as_xyz
  1  'x, y, z'
loop_
 _atom_site_type_symbol
 _atom_site_label
 _atom_site_symmetry_multiplicity
 _atom_site_fract_x
 _atom_site_fract_y
 _atom_site_fract_z
 _atom_site_occupancy
  Ho  Ho0  1  0.992108  0.177704  0.093761  1
  Er  Er1  1  0.008153  0.822027  0.906172  1
  Er  Er2  1  0.508447  0.677678  0.906144  1
  Er  Er3  1  0.008499  0.822064  0.593798  1
  Er  Er4  1  0.491614  0.322311  0.093689  1
  Er  Er5  1  0.991412  0.177912  0.406108  1
  Er  Er6  1  0.491711  0.322163  0.406420  1
  Er  Er7  1  0.508178  0.677929  0.593786  1
  Sc  Sc8  1  0.169057  0.495580  0.749929  1
  Sc  Sc9  1  0.830874  0.504490  0.250099  1
  Sc  Sc10  1  0.330786  0.995372  0.250084  1
  Sc  Sc11  1  0.669031  0.004540  0.749906  1
  Sc  Sc12  1  0.340590  0.160271  0.627289  1
  Sc  Sc13  1  0.659350  0.839679  0.372690  1
  Sc  Sc14  1  0.159407  0.660537  0.372644  1
  Sc  Sc15  1  0.659866  0.839516  0.127363  1
  Sc  Sc16  1  0.840794  0.339646  0.627285  1
  Sc  Sc17  1  0.340318  0.160406  0.872669  1
  Sc  Sc18  1  0.840355  0.339832  0.872692  1
  Sc  Sc19  1  0.159685  0.660441  0.127372  1
  Sn  Sn20  1  0.031430  0.123315  0.750115  1
  Sn  Sn21  1  0.968389  0.876503  0.249946  1
  Sn  Sn22  1  0.468293  0.623019  0.250057  1
  Sn  Sn23  1  0.531520  0.376858  0.750036  1
  Sn  Sn24  1  0.311700  0.847608  0.749994  1
  Sn  Sn25  1  0.687882  0.152307  0.250026  1
  Sn  Sn26  1  0.188616  0.348173  0.250279  1
  Sn  Sn27  1  0.811704  0.652160  0.750001  1
  Sn  Sn28  1  0.184568  0.457261  0.542332  1
  Sn  Sn29  1  0.815588  0.542749  0.457676  1
  Sn  Sn30  1  0.315350  0.957457  0.457617  1
  Sn  Sn31  1  0.815239  0.542961  0.042372  1
  Sn  Sn32  1  0.684578  0.042567  0.542356  1
  Sn  Sn33  1  0.184585  0.457743  0.957508  1
  Sn  Sn34  1  0.684091  0.042428  0.957528  1
  Sn  Sn35  1  0.316234  0.956793  0.042264  1
