# generated using pymatgen
data_Rb2ErZr3S8
_symmetry_space_group_name_H-M   'P 1'
_cell_length_a   6.49447700
_cell_length_b   7.54154500
_cell_length_c   16.03055500
_cell_angle_alpha   90.00000000
_cell_angle_beta   90.00000000
_cell_angle_gamma   90.00000000
_symmetry_Int_Tables_number   1
_chemical_formula_structural   Rb2ErZr3S8
_chemical_formula_sum   'Rb4 Er2 Zr6 S16'
_cell_volume   785.15078347
_cell_formula_units_Z   2
loop_
 _symmetry_equiv_pos_site_id
 _symmetry_equiv_pos_as_xyz
  1  'x, y, z'
loop_
 _atom_site_type_symbol
 _atom_site_label
 _atom_site_symmetry_multiplicity
 _atom_site_fract_x
 _atom_site_fract_y
 _atom_site_fract_z
 _atom_site_occupancy
  Rb  Rb0  1  0.331128  0.000000  0.000000  1
  Rb  Rb1  1  0.644584  0.500000  0.500000  1
  Rb  Rb2  1  0.019062  0.000000  0.500000  1
  Rb  Rb3  1  0.976209  0.500000  0.000000  1
  Er  Er4  1  0.001886  0.000000  0.247465  1
  Er  Er5  1  0.001886  0.000000  0.752535  1
  Zr  Zr6  1  0.000544  0.500000  0.253490  1
  Zr  Zr7  1  0.000544  0.500000  0.746510  1
  Zr  Zr8  1  0.501158  0.249746  0.250772  1
  Zr  Zr9  1  0.501158  0.750254  0.749228  1
  Zr  Zr10  1  0.501158  0.750254  0.250772  1
  Zr  Zr11  1  0.501158  0.249746  0.749228  1
  S  S12  1  0.830451  0.256385  0.344051  1
  S  S13  1  0.830451  0.743615  0.655949  1
  S  S14  1  0.173233  0.737996  0.157397  1
  S  S15  1  0.173233  0.262004  0.842603  1
  S  S16  1  0.173233  0.262004  0.157397  1
  S  S17  1  0.173233  0.737996  0.842603  1
  S  S18  1  0.830451  0.743615  0.344051  1
  S  S19  1  0.830451  0.256385  0.655949  1
  S  S20  1  0.655868  0.000000  0.157863  1
  S  S21  1  0.655868  0.000000  0.842137  1
  S  S22  1  0.332444  0.500000  0.341588  1
  S  S23  1  0.332444  0.500000  0.658412  1
  S  S24  1  0.345815  0.000000  0.341758  1
  S  S25  1  0.345815  0.000000  0.658242  1
  S  S26  1  0.668267  0.500000  0.161727  1
  S  S27  1  0.668267  0.500000  0.838273  1
