# generated using pymatgen
data_Tb(NdSn4)3
_symmetry_space_group_name_H-M   'P 1'
_cell_length_a   12.20548703
_cell_length_b   12.20548657
_cell_length_c   12.20548791
_cell_angle_alpha   31.29979454
_cell_angle_beta   31.29979696
_cell_angle_gamma   31.29980097
_symmetry_Int_Tables_number   1
_chemical_formula_structural   Tb(NdSn4)3
_chemical_formula_sum   'Tb1 Nd3 Sn12'
_cell_volume   435.55593353
_cell_formula_units_Z   1
loop_
 _symmetry_equiv_pos_site_id
 _symmetry_equiv_pos_as_xyz
  1  'x, y, z'
loop_
 _atom_site_type_symbol
 _atom_site_label
 _atom_site_symmetry_multiplicity
 _atom_site_fract_x
 _atom_site_fract_y
 _atom_site_fract_z
 _atom_site_occupancy
  Tb  Tb0  1  0.294090  0.294090  0.294090  1
  Nd  Nd1  1  0.878244  0.878244  0.878244  1
  Nd  Nd2  1  0.121375  0.121375  0.121375  1
  Nd  Nd3  1  0.706107  0.706107  0.706107  1
  Sn  Sn4  1  0.293277  0.791736  0.791736  1
  Sn  Sn5  1  0.791736  0.791736  0.293277  1
  Sn  Sn6  1  0.867141  0.381181  0.381181  1
  Sn  Sn7  1  0.381181  0.381181  0.867141  1
  Sn  Sn8  1  0.381181  0.867141  0.381181  1
  Sn  Sn9  1  0.617836  0.136535  0.617836  1
  Sn  Sn10  1  0.136535  0.617836  0.617836  1
  Sn  Sn11  1  0.617836  0.617836  0.136535  1
  Sn  Sn12  1  0.791736  0.293277  0.791736  1
  Sn  Sn13  1  0.208973  0.703779  0.208973  1
  Sn  Sn14  1  0.208973  0.208973  0.703779  1
  Sn  Sn15  1  0.703779  0.208973  0.208973  1
