# generated using pymatgen
data_Er2InNi7B2
_symmetry_space_group_name_H-M   'P 1'
_cell_length_a   4.96770900
_cell_length_b   4.96770858
_cell_length_c   14.20718900
_cell_angle_alpha   90.00000000
_cell_angle_beta   90.00000000
_cell_angle_gamma   119.99999612
_symmetry_Int_Tables_number   1
_chemical_formula_structural   Er2InNi7B2
_chemical_formula_sum   'Er4 In2 Ni14 B4'
_cell_volume   303.63446470
_cell_formula_units_Z   2
loop_
 _symmetry_equiv_pos_site_id
 _symmetry_equiv_pos_as_xyz
  1  'x, y, z'
loop_
 _atom_site_type_symbol
 _atom_site_label
 _atom_site_symmetry_multiplicity
 _atom_site_fract_x
 _atom_site_fract_y
 _atom_site_fract_z
 _atom_site_occupancy
  Er  Er0  1  0.666667  0.333333  0.531236  1
  Er  Er1  1  0.333333  0.666667  0.031236  1
  Er  Er2  1  0.666667  0.333333  0.754472  1
  Er  Er3  1  0.333333  0.666667  0.254472  1
  In  In4  1  0.333333  0.666667  0.468545  1
  In  In5  1  0.666667  0.333333  0.968545  1
  Ni  Ni6  1  0.834045  0.165955  0.352739  1
  Ni  Ni7  1  0.834045  0.668091  0.352739  1
  Ni  Ni8  1  0.000000  0.000000  0.998740  1
  Ni  Ni9  1  0.000000  0.000000  0.498740  1
  Ni  Ni10  1  0.833750  0.667501  0.147107  1
  Ni  Ni11  1  0.166250  0.833750  0.647107  1
  Ni  Ni12  1  0.667501  0.833750  0.647107  1
  Ni  Ni13  1  0.332499  0.166250  0.147107  1
  Ni  Ni14  1  0.833750  0.166250  0.147107  1
  Ni  Ni15  1  0.165955  0.331909  0.852739  1
  Ni  Ni16  1  0.165955  0.834045  0.852739  1
  Ni  Ni17  1  0.166250  0.332499  0.647107  1
  Ni  Ni18  1  0.668091  0.834045  0.852739  1
  Ni  Ni19  1  0.331909  0.165955  0.352739  1
  B  B20  1  0.666667  0.333333  0.249695  1
  B  B21  1  0.333333  0.666667  0.749695  1
  B  B22  1  0.000000  0.000000  0.747776  1
  B  B23  1  0.000000  0.000000  0.247776  1
