# generated using pymatgen
data_La12Th2Ir5Ru
_symmetry_space_group_name_H-M   'P 1'
_cell_length_a   10.25545100
_cell_length_b   10.24804446
_cell_length_c   6.48515500
_cell_angle_alpha   90.17124389
_cell_angle_beta   90.00000000
_cell_angle_gamma   120.02392018
_symmetry_Int_Tables_number   1
_chemical_formula_structural   La12Th2Ir5Ru
_chemical_formula_sum   'La12 Th2 Ir5 Ru1'
_cell_volume   590.11878389
_cell_formula_units_Z   1
loop_
 _symmetry_equiv_pos_site_id
 _symmetry_equiv_pos_as_xyz
  1  'x, y, z'
loop_
 _atom_site_type_symbol
 _atom_site_label
 _atom_site_symmetry_multiplicity
 _atom_site_fract_x
 _atom_site_fract_y
 _atom_site_fract_z
 _atom_site_occupancy
  La  La0  1  0.873002  0.746004  0.770686  1
  La  La1  1  0.252693  0.126786  0.770978  1
  La  La2  1  0.874093  0.126786  0.770978  1
  La  La3  1  0.127167  0.254335  0.264700  1
  La  La4  1  0.745096  0.872206  0.270999  1
  La  La5  1  0.127109  0.872206  0.270999  1
  La  La6  1  0.460147  0.920295  0.591272  1
  La  La7  1  0.081499  0.538265  0.594487  1
  La  La8  1  0.456765  0.538265  0.594487  1
  La  La9  1  0.539562  0.079124  0.091060  1
  La  La10  1  0.919815  0.459052  0.091362  1
  La  La11  1  0.539239  0.459052  0.091362  1
  Th  Th12  1  0.666420  0.332839  0.557494  1
  Th  Th13  1  0.332365  0.664732  0.054465  1
  Ir  Ir14  1  0.617779  0.810462  0.852461  1
  Ir  Ir15  1  0.192684  0.810462  0.852461  1
  Ir  Ir16  1  0.807441  0.614884  0.353547  1
  Ir  Ir17  1  0.383956  0.191870  0.354949  1
  Ir  Ir18  1  0.807912  0.191870  0.354949  1
  Ru  Ru19  1  0.195255  0.390510  0.861352  1
