# generated using pymatgen
data_Pr13Nd3(CdOs)4
_symmetry_space_group_name_H-M   'P 1'
_cell_length_a   10.00994687
_cell_length_b   10.00617504
_cell_length_c   10.00617400
_cell_angle_alpha   60.00000344
_cell_angle_beta   60.01246736
_cell_angle_gamma   60.01246800
_symmetry_Int_Tables_number   1
_chemical_formula_structural   Pr13Nd3(CdOs)4
_chemical_formula_sum   'Pr13 Nd3 Cd4 Os4'
_cell_volume   708.81801814
_cell_formula_units_Z   1
loop_
 _symmetry_equiv_pos_site_id
 _symmetry_equiv_pos_as_xyz
  1  'x, y, z'
loop_
 _atom_site_type_symbol
 _atom_site_label
 _atom_site_symmetry_multiplicity
 _atom_site_fract_x
 _atom_site_fract_y
 _atom_site_fract_z
 _atom_site_occupancy
  Pr  Pr0  1  0.961165  0.346278  0.346278  1
  Pr  Pr1  1  0.808645  0.191178  0.191178  1
  Pr  Pr2  1  0.191198  0.808778  0.808778  1
  Pr  Pr3  1  0.191198  0.808778  0.191245  1
  Pr  Pr4  1  0.808645  0.191178  0.808998  1
  Pr  Pr5  1  0.191198  0.191245  0.808778  1
  Pr  Pr6  1  0.808645  0.808998  0.191178  1
  Pr  Pr7  1  0.940869  0.559248  0.559248  1
  Pr  Pr8  1  0.559078  0.940878  0.940878  1
  Pr  Pr9  1  0.559078  0.940878  0.559166  1
  Pr  Pr10  1  0.940869  0.559248  0.940636  1
  Pr  Pr11  1  0.559078  0.559166  0.940878  1
  Pr  Pr12  1  0.940869  0.940636  0.559248  1
  Nd  Nd13  1  0.346085  0.345973  0.345973  1
  Nd  Nd14  1  0.346085  0.345973  0.961970  1
  Nd  Nd15  1  0.346085  0.961970  0.345973  1
  Cd  Cd16  1  0.579041  0.579320  0.579320  1
  Cd  Cd17  1  0.579041  0.579320  0.262316  1
  Cd  Cd18  1  0.579041  0.262316  0.579320  1
  Cd  Cd19  1  0.262299  0.579233  0.579233  1
  Os  Os20  1  0.138928  0.137764  0.137764  1
  Os  Os21  1  0.138928  0.137764  0.585543  1
  Os  Os22  1  0.138928  0.585543  0.137764  1
  Os  Os23  1  0.585001  0.138332  0.138332  1
