# generated using pymatgen
data_La16Pr4(Ir3Rh)3
_symmetry_space_group_name_H-M   'P 1'
_cell_length_a   11.41135800
_cell_length_b   11.41135800
_cell_length_c   6.70973300
_cell_angle_alpha   90.00000000
_cell_angle_beta   90.00000000
_cell_angle_gamma   90.00000000
_symmetry_Int_Tables_number   1
_chemical_formula_structural   La16Pr4(Ir3Rh)3
_chemical_formula_sum   'La16 Pr4 Ir9 Rh3'
_cell_volume   873.73533482
_cell_formula_units_Z   1
loop_
 _symmetry_equiv_pos_site_id
 _symmetry_equiv_pos_as_xyz
  1  'x, y, z'
loop_
 _atom_site_type_symbol
 _atom_site_label
 _atom_site_symmetry_multiplicity
 _atom_site_fract_x
 _atom_site_fract_y
 _atom_site_fract_z
 _atom_site_occupancy
  La  La0  1  0.290616  0.091801  0.391836  1
  La  La1  1  0.290531  0.907818  0.891809  1
  La  La2  1  0.709469  0.092182  0.891809  1
  La  La3  1  0.709384  0.908199  0.391836  1
  La  La4  1  0.592182  0.790531  0.891809  1
  La  La5  1  0.591801  0.209384  0.391836  1
  La  La6  1  0.408199  0.790616  0.391836  1
  La  La7  1  0.407818  0.209469  0.891809  1
  La  La8  1  0.208680  0.408393  0.607493  1
  La  La9  1  0.208923  0.591968  0.110200  1
  La  La10  1  0.791077  0.408032  0.110200  1
  La  La11  1  0.791320  0.591607  0.607493  1
  La  La12  1  0.908032  0.708923  0.110200  1
  La  La13  1  0.908393  0.291320  0.607493  1
  La  La14  1  0.091607  0.708680  0.607493  1
  La  La15  1  0.091968  0.291077  0.110200  1
  Pr  Pr16  1  0.000000  0.000000  0.499884  1
  Pr  Pr17  1  0.000000  0.000000  0.999762  1
  Pr  Pr18  1  0.500000  0.500000  0.999762  1
  Pr  Pr19  1  0.500000  0.500000  0.499884  1
  Ir  Ir20  1  0.844490  0.153967  0.249973  1
  Ir  Ir21  1  0.845120  0.845188  0.749480  1
  Ir  Ir22  1  0.154880  0.154812  0.749480  1
  Ir  Ir23  1  0.155510  0.846033  0.249973  1
  Ir  Ir24  1  0.654812  0.345120  0.749480  1
  Ir  Ir25  1  0.653967  0.655510  0.249973  1
  Ir  Ir26  1  0.346033  0.344490  0.249973  1
  Ir  Ir27  1  0.345188  0.654880  0.749480  1
  Ir  Ir28  1  0.000000  0.500000  0.376493  1
  Rh  Rh29  1  0.500000  0.000000  0.119175  1
  Rh  Rh30  1  0.500000  0.000000  0.619174  1
  Rh  Rh31  1  0.000000  0.500000  0.882707  1
