# generated using pymatgen
data_La6TlIn9
_symmetry_space_group_name_H-M   'P 1'
_cell_length_a   6.77159945
_cell_length_b   6.76561776
_cell_length_c   10.69652600
_cell_angle_alpha   90.00000000
_cell_angle_beta   90.00000000
_cell_angle_gamma   102.26955728
_symmetry_Int_Tables_number   1
_chemical_formula_structural   La6TlIn9
_chemical_formula_sum   'La6 Tl1 In9'
_cell_volume   478.85777084
_cell_formula_units_Z   1
loop_
 _symmetry_equiv_pos_site_id
 _symmetry_equiv_pos_as_xyz
  1  'x, y, z'
loop_
 _atom_site_type_symbol
 _atom_site_label
 _atom_site_symmetry_multiplicity
 _atom_site_fract_x
 _atom_site_fract_y
 _atom_site_fract_z
 _atom_site_occupancy
  La  La0  1  0.633407  0.634763  0.250000  1
  La  La1  1  0.366283  0.367439  0.750000  1
  La  La2  1  0.204183  0.795271  0.500878  1
  La  La3  1  0.204183  0.795271  0.999122  1
  La  La4  1  0.795468  0.201614  0.500658  1
  La  La5  1  0.795468  0.201614  0.999342  1
  Tl  Tl6  1  0.070173  0.501818  0.250000  1
  In  In7  1  0.015954  0.016853  0.250000  1
  In  In8  1  0.985719  0.985225  0.750000  1
  In  In9  1  0.307840  0.304237  0.053067  1
  In  In10  1  0.693560  0.693173  0.946868  1
  In  In11  1  0.307840  0.304237  0.446933  1
  In  In12  1  0.693560  0.693173  0.553132  1
  In  In13  1  0.494064  0.071857  0.250000  1
  In  In14  1  0.926137  0.505301  0.750000  1
  In  In15  1  0.506159  0.928155  0.750000  1
