# generated using pymatgen
data_Sc22Os4RuRh3
_symmetry_space_group_name_H-M   'P 1'
_cell_length_a   9.48031992
_cell_length_b   9.48416215
_cell_length_c   9.47206628
_cell_angle_alpha   60.01534293
_cell_angle_beta   60.05562740
_cell_angle_gamma   60.07178225
_symmetry_Int_Tables_number   1
_chemical_formula_structural   Sc22Os4RuRh3
_chemical_formula_sum   'Sc22 Os4 Ru1 Rh3'
_cell_volume   602.86437007
_cell_formula_units_Z   1
loop_
 _symmetry_equiv_pos_site_id
 _symmetry_equiv_pos_as_xyz
  1  'x, y, z'
loop_
 _atom_site_type_symbol
 _atom_site_label
 _atom_site_symmetry_multiplicity
 _atom_site_fract_x
 _atom_site_fract_y
 _atom_site_fract_z
 _atom_site_occupancy
  Sc  Sc0  1  0.803022  0.803022  0.196978  1
  Sc  Sc1  1  0.196426  0.803574  0.198417  1
  Sc  Sc2  1  0.804392  0.195608  0.197765  1
  Sc  Sc3  1  0.196978  0.196978  0.803022  1
  Sc  Sc4  1  0.803574  0.196426  0.801583  1
  Sc  Sc5  1  0.195608  0.804392  0.802235  1
  Sc  Sc6  1  0.614986  0.619194  0.150829  1
  Sc  Sc7  1  0.617914  0.150605  0.617706  1
  Sc  Sc8  1  0.150605  0.617914  0.613776  1
  Sc  Sc9  1  0.619194  0.614986  0.614992  1
  Sc  Sc10  1  0.385014  0.380806  0.849171  1
  Sc  Sc11  1  0.382086  0.849395  0.382294  1
  Sc  Sc12  1  0.849395  0.382086  0.386224  1
  Sc  Sc13  1  0.380806  0.385014  0.385008  1
  Sc  Sc14  1  0.844991  0.842483  0.470506  1
  Sc  Sc15  1  0.844142  0.471005  0.841258  1
  Sc  Sc16  1  0.471005  0.844142  0.843595  1
  Sc  Sc17  1  0.842483  0.844991  0.842017  1
  Sc  Sc18  1  0.155009  0.157517  0.529494  1
  Sc  Sc19  1  0.155858  0.528995  0.158742  1
  Sc  Sc20  1  0.528995  0.155858  0.156405  1
  Sc  Sc21  1  0.157517  0.155009  0.157983  1
  Os  Os22  1  0.500000  0.500000  0.500000  1
  Os  Os23  1  0.000000  0.000000  0.500000  1
  Os  Os24  1  0.000000  0.500000  0.500000  1
  Os  Os25  1  0.500000  0.000000  0.000000  1
  Ru  Ru26  1  0.000000  0.000000  0.000000  1
  Rh  Rh27  1  0.500000  0.000000  0.500000  1
  Rh  Rh28  1  0.500000  0.500000  0.000000  1
  Rh  Rh29  1  0.000000  0.500000  0.000000  1
