# generated using pymatgen
data_ScNb11(BOs)12
_symmetry_space_group_name_H-M   'P 1'
_cell_length_a   3.12825500
_cell_length_b   9.11083553
_cell_length_c   15.84426559
_cell_angle_alpha   89.87385598
_cell_angle_beta   90.00000000
_cell_angle_gamma   90.00000000
_symmetry_Int_Tables_number   1
_chemical_formula_structural   ScNb11(BOs)12
_chemical_formula_sum   'Sc1 Nb11 B12 Os12'
_cell_volume   451.57658514
_cell_formula_units_Z   1
loop_
 _symmetry_equiv_pos_site_id
 _symmetry_equiv_pos_as_xyz
  1  'x, y, z'
loop_
 _atom_site_type_symbol
 _atom_site_label
 _atom_site_symmetry_multiplicity
 _atom_site_fract_x
 _atom_site_fract_y
 _atom_site_fract_z
 _atom_site_occupancy
  Sc  Sc0  1  0.000000  0.810279  0.492026  1
  Nb  Nb1  1  0.000000  0.198414  0.504628  1
  Nb  Nb2  1  0.000000  0.299704  0.004296  1
  Nb  Nb3  1  0.000000  0.699974  0.996142  1
  Nb  Nb4  1  0.000000  0.515782  0.594176  1
  Nb  Nb5  1  0.000000  0.483657  0.406413  1
  Nb  Nb6  1  0.000000  0.015836  0.905891  1
  Nb  Nb7  1  0.000000  0.984035  0.093985  1
  Nb  Nb8  1  0.000000  0.686971  0.204247  1
  Nb  Nb9  1  0.000000  0.312496  0.797334  1
  Nb  Nb10  1  0.000000  0.186036  0.296976  1
  Nb  Nb11  1  0.000000  0.813019  0.703598  1
  B  B12  1  0.500000  0.601884  0.495787  1
  B  B13  1  0.500000  0.394393  0.503910  1
  B  B14  1  0.500000  0.105167  0.002580  1
  B  B15  1  0.500000  0.894394  0.997513  1
  B  B16  1  0.000000  0.609424  0.832948  1
  B  B17  1  0.000000  0.390614  0.167493  1
  B  B18  1  0.000000  0.106367  0.665859  1
  B  B19  1  0.000000  0.889037  0.332324  1
  B  B20  1  0.500000  0.713836  0.600658  1
  B  B21  1  0.500000  0.285409  0.401144  1
  B  B22  1  0.500000  0.216270  0.901862  1
  B  B23  1  0.500000  0.783561  0.098681  1
  Os  Os24  1  0.500000  0.718110  0.355243  1
  Os  Os25  1  0.500000  0.281424  0.644629  1
  Os  Os26  1  0.500000  0.218871  0.143991  1
  Os  Os27  1  0.500000  0.781143  0.856360  1
  Os  Os28  1  0.500000  0.515570  0.094420  1
  Os  Os29  1  0.500000  0.484694  0.905913  1
  Os  Os30  1  0.500000  0.020163  0.403194  1
  Os  Os31  1  0.500000  0.983520  0.595441  1
  Os  Os32  1  0.500000  0.564359  0.734430  1
  Os  Os33  1  0.500000  0.435005  0.265554  1
  Os  Os34  1  0.500000  0.062247  0.765878  1
  Os  Os35  1  0.500000  0.938336  0.234476  1
