# generated using pymatgen
data_Tm6TiAl23Ru8
_symmetry_space_group_name_H-M   'P 1'
_cell_length_a   8.79049400
_cell_length_b   8.79049340
_cell_length_c   9.51467200
_cell_angle_alpha   90.00000000
_cell_angle_beta   90.00000000
_cell_angle_gamma   119.99999473
_symmetry_Int_Tables_number   1
_chemical_formula_structural   Tm6TiAl23Ru8
_chemical_formula_sum   'Tm6 Ti1 Al23 Ru8'
_cell_volume   636.72369236
_cell_formula_units_Z   1
loop_
 _symmetry_equiv_pos_site_id
 _symmetry_equiv_pos_as_xyz
  1  'x, y, z'
loop_
 _atom_site_type_symbol
 _atom_site_label
 _atom_site_symmetry_multiplicity
 _atom_site_fract_x
 _atom_site_fract_y
 _atom_site_fract_z
 _atom_site_occupancy
  Tm  Tm0  1  0.194619  0.389236  0.250034  1
  Tm  Tm1  1  0.806093  0.612188  0.748967  1
  Tm  Tm2  1  0.610764  0.805381  0.250034  1
  Tm  Tm3  1  0.387812  0.193907  0.748967  1
  Tm  Tm4  1  0.194619  0.805381  0.250034  1
  Tm  Tm5  1  0.806093  0.193907  0.748967  1
  Ti  Ti6  1  0.333333  0.666667  0.997019  1
  Al  Al7  1  0.666667  0.333333  0.982253  1
  Al  Al8  1  0.666667  0.333333  0.515739  1
  Al  Al9  1  0.333333  0.666667  0.482539  1
  Al  Al10  1  0.161515  0.323031  0.577649  1
  Al  Al11  1  0.838087  0.676175  0.422120  1
  Al  Al12  1  0.676969  0.838485  0.577649  1
  Al  Al13  1  0.837648  0.675296  0.078426  1
  Al  Al14  1  0.323825  0.161913  0.422120  1
  Al  Al15  1  0.158807  0.317615  0.923096  1
  Al  Al16  1  0.161515  0.838485  0.577649  1
  Al  Al17  1  0.324704  0.162352  0.078426  1
  Al  Al18  1  0.838087  0.161913  0.422120  1
  Al  Al19  1  0.682385  0.841193  0.923096  1
  Al  Al20  1  0.837648  0.162352  0.078426  1
  Al  Al21  1  0.158807  0.841193  0.923096  1
  Al  Al22  1  0.561519  0.123039  0.252196  1
  Al  Al23  1  0.440197  0.880395  0.750424  1
  Al  Al24  1  0.876961  0.438481  0.252196  1
  Al  Al25  1  0.119605  0.559803  0.750424  1
  Al  Al26  1  0.561519  0.438481  0.252196  1
  Al  Al27  1  0.440197  0.559803  0.750424  1
  Al  Al28  1  0.000000  0.000000  0.249179  1
  Al  Al29  1  0.000000  0.000000  0.748880  1
  Ru  Ru30  1  0.498474  0.996947  0.002661  1
  Ru  Ru31  1  0.003053  0.501526  0.002661  1
  Ru  Ru32  1  0.499723  0.999447  0.503113  1
  Ru  Ru33  1  0.498474  0.501526  0.002661  1
  Ru  Ru34  1  0.000553  0.500277  0.503113  1
  Ru  Ru35  1  0.499723  0.500277  0.503113  1
  Ru  Ru36  1  0.000000  0.000000  0.999779  1
  Ru  Ru37  1  0.000000  0.000000  0.498558  1
