# generated using pymatgen
data_Lu4TcB12Os
_symmetry_space_group_name_H-M   'P 1'
_cell_length_a   3.60551700
_cell_length_b   9.04386074
_cell_length_c   11.40790320
_cell_angle_alpha   89.92882531
_cell_angle_beta   90.00000000
_cell_angle_gamma   90.00000000
_symmetry_Int_Tables_number   1
_chemical_formula_structural   Lu4TcB12Os
_chemical_formula_sum   'Lu8 Tc2 B24 Os2'
_cell_volume   371.98626664
_cell_formula_units_Z   2
loop_
 _symmetry_equiv_pos_site_id
 _symmetry_equiv_pos_as_xyz
  1  'x, y, z'
loop_
 _atom_site_type_symbol
 _atom_site_label
 _atom_site_symmetry_multiplicity
 _atom_site_fract_x
 _atom_site_fract_y
 _atom_site_fract_z
 _atom_site_occupancy
  Lu  Lu0  1  0.000000  0.324533  0.415272  1
  Lu  Lu1  1  0.000000  0.675467  0.584728  1
  Lu  Lu2  1  0.000000  0.820296  0.087795  1
  Lu  Lu3  1  0.000000  0.179704  0.912205  1
  Lu  Lu4  1  0.000000  0.942182  0.371550  1
  Lu  Lu5  1  0.000000  0.057818  0.628450  1
  Lu  Lu6  1  0.000000  0.444212  0.129273  1
  Lu  Lu7  1  0.000000  0.555788  0.870727  1
  Tc  Tc8  1  0.000000  0.638784  0.320277  1
  Tc  Tc9  1  0.000000  0.361216  0.679723  1
  B  B10  1  0.500000  0.552836  0.433642  1
  B  B11  1  0.500000  0.447164  0.566358  1
  B  B12  1  0.500000  0.053394  0.066131  1
  B  B13  1  0.500000  0.946606  0.933869  1
  B  B14  1  0.500000  0.749562  0.420031  1
  B  B15  1  0.500000  0.250438  0.579969  1
  B  B16  1  0.500000  0.249903  0.080193  1
  B  B17  1  0.500000  0.750097  0.919807  1
  B  B18  1  0.500000  0.792840  0.264970  1
  B  B19  1  0.500000  0.207160  0.735029  1
  B  B20  1  0.500000  0.292060  0.234623  1
  B  B21  1  0.500000  0.707940  0.765378  1
  B  B22  1  0.500000  0.631166  0.184287  1
  B  B23  1  0.500000  0.368834  0.815713  1
  B  B24  1  0.500000  0.130727  0.314952  1
  B  B25  1  0.500000  0.869273  0.685048  1
  B  B26  1  0.500000  0.981581  0.212206  1
  B  B27  1  0.500000  0.018419  0.787794  1
  B  B28  1  0.500000  0.481295  0.287329  1
  B  B29  1  0.500000  0.518705  0.712671  1
  B  B30  1  0.500000  0.602515  0.028155  1
  B  B31  1  0.500000  0.397485  0.971845  1
  B  B32  1  0.500000  0.102594  0.471212  1
  B  B33  1  0.500000  0.897406  0.528788  1
  Os  Os34  1  0.000000  0.137752  0.178153  1
  Os  Os35  1  0.000000  0.862248  0.821847  1
