# generated using pymatgen
data_Dy6RhAu7
_symmetry_space_group_name_H-M   'P 1'
_cell_length_a   8.07867625
_cell_length_b   8.07867742
_cell_length_c   8.07867726
_cell_angle_alpha   114.31249317
_cell_angle_beta   114.31248482
_cell_angle_gamma   114.31249535
_symmetry_Int_Tables_number   1
_chemical_formula_structural   Dy6RhAu7
_chemical_formula_sum   'Dy6 Rh1 Au7'
_cell_volume   312.77384258
_cell_formula_units_Z   1
loop_
 _symmetry_equiv_pos_site_id
 _symmetry_equiv_pos_as_xyz
  1  'x, y, z'
loop_
 _atom_site_type_symbol
 _atom_site_label
 _atom_site_symmetry_multiplicity
 _atom_site_fract_x
 _atom_site_fract_y
 _atom_site_fract_z
 _atom_site_occupancy
  Dy  Dy0  1  0.736808  0.616400  0.987674  1
  Dy  Dy1  1  0.987674  0.736808  0.616400  1
  Dy  Dy2  1  0.616400  0.987674  0.736808  1
  Dy  Dy3  1  0.263192  0.383600  0.012326  1
  Dy  Dy4  1  0.012326  0.263192  0.383600  1
  Dy  Dy5  1  0.383600  0.012326  0.263192  1
  Rh  Rh6  1  0.000000  0.000000  0.000000  1
  Au  Au7  1  0.567156  0.235907  0.073188  1
  Au  Au8  1  0.073188  0.567156  0.235907  1
  Au  Au9  1  0.235907  0.073188  0.567156  1
  Au  Au10  1  0.432844  0.764093  0.926812  1
  Au  Au11  1  0.926812  0.432844  0.764093  1
  Au  Au12  1  0.764093  0.926812  0.432844  1
  Au  Au13  1  0.500000  0.500000  0.500000  1
