# generated using pymatgen
data_Al3CrFe4
_symmetry_space_group_name_H-M   'P 1'
_cell_length_a   6.95859187
_cell_length_b   6.95859212
_cell_length_c   6.95859260
_cell_angle_alpha   33.66664212
_cell_angle_beta   33.66664044
_cell_angle_gamma   33.66664091
_symmetry_Int_Tables_number   1
_chemical_formula_structural   Al3CrFe4
_chemical_formula_sum   'Al3 Cr1 Fe4'
_cell_volume   92.25055444
_cell_formula_units_Z   1
loop_
 _symmetry_equiv_pos_site_id
 _symmetry_equiv_pos_as_xyz
  1  'x, y, z'
loop_
 _atom_site_type_symbol
 _atom_site_label
 _atom_site_symmetry_multiplicity
 _atom_site_fract_x
 _atom_site_fract_y
 _atom_site_fract_z
 _atom_site_occupancy
  Al  Al0  1  0.249054  0.249054  0.249054  1
  Al  Al1  1  0.750946  0.750946  0.750946  1
  Al  Al2  1  0.500000  0.500000  0.500000  1
  Cr  Cr3  1  0.000000  0.000000  0.000000  1
  Fe  Fe4  1  0.627530  0.627530  0.627530  1
  Fe  Fe5  1  0.121475  0.121475  0.121475  1
  Fe  Fe6  1  0.878525  0.878525  0.878525  1
  Fe  Fe7  1  0.372470  0.372470  0.372470  1
