# generated using pymatgen
data_Tm2ThNi9
_symmetry_space_group_name_H-M   'P 1'
_cell_length_a   8.61605637
_cell_length_b   8.61605627
_cell_length_c   8.61605608
_cell_angle_alpha   33.46872785
_cell_angle_beta   33.46872972
_cell_angle_gamma   33.46873249
_symmetry_Int_Tables_number   1
_chemical_formula_structural   Tm2ThNi9
_chemical_formula_sum   'Tm2 Th1 Ni9'
_cell_volume   173.24778289
_cell_formula_units_Z   1
loop_
 _symmetry_equiv_pos_site_id
 _symmetry_equiv_pos_as_xyz
  1  'x, y, z'
loop_
 _atom_site_type_symbol
 _atom_site_label
 _atom_site_symmetry_multiplicity
 _atom_site_fract_x
 _atom_site_fract_y
 _atom_site_fract_z
 _atom_site_occupancy
  Tm  Tm0  1  0.140545  0.140545  0.140545  1
  Tm  Tm1  1  0.859454  0.859454  0.859454  1
  Th  Th2  1  0.000000  0.000000  0.000000  1
  Ni  Ni3  1  0.333408  0.333408  0.333408  1
  Ni  Ni4  1  0.666592  0.666592  0.666592  1
  Ni  Ni5  1  0.500000  0.500000  0.500000  1
  Ni  Ni6  1  0.584866  0.081934  0.584865  1
  Ni  Ni7  1  0.584866  0.584866  0.081933  1
  Ni  Ni8  1  0.081934  0.584866  0.584865  1
  Ni  Ni9  1  0.918067  0.415135  0.415136  1
  Ni  Ni10  1  0.415135  0.415135  0.918068  1
  Ni  Ni11  1  0.415135  0.918067  0.415136  1
