# generated using pymatgen
data_Li4Yb8Al3InSi8
_symmetry_space_group_name_H-M   'P 1'
_cell_length_a   7.03273541
_cell_length_b   4.34820400
_cell_length_c   16.37158893
_cell_angle_alpha   90.00000000
_cell_angle_beta   89.70164305
_cell_angle_gamma   90.00000000
_symmetry_Int_Tables_number   1
_chemical_formula_structural   Li4Yb8Al3InSi8
_chemical_formula_sum   'Li4 Yb8 Al3 In1 Si8'
_cell_volume   500.63260754
_cell_formula_units_Z   1
loop_
 _symmetry_equiv_pos_site_id
 _symmetry_equiv_pos_as_xyz
  1  'x, y, z'
loop_
 _atom_site_type_symbol
 _atom_site_label
 _atom_site_symmetry_multiplicity
 _atom_site_fract_x
 _atom_site_fract_y
 _atom_site_fract_z
 _atom_site_occupancy
  Li  Li0  1  0.487540  0.750000  0.071423  1
  Li  Li1  1  0.983271  0.750000  0.431254  1
  Li  Li2  1  0.015909  0.250001  0.565791  1
  Li  Li3  1  0.519787  0.250001  0.934128  1
  Yb  Yb4  1  0.161679  0.250001  0.062688  1
  Yb  Yb5  1  0.497344  0.250001  0.224663  1
  Yb  Yb6  1  0.996819  0.250001  0.276415  1
  Yb  Yb7  1  0.659124  0.250001  0.438973  1
  Yb  Yb8  1  0.341163  0.750000  0.557256  1
  Yb  Yb9  1  0.998921  0.750000  0.720833  1
  Yb  Yb10  1  0.498137  0.750000  0.775243  1
  Yb  Yb11  1  0.840097  0.750000  0.939846  1
  Al  Al12  1  0.837934  0.750000  0.157263  1
  Al  Al13  1  0.335593  0.750000  0.343310  1
  Al  Al14  1  0.662102  0.250001  0.654175  1
  In  In15  1  0.162194  0.250001  0.845302  1
  Si  Si16  1  0.737679  0.250001  0.074016  1
  Si  Si17  1  0.208829  0.750000  0.190836  1
  Si  Si18  1  0.707745  0.750000  0.310686  1
  Si  Si19  1  0.235578  0.250001  0.426032  1
  Si  Si20  1  0.764639  0.750000  0.571482  1
  Si  Si21  1  0.292956  0.250001  0.683468  1
  Si  Si22  1  0.777538  0.250001  0.809020  1
  Si  Si23  1  0.277419  0.750000  0.935898  1
