# generated using pymatgen
data_Tb7DyTi5Si16Mo7
_symmetry_space_group_name_H-M   'P 1'
_cell_length_a   6.94737591
_cell_length_b   6.95527703
_cell_length_c   12.86852011
_cell_angle_alpha   90.00818245
_cell_angle_beta   90.12931173
_cell_angle_gamma   89.97804511
_symmetry_Int_Tables_number   1
_chemical_formula_structural   Tb7DyTi5Si16Mo7
_chemical_formula_sum   'Tb7 Dy1 Ti5 Si16 Mo7'
_cell_volume   621.81714835
_cell_formula_units_Z   1
loop_
 _symmetry_equiv_pos_site_id
 _symmetry_equiv_pos_as_xyz
  1  'x, y, z'
loop_
 _atom_site_type_symbol
 _atom_site_label
 _atom_site_symmetry_multiplicity
 _atom_site_fract_x
 _atom_site_fract_y
 _atom_site_fract_z
 _atom_site_occupancy
  Tb  Tb0  1  0.997620  0.659664  0.032876  1
  Tb  Tb1  1  0.003689  0.339963  0.530957  1
  Tb  Tb2  1  0.659394  0.997125  0.968686  1
  Tb  Tb3  1  0.160001  0.503079  0.781888  1
  Tb  Tb4  1  0.839076  0.496050  0.281232  1
  Tb  Tb5  1  0.502904  0.159563  0.218385  1
  Tb  Tb6  1  0.496373  0.840877  0.717036  1
  Dy  Dy7  1  0.340246  0.002210  0.468499  1
  Ti  Ti8  1  0.671020  0.669881  0.500037  1
  Ti  Ti9  1  0.832039  0.169975  0.749223  1
  Ti  Ti10  1  0.170210  0.829495  0.249518  1
  Ti  Ti11  1  0.327896  0.327742  0.000410  1
  Ti  Ti12  1  0.659027  0.493603  0.875662  1
  Si  Si13  1  0.041893  0.711727  0.436879  1
  Si  Si14  1  0.957250  0.288551  0.937581  1
  Si  Si15  1  0.711802  0.041325  0.562564  1
  Si  Si16  1  0.211377  0.458087  0.187496  1
  Si  Si17  1  0.788706  0.543528  0.687091  1
  Si  Si18  1  0.457059  0.211345  0.813275  1
  Si  Si19  1  0.541186  0.788460  0.312949  1
  Si  Si20  1  0.288227  0.958084  0.062710  1
  Si  Si21  1  0.798872  0.871979  0.184388  1
  Si  Si22  1  0.299673  0.627349  0.565833  1
  Si  Si23  1  0.699893  0.372740  0.065523  1
  Si  Si24  1  0.628052  0.299239  0.434242  1
  Si  Si25  1  0.370983  0.701958  0.934474  1
  Si  Si26  1  0.129032  0.199083  0.315974  1
  Si  Si27  1  0.200297  0.129724  0.684274  1
  Si  Si28  1  0.871327  0.800940  0.814903  1
  Mo  Mo29  1  0.340903  0.507051  0.376395  1
  Mo  Mo30  1  0.841176  0.991963  0.374422  1
  Mo  Mo31  1  0.008882  0.157876  0.127523  1
  Mo  Mo32  1  0.994856  0.842271  0.624498  1
  Mo  Mo33  1  0.509134  0.339631  0.623473  1
  Mo  Mo34  1  0.159117  0.007671  0.873630  1
  Mo  Mo35  1  0.490810  0.660193  0.125493  1
