# generated using pymatgen
data_Pt(Rh2S3)4
_symmetry_space_group_name_H-M   'P 1'
_cell_length_a   7.58676357
_cell_length_b   7.58472014
_cell_length_c   6.33566577
_cell_angle_alpha   77.01657932
_cell_angle_beta   76.86604855
_cell_angle_gamma   91.65056391
_symmetry_Int_Tables_number   1
_chemical_formula_structural   Pt(Rh2S3)4
_chemical_formula_sum   'Pt1 Rh8 S12'
_cell_volume   344.73579789
_cell_formula_units_Z   1
loop_
 _symmetry_equiv_pos_site_id
 _symmetry_equiv_pos_as_xyz
  1  'x, y, z'
loop_
 _atom_site_type_symbol
 _atom_site_label
 _atom_site_symmetry_multiplicity
 _atom_site_fract_x
 _atom_site_fract_y
 _atom_site_fract_z
 _atom_site_occupancy
  Pt  Pt0  1  0.775757  0.490993  0.451911  1
  Rh  Rh1  1  0.161975  0.839691  0.999276  1
  Rh  Rh2  1  0.839017  0.160208  0.000515  1
  Rh  Rh3  1  0.001085  0.001151  0.499153  1
  Rh  Rh4  1  0.348701  0.348548  0.946968  1
  Rh  Rh5  1  0.650238  0.649082  0.054329  1
  Rh  Rh6  1  0.508280  0.219260  0.548888  1
  Rh  Rh7  1  0.219165  0.509719  0.549694  1
  Rh  Rh8  1  0.489878  0.780555  0.451078  1
  S  S9  1  0.859356  0.439624  0.095256  1
  S  S10  1  0.559203  0.140120  0.900554  1
  S  S11  1  0.143244  0.560835  0.898452  1
  S  S12  1  0.440090  0.857727  0.101552  1
  S  S13  1  0.116228  0.115971  0.109454  1
  S  S14  1  0.884819  0.884016  0.889882  1
  S  S15  1  0.035455  0.717817  0.387231  1
  S  S16  1  0.287715  0.969861  0.610552  1
  S  S17  1  0.971352  0.283610  0.613189  1
  S  S18  1  0.579315  0.585431  0.734655  1
  S  S19  1  0.413840  0.414981  0.269433  1
  S  S20  1  0.715285  0.030797  0.387978  1
