# generated using pymatgen
data_Ac2TiRuF14
_symmetry_space_group_name_H-M   'P 1'
_cell_length_a   5.85743185
_cell_length_b   6.28104149
_cell_length_c   8.58295100
_cell_angle_alpha   78.56733502
_cell_angle_beta   89.88971100
_cell_angle_gamma   90.15672058
_symmetry_Int_Tables_number   1
_chemical_formula_structural   Ac2TiRuF14
_chemical_formula_sum   'Ac2 Ti1 Ru1 F14'
_cell_volume   309.50578713
_cell_formula_units_Z   1
loop_
 _symmetry_equiv_pos_site_id
 _symmetry_equiv_pos_as_xyz
  1  'x, y, z'
loop_
 _atom_site_type_symbol
 _atom_site_label
 _atom_site_symmetry_multiplicity
 _atom_site_fract_x
 _atom_site_fract_y
 _atom_site_fract_z
 _atom_site_occupancy
  Ac  Ac0  1  0.203325  0.663530  0.308796  1
  Ac  Ac1  1  0.704294  0.334120  0.690743  1
  Ti  Ti2  1  0.713791  0.192365  0.219561  1
  Ru  Ru3  1  0.213010  0.806408  0.778825  1
  F  F4  1  0.365270  0.430308  0.531285  1
  F  F5  1  0.865625  0.579218  0.467757  1
  F  F6  1  0.914496  0.956758  0.220352  1
  F  F7  1  0.410102  0.056234  0.781074  1
  F  F8  1  0.464209  0.994074  0.238254  1
  F  F9  1  0.946250  0.000027  0.761505  1
  F  F10  1  0.516186  0.431605  0.212122  1
  F  F11  1  0.016054  0.551303  0.788926  1
  F  F12  1  0.198625  0.758046  0.005876  1
  F  F13  1  0.702961  0.236245  0.997037  1
  F  F14  1  0.230936  0.864316  0.551297  1
  F  F15  1  0.726763  0.147928  0.443519  1
  F  F16  1  0.974479  0.375651  0.207812  1
  F  F17  1  0.486348  0.621863  0.795259  1
