# generated using pymatgen
data_PrU3(PO5)4
_symmetry_space_group_name_H-M   'P 1'
_cell_length_a   5.57795497
_cell_length_b   8.93018928
_cell_length_c   9.33370399
_cell_angle_alpha   101.19849500
_cell_angle_beta   103.46808133
_cell_angle_gamma   98.28577363
_symmetry_Int_Tables_number   1
_chemical_formula_structural   PrU3(PO5)4
_chemical_formula_sum   'Pr1 U3 P4 O20'
_cell_volume   434.71398707
_cell_formula_units_Z   1
loop_
 _symmetry_equiv_pos_site_id
 _symmetry_equiv_pos_as_xyz
  1  'x, y, z'
loop_
 _atom_site_type_symbol
 _atom_site_label
 _atom_site_symmetry_multiplicity
 _atom_site_fract_x
 _atom_site_fract_y
 _atom_site_fract_z
 _atom_site_occupancy
  Pr  Pr0  1  0.352172  0.296601  0.045940  1
  U  U1  1  0.650597  0.704905  0.953933  1
  U  U2  1  0.333969  0.801081  0.551069  1
  U  U3  1  0.663087  0.197610  0.448163  1
  P  P4  1  0.086447  0.522863  0.765556  1
  P  P5  1  0.906854  0.492602  0.241612  1
  P  P6  1  0.287553  0.918513  0.177819  1
  P  P7  1  0.730026  0.071144  0.819168  1
  O  O8  1  0.011792  0.119406  0.881627  1
  O  O9  1  0.004681  0.849020  0.098314  1
  O  O10  1  0.964635  0.382264  0.635404  1
  O  O11  1  0.013081  0.633947  0.375005  1
  O  O12  1  0.719204  0.368656  0.279616  1
  O  O13  1  0.262007  0.652268  0.728126  1
  O  O14  1  0.439378  0.817593  0.088298  1
  O  O15  1  0.587271  0.175419  0.900374  1
  O  O16  1  0.427017  0.295140  0.500003  1
  O  O17  1  0.556938  0.686212  0.506104  1
  O  O18  1  0.873647  0.592457  0.826324  1
  O  O19  1  0.105067  0.423570  0.180203  1
  O  O20  1  0.278510  0.488420  0.899134  1
  O  O21  1  0.726228  0.547230  0.106538  1
  O  O22  1  0.887717  0.096905  0.384764  1
  O  O23  1  0.117464  0.914160  0.607650  1
  O  O24  1  0.361658  0.915802  0.345978  1
  O  O25  1  0.643426  0.052365  0.642779  1
  O  O26  1  0.366580  0.090338  0.178870  1
  O  O27  1  0.642992  0.893510  0.831630  1
