# generated using pymatgen
data_Ba20PdRu11O48
_symmetry_space_group_name_H-M   'P 1'
_cell_length_a   5.98756800
_cell_length_b   11.02429130
_cell_length_c   20.12045400
_cell_angle_alpha   89.69685974
_cell_angle_beta   90.00000000
_cell_angle_gamma   90.00000000
_symmetry_Int_Tables_number   1
_chemical_formula_structural   Ba20PdRu11O48
_chemical_formula_sum   'Ba20 Pd1 Ru11 O48'
_cell_volume   1328.10629850
_cell_formula_units_Z   1
loop_
 _symmetry_equiv_pos_site_id
 _symmetry_equiv_pos_as_xyz
  1  'x, y, z'
loop_
 _atom_site_type_symbol
 _atom_site_label
 _atom_site_symmetry_multiplicity
 _atom_site_fract_x
 _atom_site_fract_y
 _atom_site_fract_z
 _atom_site_occupancy
  Ba  Ba0  1  0.000000  0.886441  0.969910  1
  Ba  Ba1  1  0.000000  0.386791  0.529771  1
  Ba  Ba2  1  0.500000  0.112981  0.028268  1
  Ba  Ba3  1  0.500000  0.612641  0.471063  1
  Ba  Ba4  1  0.000000  0.697644  0.755756  1
  Ba  Ba5  1  0.000000  0.196533  0.743459  1
  Ba  Ba6  1  0.500000  0.302100  0.245262  1
  Ba  Ba7  1  0.500000  0.801621  0.254783  1
  Ba  Ba8  1  0.000000  0.047984  0.175220  1
  Ba  Ba9  1  0.000000  0.548756  0.326402  1
  Ba  Ba10  1  0.500000  0.953342  0.822829  1
  Ba  Ba11  1  0.500000  0.453073  0.675935  1
  Ba  Ba12  1  0.000000  0.685249  0.130695  1
  Ba  Ba13  1  0.000000  0.185206  0.371235  1
  Ba  Ba14  1  0.500000  0.315324  0.868020  1
  Ba  Ba15  1  0.500000  0.814792  0.630541  1
  Ba  Ba16  1  0.000000  0.521963  0.925061  1
  Ba  Ba17  1  0.000000  0.025063  0.575199  1
  Ba  Ba18  1  0.500000  0.472913  0.073990  1
  Ba  Ba19  1  0.500000  0.975006  0.424925  1
  Pd  Pd20  1  0.000000  0.283772  0.054888  1
  Ru  Ru21  1  0.000000  0.382013  0.179178  1
  Ru  Ru22  1  0.000000  0.876694  0.326851  1
  Ru  Ru23  1  0.500000  0.623574  0.827540  1
  Ru  Ru24  1  0.500000  0.123678  0.672473  1
  Ru  Ru25  1  0.000000  0.192720  0.927744  1
  Ru  Ru26  1  0.000000  0.694711  0.569308  1
  Ru  Ru27  1  0.500000  0.804967  0.069049  1
  Ru  Ru28  1  0.500000  0.305175  0.431112  1
  Ru  Ru29  1  0.000000  0.785562  0.442198  1
  Ru  Ru30  1  0.500000  0.714989  0.942010  1
  Ru  Ru31  1  0.500000  0.214721  0.557914  1
  O  O32  1  0.226398  0.306314  0.980377  1
  O  O33  1  0.775323  0.807222  0.516167  1
  O  O34  1  0.723061  0.691669  0.015973  1
  O  O35  1  0.274688  0.192854  0.483984  1
  O  O36  1  0.276939  0.691669  0.015973  1
  O  O37  1  0.725312  0.192854  0.483984  1
  O  O38  1  0.773602  0.306314  0.980377  1
  O  O39  1  0.224677  0.807222  0.516167  1
  O  O40  1  0.000000  0.109226  0.021684  1
  O  O41  1  0.000000  0.612936  0.475477  1
  O  O42  1  0.500000  0.888315  0.975767  1
  O  O43  1  0.500000  0.387238  0.524796  1
  O  O44  1  0.230448  0.263734  0.130528  1
  O  O45  1  0.762318  0.758686  0.370652  1
  O  O46  1  0.735684  0.742788  0.870254  1
  O  O47  1  0.261714  0.241696  0.629713  1
  O  O48  1  0.264316  0.742788  0.870254  1
  O  O49  1  0.738286  0.241696  0.629713  1
  O  O50  1  0.769552  0.263734  0.130528  1
  O  O51  1  0.237682  0.758686  0.370652  1
  O  O52  1  0.000000  0.307731  0.857078  1
  O  O53  1  0.000000  0.807388  0.640668  1
  O  O54  1  0.500000  0.690490  0.140321  1
  O  O55  1  0.500000  0.192432  0.359686  1
  O  O56  1  0.765667  0.093625  0.895367  1
  O  O57  1  0.234203  0.594480  0.602454  1
  O  O58  1  0.265923  0.903842  0.102914  1
  O  O59  1  0.734086  0.405462  0.398331  1
  O  O60  1  0.734077  0.903842  0.102914  1
  O  O61  1  0.265914  0.405462  0.398331  1
  O  O62  1  0.234333  0.093625  0.895367  1
  O  O63  1  0.765797  0.594480  0.602454  1
  O  O64  1  0.000000  0.459627  0.084538  1
  O  O65  1  0.000000  0.962688  0.419271  1
  O  O66  1  0.500000  0.536242  0.919176  1
  O  O67  1  0.500000  0.037119  0.580539  1
  O  O68  1  0.000000  0.276852  0.254760  1
  O  O69  1  0.000000  0.778932  0.247876  1
  O  O70  1  0.500000  0.721736  0.748017  1
  O  O71  1  0.500000  0.220939  0.751548  1
  O  O72  1  0.769179  0.485777  0.210074  1
  O  O73  1  0.228425  0.981876  0.293646  1
  O  O74  1  0.272091  0.518374  0.794252  1
  O  O75  1  0.728164  0.017658  0.705417  1
  O  O76  1  0.727909  0.518374  0.794252  1
  O  O77  1  0.271836  0.017658  0.705417  1
  O  O78  1  0.230821  0.485777  0.210074  1
  O  O79  1  0.771575  0.981876  0.293646  1
