# generated using pymatgen
data_Tb6HfSc(Co4P3)4
_symmetry_space_group_name_H-M   'P 1'
_cell_length_a   3.72788400
_cell_length_b   10.68883400
_cell_length_c   12.40067500
_cell_angle_alpha   90.00000000
_cell_angle_beta   90.00000000
_cell_angle_gamma   90.00000000
_symmetry_Int_Tables_number   1
_chemical_formula_structural   Tb6HfSc(Co4P3)4
_chemical_formula_sum   'Tb6 Hf1 Sc1 Co16 P12'
_cell_volume   494.12638881
_cell_formula_units_Z   1
loop_
 _symmetry_equiv_pos_site_id
 _symmetry_equiv_pos_as_xyz
  1  'x, y, z'
loop_
 _atom_site_type_symbol
 _atom_site_label
 _atom_site_symmetry_multiplicity
 _atom_site_fract_x
 _atom_site_fract_y
 _atom_site_fract_z
 _atom_site_occupancy
  Tb  Tb0  1  0.000000  0.500000  0.527277  1
  Tb  Tb1  1  0.500000  0.000000  0.472201  1
  Tb  Tb2  1  0.500000  0.821566  0.204994  1
  Tb  Tb3  1  0.500000  0.178434  0.204994  1
  Tb  Tb4  1  0.000000  0.678239  0.794467  1
  Tb  Tb5  1  0.000000  0.321761  0.794467  1
  Hf  Hf6  1  0.000000  0.000000  0.843203  1
  Sc  Sc7  1  0.500000  0.500000  0.156173  1
  Co  Co8  1  0.500000  0.500000  0.703741  1
  Co  Co9  1  0.000000  0.000000  0.296482  1
  Co  Co10  1  0.000000  0.500000  0.986534  1
  Co  Co11  1  0.500000  0.000000  0.013187  1
  Co  Co12  1  0.500000  0.331713  0.994026  1
  Co  Co13  1  0.500000  0.668287  0.994026  1
  Co  Co14  1  0.000000  0.168040  0.006471  1
  Co  Co15  1  0.000000  0.831960  0.006471  1
  Co  Co16  1  0.500000  0.295265  0.432960  1
  Co  Co17  1  0.500000  0.704735  0.432960  1
  Co  Co18  1  0.000000  0.204548  0.567440  1
  Co  Co19  1  0.000000  0.795452  0.567440  1
  Co  Co20  1  0.500000  0.878342  0.703551  1
  Co  Co21  1  0.500000  0.121658  0.703551  1
  Co  Co22  1  0.000000  0.621871  0.297091  1
  Co  Co23  1  0.000000  0.378129  0.297091  1
  P  P24  1  0.500000  0.500000  0.884539  1
  P  P25  1  0.000000  0.000000  0.116254  1
  P  P26  1  0.500000  0.500000  0.358616  1
  P  P27  1  0.000000  0.000000  0.639229  1
  P  P28  1  0.500000  0.309270  0.615164  1
  P  P29  1  0.500000  0.690730  0.615164  1
  P  P30  1  0.000000  0.190930  0.384746  1
  P  P31  1  0.000000  0.809070  0.384746  1
  P  P32  1  0.500000  0.838765  0.894131  1
  P  P33  1  0.500000  0.161235  0.894131  1
  P  P34  1  0.000000  0.659914  0.106240  1
  P  P35  1  0.000000  0.340086  0.106240  1
