# generated using pymatgen
data_Tb4CrRe3B16
_symmetry_space_group_name_H-M   'P 1'
_cell_length_a   3.59010400
_cell_length_b   5.97520015
_cell_length_c   11.55809511
_cell_angle_alpha   90.11772029
_cell_angle_beta   90.00000000
_cell_angle_gamma   90.00000000
_symmetry_Int_Tables_number   1
_chemical_formula_structural   Tb4CrRe3B16
_chemical_formula_sum   'Tb4 Cr1 Re3 B16'
_cell_volume   247.93899357
_cell_formula_units_Z   1
loop_
 _symmetry_equiv_pos_site_id
 _symmetry_equiv_pos_as_xyz
  1  'x, y, z'
loop_
 _atom_site_type_symbol
 _atom_site_label
 _atom_site_symmetry_multiplicity
 _atom_site_fract_x
 _atom_site_fract_y
 _atom_site_fract_z
 _atom_site_occupancy
  Tb  Tb0  1  0.000000  0.626999  0.347494  1
  Tb  Tb1  1  0.000000  0.373599  0.650653  1
  Tb  Tb2  1  0.000000  0.123777  0.149221  1
  Tb  Tb3  1  0.000000  0.874278  0.851098  1
  Cr  Cr4  1  0.000000  0.626520  0.083192  1
  Re  Re5  1  0.000000  0.373585  0.916805  1
  Re  Re6  1  0.000000  0.133663  0.412069  1
  Re  Re7  1  0.000000  0.867081  0.587982  1
  B  B8  1  0.500000  0.783019  0.182883  1
  B  B9  1  0.500000  0.214882  0.816326  1
  B  B10  1  0.500000  0.285795  0.314110  1
  B  B11  1  0.500000  0.715026  0.685479  1
  B  B12  1  0.500000  0.861809  0.033090  1
  B  B13  1  0.500000  0.136661  0.968710  1
  B  B14  1  0.500000  0.363463  0.468298  1
  B  B15  1  0.500000  0.636993  0.531135  1
  B  B16  1  0.500000  0.885835  0.452438  1
  B  B17  1  0.500000  0.113961  0.546867  1
  B  B18  1  0.500000  0.387175  0.048059  1
  B  B19  1  0.500000  0.614906  0.954469  1
  B  B20  1  0.500000  0.974071  0.307251  1
  B  B21  1  0.500000  0.025201  0.692241  1
  B  B22  1  0.500000  0.477650  0.191080  1
  B  B23  1  0.500000  0.524052  0.809049  1
