# generated using pymatgen
data_TaNb5Ga4(NiC)2
_symmetry_space_group_name_H-M   'P 1'
_cell_length_a   8.23921029
_cell_length_b   8.23921065
_cell_length_c   8.25009934
_cell_angle_alpha   60.10479141
_cell_angle_beta   60.10479968
_cell_angle_gamma   60.05381201
_symmetry_Int_Tables_number   1
_chemical_formula_structural   TaNb5Ga4(NiC)2
_chemical_formula_sum   'Ta2 Nb10 Ga8 Ni4 C4'
_cell_volume   396.80610368
_cell_formula_units_Z   2
loop_
 _symmetry_equiv_pos_site_id
 _symmetry_equiv_pos_as_xyz
  1  'x, y, z'
loop_
 _atom_site_type_symbol
 _atom_site_label
 _atom_site_symmetry_multiplicity
 _atom_site_fract_x
 _atom_site_fract_y
 _atom_site_fract_z
 _atom_site_occupancy
  Ta  Ta0  1  0.563480  0.937056  0.563161  1
  Ta  Ta1  1  0.312944  0.686520  0.686839  1
  Nb  Nb2  1  0.688389  0.312379  0.311491  1
  Nb  Nb3  1  0.312186  0.688282  0.312213  1
  Nb  Nb4  1  0.687304  0.687435  0.312244  1
  Nb  Nb5  1  0.312043  0.312891  0.688113  1
  Nb  Nb6  1  0.562565  0.562696  0.937756  1
  Nb  Nb7  1  0.936157  0.564368  0.563580  1
  Nb  Nb8  1  0.561718  0.937814  0.937787  1
  Nb  Nb9  1  0.937109  0.937957  0.561887  1
  Nb  Nb10  1  0.685632  0.313843  0.686420  1
  Nb  Nb11  1  0.937621  0.561611  0.938509  1
  Ga  Ga12  1  0.915125  0.917132  0.915643  1
  Ga  Ga13  1  0.998936  0.333594  0.335142  1
  Ga  Ga14  1  0.333785  0.998707  0.333093  1
  Ga  Ga15  1  0.334763  0.332638  0.999395  1
  Ga  Ga16  1  0.916406  0.251064  0.914858  1
  Ga  Ga17  1  0.917362  0.915237  0.250605  1
  Ga  Ga18  1  0.251293  0.916215  0.916907  1
  Ga  Ga19  1  0.332868  0.334875  0.334357  1
  Ni  Ni20  1  0.124109  0.125891  0.125000  1
  Ni  Ni21  1  0.625180  0.123548  0.128944  1
  Ni  Ni22  1  0.126452  0.624820  0.121056  1
  Ni  Ni23  1  0.130266  0.119734  0.625000  1
  C  C24  1  0.622457  0.627543  0.625000  1
  C  C25  1  0.125355  0.626003  0.625579  1
  C  C26  1  0.623997  0.124645  0.624421  1
  C  C27  1  0.624499  0.625501  0.125000  1
