# generated using pymatgen
data_Y4HoNb3(Co4P3)4
_symmetry_space_group_name_H-M   'P 1'
_cell_length_a   12.20730100
_cell_length_b   12.20911308
_cell_length_c   3.70664100
_cell_angle_alpha   90.00000000
_cell_angle_beta   90.00000000
_cell_angle_gamma   119.99508229
_symmetry_Int_Tables_number   1
_chemical_formula_structural   Y4HoNb3(Co4P3)4
_chemical_formula_sum   'Y4 Ho1 Nb3 Co16 P12'
_cell_volume   478.44987479
_cell_formula_units_Z   1
loop_
 _symmetry_equiv_pos_site_id
 _symmetry_equiv_pos_as_xyz
  1  'x, y, z'
loop_
 _atom_site_type_symbol
 _atom_site_label
 _atom_site_symmetry_multiplicity
 _atom_site_fract_x
 _atom_site_fract_y
 _atom_site_fract_z
 _atom_site_occupancy
  Y  Y0  1  0.999855  0.816175  0.500000  1
  Y  Y1  1  0.183679  0.183825  0.500000  1
  Y  Y2  1  0.333340  0.666548  0.000000  1
  Y  Y3  1  0.666793  0.333452  0.000000  1
  Ho  Ho4  1  0.816221  0.000000  0.500000  1
  Nb  Nb5  1  0.444375  0.000000  0.000000  1
  Nb  Nb6  1  0.999925  0.444043  0.000000  1
  Nb  Nb7  1  0.555881  0.555957  0.000000  1
  Co  Co8  1  0.279192  0.000000  0.500000  1
  Co  Co9  1  0.999764  0.278852  0.500000  1
  Co  Co10  1  0.720913  0.721148  0.500000  1
  Co  Co11  1  0.626588  0.803657  0.000000  1
  Co  Co12  1  0.196838  0.822996  0.000000  1
  Co  Co13  1  0.176927  0.373701  0.000000  1
  Co  Co14  1  0.373842  0.177004  0.000000  1
  Co  Co15  1  0.803226  0.626299  0.000000  1
  Co  Co16  1  0.822931  0.196343  0.000000  1
  Co  Co17  1  0.519861  0.873411  0.500000  1
  Co  Co18  1  0.126688  0.646223  0.500000  1
  Co  Co19  1  0.353701  0.480433  0.500000  1
  Co  Co20  1  0.480465  0.353777  0.500000  1
  Co  Co21  1  0.873267  0.519567  0.500000  1
  Co  Co22  1  0.646450  0.126589  0.500000  1
  Co  Co23  1  0.999487  0.000000  0.000000  1
  P  P24  1  0.178298  0.000000  0.000000  1
  P  P25  1  0.999356  0.178039  0.000000  1
  P  P26  1  0.821318  0.821961  0.000000  1
  P  P27  1  0.521018  0.688779  0.500000  1
  P  P28  1  0.311285  0.832198  0.500000  1
  P  P29  1  0.167687  0.478876  0.500000  1
  P  P30  1  0.479087  0.167802  0.500000  1
  P  P31  1  0.688810  0.521124  0.500000  1
  P  P32  1  0.832238  0.311221  0.500000  1
  P  P33  1  0.644051  0.000000  0.000000  1
  P  P34  1  0.999971  0.643299  0.000000  1
  P  P35  1  0.356672  0.356701  0.000000  1
