# generated using pymatgen
data_BaYAlZn3O7
_symmetry_space_group_name_H-M   'P 1'
_cell_length_a   6.38516400
_cell_length_b   6.38515954
_cell_length_c   10.33598400
_cell_angle_alpha   90.00003589
_cell_angle_beta   89.99994616
_cell_angle_gamma   120.00023097
_symmetry_Int_Tables_number   1
_chemical_formula_structural   BaYAlZn3O7
_chemical_formula_sum   'Ba2 Y2 Al2 Zn6 O14'
_cell_volume   364.94318569
_cell_formula_units_Z   2
loop_
 _symmetry_equiv_pos_site_id
 _symmetry_equiv_pos_as_xyz
  1  'x, y, z'
loop_
 _atom_site_type_symbol
 _atom_site_label
 _atom_site_symmetry_multiplicity
 _atom_site_fract_x
 _atom_site_fract_y
 _atom_site_fract_z
 _atom_site_occupancy
  Ba  Ba0  1  0.666674  0.333348  0.476292  1
  Ba  Ba1  1  0.333328  0.666653  0.976294  1
  Y  Y2  1  0.333333  0.666665  0.327846  1
  Y  Y3  1  0.666667  0.333336  0.827849  1
  Al  Al4  1  0.999999  0.999997  0.392072  1
  Al  Al5  1  0.000001  0.000003  0.892073  1
  Zn  Zn6  1  0.830694  0.169092  0.141224  1
  Zn  Zn7  1  0.338399  0.169299  0.141224  1
  Zn  Zn8  1  0.830904  0.661596  0.141225  1
  Zn  Zn9  1  0.169308  0.830909  0.641224  1
  Zn  Zn10  1  0.661602  0.830702  0.641225  1
  Zn  Zn11  1  0.169095  0.338401  0.641226  1
  O  O12  1  0.492068  0.984364  0.191328  1
  O  O13  1  0.492301  0.507921  0.191335  1
  O  O14  1  0.015622  0.507693  0.191335  1
  O  O15  1  0.999999  0.999998  0.218038  1
  O  O16  1  0.693654  0.846217  0.446359  1
  O  O17  1  0.153769  0.847422  0.446358  1
  O  O18  1  0.152570  0.306341  0.446361  1
  O  O19  1  0.507934  0.015636  0.691327  1
  O  O20  1  0.984377  0.492306  0.691334  1
  O  O21  1  0.507700  0.492078  0.691335  1
  O  O22  1  0.000001  0.000002  0.718038  1
  O  O23  1  0.846232  0.152577  0.946359  1
  O  O24  1  0.306346  0.153784  0.946360  1
  O  O25  1  0.847431  0.693658  0.946361  1
