# generated using pymatgen
data_Li4Ca(ThSn2)2
_symmetry_space_group_name_H-M   'P 1'
_cell_length_a   8.83084463
_cell_length_b   8.83084377
_cell_length_c   8.83084508
_cell_angle_alpha   149.17364946
_cell_angle_beta   131.16355318
_cell_angle_gamma   58.87311312
_symmetry_Int_Tables_number   1
_chemical_formula_structural   Li4Ca(ThSn2)2
_chemical_formula_sum   'Li4 Ca1 Th2 Sn4'
_cell_volume   263.58345540
_cell_formula_units_Z   1
loop_
 _symmetry_equiv_pos_site_id
 _symmetry_equiv_pos_as_xyz
  1  'x, y, z'
loop_
 _atom_site_type_symbol
 _atom_site_label
 _atom_site_symmetry_multiplicity
 _atom_site_fract_x
 _atom_site_fract_y
 _atom_site_fract_z
 _atom_site_occupancy
  Li  Li0  1  0.641279  0.327557  0.313722  1
  Li  Li1  1  0.361947  0.670700  0.691247  1
  Li  Li2  1  0.013834  0.327557  0.686278  1
  Li  Li3  1  0.979455  0.670700  0.308753  1
  Ca  Ca4  1  0.630477  0.130477  0.500000  1
  Th  Th5  1  0.372484  0.872484  0.500000  1
  Th  Th6  1  0.000953  0.000953  0.000000  1
  Sn  Sn7  1  0.217409  0.217409  0.000000  1
  Sn  Sn8  1  0.788571  0.788571  0.000000  1
  Sn  Sn9  1  0.694800  0.496794  0.198006  1
  Sn  Sn10  1  0.298789  0.496794  0.801994  1
