# generated using pymatgen
data_Mg3Hg(BrO3)8
_symmetry_space_group_name_H-M   'P 1'
_cell_length_a   5.81797526
_cell_length_b   10.72585830
_cell_length_c   10.78924415
_cell_angle_alpha   119.23766535
_cell_angle_beta   90.10228135
_cell_angle_gamma   88.86487148
_symmetry_Int_Tables_number   1
_chemical_formula_structural   Mg3Hg(BrO3)8
_chemical_formula_sum   'Mg3 Hg1 Br8 O24'
_cell_volume   587.36456014
_cell_formula_units_Z   1
loop_
 _symmetry_equiv_pos_site_id
 _symmetry_equiv_pos_as_xyz
  1  'x, y, z'
loop_
 _atom_site_type_symbol
 _atom_site_label
 _atom_site_symmetry_multiplicity
 _atom_site_fract_x
 _atom_site_fract_y
 _atom_site_fract_z
 _atom_site_occupancy
  Mg  Mg0  1  0.642447  0.234837  0.492459  1
  Mg  Mg1  1  0.140142  0.261931  0.005896  1
  Mg  Mg2  1  0.641004  0.738875  0.991170  1
  Hg  Hg3  1  0.138400  0.769958  0.507193  1
  Br  Br4  1  0.269916  0.408755  0.344535  1
  Br  Br5  1  0.752319  0.575341  0.649161  1
  Br  Br6  1  0.264599  0.917191  0.859822  1
  Br  Br7  1  0.767982  0.084927  0.150119  1
  Br  Br8  1  0.776799  0.103768  0.704981  1
  Br  Br9  1  0.302293  0.923348  0.305724  1
  Br  Br10  1  0.287645  0.415971  0.813123  1
  Br  Br11  1  0.784328  0.581572  0.176819  1
  O  O12  1  0.426839  0.890780  0.974498  1
  O  O13  1  0.937185  0.121367  0.045785  1
  O  O14  1  0.382786  0.802670  0.699452  1
  O  O15  1  0.868948  0.187929  0.316656  1
  O  O16  1  0.361502  0.293165  0.177617  1
  O  O17  1  0.851024  0.687817  0.813601  1
  O  O18  1  0.936490  0.233761  0.831350  1
  O  O19  1  0.439850  0.781586  0.172323  1
  O  O20  1  0.896424  0.948384  0.681174  1
  O  O21  1  0.442947  0.070299  0.332862  1
  O  O22  1  0.347716  0.078420  0.885556  1
  O  O23  1  0.857186  0.917611  0.108917  1
  O  O24  1  0.429462  0.281527  0.673914  1
  O  O25  1  0.908680  0.726936  0.309115  1
  O  O26  1  0.352808  0.385980  0.949550  1
  O  O27  1  0.841771  0.598194  0.032058  1
  O  O28  1  0.424168  0.567005  0.849149  1
  O  O29  1  0.944581  0.439321  0.155479  1
  O  O30  1  0.379088  0.565687  0.371623  1
  O  O31  1  0.841138  0.411941  0.620279  1
  O  O32  1  0.431976  0.373417  0.453093  1
  O  O33  1  0.926027  0.599442  0.538118  1
  O  O34  1  0.841447  0.109069  0.554731  1
  O  O35  1  0.371685  0.911222  0.452100  1
