# generated using pymatgen
data_Sr2GaMoF10
_symmetry_space_group_name_H-M   'P 1'
_cell_length_a   5.83416584
_cell_length_b   5.88450685
_cell_length_c   7.97789400
_cell_angle_alpha   69.67010059
_cell_angle_beta   70.29221435
_cell_angle_gamma   71.79200549
_symmetry_Int_Tables_number   1
_chemical_formula_structural   Sr2GaMoF10
_chemical_formula_sum   'Sr2 Ga1 Mo1 F10'
_cell_volume   235.79381727
_cell_formula_units_Z   1
loop_
 _symmetry_equiv_pos_site_id
 _symmetry_equiv_pos_as_xyz
  1  'x, y, z'
loop_
 _atom_site_type_symbol
 _atom_site_label
 _atom_site_symmetry_multiplicity
 _atom_site_fract_x
 _atom_site_fract_y
 _atom_site_fract_z
 _atom_site_occupancy
  Sr  Sr0  1  0.534380  0.446067  0.759424  1
  Sr  Sr1  1  0.465620  0.553933  0.240576  1
  Ga  Ga2  1  0.000000  0.000000  0.000000  1
  Mo  Mo3  1  0.000000  0.000000  0.500000  1
  F  F4  1  0.074179  0.927398  0.241098  1
  F  F5  1  0.925821  0.072602  0.758902  1
  F  F6  1  0.219595  0.257765  0.375404  1
  F  F7  1  0.769202  0.801839  0.109432  1
  F  F8  1  0.731075  0.288043  0.031634  1
  F  F9  1  0.687350  0.291310  0.475495  1
  F  F10  1  0.268925  0.711957  0.968366  1
  F  F11  1  0.312650  0.708690  0.524505  1
  F  F12  1  0.230798  0.198161  0.890568  1
  F  F13  1  0.780405  0.742235  0.624596  1
