# generated using pymatgen
data_Tb2ErLu(CrB4)4
_symmetry_space_group_name_H-M   'P 1'
_cell_length_a   3.43418600
_cell_length_b   5.92393494
_cell_length_c   11.44813501
_cell_angle_alpha   89.94071425
_cell_angle_beta   90.00000000
_cell_angle_gamma   90.00000000
_symmetry_Int_Tables_number   1
_chemical_formula_structural   Tb2ErLu(CrB4)4
_chemical_formula_sum   'Tb2 Er1 Lu1 Cr4 B16'
_cell_volume   232.89952542
_cell_formula_units_Z   1
loop_
 _symmetry_equiv_pos_site_id
 _symmetry_equiv_pos_as_xyz
  1  'x, y, z'
loop_
 _atom_site_type_symbol
 _atom_site_label
 _atom_site_symmetry_multiplicity
 _atom_site_fract_x
 _atom_site_fract_y
 _atom_site_fract_z
 _atom_site_occupancy
  Tb  Tb0  1  0.000000  0.375647  0.651416  1
  Tb  Tb1  1  0.000000  0.124204  0.150651  1
  Er  Er2  1  0.000000  0.624226  0.349183  1
  Lu  Lu3  1  0.000000  0.875794  0.849646  1
  Cr  Cr4  1  0.000000  0.624929  0.080434  1
  Cr  Cr5  1  0.000000  0.376072  0.918596  1
  Cr  Cr6  1  0.000000  0.124111  0.418897  1
  Cr  Cr7  1  0.000000  0.875110  0.581847  1
  B  B8  1  0.500000  0.780106  0.184066  1
  B  B9  1  0.500000  0.217129  0.816256  1
  B  B10  1  0.500000  0.282096  0.315920  1
  B  B11  1  0.500000  0.719706  0.685536  1
  B  B12  1  0.500000  0.863247  0.031216  1
  B  B13  1  0.500000  0.136749  0.966739  1
  B  B14  1  0.500000  0.362884  0.467575  1
  B  B15  1  0.500000  0.637038  0.532324  1
  B  B16  1  0.500000  0.885521  0.453124  1
  B  B17  1  0.500000  0.111809  0.546833  1
  B  B18  1  0.500000  0.388005  0.045985  1
  B  B19  1  0.500000  0.615653  0.952099  1
  B  B20  1  0.500000  0.973454  0.308648  1
  B  B21  1  0.500000  0.024107  0.692889  1
  B  B22  1  0.500000  0.475657  0.191469  1
  B  B23  1  0.500000  0.526744  0.808651  1
