# generated using pymatgen
data_Cr5Fe3Ge4(O2F)8
_symmetry_space_group_name_H-M   'P 1'
_cell_length_a   4.95703254
_cell_length_b   9.00572012
_cell_length_c   9.44697031
_cell_angle_alpha   89.97515976
_cell_angle_beta   89.98356064
_cell_angle_gamma   90.05108829
_symmetry_Int_Tables_number   1
_chemical_formula_structural   Cr5Fe3Ge4(O2F)8
_chemical_formula_sum   'Cr5 Fe3 Ge4 O16 F8'
_cell_volume   421.72809565
_cell_formula_units_Z   1
loop_
 _symmetry_equiv_pos_site_id
 _symmetry_equiv_pos_as_xyz
  1  'x, y, z'
loop_
 _atom_site_type_symbol
 _atom_site_label
 _atom_site_symmetry_multiplicity
 _atom_site_fract_x
 _atom_site_fract_y
 _atom_site_fract_z
 _atom_site_occupancy
  Cr  Cr0  1  0.096978  0.583078  0.631107  1
  Cr  Cr1  1  0.402864  0.582711  0.130639  1
  Cr  Cr2  1  0.902527  0.082670  0.369684  1
  Cr  Cr3  1  0.097412  0.916924  0.630301  1
  Cr  Cr4  1  0.596332  0.417566  0.869117  1
  Fe  Fe5  1  0.402769  0.916171  0.129657  1
  Fe  Fe6  1  0.597520  0.083675  0.870427  1
  Fe  Fe7  1  0.902897  0.416514  0.370805  1
  Ge  Ge8  1  0.602265  0.750293  0.439922  1
  Ge  Ge9  1  0.898339  0.748813  0.938664  1
  Ge  Ge10  1  0.102153  0.250918  0.060973  1
  Ge  Ge11  1  0.397118  0.249643  0.560882  1
  O  O12  1  0.716959  0.910924  0.991184  1
  O  O13  1  0.783908  0.912538  0.493271  1
  O  O14  1  0.785437  0.588530  0.492798  1
  O  O15  1  0.216041  0.749320  0.027738  1
  O  O16  1  0.283391  0.088729  0.008420  1
  O  O17  1  0.284886  0.412576  0.006587  1
  O  O18  1  0.952060  0.749518  0.750983  1
  O  O19  1  0.282795  0.749624  0.527840  1
  O  O20  1  0.215494  0.087652  0.506736  1
  O  O21  1  0.547815  0.750464  0.252267  1
  O  O22  1  0.784264  0.251138  0.971873  1
  O  O23  1  0.216859  0.412203  0.507834  1
  O  O24  1  0.715502  0.587279  0.992780  1
  O  O25  1  0.715446  0.249381  0.472241  1
  O  O26  1  0.047740  0.250743  0.248280  1
  O  O27  1  0.452156  0.249590  0.748303  1
  F  F28  1  0.085840  0.936302  0.252620  1
  F  F29  1  0.087632  0.564188  0.251163  1
  F  F30  1  0.912916  0.435045  0.747579  1
  F  F31  1  0.412295  0.935828  0.751423  1
  F  F32  1  0.587791  0.064098  0.248457  1
  F  F33  1  0.585996  0.436428  0.247533  1
  F  F34  1  0.413328  0.565284  0.752533  1
  F  F35  1  0.914276  0.063640  0.747380  1
