# generated using pymatgen
data_Hf2AgN
_symmetry_space_group_name_H-M   'P 1'
_cell_length_a   8.84039081
_cell_length_b   8.84039118
_cell_length_c   4.53496000
_cell_angle_alpha   90.00000000
_cell_angle_beta   90.00000000
_cell_angle_gamma   159.00382601
_symmetry_Int_Tables_number   1
_chemical_formula_structural   Hf2AgN
_chemical_formula_sum   'Hf4 Ag2 N2'
_cell_volume   126.99014317
_cell_formula_units_Z   2
loop_
 _symmetry_equiv_pos_site_id
 _symmetry_equiv_pos_as_xyz
  1  'x, y, z'
loop_
 _atom_site_type_symbol
 _atom_site_label
 _atom_site_symmetry_multiplicity
 _atom_site_fract_x
 _atom_site_fract_y
 _atom_site_fract_z
 _atom_site_occupancy
  Hf  Hf0  1  0.288329  0.711669  0.250000  1
  Hf  Hf1  1  0.110536  0.889462  0.250000  1
  Hf  Hf2  1  0.889462  0.110536  0.750001  1
  Hf  Hf3  1  0.711669  0.288329  0.750001  1
  Ag  Ag4  1  0.455286  0.544711  0.250000  1
  Ag  Ag5  1  0.544711  0.455286  0.750001  1
  N  N6  1  0.698794  0.301204  0.250000  1
  N  N7  1  0.301204  0.698794  0.750001  1
