# generated using pymatgen
data_Ac2SiPd6
_symmetry_space_group_name_H-M   'P 1'
_cell_length_a   6.35268610
_cell_length_b   6.35268603
_cell_length_c   6.35268500
_cell_angle_alpha   59.99998976
_cell_angle_beta   59.99999012
_cell_angle_gamma   59.99999606
_symmetry_Int_Tables_number   1
_chemical_formula_structural   Ac2SiPd6
_chemical_formula_sum   'Ac2 Si1 Pd6'
_cell_volume   181.28298057
_cell_formula_units_Z   1
loop_
 _symmetry_equiv_pos_site_id
 _symmetry_equiv_pos_as_xyz
  1  'x, y, z'
loop_
 _atom_site_type_symbol
 _atom_site_label
 _atom_site_symmetry_multiplicity
 _atom_site_fract_x
 _atom_site_fract_y
 _atom_site_fract_z
 _atom_site_occupancy
  Ac  Ac0  1  0.250000  0.250000  0.250000  1
  Ac  Ac1  1  0.750000  0.750000  0.750000  1
  Si  Si2  1  0.500000  0.500000  0.500000  1
  Pd  Pd3  1  0.770951  0.229049  0.229049  1
  Pd  Pd4  1  0.229049  0.770951  0.229049  1
  Pd  Pd5  1  0.770951  0.770951  0.229049  1
  Pd  Pd6  1  0.229049  0.229049  0.770951  1
  Pd  Pd7  1  0.770951  0.229049  0.770951  1
  Pd  Pd8  1  0.229049  0.770951  0.770951  1
