# generated using pymatgen
data_Yb3Th5Bi2(Pt4Pb)2
_symmetry_space_group_name_H-M   'P 1'
_cell_length_a   8.06495840
_cell_length_b   8.05717290
_cell_length_c   7.44447200
_cell_angle_alpha   90.00000000
_cell_angle_beta   90.00000000
_cell_angle_gamma   90.52980411
_symmetry_Int_Tables_number   1
_chemical_formula_structural   Yb3Th5Bi2(Pt4Pb)2
_chemical_formula_sum   'Yb3 Th5 Bi2 Pt8 Pb2'
_cell_volume   483.72679917
_cell_formula_units_Z   1
loop_
 _symmetry_equiv_pos_site_id
 _symmetry_equiv_pos_as_xyz
  1  'x, y, z'
loop_
 _atom_site_type_symbol
 _atom_site_label
 _atom_site_symmetry_multiplicity
 _atom_site_fract_x
 _atom_site_fract_y
 _atom_site_fract_z
 _atom_site_occupancy
  Yb  Yb0  1  0.663391  0.663725  0.500000  1
  Yb  Yb1  1  0.839684  0.158530  0.000000  1
  Yb  Yb2  1  0.158796  0.840128  0.000000  1
  Th  Th3  1  0.674072  0.680161  0.000000  1
  Th  Th4  1  0.342507  0.341189  0.500000  1
  Th  Th5  1  0.820402  0.170726  0.500000  1
  Th  Th6  1  0.327822  0.321275  0.000000  1
  Th  Th7  1  0.176989  0.827012  0.500000  1
  Bi  Bi8  1  0.501447  0.994353  0.752415  1
  Bi  Bi9  1  0.501447  0.994353  0.247585  1
  Pt  Pt10  1  0.877361  0.871995  0.734175  1
  Pt  Pt11  1  0.128614  0.133466  0.732628  1
  Pt  Pt12  1  0.628640  0.372496  0.765656  1
  Pt  Pt13  1  0.628640  0.372496  0.234344  1
  Pt  Pt14  1  0.367852  0.623789  0.235742  1
  Pt  Pt15  1  0.128614  0.133466  0.267372  1
  Pt  Pt16  1  0.877361  0.871995  0.265825  1
  Pt  Pt17  1  0.367852  0.623789  0.764258  1
  Pb  Pb18  1  0.994255  0.502530  0.751697  1
  Pb  Pb19  1  0.994255  0.502530  0.248303  1
