# generated using pymatgen
data_ZrSc(NiH3)2
_symmetry_space_group_name_H-M   'P 1'
_cell_length_a   5.59111272
_cell_length_b   5.59111167
_cell_length_c   4.39249900
_cell_angle_alpha   90.00000000
_cell_angle_beta   90.00000000
_cell_angle_gamma   143.83333580
_symmetry_Int_Tables_number   1
_chemical_formula_structural   ZrSc(NiH3)2
_chemical_formula_sum   'Zr1 Sc1 Ni2 H6'
_cell_volume   81.03268705
_cell_formula_units_Z   1
loop_
 _symmetry_equiv_pos_site_id
 _symmetry_equiv_pos_as_xyz
  1  'x, y, z'
loop_
 _atom_site_type_symbol
 _atom_site_label
 _atom_site_symmetry_multiplicity
 _atom_site_fract_x
 _atom_site_fract_y
 _atom_site_fract_z
 _atom_site_occupancy
  Zr  Zr0  1  0.140280  0.859720  0.250000  1
  Sc  Sc1  1  0.861086  0.138914  0.750000  1
  Ni  Ni2  1  0.572237  0.427763  0.750000  1
  Ni  Ni3  1  0.426491  0.573509  0.250000  1
  H  H4  1  0.069421  0.930579  0.750000  1
  H  H5  1  0.934032  0.065968  0.250000  1
  H  H6  1  0.686604  0.313396  0.493620  1
  H  H7  1  0.311623  0.688377  0.501107  1
  H  H8  1  0.686604  0.313396  0.006380  1
  H  H9  1  0.311623  0.688377  0.998893  1
