# generated using pymatgen
data_Sn2Pb4W2O13
_symmetry_space_group_name_H-M   'P 1'
_cell_length_a   7.59303701
_cell_length_b   7.59303788
_cell_length_c   7.59303744
_cell_angle_alpha   120.08203365
_cell_angle_beta   119.96255586
_cell_angle_gamma   89.96141944
_symmetry_Int_Tables_number   1
_chemical_formula_structural   Sn2Pb4W2O13
_chemical_formula_sum   'Sn2 Pb4 W2 O13'
_cell_volume   309.44577341
_cell_formula_units_Z   1
loop_
 _symmetry_equiv_pos_site_id
 _symmetry_equiv_pos_as_xyz
  1  'x, y, z'
loop_
 _atom_site_type_symbol
 _atom_site_label
 _atom_site_symmetry_multiplicity
 _atom_site_fract_x
 _atom_site_fract_y
 _atom_site_fract_z
 _atom_site_occupancy
  Sn  Sn0  1  0.250085  0.500598  0.250513  1
  Sn  Sn1  1  0.250085  0.999573  0.749487  1
  Pb  Pb2  1  0.750110  0.001106  0.250995  1
  Pb  Pb3  1  0.750110  0.499115  0.749005  1
  Pb  Pb4  1  0.750136  0.000617  0.749519  1
  Pb  Pb5  1  0.251098  0.000617  0.250481  1
  W  W6  1  0.249970  0.500590  0.749380  1
  W  W7  1  0.751209  0.500590  0.250620  1
  O  O8  1  0.170138  0.170138  0.000000  1
  O  O9  1  0.569046  0.569046  0.000000  1
  O  O10  1  0.172293  0.571490  0.989529  1
  O  O11  1  0.581961  0.182764  0.010471  1
  O  O12  1  0.172293  0.182764  0.600803  1
  O  O13  1  0.581961  0.571490  0.399197  1
  O  O14  1  0.327349  0.827349  0.500000  1
  O  O15  1  0.933028  0.433028  0.500000  1
  O  O16  1  0.325499  0.430712  0.510608  1
  O  O17  1  0.920104  0.814891  0.489392  1
  O  O18  1  0.325499  0.814891  0.894787  1
  O  O19  1  0.920104  0.430712  0.105213  1
  O  O20  1  0.872925  0.872925  0.000000  1
