# generated using pymatgen
data_Tb2TmTe4
_symmetry_space_group_name_H-M   'P 1'
_cell_length_a   4.31375300
_cell_length_b   7.45944139
_cell_length_c   7.47813100
_cell_angle_alpha   71.63938883
_cell_angle_beta   90.00000000
_cell_angle_gamma   90.00000000
_symmetry_Int_Tables_number   1
_chemical_formula_structural   Tb2TmTe4
_chemical_formula_sum   'Tb2 Tm1 Te4'
_cell_volume   228.38276193
_cell_formula_units_Z   1
loop_
 _symmetry_equiv_pos_site_id
 _symmetry_equiv_pos_as_xyz
  1  'x, y, z'
loop_
 _atom_site_type_symbol
 _atom_site_label
 _atom_site_symmetry_multiplicity
 _atom_site_fract_x
 _atom_site_fract_y
 _atom_site_fract_z
 _atom_site_occupancy
  Tb  Tb0  1  0.000000  0.500000  0.500000  1
  Tb  Tb1  1  0.500000  0.500000  0.000000  1
  Tm  Tm2  1  0.000000  0.000000  0.000000  1
  Te  Te3  1  0.500000  0.762654  0.255183  1
  Te  Te4  1  0.000000  0.244179  0.252285  1
  Te  Te5  1  0.500000  0.237346  0.744817  1
  Te  Te6  1  0.000000  0.755821  0.747715  1
