# generated using pymatgen
data_NpH8
_symmetry_space_group_name_H-M   'P 1'
_cell_length_a   3.53222423
_cell_length_b   3.50385091
_cell_length_c   8.22242146
_cell_angle_alpha   97.73474904
_cell_angle_beta   69.06579416
_cell_angle_gamma   120.36367002
_symmetry_Int_Tables_number   1
_chemical_formula_structural   NpH8
_chemical_formula_sum   'Np1 H8'
_cell_volume   81.87561710
_cell_formula_units_Z   1
loop_
 _symmetry_equiv_pos_site_id
 _symmetry_equiv_pos_as_xyz
  1  'x, y, z'
loop_
 _atom_site_type_symbol
 _atom_site_label
 _atom_site_symmetry_multiplicity
 _atom_site_fract_x
 _atom_site_fract_y
 _atom_site_fract_z
 _atom_site_occupancy
  Np  Np0  1  0.355814  0.819947  0.574092  1
  H  H1  1  0.141298  0.171252  0.442032  1
  H  H2  1  0.570554  0.741760  0.262825  1
  H  H3  1  0.999704  0.661743  0.889497  1
  H  H4  1  0.903183  0.132922  0.705293  1
  H  H5  1  0.155475  0.915171  0.885551  1
  H  H6  1  0.808172  0.505312  0.442030  1
  H  H7  1  0.570061  0.467390  0.705859  1
  H  H8  1  0.709157  0.996461  0.263794  1
