# generated using pymatgen
data_HoTh3(Ga8Pt3)3
_symmetry_space_group_name_H-M   'P 1'
_cell_length_a   7.66221802
_cell_length_b   7.67640405
_cell_length_c   13.32349358
_cell_angle_alpha   84.47458307
_cell_angle_beta   79.00137312
_cell_angle_gamma   60.02084139
_symmetry_Int_Tables_number   1
_chemical_formula_structural   HoTh3(Ga8Pt3)3
_chemical_formula_sum   'Ho1 Th3 Ga24 Pt9'
_cell_volume   666.34719467
_cell_formula_units_Z   1
loop_
 _symmetry_equiv_pos_site_id
 _symmetry_equiv_pos_as_xyz
  1  'x, y, z'
loop_
 _atom_site_type_symbol
 _atom_site_label
 _atom_site_symmetry_multiplicity
 _atom_site_fract_x
 _atom_site_fract_y
 _atom_site_fract_z
 _atom_site_occupancy
  Ho  Ho0  1  0.266161  0.501173  0.193519  1
  Th  Th1  1  0.397104  0.167572  0.807744  1
  Th  Th2  1  0.602337  0.832258  0.192842  1
  Th  Th3  1  0.733259  0.499303  0.807651  1
  Ga  Ga4  1  0.688156  0.833943  0.941653  1
  Ga  Ga5  1  0.311848  0.171477  0.061943  1
  Ga  Ga6  1  0.144709  0.834636  0.559326  1
  Ga  Ga7  1  0.855696  0.165322  0.438083  1
  Ga  Ga8  1  0.480637  0.167947  0.556201  1
  Ga  Ga9  1  0.519662  0.832799  0.443031  1
  Ga  Ga10  1  0.216233  0.169657  0.327768  1
  Ga  Ga11  1  0.785282  0.834573  0.668842  1
  Ga  Ga12  1  0.435993  0.508386  0.669219  1
  Ga  Ga13  1  0.560688  0.491494  0.327845  1
  Ga  Ga14  1  0.110548  0.158855  0.667941  1
  Ga  Ga15  1  0.894521  0.836622  0.329202  1
  Ga  Ga16  1  0.350831  0.502004  0.944497  1
  Ga  Ga17  1  0.641627  0.498961  0.060990  1
  Ga  Ga18  1  0.018401  0.165655  0.947644  1
  Ga  Ga19  1  0.983662  0.829050  0.057921  1
  Ga  Ga20  1  0.187185  0.499686  0.441308  1
  Ga  Ga21  1  0.814128  0.499459  0.556004  1
  Ga  Ga22  1  0.732406  0.167873  0.182635  1
  Ga  Ga23  1  0.263236  0.835517  0.818086  1
  Ga  Ga24  1  0.063968  0.634391  0.816720  1
  Ga  Ga25  1  0.940749  0.365118  0.183287  1
  Ga  Ga26  1  0.864265  0.035838  0.816222  1
  Ga  Ga27  1  0.136398  0.959643  0.183772  1
  Pt  Pt28  1  0.120072  0.493592  0.639342  1
  Pt  Pt29  1  0.878802  0.506939  0.359731  1
  Pt  Pt30  1  0.661001  0.169136  0.998531  1
  Pt  Pt31  1  0.340024  0.831953  0.001450  1
  Pt  Pt32  1  0.540174  0.164787  0.360421  1
  Pt  Pt33  1  0.461083  0.833720  0.639515  1
  Pt  Pt34  1  0.780369  0.174014  0.637854  1
  Pt  Pt35  1  0.220605  0.826552  0.361331  1
  Pt  Pt36  1  0.998182  0.500093  0.999931  1
