# generated using pymatgen
data_Sc12Mn(Si4Os)3
_symmetry_space_group_name_H-M   'P 1'
_cell_length_a   3.97096100
_cell_length_b   10.33135448
_cell_length_c   11.72298303
_cell_angle_alpha   89.87372519
_cell_angle_beta   90.00000000
_cell_angle_gamma   90.00000000
_symmetry_Int_Tables_number   1
_chemical_formula_structural   Sc12Mn(Si4Os)3
_chemical_formula_sum   'Sc12 Mn1 Si12 Os3'
_cell_volume   480.93896714
_cell_formula_units_Z   1
loop_
 _symmetry_equiv_pos_site_id
 _symmetry_equiv_pos_as_xyz
  1  'x, y, z'
loop_
 _atom_site_type_symbol
 _atom_site_label
 _atom_site_symmetry_multiplicity
 _atom_site_fract_x
 _atom_site_fract_y
 _atom_site_fract_z
 _atom_site_occupancy
  Sc  Sc0  1  0.250000  0.877666  0.018395  1
  Sc  Sc1  1  0.250000  0.621154  0.520723  1
  Sc  Sc2  1  0.750000  0.123217  0.981524  1
  Sc  Sc3  1  0.750000  0.377461  0.480159  1
  Sc  Sc4  1  0.250000  0.921344  0.604726  1
  Sc  Sc5  1  0.250000  0.579033  0.105474  1
  Sc  Sc6  1  0.750000  0.078166  0.394561  1
  Sc  Sc7  1  0.750000  0.421820  0.896856  1
  Sc  Sc8  1  0.250000  0.657144  0.798653  1
  Sc  Sc9  1  0.250000  0.840696  0.298470  1
  Sc  Sc10  1  0.750000  0.341575  0.201451  1
  Sc  Sc11  1  0.750000  0.161985  0.700774  1
  Mn  Mn12  1  0.250000  0.386168  0.675854  1
  Si  Si13  1  0.250000  0.016442  0.821453  1
  Si  Si14  1  0.250000  0.484680  0.322889  1
  Si  Si15  1  0.750000  0.984259  0.178443  1
  Si  Si16  1  0.750000  0.513834  0.677999  1
  Si  Si17  1  0.250000  0.253504  0.841828  1
  Si  Si18  1  0.250000  0.248793  0.342785  1
  Si  Si19  1  0.750000  0.749382  0.156779  1
  Si  Si20  1  0.750000  0.750539  0.657687  1
  Si  Si21  1  0.250000  0.193567  0.544699  1
  Si  Si22  1  0.250000  0.305713  0.044881  1
  Si  Si23  1  0.750000  0.804775  0.455172  1
  Si  Si24  1  0.750000  0.695060  0.954940  1
  Os  Os25  1  0.250000  0.111144  0.176630  1
  Os  Os26  1  0.750000  0.611783  0.322865  1
  Os  Os27  1  0.750000  0.889096  0.823330  1
