# generated using pymatgen
data_CaCd(SnO3)2
_symmetry_space_group_name_H-M   'P 1'
_cell_length_a   6.06324620
_cell_length_b   6.06324663
_cell_length_c   6.06324575
_cell_angle_alpha   54.54649109
_cell_angle_beta   54.54648956
_cell_angle_gamma   54.54648866
_symmetry_Int_Tables_number   1
_chemical_formula_structural   CaCd(SnO3)2
_chemical_formula_sum   'Ca1 Cd1 Sn2 O6'
_cell_volume   137.58041893
_cell_formula_units_Z   1
loop_
 _symmetry_equiv_pos_site_id
 _symmetry_equiv_pos_as_xyz
  1  'x, y, z'
loop_
 _atom_site_type_symbol
 _atom_site_label
 _atom_site_symmetry_multiplicity
 _atom_site_fract_x
 _atom_site_fract_y
 _atom_site_fract_z
 _atom_site_occupancy
  Ca  Ca0  1  0.637551  0.637551  0.637551  1
  Cd  Cd1  1  0.366198  0.366198  0.366198  1
  Sn  Sn2  1  0.845962  0.845962  0.845962  1
  Sn  Sn3  1  0.154831  0.154831  0.154831  1
  O  O4  1  0.208392  0.555345  0.962332  1
  O  O5  1  0.037868  0.788392  0.443128  1
  O  O6  1  0.443128  0.037868  0.788392  1
  O  O7  1  0.555345  0.962332  0.208392  1
  O  O8  1  0.962332  0.208392  0.555345  1
  O  O9  1  0.788392  0.443128  0.037868  1
