# generated using pymatgen
data_Ac6RhAuI6
_symmetry_space_group_name_H-M   'P 1'
_cell_length_a   11.27367196
_cell_length_b   11.27296078
_cell_length_c   11.48135800
_cell_angle_alpha   109.41375528
_cell_angle_beta   109.41760073
_cell_angle_gamma   108.86306696
_symmetry_Int_Tables_number   1
_chemical_formula_structural   Ac6RhAuI6
_chemical_formula_sum   'Ac12 Rh2 Au2 I12'
_cell_volume   1133.07996065
_cell_formula_units_Z   2
loop_
 _symmetry_equiv_pos_site_id
 _symmetry_equiv_pos_as_xyz
  1  'x, y, z'
loop_
 _atom_site_type_symbol
 _atom_site_label
 _atom_site_symmetry_multiplicity
 _atom_site_fract_x
 _atom_site_fract_y
 _atom_site_fract_z
 _atom_site_occupancy
  Ac  Ac0  1  0.463011  0.473088  0.236417  1
  Ac  Ac1  1  0.736788  0.226891  0.263420  1
  Ac  Ac2  1  0.738545  0.011163  0.475339  1
  Ac  Ac3  1  0.236872  0.464128  0.475281  1
  Ac  Ac4  1  0.273204  0.763294  0.236604  1
  Ac  Ac5  1  0.035852  0.263094  0.024706  1
  Ac  Ac6  1  0.026887  0.036946  0.263574  1
  Ac  Ac7  1  0.488863  0.761481  0.024669  1
  Ac  Ac8  1  0.480866  0.231026  0.461831  1
  Ac  Ac9  1  0.015564  0.484435  0.750005  1
  Ac  Ac10  1  0.269025  0.019136  0.038190  1
  Ac  Ac11  1  0.234529  0.265443  0.749997  1
  Rh  Rh12  1  0.251411  0.248549  0.249989  1
  Rh  Rh13  1  0.498754  0.001287  0.250007  1
  Au  Au14  1  0.999020  0.249083  0.498153  1
  Au  Au15  1  0.250914  0.500991  0.001855  1
  I  I16  1  0.251400  0.759620  0.738138  1
  I  I17  1  0.521518  0.513348  0.762050  1
  I  I18  1  0.970341  0.733222  0.983946  1
  I  I19  1  0.740363  0.248571  0.761852  1
  I  I20  1  0.986663  0.978470  0.737978  1
  I  I21  1  0.249422  0.986387  0.516114  1
  I  I22  1  0.766755  0.529656  0.516048  1
  I  I23  1  0.513591  0.250577  0.983880  1
  I  I24  1  0.761807  0.738171  0.249994  1
  I  I25  1  0.737245  0.987317  0.974919  1
  I  I26  1  0.988127  0.511896  0.249984  1
  I  I27  1  0.512661  0.762728  0.525056  1
