# generated using pymatgen
data_PrNb8VSe16
_symmetry_space_group_name_H-M   'P 1'
_cell_length_a   7.00100100
_cell_length_b   7.00100063
_cell_length_c   13.95946000
_cell_angle_alpha   90.00000000
_cell_angle_beta   90.00000000
_cell_angle_gamma   120.00000648
_symmetry_Int_Tables_number   1
_chemical_formula_structural   PrNb8VSe16
_chemical_formula_sum   'Pr1 Nb8 V1 Se16'
_cell_volume   592.54246283
_cell_formula_units_Z   1
loop_
 _symmetry_equiv_pos_site_id
 _symmetry_equiv_pos_as_xyz
  1  'x, y, z'
loop_
 _atom_site_type_symbol
 _atom_site_label
 _atom_site_symmetry_multiplicity
 _atom_site_fract_x
 _atom_site_fract_y
 _atom_site_fract_z
 _atom_site_occupancy
  Pr  Pr0  1  0.000000  0.000000  0.000000  1
  Nb  Nb1  1  0.000000  0.000000  0.267649  1
  Nb  Nb2  1  0.000000  0.000000  0.732351  1
  Nb  Nb3  1  0.506647  0.013294  0.269955  1
  Nb  Nb4  1  0.493353  0.986706  0.730045  1
  Nb  Nb5  1  0.986706  0.493353  0.269955  1
  Nb  Nb6  1  0.013294  0.506647  0.730045  1
  Nb  Nb7  1  0.506647  0.493353  0.269955  1
  Nb  Nb8  1  0.493353  0.506647  0.730045  1
  V  V9  1  0.000000  0.000000  0.500000  1
  Se  Se10  1  0.333333  0.666667  0.607229  1
  Se  Se11  1  0.666667  0.333333  0.392771  1
  Se  Se12  1  0.666667  0.333333  0.145461  1
  Se  Se13  1  0.333333  0.666667  0.854539  1
  Se  Se14  1  0.170623  0.341245  0.149879  1
  Se  Se15  1  0.829377  0.658755  0.850121  1
  Se  Se16  1  0.658755  0.829377  0.149879  1
  Se  Se17  1  0.833498  0.666995  0.612154  1
  Se  Se18  1  0.341245  0.170623  0.850121  1
  Se  Se19  1  0.166502  0.333005  0.387846  1
  Se  Se20  1  0.170623  0.829377  0.149879  1
  Se  Se21  1  0.333005  0.166502  0.612154  1
  Se  Se22  1  0.829377  0.170623  0.850121  1
  Se  Se23  1  0.666995  0.833498  0.387846  1
  Se  Se24  1  0.833498  0.166502  0.612154  1
  Se  Se25  1  0.166502  0.833498  0.387846  1
