# generated using pymatgen
data_La15Pr5Si15Se
_symmetry_space_group_name_H-M   'P 1'
_cell_length_a   8.07405309
_cell_length_b   8.00365064
_cell_length_c   15.47389900
_cell_angle_alpha   89.62855364
_cell_angle_beta   89.16612163
_cell_angle_gamma   90.03943161
_symmetry_Int_Tables_number   1
_chemical_formula_structural   La15Pr5Si15Se
_chemical_formula_sum   'La15 Pr5 Si15 Se1'
_cell_volume   999.82553867
_cell_formula_units_Z   1
loop_
 _symmetry_equiv_pos_site_id
 _symmetry_equiv_pos_as_xyz
  1  'x, y, z'
loop_
 _atom_site_type_symbol
 _atom_site_label
 _atom_site_symmetry_multiplicity
 _atom_site_fract_x
 _atom_site_fract_y
 _atom_site_fract_z
 _atom_site_occupancy
  La  La0  1  0.310058  0.311601  0.000720  1
  La  La1  1  0.189043  0.807514  0.248828  1
  La  La2  1  0.800755  0.189337  0.752114  1
  La  La3  1  0.685914  0.686660  0.496376  1
  La  La4  1  0.379887  0.006000  0.443608  1
  La  La5  1  0.493683  0.873497  0.699269  1
  La  La6  1  0.510396  0.122075  0.197630  1
  La  La7  1  0.875109  0.486822  0.300151  1
  La  La8  1  0.122618  0.511144  0.801760  1
  La  La9  1  0.632906  0.985700  0.952389  1
  La  La10  1  0.997875  0.380706  0.546386  1
  La  La11  1  0.992835  0.622483  0.052620  1
  La  La12  1  0.140035  0.992739  0.871910  1
  La  La13  1  0.516656  0.628735  0.126887  1
  La  La14  1  0.479790  0.369633  0.631365  1
  Pr  Pr15  1  0.634967  0.521257  0.877332  1
  Pr  Pr16  1  0.367887  0.480694  0.374777  1
  Pr  Pr17  1  0.870324  0.016422  0.376113  1
  Pr  Pr18  1  0.984992  0.128093  0.125559  1
  Pr  Pr19  1  0.011977  0.865575  0.621348  1
  Si  Si20  1  0.334000  0.700749  0.949053  1
  Si  Si21  1  0.660296  0.301529  0.452232  1
  Si  Si22  1  0.704902  0.334948  0.051365  1
  Si  Si23  1  0.299579  0.666959  0.549950  1
  Si  Si24  1  0.802257  0.834312  0.201901  1
  Si  Si25  1  0.165398  0.196552  0.299794  1
  Si  Si26  1  0.842194  0.801727  0.797676  1
  Si  Si27  1  0.289178  0.922693  0.057014  1
  Si  Si28  1  0.577423  0.788316  0.308333  1
  Si  Si29  1  0.452152  0.211959  0.824267  1
  Si  Si30  1  0.789896  0.579642  0.690157  1
  Si  Si31  1  0.210138  0.420364  0.192613  1
  Si  Si32  1  0.702833  0.075627  0.559329  1
  Si  Si33  1  0.926393  0.291030  0.941814  1
  Si  Si34  1  0.077009  0.712119  0.440943  1
  Se  Se35  1  0.168640  0.174784  0.686421  1
