# generated using pymatgen
data_Sr3Cd3AgAu2
_symmetry_space_group_name_H-M   'P 1'
_cell_length_a   8.23451900
_cell_length_b   8.23451869
_cell_length_c   4.20268900
_cell_angle_alpha   90.00000000
_cell_angle_beta   90.00000000
_cell_angle_gamma   120.00000525
_symmetry_Int_Tables_number   1
_chemical_formula_structural   Sr3Cd3AgAu2
_chemical_formula_sum   'Sr3 Cd3 Ag1 Au2'
_cell_volume   246.79384134
_cell_formula_units_Z   1
loop_
 _symmetry_equiv_pos_site_id
 _symmetry_equiv_pos_as_xyz
  1  'x, y, z'
loop_
 _atom_site_type_symbol
 _atom_site_label
 _atom_site_symmetry_multiplicity
 _atom_site_fract_x
 _atom_site_fract_y
 _atom_site_fract_z
 _atom_site_occupancy
  Sr  Sr0  1  0.410524  0.410524  0.500000  1
  Sr  Sr1  1  0.589476  0.000000  0.500000  1
  Sr  Sr2  1  0.000000  0.589476  0.500000  1
  Cd  Cd3  1  0.747516  0.747516  0.000000  1
  Cd  Cd4  1  0.252484  0.000000  0.000000  1
  Cd  Cd5  1  0.000000  0.252484  0.000000  1
  Ag  Ag6  1  0.000000  0.000000  0.500000  1
  Au  Au7  1  0.666667  0.333333  0.000000  1
  Au  Au8  1  0.333333  0.666667  0.000000  1
