# generated using pymatgen
data_CeSm3(B4Ru)4
_symmetry_space_group_name_H-M   'P 1'
_cell_length_a   3.61821100
_cell_length_b   6.01560236
_cell_length_c   11.64963488
_cell_angle_alpha   90.00599252
_cell_angle_beta   90.00000000
_cell_angle_gamma   90.00000000
_symmetry_Int_Tables_number   1
_chemical_formula_structural   CeSm3(B4Ru)4
_chemical_formula_sum   'Ce1 Sm3 B16 Ru4'
_cell_volume   253.56267352
_cell_formula_units_Z   1
loop_
 _symmetry_equiv_pos_site_id
 _symmetry_equiv_pos_as_xyz
  1  'x, y, z'
loop_
 _atom_site_type_symbol
 _atom_site_label
 _atom_site_symmetry_multiplicity
 _atom_site_fract_x
 _atom_site_fract_y
 _atom_site_fract_z
 _atom_site_occupancy
  Ce  Ce0  1  0.500000  0.128482  0.149832  1
  Sm  Sm1  1  0.500000  0.871913  0.849404  1
  Sm  Sm2  1  0.500000  0.627696  0.350953  1
  Sm  Sm3  1  0.500000  0.372098  0.649757  1
  B  B4  1  0.000000  0.473849  0.190057  1
  B  B5  1  0.000000  0.525057  0.809730  1
  B  B6  1  0.000000  0.975613  0.309533  1
  B  B7  1  0.000000  0.025097  0.690335  1
  B  B8  1  0.000000  0.285477  0.314684  1
  B  B9  1  0.000000  0.713895  0.684495  1
  B  B10  1  0.000000  0.787366  0.184203  1
  B  B11  1  0.000000  0.214832  0.815129  1
  B  B12  1  0.000000  0.361673  0.469041  1
  B  B13  1  0.000000  0.637675  0.530982  1
  B  B14  1  0.000000  0.862910  0.031678  1
  B  B15  1  0.000000  0.137633  0.969119  1
  B  B16  1  0.000000  0.388646  0.045794  1
  B  B17  1  0.000000  0.610754  0.953921  1
  B  B18  1  0.000000  0.888657  0.454443  1
  B  B19  1  0.000000  0.110953  0.545778  1
  Ru  Ru20  1  0.500000  0.138018  0.406321  1
  Ru  Ru21  1  0.500000  0.862770  0.592089  1
  Ru  Ru22  1  0.500000  0.638479  0.093453  1
  Ru  Ru23  1  0.500000  0.360456  0.909269  1
