# generated using pymatgen
data_Sc3Sn2Ru6W
_symmetry_space_group_name_H-M   'P 1'
_cell_length_a   4.53455000
_cell_length_b   6.37602900
_cell_length_c   13.51422300
_cell_angle_alpha   90.00000000
_cell_angle_beta   89.99729107
_cell_angle_gamma   90.00000000
_symmetry_Int_Tables_number   1
_chemical_formula_structural   Sc3Sn2Ru6W
_chemical_formula_sum   'Sc6 Sn4 Ru12 W2'
_cell_volume   390.72892224
_cell_formula_units_Z   2
loop_
 _symmetry_equiv_pos_site_id
 _symmetry_equiv_pos_as_xyz
  1  'x, y, z'
loop_
 _atom_site_type_symbol
 _atom_site_label
 _atom_site_symmetry_multiplicity
 _atom_site_fract_x
 _atom_site_fract_y
 _atom_site_fract_z
 _atom_site_occupancy
  Sc  Sc0  1  0.000004  0.000000  0.997975  1
  Sc  Sc1  1  0.499870  0.500001  0.168703  1
  Sc  Sc2  1  0.999904  0.000000  0.336325  1
  Sc  Sc3  1  0.500011  0.500001  0.499810  1
  Sc  Sc4  1  0.000126  0.000000  0.666863  1
  Sc  Sc5  1  0.500074  0.500001  0.830318  1
  Sn  Sn6  1  0.999894  0.500001  0.334156  1
  Sn  Sn7  1  0.500018  0.000000  0.500504  1
  Sn  Sn8  1  0.000093  0.500001  0.666188  1
  Sn  Sn9  1  0.500096  0.000000  0.832509  1
  Ru  Ru10  1  0.499986  0.257463  0.006068  1
  Ru  Ru11  1  0.499986  0.742537  0.006068  1
  Ru  Ru12  1  0.999904  0.242530  0.160596  1
  Ru  Ru13  1  0.999904  0.757470  0.160596  1
  Ru  Ru14  1  0.499910  0.240391  0.322279  1
  Ru  Ru15  1  0.499910  0.759608  0.322279  1
  Ru  Ru16  1  0.000017  0.249352  0.498769  1
  Ru  Ru17  1  0.000017  0.750651  0.498769  1
  Ru  Ru18  1  0.500101  0.250631  0.667901  1
  Ru  Ru19  1  0.500101  0.749368  0.667901  1
  Ru  Ru20  1  0.000083  0.259586  0.844394  1
  Ru  Ru21  1  0.000083  0.740414  0.844394  1
  W  W22  1  0.000003  0.500001  0.998632  1
  W  W23  1  0.499904  0.000000  0.167999  1
