# generated using pymatgen
data_Tb6Ni17MoP12
_symmetry_space_group_name_H-M   'P 1'
_cell_length_a   3.77622100
_cell_length_b   10.56539100
_cell_length_c   12.35291500
_cell_angle_alpha   89.99834389
_cell_angle_beta   90.00030015
_cell_angle_gamma   89.99994254
_symmetry_Int_Tables_number   1
_chemical_formula_structural   Tb6Ni17MoP12
_chemical_formula_sum   'Tb6 Ni17 Mo1 P12'
_cell_volume   492.84735477
_cell_formula_units_Z   1
loop_
 _symmetry_equiv_pos_site_id
 _symmetry_equiv_pos_as_xyz
  1  'x, y, z'
loop_
 _atom_site_type_symbol
 _atom_site_label
 _atom_site_symmetry_multiplicity
 _atom_site_fract_x
 _atom_site_fract_y
 _atom_site_fract_z
 _atom_site_occupancy
  Tb  Tb0  1  0.751822  0.999857  0.475654  1
  Tb  Tb1  1  0.251880  0.500142  0.519294  1
  Tb  Tb2  1  0.251759  0.682700  0.793694  1
  Tb  Tb3  1  0.251760  0.317343  0.793738  1
  Tb  Tb4  1  0.751730  0.815680  0.206235  1
  Tb  Tb5  1  0.751736  0.184280  0.206186  1
  Ni  Ni6  1  0.751842  0.000016  0.014944  1
  Ni  Ni7  1  0.251833  0.500005  0.983337  1
  Ni  Ni8  1  0.251928  0.198506  0.571689  1
  Ni  Ni9  1  0.251935  0.801511  0.571683  1
  Ni  Ni10  1  0.752034  0.301706  0.427585  1
  Ni  Ni11  1  0.752025  0.698273  0.427536  1
  Ni  Ni12  1  0.251977  0.620420  0.288512  1
  Ni  Ni13  1  0.251976  0.379534  0.288528  1
  Ni  Ni14  1  0.751859  0.880213  0.710108  1
  Ni  Ni15  1  0.751855  0.119811  0.710106  1
  Ni  Ni16  1  0.251826  0.171627  0.010727  1
  Ni  Ni17  1  0.251830  0.828333  0.010731  1
  Ni  Ni18  1  0.751860  0.337612  0.994954  1
  Ni  Ni19  1  0.751860  0.662426  0.994957  1
  Ni  Ni20  1  0.751307  0.500015  0.160066  1
  Ni  Ni21  1  0.251831  0.999981  0.298418  1
  Ni  Ni22  1  0.751781  0.500034  0.699292  1
  Mo  Mo23  1  0.251775  0.999981  0.847353  1
  P  P24  1  0.251850  0.187324  0.385162  1
  P  P25  1  0.251845  0.812647  0.385149  1
  P  P26  1  0.751824  0.313769  0.612925  1
  P  P27  1  0.751818  0.686261  0.612917  1
  P  P28  1  0.251800  0.999980  0.120360  1
  P  P29  1  0.751729  0.500020  0.875754  1
  P  P30  1  0.251675  0.649238  0.107967  1
  P  P31  1  0.251672  0.350782  0.107964  1
  P  P32  1  0.751802  0.843081  0.895012  1
  P  P33  1  0.751805  0.156924  0.895019  1
  P  P34  1  0.251862  0.000005  0.652231  1
  P  P35  1  0.751896  0.499963  0.344214  1
