# generated using pymatgen
data_Er2LuGa5Pt
_symmetry_space_group_name_H-M   'P 1'
_cell_length_a   6.88812524
_cell_length_b   6.88812547
_cell_length_c   4.25297500
_cell_angle_alpha   90.00000000
_cell_angle_beta   90.00000000
_cell_angle_gamma   119.70714263
_symmetry_Int_Tables_number   1
_chemical_formula_structural   Er2LuGa5Pt
_chemical_formula_sum   'Er2 Lu1 Ga5 Pt1'
_cell_volume   175.26678081
_cell_formula_units_Z   1
loop_
 _symmetry_equiv_pos_site_id
 _symmetry_equiv_pos_as_xyz
  1  'x, y, z'
loop_
 _atom_site_type_symbol
 _atom_site_label
 _atom_site_symmetry_multiplicity
 _atom_site_fract_x
 _atom_site_fract_y
 _atom_site_fract_z
 _atom_site_occupancy
  Er  Er0  1  0.582681  0.998826  0.000000  1
  Er  Er1  1  0.998826  0.582681  0.000000  1
  Lu  Lu2  1  0.414737  0.414737  0.000000  1
  Ga  Ga3  1  0.243683  0.000322  0.500000  1
  Ga  Ga4  1  0.000322  0.243683  0.500000  1
  Ga  Ga5  1  0.756573  0.756573  0.500000  1
  Ga  Ga6  1  0.334343  0.665166  0.500000  1
  Ga  Ga7  1  0.665166  0.334343  0.500000  1
  Pt  Pt8  1  0.003668  0.003668  0.000000  1
