# generated using pymatgen
data_La2Nd7Y(Al2Ru3)2
_symmetry_space_group_name_H-M   'P 1'
_cell_length_a   8.49031615
_cell_length_b   8.63060012
_cell_length_c   8.56608597
_cell_angle_alpha   109.42016637
_cell_angle_beta   109.46412902
_cell_angle_gamma   109.46204876
_symmetry_Int_Tables_number   1
_chemical_formula_structural   La2Nd7Y(Al2Ru3)2
_chemical_formula_sum   'La2 Nd7 Y1 Al4 Ru6'
_cell_volume   483.59924973
_cell_formula_units_Z   1
loop_
 _symmetry_equiv_pos_site_id
 _symmetry_equiv_pos_as_xyz
  1  'x, y, z'
loop_
 _atom_site_type_symbol
 _atom_site_label
 _atom_site_symmetry_multiplicity
 _atom_site_fract_x
 _atom_site_fract_y
 _atom_site_fract_z
 _atom_site_occupancy
  La  La0  1  0.751764  0.811023  0.059805  1
  La  La1  1  0.438915  0.244973  0.687698  1
  Nd  Nd2  1  0.689966  0.436763  0.255150  1
  Nd  Nd3  1  0.065577  0.749383  0.810213  1
  Nd  Nd4  1  0.815299  0.063139  0.748611  1
  Nd  Nd5  1  0.217205  0.218288  0.214155  1
  Nd  Nd6  1  0.493847  0.994258  0.281308  1
  Nd  Nd7  1  0.287273  0.502157  0.003249  1
  Nd  Nd8  1  0.003085  0.286277  0.503590  1
  Y  Y9  1  0.249244  0.681240  0.432659  1
  Al  Al10  1  0.584419  0.589269  0.587176  1
  Al  Al11  1  0.503483  0.003169  0.912161  1
  Al  Al12  1  0.916153  0.499629  0.002749  1
  Al  Al13  1  0.997943  0.905328  0.497668  1
  Ru  Ru14  1  0.253670  0.125537  0.862996  1
  Ru  Ru15  1  0.737515  0.376381  0.630533  1
  Ru  Ru16  1  0.874926  0.257255  0.123238  1
  Ru  Ru17  1  0.104240  0.863069  0.241668  1
  Ru  Ru18  1  0.625180  0.747788  0.383335  1
  Ru  Ru19  1  0.390296  0.645074  0.762040  1
