# generated using pymatgen
data_Zr6Al13Os7W3
_symmetry_space_group_name_H-M   'P 1'
_cell_length_a   8.79699330
_cell_length_b   8.79699318
_cell_length_c   8.79699352
_cell_angle_alpha   59.86480262
_cell_angle_beta   59.86480330
_cell_angle_gamma   59.86479883
_symmetry_Int_Tables_number   1
_chemical_formula_structural   Zr6Al13Os7W3
_chemical_formula_sum   'Zr6 Al13 Os7 W3'
_cell_volume   479.90290386
_cell_formula_units_Z   1
loop_
 _symmetry_equiv_pos_site_id
 _symmetry_equiv_pos_as_xyz
  1  'x, y, z'
loop_
 _atom_site_type_symbol
 _atom_site_label
 _atom_site_symmetry_multiplicity
 _atom_site_fract_x
 _atom_site_fract_y
 _atom_site_fract_z
 _atom_site_occupancy
  Zr  Zr0  1  0.701805  0.701805  0.292237  1
  Zr  Zr1  1  0.299064  0.701358  0.299064  1
  Zr  Zr2  1  0.701358  0.299064  0.299064  1
  Zr  Zr3  1  0.299064  0.299064  0.701358  1
  Zr  Zr4  1  0.701805  0.292237  0.701805  1
  Zr  Zr5  1  0.292237  0.701805  0.701805  1
  Al  Al6  1  0.880189  0.880189  0.880189  1
  Al  Al7  1  0.119294  0.119294  0.638411  1
  Al  Al8  1  0.119294  0.638411  0.119294  1
  Al  Al9  1  0.638411  0.119294  0.119294  1
  Al  Al10  1  0.122835  0.122835  0.122835  1
  Al  Al11  1  0.665393  0.665393  0.009962  1
  Al  Al12  1  0.665393  0.009962  0.665393  1
  Al  Al13  1  0.009962  0.665393  0.665393  1
  Al  Al14  1  0.657588  0.657588  0.657588  1
  Al  Al15  1  0.337356  0.337356  0.992396  1
  Al  Al16  1  0.337356  0.992396  0.337356  1
  Al  Al17  1  0.992396  0.337356  0.337356  1
  Al  Al18  1  0.334815  0.334815  0.334815  1
  Os  Os19  1  0.004663  0.004663  0.004663  1
  Os  Os20  1  0.999107  0.999107  0.496574  1
  Os  Os21  1  0.504312  0.998266  0.504312  1
  Os  Os22  1  0.998266  0.504312  0.504312  1
  Os  Os23  1  0.504312  0.504312  0.998266  1
  Os  Os24  1  0.999107  0.496574  0.999107  1
  Os  Os25  1  0.496574  0.999107  0.999107  1
  W  W26  1  0.877390  0.877390  0.363268  1
  W  W27  1  0.877390  0.363268  0.877390  1
  W  W28  1  0.363268  0.877390  0.877390  1
