# generated using pymatgen
data_Li8Zr3TcBr24
_symmetry_space_group_name_H-M   'P 1'
_cell_length_a   6.78719100
_cell_length_b   6.78718917
_cell_length_c   28.02988200
_cell_angle_alpha   90.00000000
_cell_angle_beta   90.00000000
_cell_angle_gamma   120.00000405
_symmetry_Int_Tables_number   1
_chemical_formula_structural   Li8Zr3TcBr24
_chemical_formula_sum   'Li8 Zr3 Tc1 Br24'
_cell_volume   1118.23197939
_cell_formula_units_Z   1
loop_
 _symmetry_equiv_pos_site_id
 _symmetry_equiv_pos_as_xyz
  1  'x, y, z'
loop_
 _atom_site_type_symbol
 _atom_site_label
 _atom_site_symmetry_multiplicity
 _atom_site_fract_x
 _atom_site_fract_y
 _atom_site_fract_z
 _atom_site_occupancy
  Li  Li0  1  0.000000  0.000000  0.250001  1
  Li  Li1  1  0.000000  0.000000  0.749999  1
  Li  Li2  1  0.333333  0.666667  0.000007  1
  Li  Li3  1  0.333333  0.666667  0.499992  1
  Li  Li4  1  0.333333  0.666667  0.249991  1
  Li  Li5  1  0.666667  0.333333  0.750009  1
  Li  Li6  1  0.666667  0.333333  0.999993  1
  Li  Li7  1  0.666667  0.333333  0.500008  1
  Zr  Zr8  1  0.000000  0.000000  0.000000  1
  Zr  Zr9  1  0.333333  0.666667  0.750008  1
  Zr  Zr10  1  0.666667  0.333333  0.249992  1
  Tc  Tc11  1  0.000000  0.000000  0.500000  1
  Br  Br12  1  0.346839  0.013069  0.304631  1
  Br  Br13  1  0.333717  0.986948  0.804624  1
  Br  Br14  1  0.000888  0.320772  0.054613  1
  Br  Br15  1  0.999034  0.306879  0.552330  1
  Br  Br16  1  0.986931  0.333770  0.304631  1
  Br  Br17  1  0.013052  0.346768  0.804624  1
  Br  Br18  1  0.346768  0.333717  0.195376  1
  Br  Br19  1  0.333770  0.346839  0.695369  1
  Br  Br20  1  0.306879  0.307845  0.447670  1
  Br  Br21  1  0.320772  0.319885  0.945387  1
  Br  Br22  1  0.692155  0.999034  0.447670  1
  Br  Br23  1  0.319885  0.999112  0.054613  1
  Br  Br24  1  0.307845  0.000966  0.552330  1
  Br  Br25  1  0.679228  0.680115  0.054613  1
  Br  Br26  1  0.693121  0.692155  0.552330  1
  Br  Br27  1  0.666230  0.653161  0.304631  1
  Br  Br28  1  0.653232  0.666283  0.804624  1
  Br  Br29  1  0.986948  0.653232  0.195376  1
  Br  Br30  1  0.013069  0.666230  0.695369  1
  Br  Br31  1  0.000966  0.693121  0.447670  1
  Br  Br32  1  0.999112  0.679228  0.945387  1
  Br  Br33  1  0.680115  0.000888  0.945387  1
  Br  Br34  1  0.666283  0.013052  0.195376  1
  Br  Br35  1  0.653161  0.986931  0.695369  1
