# generated using pymatgen
data_MnNb16Si3Te16
_symmetry_space_group_name_H-M   'P 1'
_cell_length_a   4.86484200
_cell_length_b   10.87885639
_cell_length_c   18.92317300
_cell_angle_alpha   90.02893530
_cell_angle_beta   90.00000000
_cell_angle_gamma   90.00000000
_symmetry_Int_Tables_number   1
_chemical_formula_structural   MnNb16Si3Te16
_chemical_formula_sum   'Mn1 Nb16 Si3 Te16'
_cell_volume   1001.48831831
_cell_formula_units_Z   1
loop_
 _symmetry_equiv_pos_site_id
 _symmetry_equiv_pos_as_xyz
  1  'x, y, z'
loop_
 _atom_site_type_symbol
 _atom_site_label
 _atom_site_symmetry_multiplicity
 _atom_site_fract_x
 _atom_site_fract_y
 _atom_site_fract_z
 _atom_site_occupancy
  Mn  Mn0  1  0.249470  0.500000  0.500000  1
  Nb  Nb1  1  0.500847  0.564581  0.382583  1
  Nb  Nb2  1  0.500847  0.435419  0.617417  1
  Nb  Nb3  1  0.500082  0.064593  0.117297  1
  Nb  Nb4  1  0.500082  0.935407  0.882703  1
  Nb  Nb5  1  0.501017  0.705231  0.536860  1
  Nb  Nb6  1  0.501017  0.294769  0.463140  1
  Nb  Nb7  1  0.500128  0.204781  0.963256  1
  Nb  Nb8  1  0.500128  0.795219  0.036744  1
  Nb  Nb9  1  0.998782  0.690662  0.442702  1
  Nb  Nb10  1  0.998782  0.309338  0.557298  1
  Nb  Nb11  1  0.000035  0.190270  0.057223  1
  Nb  Nb12  1  0.000035  0.809730  0.942777  1
  Nb  Nb13  1  0.999122  0.400781  0.390845  1
  Nb  Nb14  1  0.999122  0.599219  0.609155  1
  Nb  Nb15  1  0.000032  0.900986  0.109003  1
  Nb  Nb16  1  0.000032  0.099014  0.890997  1
  Si  Si17  1  0.750148  0.000000  0.000000  1
  Si  Si18  1  0.749915  0.500000  0.500000  1
  Si  Si19  1  0.249987  0.000000  0.000000  1
  Te  Te20  1  0.005137  0.848649  0.563236  1
  Te  Te21  1  0.005137  0.151351  0.436764  1
  Te  Te22  1  0.000061  0.348685  0.937019  1
  Te  Te23  1  0.000061  0.651315  0.062981  1
  Te  Te24  1  0.494850  0.331628  0.314326  1
  Te  Te25  1  0.494850  0.668372  0.685674  1
  Te  Te26  1  0.500115  0.831491  0.185678  1
  Te  Te27  1  0.500115  0.168509  0.814322  1
  Te  Te28  1  0.494747  0.824581  0.402696  1
  Te  Te29  1  0.494747  0.175419  0.597304  1
  Te  Te30  1  0.500113  0.324774  0.097346  1
  Te  Te31  1  0.500113  0.675226  0.902654  1
  Te  Te32  1  0.005116  0.608903  0.299739  1
  Te  Te33  1  0.005116  0.391097  0.700261  1
  Te  Te34  1  0.000055  0.109044  0.200348  1
  Te  Te35  1  0.000055  0.890956  0.799652  1
