# generated using pymatgen
data_Pr6Sn12IrRh
_symmetry_space_group_name_H-M   'P 1'
_cell_length_a   8.76928700
_cell_length_b   8.76928757
_cell_length_c   13.47413300
_cell_angle_alpha   90.00000000
_cell_angle_beta   90.00000000
_cell_angle_gamma   148.67099581
_symmetry_Int_Tables_number   1
_chemical_formula_structural   Pr6Sn12IrRh
_chemical_formula_sum   'Pr6 Sn12 Ir1 Rh1'
_cell_volume   538.75626683
_cell_formula_units_Z   1
loop_
 _symmetry_equiv_pos_site_id
 _symmetry_equiv_pos_as_xyz
  1  'x, y, z'
loop_
 _atom_site_type_symbol
 _atom_site_label
 _atom_site_symmetry_multiplicity
 _atom_site_fract_x
 _atom_site_fract_y
 _atom_site_fract_z
 _atom_site_occupancy
  Pr  Pr0  1  0.602515  0.397485  0.250000  1
  Pr  Pr1  1  0.397438  0.602562  0.750000  1
  Pr  Pr2  1  0.399527  0.600473  0.405850  1
  Pr  Pr3  1  0.600569  0.399431  0.594982  1
  Pr  Pr4  1  0.399527  0.600473  0.094150  1
  Pr  Pr5  1  0.600569  0.399431  0.905018  1
  Sn  Sn6  1  0.927536  0.072464  0.924121  1
  Sn  Sn7  1  0.072235  0.927765  0.076201  1
  Sn  Sn8  1  0.927536  0.072464  0.575879  1
  Sn  Sn9  1  0.072235  0.927765  0.423799  1
  Sn  Sn10  1  0.959517  0.040483  0.250000  1
  Sn  Sn11  1  0.040112  0.959888  0.750000  1
  Sn  Sn12  1  0.745635  0.254366  0.432843  1
  Sn  Sn13  1  0.254564  0.745436  0.566266  1
  Sn  Sn14  1  0.745635  0.254366  0.067157  1
  Sn  Sn15  1  0.254564  0.745436  0.933734  1
  Sn  Sn16  1  0.233169  0.766831  0.250000  1
  Sn  Sn17  1  0.767514  0.232486  0.750000  1
  Ir  Ir18  1  0.197379  0.802621  0.750000  1
  Rh  Rh19  1  0.802227  0.197773  0.250000  1
