# generated using pymatgen
data_Ce5DyY10(CdRu)4
_symmetry_space_group_name_H-M   'P 1'
_cell_length_a   9.60465349
_cell_length_b   9.70700267
_cell_length_c   9.70559824
_cell_angle_alpha   60.06578513
_cell_angle_beta   60.36973852
_cell_angle_gamma   60.36277755
_symmetry_Int_Tables_number   1
_chemical_formula_structural   Ce5DyY10(CdRu)4
_chemical_formula_sum   'Ce5 Dy1 Y10 Cd4 Ru4'
_cell_volume   643.68615447
_cell_formula_units_Z   1
loop_
 _symmetry_equiv_pos_site_id
 _symmetry_equiv_pos_as_xyz
  1  'x, y, z'
loop_
 _atom_site_type_symbol
 _atom_site_label
 _atom_site_symmetry_multiplicity
 _atom_site_fract_x
 _atom_site_fract_y
 _atom_site_fract_z
 _atom_site_occupancy
  Ce  Ce0  1  0.813850  0.186207  0.185789  1
  Ce  Ce1  1  0.345705  0.346981  0.962333  1
  Ce  Ce2  1  0.346011  0.961741  0.346561  1
  Ce  Ce3  1  0.959469  0.349176  0.348480  1
  Ce  Ce4  1  0.342700  0.347438  0.347919  1
  Dy  Dy5  1  0.561217  0.560193  0.938916  1
  Y  Y6  1  0.939874  0.560681  0.937659  1
  Y  Y7  1  0.563769  0.935910  0.935928  1
  Y  Y8  1  0.940463  0.938333  0.560074  1
  Y  Y9  1  0.561425  0.938216  0.560870  1
  Y  Y10  1  0.936273  0.564673  0.564645  1
  Y  Y11  1  0.192050  0.188492  0.807770  1
  Y  Y12  1  0.811808  0.187546  0.808153  1
  Y  Y13  1  0.188494  0.811637  0.811846  1
  Y  Y14  1  0.811586  0.808326  0.187493  1
  Y  Y15  1  0.192169  0.807908  0.188168  1
  Cd  Cd16  1  0.579989  0.583585  0.255510  1
  Cd  Cd17  1  0.580172  0.255696  0.583537  1
  Cd  Cd18  1  0.257251  0.580428  0.580388  1
  Cd  Cd19  1  0.580575  0.580684  0.580757  1
  Ru  Ru20  1  0.150127  0.141593  0.559272  1
  Ru  Ru21  1  0.149179  0.559518  0.142703  1
  Ru  Ru22  1  0.581584  0.152946  0.152997  1
  Ru  Ru23  1  0.114256  0.152093  0.152230  1
