# generated using pymatgen
data_Ho20FeTc(NiSb4)2
_symmetry_space_group_name_H-M   'P 1'
_cell_length_a   7.86242084
_cell_length_b   8.79693500
_cell_length_c   12.13911662
_cell_angle_alpha   90.00000000
_cell_angle_beta   89.73389070
_cell_angle_gamma   90.00000000
_symmetry_Int_Tables_number   1
_chemical_formula_structural   Ho20FeTc(NiSb4)2
_chemical_formula_sum   'Ho20 Fe1 Tc1 Ni2 Sb8'
_cell_volume   839.59543406
_cell_formula_units_Z   1
loop_
 _symmetry_equiv_pos_site_id
 _symmetry_equiv_pos_as_xyz
  1  'x, y, z'
loop_
 _atom_site_type_symbol
 _atom_site_label
 _atom_site_symmetry_multiplicity
 _atom_site_fract_x
 _atom_site_fract_y
 _atom_site_fract_z
 _atom_site_occupancy
  Ho  Ho0  1  0.323193  0.541463  0.434772  1
  Ho  Ho1  1  0.873933  0.250000  0.802976  1
  Ho  Ho2  1  0.178503  0.539455  0.935246  1
  Ho  Ho3  1  0.323193  0.958537  0.434772  1
  Ho  Ho4  1  0.125577  0.750000  0.199763  1
  Ho  Ho5  1  0.841314  0.750000  0.789723  1
  Ho  Ho6  1  0.379136  0.750000  0.691614  1
  Ho  Ho7  1  0.949938  0.750000  0.501600  1
  Ho  Ho8  1  0.454037  0.250000  0.996893  1
  Ho  Ho9  1  0.677595  0.466896  0.564706  1
  Ho  Ho10  1  0.819108  0.042353  0.066718  1
  Ho  Ho11  1  0.660301  0.750000  0.291697  1
  Ho  Ho12  1  0.547259  0.750000  0.002881  1
  Ho  Ho13  1  0.045804  0.250000  0.498885  1
  Ho  Ho14  1  0.677595  0.033104  0.564706  1
  Ho  Ho15  1  0.178503  0.960545  0.935246  1
  Ho  Ho16  1  0.625750  0.250000  0.305116  1
  Ho  Ho17  1  0.340991  0.250000  0.707043  1
  Ho  Ho18  1  0.819108  0.457647  0.066718  1
  Ho  Ho19  1  0.157514  0.250000  0.206482  1
  Fe  Fe20  1  0.573222  0.750000  0.508985  1
  Tc  Tc21  1  0.921772  0.750000  0.014893  1
  Ni  Ni22  1  0.077437  0.250000  0.985761  1
  Ni  Ni23  1  0.429355  0.250000  0.489654  1
  Sb  Sb24  1  0.929787  0.490089  0.328772  1
  Sb  Sb25  1  0.428510  0.506730  0.173187  1
  Sb  Sb26  1  0.428510  0.993270  0.173187  1
  Sb  Sb27  1  0.569874  0.491636  0.827332  1
  Sb  Sb28  1  0.071761  0.508289  0.672283  1
  Sb  Sb29  1  0.569874  0.008364  0.827332  1
  Sb  Sb30  1  0.929787  0.009911  0.328772  1
  Sb  Sb31  1  0.071761  0.991711  0.672283  1
