# generated using pymatgen
data_Ho4Al13Si5(Os2Pd)2
_symmetry_space_group_name_H-M   'P 1'
_cell_length_a   7.51332773
_cell_length_b   7.47300740
_cell_length_c   9.39893073
_cell_angle_alpha   90.04131567
_cell_angle_beta   90.09282235
_cell_angle_gamma   119.67075029
_symmetry_Int_Tables_number   1
_chemical_formula_structural   Ho4Al13Si5(Os2Pd)2
_chemical_formula_sum   'Ho4 Al13 Si5 Os4 Pd2'
_cell_volume   458.52912309
_cell_formula_units_Z   1
loop_
 _symmetry_equiv_pos_site_id
 _symmetry_equiv_pos_as_xyz
  1  'x, y, z'
loop_
 _atom_site_type_symbol
 _atom_site_label
 _atom_site_symmetry_multiplicity
 _atom_site_fract_x
 _atom_site_fract_y
 _atom_site_fract_z
 _atom_site_occupancy
  Ho  Ho0  1  0.000484  0.668384  0.252750  1
  Ho  Ho1  1  0.006359  0.335644  0.749825  1
  Ho  Ho2  1  0.678108  0.007974  0.251389  1
  Ho  Ho3  1  0.318492  0.991516  0.745886  1
  Al  Al4  1  0.133836  0.133082  0.251513  1
  Al  Al5  1  0.868028  0.865657  0.751145  1
  Al  Al6  1  0.659803  0.995168  0.579826  1
  Al  Al7  1  0.656186  0.995950  0.921976  1
  Al  Al8  1  0.344804  0.005409  0.073050  1
  Al  Al9  1  0.340275  0.338535  0.558886  1
  Al  Al10  1  0.658445  0.663231  0.440243  1
  Al  Al11  1  0.659356  0.664073  0.058300  1
  Al  Al12  1  0.341294  0.336687  0.940559  1
  Al  Al13  1  0.337163  0.550345  0.249823  1
  Al  Al14  1  0.660557  0.445468  0.750264  1
  Al  Al15  1  0.548644  0.343474  0.249098  1
  Al  Al16  1  0.450776  0.658399  0.749248  1
  Si  Si17  1  0.003275  0.337938  0.068233  1
  Si  Si18  1  0.996018  0.661191  0.931807  1
  Si  Si19  1  0.988565  0.656019  0.572352  1
  Si  Si20  1  0.349724  0.008148  0.423770  1
  Si  Si21  1  0.003346  0.338311  0.430212  1
  Os  Os22  1  0.688468  0.335924  0.002782  1
  Os  Os23  1  0.311123  0.663929  0.998238  1
  Os  Os24  1  0.310088  0.673150  0.500050  1
  Os  Os25  1  0.681382  0.328509  0.497221  1
  Pd  Pd26  1  0.000623  0.999726  0.001412  1
  Pd  Pd27  1  0.004779  0.998158  0.500142  1
