# generated using pymatgen
data_Ce12Al6Tc5Au
_symmetry_space_group_name_H-M   'P 1'
_cell_length_a   7.91736866
_cell_length_b   7.95572143
_cell_length_c   9.75685334
_cell_angle_alpha   88.72530109
_cell_angle_beta   90.64039680
_cell_angle_gamma   120.16037974
_symmetry_Int_Tables_number   1
_chemical_formula_structural   Ce12Al6Tc5Au
_chemical_formula_sum   'Ce12 Al6 Tc5 Au1'
_cell_volume   531.23811269
_cell_formula_units_Z   1
loop_
 _symmetry_equiv_pos_site_id
 _symmetry_equiv_pos_as_xyz
  1  'x, y, z'
loop_
 _atom_site_type_symbol
 _atom_site_label
 _atom_site_symmetry_multiplicity
 _atom_site_fract_x
 _atom_site_fract_y
 _atom_site_fract_z
 _atom_site_occupancy
  Ce  Ce0  1  0.000000  0.618050  0.522536  1
  Ce  Ce1  1  0.572581  0.993775  0.503026  1
  Ce  Ce2  1  0.427419  0.421194  0.503026  1
  Ce  Ce3  1  0.000000  0.414366  0.997507  1
  Ce  Ce4  1  0.419932  0.997242  0.999200  1
  Ce  Ce5  1  0.580068  0.577310  0.999200  1
  Ce  Ce6  1  0.000000  0.742323  0.179230  1
  Ce  Ce7  1  0.723438  0.984691  0.164054  1
  Ce  Ce8  1  0.276562  0.261253  0.164054  1
  Ce  Ce9  1  0.000000  0.264666  0.677689  1
  Ce  Ce10  1  0.260575  0.004930  0.678458  1
  Ce  Ce11  1  0.739425  0.744354  0.678458  1
  Al  Al12  1  0.668734  0.333569  0.272477  1
  Al  Al13  1  0.331266  0.664835  0.272477  1
  Al  Al14  1  0.333291  0.668226  0.768694  1
  Al  Al15  1  0.666709  0.334935  0.768694  1
  Al  Al16  1  0.000000  0.997855  0.419347  1
  Al  Al17  1  0.000000  0.997985  0.923870  1
  Tc  Tc18  1  0.343363  0.998846  0.340455  1
  Tc  Tc19  1  0.656637  0.655484  0.340455  1
  Tc  Tc20  1  0.000000  0.653545  0.844448  1
  Tc  Tc21  1  0.658039  0.999157  0.835882  1
  Tc  Tc22  1  0.341961  0.341118  0.835882  1
  Au  Au23  1  0.000000  0.330293  0.340127  1
