# generated using pymatgen
data_Cs3Ca(ThSe3)2
_symmetry_space_group_name_H-M   'P 1'
_cell_length_a   7.63470579
_cell_length_b   7.63470674
_cell_length_c   8.77771200
_cell_angle_alpha   81.67066564
_cell_angle_beta   81.67066460
_cell_angle_gamma   119.98406046
_symmetry_Int_Tables_number   1
_chemical_formula_structural   Cs3Ca(ThSe3)2
_chemical_formula_sum   'Cs3 Ca1 Th2 Se6'
_cell_volume   424.16778343
_cell_formula_units_Z   1
loop_
 _symmetry_equiv_pos_site_id
 _symmetry_equiv_pos_as_xyz
  1  'x, y, z'
loop_
 _atom_site_type_symbol
 _atom_site_label
 _atom_site_symmetry_multiplicity
 _atom_site_fract_x
 _atom_site_fract_y
 _atom_site_fract_z
 _atom_site_occupancy
  Cs  Cs0  1  0.662967  0.337033  0.500000  1
  Cs  Cs1  1  0.337033  0.662967  0.500000  1
  Cs  Cs2  1  0.000000  0.000000  0.500000  1
  Ca  Ca3  1  0.500000  0.500000  0.000000  1
  Th  Th4  1  0.832679  0.167321  0.000000  1
  Th  Th5  1  0.167321  0.832679  0.000000  1
  Se  Se6  1  0.778738  0.778738  0.185725  1
  Se  Se7  1  0.221262  0.221262  0.814275  1
  Se  Se8  1  0.436929  0.095968  0.188512  1
  Se  Se9  1  0.563071  0.904032  0.811488  1
  Se  Se10  1  0.904032  0.563071  0.811488  1
  Se  Se11  1  0.095968  0.436929  0.188512  1
