# generated using pymatgen
data_Sr6Li12Nb3SbO22
_symmetry_space_group_name_H-M   'P 1'
_cell_length_a   5.87009418
_cell_length_b   8.44168800
_cell_length_c   10.69629533
_cell_angle_alpha   90.00000000
_cell_angle_beta   90.02835575
_cell_angle_gamma   90.00000000
_symmetry_Int_Tables_number   1
_chemical_formula_structural   Sr6Li12Nb3SbO22
_chemical_formula_sum   'Sr6 Li12 Nb3 Sb1 O22'
_cell_volume   530.03884406
_cell_formula_units_Z   1
loop_
 _symmetry_equiv_pos_site_id
 _symmetry_equiv_pos_as_xyz
  1  'x, y, z'
loop_
 _atom_site_type_symbol
 _atom_site_label
 _atom_site_symmetry_multiplicity
 _atom_site_fract_x
 _atom_site_fract_y
 _atom_site_fract_z
 _atom_site_occupancy
  Sr  Sr0  1  0.500000  0.266150  0.500000  1
  Sr  Sr1  1  0.500000  0.733850  0.500000  1
  Sr  Sr2  1  0.500000  0.735353  0.000000  1
  Sr  Sr3  1  0.500000  0.264647  0.000000  1
  Sr  Sr4  1  0.616103  0.000000  0.749569  1
  Sr  Sr5  1  0.383897  0.000000  0.250431  1
  Li  Li6  1  0.000000  0.356462  0.500000  1
  Li  Li7  1  0.000000  0.643538  0.500000  1
  Li  Li8  1  0.000000  0.644427  0.000000  1
  Li  Li9  1  0.000000  0.355573  0.000000  1
  Li  Li10  1  0.148660  0.146418  0.750406  1
  Li  Li11  1  0.851340  0.853582  0.249594  1
  Li  Li12  1  0.148660  0.853582  0.750406  1
  Li  Li13  1  0.851340  0.146418  0.249594  1
  Li  Li14  1  0.781319  0.315089  0.750260  1
  Li  Li15  1  0.218681  0.684911  0.249740  1
  Li  Li16  1  0.781319  0.684911  0.750260  1
  Li  Li17  1  0.218681  0.315089  0.249740  1
  Nb  Nb18  1  0.262377  0.500000  0.749944  1
  Nb  Nb19  1  0.737623  0.500000  0.250056  1
  Nb  Nb20  1  0.000000  0.000000  0.000000  1
  Sb  Sb21  1  0.000000  0.000000  0.500000  1
  O  O22  1  0.133615  0.174617  0.111017  1
  O  O23  1  0.866385  0.825383  0.888983  1
  O  O24  1  0.131066  0.824902  0.389573  1
  O  O25  1  0.866385  0.174617  0.888983  1
  O  O26  1  0.868934  0.175098  0.610427  1
  O  O27  1  0.133615  0.825383  0.111017  1
  O  O28  1  0.868934  0.824902  0.610427  1
  O  O29  1  0.131066  0.175098  0.389573  1
  O  O30  1  0.941217  0.500000  0.749728  1
  O  O31  1  0.058783  0.500000  0.250272  1
  O  O32  1  0.251359  0.500000  0.559864  1
  O  O33  1  0.748641  0.500000  0.440136  1
  O  O34  1  0.250750  0.500000  0.940232  1
  O  O35  1  0.749250  0.500000  0.059768  1
  O  O36  1  0.279580  0.000000  0.608649  1
  O  O37  1  0.720420  0.000000  0.391351  1
  O  O38  1  0.282445  0.000000  0.892442  1
  O  O39  1  0.717555  0.000000  0.107558  1
  O  O40  1  0.431487  0.301202  0.750123  1
  O  O41  1  0.568513  0.698798  0.249877  1
  O  O42  1  0.431487  0.698798  0.750123  1
  O  O43  1  0.568513  0.301202  0.249877  1
