# generated using pymatgen
data_Rb3P7
_symmetry_space_group_name_H-M   'P 1'
_cell_length_a   9.25153400
_cell_length_b   9.25153400
_cell_length_c   16.94100100
_cell_angle_alpha   90.00000000
_cell_angle_beta   90.00000000
_cell_angle_gamma   90.00000000
_symmetry_Int_Tables_number   1
_chemical_formula_structural   Rb3P7
_chemical_formula_sum   'Rb12 P28'
_cell_volume   1449.99520659
_cell_formula_units_Z   4
loop_
 _symmetry_equiv_pos_site_id
 _symmetry_equiv_pos_as_xyz
  1  'x, y, z'
loop_
 _atom_site_type_symbol
 _atom_site_label
 _atom_site_symmetry_multiplicity
 _atom_site_fract_x
 _atom_site_fract_y
 _atom_site_fract_z
 _atom_site_occupancy
  Rb  Rb0  1  0.755202  0.371512  0.997307  1
  Rb  Rb1  1  0.628488  0.755202  0.247307  1
  Rb  Rb2  1  0.371512  0.244798  0.747307  1
  Rb  Rb3  1  0.244798  0.628488  0.497307  1
  Rb  Rb4  1  0.419317  0.747212  0.842999  1
  Rb  Rb5  1  0.252788  0.419317  0.092999  1
  Rb  Rb6  1  0.747212  0.580683  0.592999  1
  Rb  Rb7  1  0.580683  0.252788  0.342999  1
  Rb  Rb8  1  0.021168  0.825889  0.999609  1
  Rb  Rb9  1  0.174111  0.021168  0.249609  1
  Rb  Rb10  1  0.825889  0.978832  0.749609  1
  Rb  Rb11  1  0.978832  0.174111  0.499609  1
  P  P12  1  0.787566  0.600624  0.809234  1
  P  P13  1  0.399376  0.787566  0.059234  1
  P  P14  1  0.600624  0.212434  0.559234  1
  P  P15  1  0.212434  0.399376  0.309234  1
  P  P16  1  0.444163  0.091284  0.943563  1
  P  P17  1  0.908716  0.444163  0.193563  1
  P  P18  1  0.091284  0.555837  0.693563  1
  P  P19  1  0.555837  0.908716  0.443563  1
  P  P20  1  0.105718  0.478972  0.890132  1
  P  P21  1  0.521028  0.105718  0.140132  1
  P  P22  1  0.478972  0.894282  0.640132  1
  P  P23  1  0.894282  0.521028  0.390132  1
  P  P24  1  0.355607  0.022076  0.058325  1
  P  P25  1  0.977924  0.355607  0.308325  1
  P  P26  1  0.022076  0.644393  0.808325  1
  P  P27  1  0.644393  0.977924  0.558325  1
  P  P28  1  0.625352  0.794245  0.031603  1
  P  P29  1  0.205755  0.625352  0.281603  1
  P  P30  1  0.794245  0.374648  0.781603  1
  P  P31  1  0.374648  0.205755  0.531603  1
  P  P32  1  0.996667  0.345077  0.704603  1
  P  P33  1  0.654923  0.996667  0.954603  1
  P  P34  1  0.345077  0.003333  0.454603  1
  P  P35  1  0.003333  0.654923  0.204603  1
  P  P36  1  0.006416  0.292225  0.837824  1
  P  P37  1  0.707775  0.006416  0.087824  1
  P  P38  1  0.292225  0.993584  0.587824  1
  P  P39  1  0.993584  0.707775  0.337824  1
