# generated using pymatgen
data_DyEr7(AlCo)2
_symmetry_space_group_name_H-M   'P 1'
_cell_length_a   9.32815396
_cell_length_b   9.32815354
_cell_length_c   9.32492000
_cell_angle_alpha   60.01147331
_cell_angle_beta   60.01147478
_cell_angle_gamma   60.02969466
_symmetry_Int_Tables_number   1
_chemical_formula_structural   DyEr7(AlCo)2
_chemical_formula_sum   'Dy2 Er14 Al4 Co4'
_cell_volume   573.97662794
_cell_formula_units_Z   2
loop_
 _symmetry_equiv_pos_site_id
 _symmetry_equiv_pos_as_xyz
  1  'x, y, z'
loop_
 _atom_site_type_symbol
 _atom_site_label
 _atom_site_symmetry_multiplicity
 _atom_site_fract_x
 _atom_site_fract_y
 _atom_site_fract_z
 _atom_site_occupancy
  Dy  Dy0  1  0.349447  0.952005  0.349274  1
  Dy  Dy1  1  0.952005  0.349447  0.349274  1
  Er  Er2  1  0.807803  0.191928  0.191894  1
  Er  Er3  1  0.191928  0.807803  0.808376  1
  Er  Er4  1  0.191928  0.807803  0.191894  1
  Er  Er5  1  0.807803  0.191928  0.808376  1
  Er  Er6  1  0.192132  0.192132  0.807868  1
  Er  Er7  1  0.808203  0.808203  0.191797  1
  Er  Er8  1  0.937819  0.562315  0.562254  1
  Er  Er9  1  0.562315  0.937819  0.937612  1
  Er  Er10  1  0.562315  0.937819  0.562254  1
  Er  Er11  1  0.937819  0.562315  0.937612  1
  Er  Er12  1  0.562087  0.562087  0.937913  1
  Er  Er13  1  0.937548  0.937548  0.562452  1
  Er  Er14  1  0.349525  0.349525  0.349390  1
  Er  Er15  1  0.349525  0.349525  0.951560  1
  Al  Al16  1  0.577292  0.577292  0.577748  1
  Al  Al17  1  0.577292  0.577292  0.267668  1
  Al  Al18  1  0.577189  0.267500  0.577655  1
  Al  Al19  1  0.267500  0.577189  0.577655  1
  Co  Co20  1  0.140583  0.140583  0.139961  1
  Co  Co21  1  0.140583  0.140583  0.578871  1
  Co  Co22  1  0.140969  0.578390  0.140320  1
  Co  Co23  1  0.578390  0.140969  0.140320  1
