# generated using pymatgen
data_Ce4Y4Al8Ir7Rh
_symmetry_space_group_name_H-M   'P 1'
_cell_length_a   4.23615900
_cell_length_b   6.97232820
_cell_length_c   15.99096946
_cell_angle_alpha   89.97237773
_cell_angle_beta   90.00000000
_cell_angle_gamma   90.00000000
_symmetry_Int_Tables_number   1
_chemical_formula_structural   Ce4Y4Al8Ir7Rh
_chemical_formula_sum   'Ce4 Y4 Al8 Ir7 Rh1'
_cell_volume   472.30747406
_cell_formula_units_Z   1
loop_
 _symmetry_equiv_pos_site_id
 _symmetry_equiv_pos_as_xyz
  1  'x, y, z'
loop_
 _atom_site_type_symbol
 _atom_site_label
 _atom_site_symmetry_multiplicity
 _atom_site_fract_x
 _atom_site_fract_y
 _atom_site_fract_z
 _atom_site_occupancy
  Ce  Ce0  1  0.250000  0.034203  0.779544  1
  Ce  Ce1  1  0.750000  0.964727  0.220231  1
  Ce  Ce2  1  0.250000  0.534095  0.720525  1
  Ce  Ce3  1  0.750000  0.466275  0.279104  1
  Y  Y4  1  0.250000  0.157368  0.559837  1
  Y  Y5  1  0.750000  0.843911  0.441405  1
  Y  Y6  1  0.250000  0.656997  0.940241  1
  Y  Y7  1  0.750000  0.340818  0.059338  1
  Al  Al8  1  0.250000  0.139969  0.353281  1
  Al  Al9  1  0.750000  0.863830  0.646865  1
  Al  Al10  1  0.250000  0.634082  0.145051  1
  Al  Al11  1  0.750000  0.363829  0.853212  1
  Al  Al12  1  0.250000  0.004782  0.061525  1
  Al  Al13  1  0.750000  0.994204  0.938457  1
  Al  Al14  1  0.250000  0.505835  0.439392  1
  Al  Al15  1  0.750000  0.495084  0.561657  1
  Ir  Ir16  1  0.750000  0.272198  0.429619  1
  Ir  Ir17  1  0.250000  0.729759  0.570191  1
  Ir  Ir18  1  0.750000  0.771830  0.070532  1
  Ir  Ir19  1  0.250000  0.228304  0.929529  1
  Ir  Ir20  1  0.750000  0.746883  0.811742  1
  Ir  Ir21  1  0.250000  0.252028  0.188902  1
  Ir  Ir22  1  0.750000  0.247360  0.688001  1
  Rh  Rh23  1  0.250000  0.751631  0.311821  1
