# generated using pymatgen
data_YHo2Cu2(AgSn2)2
_symmetry_space_group_name_H-M   'P 1'
_cell_length_a   4.50771717
_cell_length_b   7.21376070
_cell_length_c   8.64328719
_cell_angle_alpha   115.54635029
_cell_angle_beta   105.11540351
_cell_angle_gamma   89.99999695
_symmetry_Int_Tables_number   1
_chemical_formula_structural   YHo2Cu2(AgSn2)2
_chemical_formula_sum   'Y1 Ho2 Cu2 Ag2 Sn4'
_cell_volume   242.75960189
_cell_formula_units_Z   1
loop_
 _symmetry_equiv_pos_site_id
 _symmetry_equiv_pos_as_xyz
  1  'x, y, z'
loop_
 _atom_site_type_symbol
 _atom_site_label
 _atom_site_symmetry_multiplicity
 _atom_site_fract_x
 _atom_site_fract_y
 _atom_site_fract_z
 _atom_site_occupancy
  Y  Y0  1  0.000000  0.000000  0.000000  1
  Ho  Ho1  1  0.871453  0.346878  0.742906  1
  Ho  Ho2  1  0.128547  0.653122  0.257094  1
  Cu  Cu3  1  0.341276  0.028440  0.682553  1
  Cu  Cu4  1  0.658724  0.971560  0.317447  1
  Ag  Ag5  1  0.317337  0.621479  0.634674  1
  Ag  Ag6  1  0.682663  0.378521  0.365326  1
  Sn  Sn7  1  0.217717  0.177892  0.435434  1
  Sn  Sn8  1  0.782283  0.822108  0.564566  1
  Sn  Sn9  1  0.505639  0.307694  0.011277  1
  Sn  Sn10  1  0.494361  0.692306  0.988723  1
