# generated using pymatgen
data_Pr3ThHgIr
_symmetry_space_group_name_H-M   'P 1'
_cell_length_a   10.02486942
_cell_length_b   10.02486871
_cell_length_c   10.02486900
_cell_angle_alpha   60.00000233
_cell_angle_beta   60.00000469
_cell_angle_gamma   59.99999886
_symmetry_Int_Tables_number   1
_chemical_formula_structural   Pr3ThHgIr
_chemical_formula_sum   'Pr12 Th4 Hg4 Ir4'
_cell_volume   712.39546413
_cell_formula_units_Z   4
loop_
 _symmetry_equiv_pos_site_id
 _symmetry_equiv_pos_as_xyz
  1  'x, y, z'
loop_
 _atom_site_type_symbol
 _atom_site_label
 _atom_site_symmetry_multiplicity
 _atom_site_fract_x
 _atom_site_fract_y
 _atom_site_fract_z
 _atom_site_occupancy
  Pr  Pr0  1  0.807523  0.192477  0.192477  1
  Pr  Pr1  1  0.192477  0.807523  0.807523  1
  Pr  Pr2  1  0.192477  0.807523  0.192477  1
  Pr  Pr3  1  0.807523  0.192477  0.807523  1
  Pr  Pr4  1  0.192477  0.192477  0.807523  1
  Pr  Pr5  1  0.807523  0.807523  0.192477  1
  Pr  Pr6  1  0.938363  0.561637  0.561637  1
  Pr  Pr7  1  0.561637  0.938363  0.938363  1
  Pr  Pr8  1  0.561637  0.938363  0.561637  1
  Pr  Pr9  1  0.938363  0.561637  0.938363  1
  Pr  Pr10  1  0.561637  0.561637  0.938363  1
  Pr  Pr11  1  0.938363  0.938363  0.561637  1
  Th  Th12  1  0.346927  0.346927  0.346927  1
  Th  Th13  1  0.346927  0.346927  0.959218  1
  Th  Th14  1  0.346927  0.959218  0.346927  1
  Th  Th15  1  0.959218  0.346927  0.346927  1
  Hg  Hg16  1  0.584044  0.584044  0.584044  1
  Hg  Hg17  1  0.584044  0.584044  0.247868  1
  Hg  Hg18  1  0.584044  0.247868  0.584044  1
  Hg  Hg19  1  0.247868  0.584044  0.584044  1
  Ir  Ir20  1  0.146096  0.146096  0.146096  1
  Ir  Ir21  1  0.146096  0.146096  0.561711  1
  Ir  Ir22  1  0.146096  0.561711  0.146096  1
  Ir  Ir23  1  0.561711  0.146096  0.146096  1
