# generated using pymatgen
data_Tb5DyPtI10
_symmetry_space_group_name_H-M   'P 1'
_cell_length_a   7.77676007
_cell_length_b   9.84837112
_cell_length_c   9.79069040
_cell_angle_alpha   107.05455614
_cell_angle_beta   104.46477400
_cell_angle_gamma   97.04033538
_symmetry_Int_Tables_number   1
_chemical_formula_structural   Tb5DyPtI10
_chemical_formula_sum   'Tb5 Dy1 Pt1 I10'
_cell_volume   678.44638412
_cell_formula_units_Z   1
loop_
 _symmetry_equiv_pos_site_id
 _symmetry_equiv_pos_as_xyz
  1  'x, y, z'
loop_
 _atom_site_type_symbol
 _atom_site_label
 _atom_site_symmetry_multiplicity
 _atom_site_fract_x
 _atom_site_fract_y
 _atom_site_fract_z
 _atom_site_occupancy
  Tb  Tb0  1  0.347898  0.166943  0.124258  1
  Tb  Tb1  1  0.030818  0.913353  0.713473  1
  Tb  Tb2  1  0.968651  0.086301  0.286344  1
  Tb  Tb3  1  0.116176  0.759733  0.042704  1
  Tb  Tb4  1  0.882947  0.239968  0.956909  1
  Dy  Dy5  1  0.653743  0.833884  0.876274  1
  Pt  Pt6  1  0.999944  0.000042  0.999960  1
  I  I7  1  0.647549  0.728133  0.550249  1
  I  I8  1  0.351634  0.271503  0.450811  1
  I  I9  1  0.224535  0.655378  0.745241  1
  I  I10  1  0.777817  0.345821  0.255555  1
  I  I11  1  0.455162  0.090496  0.816524  1
  I  I12  1  0.545073  0.908337  0.182380  1
  I  I13  1  0.254554  0.460968  0.086241  1
  I  I14  1  0.744022  0.539540  0.913305  1
  I  I15  1  0.085447  0.820651  0.372628  1
  I  I16  1  0.914026  0.178949  0.627146  1
