# generated using pymatgen
data_Ba6SmDy(BO3)6
_symmetry_space_group_name_H-M   'P 1'
_cell_length_a   8.25311089
_cell_length_b   8.25311194
_cell_length_c   8.25311100
_cell_angle_alpha   105.59421044
_cell_angle_beta   105.59422464
_cell_angle_gamma   105.59422076
_symmetry_Int_Tables_number   1
_chemical_formula_structural   Ba6SmDy(BO3)6
_chemical_formula_sum   'Ba6 Sm1 Dy1 B6 O18'
_cell_volume   484.99992760
_cell_formula_units_Z   1
loop_
 _symmetry_equiv_pos_site_id
 _symmetry_equiv_pos_as_xyz
  1  'x, y, z'
loop_
 _atom_site_type_symbol
 _atom_site_label
 _atom_site_symmetry_multiplicity
 _atom_site_fract_x
 _atom_site_fract_y
 _atom_site_fract_z
 _atom_site_occupancy
  Ba  Ba0  1  0.349333  0.734390  0.840974  1
  Ba  Ba1  1  0.840974  0.349333  0.734390  1
  Ba  Ba2  1  0.734390  0.840974  0.349333  1
  Ba  Ba3  1  0.650667  0.265610  0.159026  1
  Ba  Ba4  1  0.159026  0.650667  0.265610  1
  Ba  Ba5  1  0.265610  0.159026  0.650667  1
  Sm  Sm6  1  0.000000  0.000000  0.000000  1
  Dy  Dy7  1  0.500000  0.500000  0.500000  1
  B  B8  1  0.708263  0.622099  0.956326  1
  B  B9  1  0.956326  0.708263  0.622099  1
  B  B10  1  0.622099  0.956326  0.708263  1
  B  B11  1  0.043674  0.291737  0.377901  1
  B  B12  1  0.377901  0.043674  0.291737  1
  B  B13  1  0.291737  0.377901  0.043674  1
  O  O14  1  0.063697  0.805142  0.551804  1
  O  O15  1  0.551804  0.063697  0.805142  1
  O  O16  1  0.426081  0.491239  0.213018  1
  O  O17  1  0.491239  0.213018  0.426081  1
  O  O18  1  0.213018  0.426081  0.491239  1
  O  O19  1  0.786982  0.573919  0.508761  1
  O  O20  1  0.573919  0.508761  0.786982  1
  O  O21  1  0.508761  0.786982  0.573919  1
  O  O22  1  0.261752  0.192861  0.984243  1
  O  O23  1  0.192861  0.984243  0.261752  1
  O  O24  1  0.984243  0.261752  0.192861  1
  O  O25  1  0.738248  0.807139  0.015757  1
  O  O26  1  0.807139  0.015757  0.738248  1
  O  O27  1  0.015757  0.738248  0.807139  1
  O  O28  1  0.194858  0.448196  0.936303  1
  O  O29  1  0.448196  0.936303  0.194858  1
  O  O30  1  0.936303  0.194858  0.448196  1
  O  O31  1  0.805142  0.551804  0.063697  1
