# generated using pymatgen
data_Tm2LuIn3Ag2Au
_symmetry_space_group_name_H-M   'P 1'
_cell_length_a   7.78535966
_cell_length_b   7.76843364
_cell_length_c   3.90205000
_cell_angle_alpha   90.00000000
_cell_angle_beta   90.00000000
_cell_angle_gamma   119.78916169
_symmetry_Int_Tables_number   1
_chemical_formula_structural   Tm2LuIn3Ag2Au
_chemical_formula_sum   'Tm2 Lu1 In3 Ag2 Au1'
_cell_volume   204.81151317
_cell_formula_units_Z   1
loop_
 _symmetry_equiv_pos_site_id
 _symmetry_equiv_pos_as_xyz
  1  'x, y, z'
loop_
 _atom_site_type_symbol
 _atom_site_label
 _atom_site_symmetry_multiplicity
 _atom_site_fract_x
 _atom_site_fract_y
 _atom_site_fract_z
 _atom_site_occupancy
  Tm  Tm0  1  0.407522  0.007354  0.500000  1
  Tm  Tm1  1  0.992812  0.400619  0.500000  1
  Lu  Lu2  1  0.599994  0.592046  0.500000  1
  In  In3  1  0.733847  0.994302  0.000000  1
  In  In4  1  0.004801  0.739217  0.000000  1
  In  In5  1  0.260666  0.265737  0.000000  1
  Ag  Ag6  1  0.334212  0.666598  0.000000  1
  Ag  Ag7  1  0.999739  0.999969  0.500000  1
  Au  Au8  1  0.666407  0.334159  0.000000  1
