# generated using pymatgen
data_YEr2HgRu2
_symmetry_space_group_name_H-M   'P 1'
_cell_length_a   3.41001600
_cell_length_b   3.41001600
_cell_length_c   11.13056200
_cell_angle_alpha   90.00000000
_cell_angle_beta   90.00000000
_cell_angle_gamma   90.00000000
_symmetry_Int_Tables_number   1
_chemical_formula_structural   YEr2HgRu2
_chemical_formula_sum   'Y1 Er2 Hg1 Ru2'
_cell_volume   129.42850256
_cell_formula_units_Z   1
loop_
 _symmetry_equiv_pos_site_id
 _symmetry_equiv_pos_as_xyz
  1  'x, y, z'
loop_
 _atom_site_type_symbol
 _atom_site_label
 _atom_site_symmetry_multiplicity
 _atom_site_fract_x
 _atom_site_fract_y
 _atom_site_fract_z
 _atom_site_occupancy
  Y  Y0  1  0.000000  0.000000  0.699298  1
  Er  Er1  1  0.000000  0.000000  0.000910  1
  Er  Er2  1  0.000000  0.000000  0.298898  1
  Hg  Hg3  1  0.500001  0.500001  0.496911  1
  Ru  Ru4  1  0.500001  0.500001  0.157654  1
  Ru  Ru5  1  0.500001  0.500001  0.846329  1
