# generated using pymatgen
data_Tb2DyEr7Pb6
_symmetry_space_group_name_H-M   'P 1'
_cell_length_a   9.00593671
_cell_length_b   9.01997067
_cell_length_c   6.61049100
_cell_angle_alpha   90.00000000
_cell_angle_beta   90.00000000
_cell_angle_gamma   120.00971643
_symmetry_Int_Tables_number   1
_chemical_formula_structural   Tb2DyEr7Pb6
_chemical_formula_sum   'Tb2 Dy1 Er7 Pb6'
_cell_volume   465.00308695
_cell_formula_units_Z   1
loop_
 _symmetry_equiv_pos_site_id
 _symmetry_equiv_pos_as_xyz
  1  'x, y, z'
loop_
 _atom_site_type_symbol
 _atom_site_label
 _atom_site_symmetry_multiplicity
 _atom_site_fract_x
 _atom_site_fract_y
 _atom_site_fract_z
 _atom_site_occupancy
  Tb  Tb0  1  0.237819  0.237941  0.750000  1
  Tb  Tb1  1  0.237531  0.999807  0.250000  1
  Dy  Dy2  1  0.762310  0.999861  0.750000  1
  Er  Er3  1  0.333333  0.666664  0.000031  1
  Er  Er4  1  0.666797  0.333435  0.000042  1
  Er  Er5  1  0.999770  0.761808  0.750000  1
  Er  Er6  1  0.762250  0.762324  0.250000  1
  Er  Er7  1  0.999784  0.237919  0.250000  1
  Er  Er8  1  0.333333  0.666664  0.499969  1
  Er  Er9  1  0.666797  0.333435  0.499958  1
  Pb  Pb10  1  0.999670  0.395935  0.750000  1
  Pb  Pb11  1  0.395076  0.395936  0.250000  1
  Pb  Pb12  1  0.606090  0.000014  0.250000  1
  Pb  Pb13  1  0.605646  0.605118  0.750000  1
  Pb  Pb14  1  0.394591  0.999113  0.750000  1
  Pb  Pb15  1  0.999201  0.604028  0.250000  1
