# generated using pymatgen
data_EuAgRu2O7
_symmetry_space_group_name_H-M   'P 1'
_cell_length_a   7.29787973
_cell_length_b   7.47101409
_cell_length_c   7.29788000
_cell_angle_alpha   59.21206552
_cell_angle_beta   59.39229253
_cell_angle_gamma   59.21206721
_symmetry_Int_Tables_number   1
_chemical_formula_structural   EuAgRu2O7
_chemical_formula_sum   'Eu2 Ag2 Ru4 O14'
_cell_volume   276.69147680
_cell_formula_units_Z   2
loop_
 _symmetry_equiv_pos_site_id
 _symmetry_equiv_pos_as_xyz
  1  'x, y, z'
loop_
 _atom_site_type_symbol
 _atom_site_label
 _atom_site_symmetry_multiplicity
 _atom_site_fract_x
 _atom_site_fract_y
 _atom_site_fract_z
 _atom_site_occupancy
  Eu  Eu0  1  0.625000  0.125000  0.625000  1
  Eu  Eu1  1  0.625000  0.625000  0.625000  1
  Ag  Ag2  1  0.625000  0.625000  0.125000  1
  Ag  Ag3  1  0.125000  0.625000  0.625000  1
  Ru  Ru4  1  0.125000  0.125000  0.625000  1
  Ru  Ru5  1  0.125000  0.625000  0.125000  1
  Ru  Ru6  1  0.625000  0.125000  0.125000  1
  Ru  Ru7  1  0.125000  0.125000  0.125000  1
  O  O8  1  0.760528  0.739472  0.760528  1
  O  O9  1  0.489472  0.510528  0.489472  1
  O  O10  1  0.062572  0.437428  0.062572  1
  O  O11  1  0.795267  0.204733  0.795267  1
  O  O12  1  0.054143  0.059420  0.445291  1
  O  O13  1  0.445291  0.059420  0.054143  1
  O  O14  1  0.054143  0.441146  0.445291  1
  O  O15  1  0.445291  0.441146  0.054143  1
  O  O16  1  0.454733  0.045267  0.454733  1
  O  O17  1  0.195857  0.808854  0.804709  1
  O  O18  1  0.804709  0.190580  0.195857  1
  O  O19  1  0.187428  0.812572  0.187428  1
  O  O20  1  0.804709  0.808854  0.195857  1
  O  O21  1  0.195857  0.190580  0.804709  1
