# generated using pymatgen
data_HoTm(GaRu)2
_symmetry_space_group_name_H-M   'P 1'
_cell_length_a   5.27771307
_cell_length_b   5.27771162
_cell_length_c   5.27771248
_cell_angle_alpha   117.91653625
_cell_angle_beta   115.30562699
_cell_angle_gamma   95.99077976
_symmetry_Int_Tables_number   1
_chemical_formula_structural   HoTm(GaRu)2
_chemical_formula_sum   'Ho1 Tm1 Ga2 Ru2'
_cell_volume   108.56883659
_cell_formula_units_Z   1
loop_
 _symmetry_equiv_pos_site_id
 _symmetry_equiv_pos_as_xyz
  1  'x, y, z'
loop_
 _atom_site_type_symbol
 _atom_site_label
 _atom_site_symmetry_multiplicity
 _atom_site_fract_x
 _atom_site_fract_y
 _atom_site_fract_z
 _atom_site_occupancy
  Ho  Ho0  1  0.611715  0.861715  0.750000  1
  Tm  Tm1  1  0.388644  0.138644  0.250000  1
  Ga  Ga2  1  0.000031  0.500442  0.000412  1
  Ga  Ga3  1  0.000031  0.999619  0.499588  1
  Ru  Ru4  1  0.499353  0.499790  0.999563  1
  Ru  Ru5  1  0.000227  0.499790  0.500437  1
