# generated using pymatgen
data_Tb5DyIn2C
_symmetry_space_group_name_H-M   'P 1'
_cell_length_a   6.96446372
_cell_length_b   6.95900029
_cell_length_c   6.95900015
_cell_angle_alpha   60.05196173
_cell_angle_beta   59.97403056
_cell_angle_gamma   59.97403537
_symmetry_Int_Tables_number   1
_chemical_formula_structural   Tb5DyIn2C
_chemical_formula_sum   'Tb5 Dy1 In2 C1'
_cell_volume   238.48767396
_cell_formula_units_Z   1
loop_
 _symmetry_equiv_pos_site_id
 _symmetry_equiv_pos_as_xyz
  1  'x, y, z'
loop_
 _atom_site_type_symbol
 _atom_site_label
 _atom_site_symmetry_multiplicity
 _atom_site_fract_x
 _atom_site_fract_y
 _atom_site_fract_z
 _atom_site_occupancy
  Tb  Tb0  1  0.754476  0.754523  0.245523  1
  Tb  Tb1  1  0.754535  0.245464  0.245463  1
  Tb  Tb2  1  0.245477  0.754522  0.245523  1
  Tb  Tb3  1  0.245477  0.245524  0.754522  1
  Tb  Tb4  1  0.754477  0.245522  0.754524  1
  Dy  Dy5  1  0.245004  0.754995  0.754995  1
  In  In6  1  0.249965  0.250035  0.250035  1
  In  In7  1  0.749964  0.750034  0.750034  1
  C  C8  1  0.000620  0.999380  0.999380  1
