# generated using pymatgen
data_CaYb2Cd3Si2Sn
_symmetry_space_group_name_H-M   'P 1'
_cell_length_a   7.34375344
_cell_length_b   7.35412915
_cell_length_c   4.59580100
_cell_angle_alpha   90.00000000
_cell_angle_beta   90.00000000
_cell_angle_gamma   120.04674426
_symmetry_Int_Tables_number   1
_chemical_formula_structural   CaYb2Cd3Si2Sn
_chemical_formula_sum   'Ca1 Yb2 Cd3 Si2 Sn1'
_cell_volume   214.85053051
_cell_formula_units_Z   1
loop_
 _symmetry_equiv_pos_site_id
 _symmetry_equiv_pos_as_xyz
  1  'x, y, z'
loop_
 _atom_site_type_symbol
 _atom_site_label
 _atom_site_symmetry_multiplicity
 _atom_site_fract_x
 _atom_site_fract_y
 _atom_site_fract_z
 _atom_site_occupancy
  Ca  Ca0  1  0.000000  0.432124  0.500000  1
  Yb  Yb1  1  0.567895  0.567883  0.500000  1
  Yb  Yb2  1  0.432105  0.999988  0.500000  1
  Cd  Cd3  1  0.000000  0.733435  0.000000  1
  Cd  Cd4  1  0.267768  0.267298  0.000000  1
  Cd  Cd5  1  0.732232  0.999530  0.000000  1
  Si  Si6  1  0.333651  0.666947  0.000000  1
  Si  Si7  1  0.666349  0.333295  0.000000  1
  Sn  Sn8  1  0.000000  0.999501  0.500000  1
