# generated using pymatgen
data_Yb10CdCu3HgPt
_symmetry_space_group_name_H-M   'P 1'
_cell_length_a   8.99451754
_cell_length_b   8.98697801
_cell_length_c   8.98940622
_cell_angle_alpha   128.99831593
_cell_angle_beta   129.02090589
_cell_angle_gamma   75.00512828
_symmetry_Int_Tables_number   1
_chemical_formula_structural   Yb10CdCu3HgPt
_chemical_formula_sum   'Yb10 Cd1 Cu3 Hg1 Pt1'
_cell_volume   427.21864793
_cell_formula_units_Z   1
loop_
 _symmetry_equiv_pos_site_id
 _symmetry_equiv_pos_as_xyz
  1  'x, y, z'
loop_
 _atom_site_type_symbol
 _atom_site_label
 _atom_site_symmetry_multiplicity
 _atom_site_fract_x
 _atom_site_fract_y
 _atom_site_fract_z
 _atom_site_occupancy
  Yb  Yb0  1  0.496398  0.500724  0.997818  1
  Yb  Yb1  1  0.001426  0.997103  0.997816  1
  Yb  Yb2  1  0.528639  0.031374  0.833317  1
  Yb  Yb3  1  0.195105  0.692248  0.158918  1
  Yb  Yb4  1  0.032746  0.201457  0.506251  1
  Yb  Yb5  1  0.698815  0.530037  0.500897  1
  Yb  Yb6  1  0.463810  0.966668  0.158884  1
  Yb  Yb7  1  0.804646  0.301913  0.833279  1
  Yb  Yb8  1  0.973520  0.804812  0.506280  1
  Yb  Yb9  1  0.302097  0.470879  0.500925  1
  Cd  Cd10  1  0.751026  0.751063  0.002089  1
  Cu  Cu11  1  0.875533  0.375532  0.251095  1
  Cu  Cu12  1  0.617842  0.882704  0.500616  1
  Cu  Cu13  1  0.382775  0.117915  0.500615  1
  Hg  Hg14  1  0.250852  0.250800  0.001650  1
  Pt  Pt15  1  0.124769  0.624770  0.749548  1
