# generated using pymatgen
data_Ce3ScNb2(B2Ru5)2
_symmetry_space_group_name_H-M   'P 1'
_cell_length_a   9.70386032
_cell_length_b   9.70386032
_cell_length_c   3.12373800
_cell_angle_alpha   90.00000000
_cell_angle_beta   90.00000000
_cell_angle_gamma   89.67376790
_symmetry_Int_Tables_number   1
_chemical_formula_structural   Ce3ScNb2(B2Ru5)2
_chemical_formula_sum   'Ce3 Sc1 Nb2 B4 Ru10'
_cell_volume   294.14172458
_cell_formula_units_Z   1
loop_
 _symmetry_equiv_pos_site_id
 _symmetry_equiv_pos_as_xyz
  1  'x, y, z'
loop_
 _atom_site_type_symbol
 _atom_site_label
 _atom_site_symmetry_multiplicity
 _atom_site_fract_x
 _atom_site_fract_y
 _atom_site_fract_z
 _atom_site_occupancy
  Ce  Ce0  1  0.173237  0.326763  0.000000  1
  Ce  Ce1  1  0.324114  0.823349  0.000000  1
  Ce  Ce2  1  0.676651  0.175886  0.000000  1
  Sc  Sc3  1  0.823753  0.676247  0.000000  1
  Nb  Nb4  1  0.505416  0.502828  0.000000  1
  Nb  Nb5  1  0.997172  0.994584  0.000000  1
  B  B6  1  0.626163  0.873837  0.000000  1
  B  B7  1  0.379526  0.120474  0.000000  1
  B  B8  1  0.116435  0.621454  0.000000  1
  B  B9  1  0.878546  0.383565  0.000000  1
  Ru  Ru10  1  0.574646  0.717565  0.500000  1
  Ru  Ru11  1  0.429051  0.281209  0.500000  1
  Ru  Ru12  1  0.067333  0.779565  0.500000  1
  Ru  Ru13  1  0.929737  0.219900  0.500000  1
  Ru  Ru14  1  0.280100  0.570263  0.500000  1
  Ru  Ru15  1  0.720435  0.432667  0.500000  1
  Ru  Ru16  1  0.218791  0.070949  0.500000  1
  Ru  Ru17  1  0.782435  0.925354  0.500000  1
  Ru  Ru18  1  0.501054  0.998946  0.500000  1
  Ru  Ru19  1  0.995407  0.504593  0.500000  1
