# generated using pymatgen
data_Sc12FeCo3BiRu
_symmetry_space_group_name_H-M   'P 1'
_cell_length_a   7.78013383
_cell_length_b   7.78012662
_cell_length_c   7.78013438
_cell_angle_alpha   111.84640010
_cell_angle_beta   111.16225620
_cell_angle_gamma   105.47814047
_symmetry_Int_Tables_number   1
_chemical_formula_structural   Sc12FeCo3BiRu
_chemical_formula_sum   'Sc12 Fe1 Co3 Bi1 Ru1'
_cell_volume   361.20311545
_cell_formula_units_Z   1
loop_
 _symmetry_equiv_pos_site_id
 _symmetry_equiv_pos_as_xyz
  1  'x, y, z'
loop_
 _atom_site_type_symbol
 _atom_site_label
 _atom_site_symmetry_multiplicity
 _atom_site_fract_x
 _atom_site_fract_y
 _atom_site_fract_z
 _atom_site_occupancy
  Sc  Sc0  1  0.815733  0.726635  0.542368  1
  Sc  Sc1  1  0.185017  0.275214  0.460231  1
  Sc  Sc2  1  0.185017  0.724786  0.909802  1
  Sc  Sc3  1  0.815732  0.273365  0.089097  1
  Sc  Sc4  1  0.694206  0.385802  0.696649  1
  Sc  Sc5  1  0.310847  0.614198  0.308402  1
  Sc  Sc6  1  0.694206  0.997557  0.308403  1
  Sc  Sc7  1  0.310847  0.002443  0.696649  1
  Sc  Sc8  1  0.580039  0.781603  0.798436  1
  Sc  Sc9  1  0.420225  0.218858  0.201367  1
  Sc  Sc10  1  0.982508  0.781142  0.201367  1
  Sc  Sc11  1  0.016833  0.218397  0.798436  1
  Fe  Fe12  1  0.619664  0.000000  0.619664  1
  Co  Co13  1  0.365012  0.000000  0.365012  1
  Co  Co14  1  0.117214  0.615620  0.501594  1
  Co  Co15  1  0.885974  0.384380  0.501594  1
  Bi  Bi16  1  0.500800  0.500000  0.000800  1
  Ru  Ru17  1  0.000128  0.000000  0.000128  1
