# generated using pymatgen
data_Tm7OsRhSe2
_symmetry_space_group_name_H-M   'P 1'
_cell_length_a   8.92515865
_cell_length_b   8.94603664
_cell_length_c   8.94603800
_cell_angle_alpha   155.23158611
_cell_angle_beta   119.04440261
_cell_angle_gamma   66.84121163
_symmetry_Int_Tables_number   1
_chemical_formula_structural   Tm7OsRhSe2
_chemical_formula_sum   'Tm7 Os1 Rh1 Se2'
_cell_volume   259.40796952
_cell_formula_units_Z   1
loop_
 _symmetry_equiv_pos_site_id
 _symmetry_equiv_pos_as_xyz
  1  'x, y, z'
loop_
 _atom_site_type_symbol
 _atom_site_label
 _atom_site_symmetry_multiplicity
 _atom_site_fract_x
 _atom_site_fract_y
 _atom_site_fract_z
 _atom_site_occupancy
  Tm  Tm0  1  0.540893  0.124863  0.416031  1
  Tm  Tm1  1  0.289692  0.874709  0.414983  1
  Tm  Tm2  1  0.947768  0.315729  0.632039  1
  Tm  Tm3  1  0.310794  0.682659  0.628135  1
  Tm  Tm4  1  0.611723  0.358573  0.253150  1
  Tm  Tm5  1  0.901548  0.640921  0.260628  1
  Tm  Tm6  1  0.001684  0.000467  0.001217  1
  Os  Os7  1  0.169590  0.238573  0.931017  1
  Rh  Rh8  1  0.694001  0.762877  0.931124  1
  Se  Se9  1  0.263217  0.500892  0.762325  1
  Se  Se10  1  0.659946  0.999738  0.660208  1
