# generated using pymatgen
data_Er3Fe4Co5P6
_symmetry_space_group_name_H-M   'P 1'
_cell_length_a   3.69241300
_cell_length_b   10.49426400
_cell_length_c   12.07722300
_cell_angle_alpha   90.00000000
_cell_angle_beta   90.00000000
_cell_angle_gamma   90.00000000
_symmetry_Int_Tables_number   1
_chemical_formula_structural   Er3Fe4Co5P6
_chemical_formula_sum   'Er6 Fe8 Co10 P12'
_cell_volume   467.98220797
_cell_formula_units_Z   2
loop_
 _symmetry_equiv_pos_site_id
 _symmetry_equiv_pos_as_xyz
  1  'x, y, z'
loop_
 _atom_site_type_symbol
 _atom_site_label
 _atom_site_symmetry_multiplicity
 _atom_site_fract_x
 _atom_site_fract_y
 _atom_site_fract_z
 _atom_site_occupancy
  Er  Er0  1  0.000000  0.500000  0.523133  1
  Er  Er1  1  0.500000  0.000000  0.476867  1
  Er  Er2  1  0.500000  0.819064  0.205206  1
  Er  Er3  1  0.500000  0.180936  0.205206  1
  Er  Er4  1  0.000000  0.680936  0.794794  1
  Er  Er5  1  0.000000  0.319064  0.794794  1
  Fe  Fe6  1  0.000000  0.500000  0.987126  1
  Fe  Fe7  1  0.500000  0.000000  0.012874  1
  Fe  Fe8  1  0.500000  0.298472  0.428948  1
  Fe  Fe9  1  0.500000  0.701528  0.428948  1
  Fe  Fe10  1  0.000000  0.201528  0.571052  1
  Fe  Fe11  1  0.000000  0.798472  0.571052  1
  Fe  Fe12  1  0.500000  0.500000  0.155650  1
  Fe  Fe13  1  0.000000  0.000000  0.844350  1
  Co  Co14  1  0.500000  0.880331  0.711599  1
  Co  Co15  1  0.500000  0.119669  0.711599  1
  Co  Co16  1  0.000000  0.619669  0.288401  1
  Co  Co17  1  0.000000  0.380331  0.288401  1
  Co  Co18  1  0.500000  0.331894  0.993939  1
  Co  Co19  1  0.500000  0.668106  0.993939  1
  Co  Co20  1  0.000000  0.168106  0.006061  1
  Co  Co21  1  0.000000  0.831894  0.006061  1
  Co  Co22  1  0.500000  0.500000  0.699622  1
  Co  Co23  1  0.000000  0.000000  0.300378  1
  P  P24  1  0.500000  0.308159  0.614830  1
  P  P25  1  0.500000  0.691841  0.614830  1
  P  P26  1  0.000000  0.191841  0.385170  1
  P  P27  1  0.000000  0.808159  0.385170  1
  P  P28  1  0.500000  0.500000  0.882716  1
  P  P29  1  0.000000  0.000000  0.117284  1
  P  P30  1  0.500000  0.847776  0.893693  1
  P  P31  1  0.500000  0.152224  0.893693  1
  P  P32  1  0.000000  0.652224  0.106307  1
  P  P33  1  0.000000  0.347776  0.106307  1
  P  P34  1  0.500000  0.500000  0.343249  1
  P  P35  1  0.000000  0.000000  0.656751  1
