# generated using pymatgen
data_La2ReTc2B5
_symmetry_space_group_name_H-M   'P 1'
_cell_length_a   5.80423095
_cell_length_b   5.80198813
_cell_length_c   8.31650498
_cell_angle_alpha   123.91463616
_cell_angle_beta   123.93195908
_cell_angle_gamma   41.70207817
_symmetry_Int_Tables_number   1
_chemical_formula_structural   La2ReTc2B5
_chemical_formula_sum   'La2 Re1 Tc2 B5'
_cell_volume   149.44422121
_cell_formula_units_Z   1
loop_
 _symmetry_equiv_pos_site_id
 _symmetry_equiv_pos_as_xyz
  1  'x, y, z'
loop_
 _atom_site_type_symbol
 _atom_site_label
 _atom_site_symmetry_multiplicity
 _atom_site_fract_x
 _atom_site_fract_y
 _atom_site_fract_z
 _atom_site_occupancy
  La  La0  1  0.382186  0.961354  0.267185  1
  La  La1  1  0.038492  0.617329  0.733042  1
  Re  Re2  1  0.596911  0.138094  0.097363  1
  Tc  Tc3  1  0.991950  0.007584  0.499726  1
  Tc  Tc4  1  0.861530  0.402649  0.902453  1
  B  B5  1  0.709446  0.290995  0.000091  1
  B  B6  1  0.081216  0.642376  0.188871  1
  B  B7  1  0.464723  0.489700  0.382799  1
  B  B8  1  0.510177  0.535357  0.617501  1
  B  B9  1  0.358760  0.919170  0.810968  1
