# generated using pymatgen
data_RbNa3Hf6FeBr18
_symmetry_space_group_name_H-M   'P 1'
_cell_length_a   10.43203659
_cell_length_b   10.44177034
_cell_length_c   10.44039462
_cell_angle_alpha   118.98812225
_cell_angle_beta   99.85230217
_cell_angle_gamma   102.89238054
_symmetry_Int_Tables_number   1
_chemical_formula_structural   RbNa3Hf6FeBr18
_chemical_formula_sum   'Rb1 Na3 Hf6 Fe1 Br18'
_cell_volume   916.23312015
_cell_formula_units_Z   1
loop_
 _symmetry_equiv_pos_site_id
 _symmetry_equiv_pos_as_xyz
  1  'x, y, z'
loop_
 _atom_site_type_symbol
 _atom_site_label
 _atom_site_symmetry_multiplicity
 _atom_site_fract_x
 _atom_site_fract_y
 _atom_site_fract_z
 _atom_site_occupancy
  Rb  Rb0  1  0.649200  0.532917  0.228294  1
  Na  Na1  1  0.374609  0.473873  0.783197  1
  Na  Na2  1  0.647298  0.212666  0.552796  1
  Na  Na3  1  0.348434  0.787710  0.454962  1
  Hf  Hf4  1  0.155478  0.052346  0.233460  1
  Hf  Hf5  1  0.845015  0.951066  0.767614  1
  Hf  Hf6  1  0.865764  0.135230  0.149856  1
  Hf  Hf7  1  0.135920  0.862612  0.853283  1
  Hf  Hf8  1  0.145355  0.242796  0.043032  1
  Hf  Hf9  1  0.853304  0.755774  0.951002  1
  Fe  Fe10  1  0.000132  0.999772  0.999320  1
  Br  Br11  1  0.010976  0.421271  0.211545  1
  Br  Br12  1  0.988079  0.577568  0.788914  1
  Br  Br13  1  0.334036  0.333281  0.311405  1
  Br  Br14  1  0.666279  0.671495  0.681745  1
  Br  Br15  1  0.317516  0.525742  0.091389  1
  Br  Br16  1  0.662891  0.465348  0.874028  1
  Br  Br17  1  0.005934  0.787477  0.209681  1
  Br  Br18  1  0.991517  0.209684  0.785086  1
  Br  Br19  1  0.711963  0.282668  0.327966  1
  Br  Br20  1  0.291969  0.700152  0.685040  1
  Br  Br21  1  0.313507  0.118913  0.887823  1
  Br  Br22  1  0.685983  0.874428  0.107920  1
  Br  Br23  1  0.028469  0.211837  0.426446  1
  Br  Br24  1  0.976301  0.790334  0.575342  1
  Br  Br25  1  0.322611  0.909680  0.099535  1
  Br  Br26  1  0.679615  0.095634  0.908535  1
  Br  Br27  1  0.341110  0.114650  0.508742  1
  Br  Br28  1  0.650734  0.903075  0.502041  1
