# generated using pymatgen
data_La20GaSi10Ge
_symmetry_space_group_name_H-M   'P 1'
_cell_length_a   7.90621200
_cell_length_b   7.90621200
_cell_length_c   14.53922200
_cell_angle_alpha   90.00000000
_cell_angle_beta   90.00000000
_cell_angle_gamma   90.00000000
_symmetry_Int_Tables_number   1
_chemical_formula_structural   La20GaSi10Ge
_chemical_formula_sum   'La20 Ga1 Si10 Ge1'
_cell_volume   908.82042490
_cell_formula_units_Z   1
loop_
 _symmetry_equiv_pos_site_id
 _symmetry_equiv_pos_as_xyz
  1  'x, y, z'
loop_
 _atom_site_type_symbol
 _atom_site_label
 _atom_site_symmetry_multiplicity
 _atom_site_fract_x
 _atom_site_fract_y
 _atom_site_fract_z
 _atom_site_occupancy
  La  La0  1  0.500000  0.000000  0.777560  1
  La  La1  1  0.330479  0.313827  0.105216  1
  La  La2  1  0.828630  0.815749  0.894704  1
  La  La3  1  0.000000  0.500000  0.226038  1
  La  La4  1  0.826954  0.181887  0.393219  1
  La  La5  1  0.171370  0.184251  0.894704  1
  La  La6  1  0.669521  0.686173  0.105216  1
  La  La7  1  0.000000  0.500000  0.721385  1
  La  La8  1  0.811638  0.834223  0.607170  1
  La  La9  1  0.318113  0.326954  0.393219  1
  La  La10  1  0.186173  0.830479  0.105216  1
  La  La11  1  0.188362  0.165777  0.607170  1
  La  La12  1  0.813827  0.169521  0.105216  1
  La  La13  1  0.334223  0.688362  0.607170  1
  La  La14  1  0.500000  0.000000  0.276207  1
  La  La15  1  0.684251  0.328630  0.894704  1
  La  La16  1  0.665777  0.311638  0.607170  1
  La  La17  1  0.315749  0.671370  0.894704  1
  La  La18  1  0.173046  0.818113  0.393219  1
  La  La19  1  0.681887  0.673046  0.393219  1
  Ga  Ga20  1  0.000000  0.500000  0.502356  1
  Si  Si21  1  0.613306  0.387574  0.248989  1
  Si  Si22  1  0.887566  0.113789  0.751374  1
  Si  Si23  1  0.500000  0.000000  0.494032  1
  Si  Si24  1  0.887574  0.886694  0.248989  1
  Si  Si25  1  0.112434  0.886211  0.751374  1
  Si  Si26  1  0.386211  0.387566  0.751374  1
  Si  Si27  1  0.112426  0.113306  0.248989  1
  Si  Si28  1  0.386694  0.612426  0.248989  1
  Si  Si29  1  0.613789  0.612434  0.751374  1
  Si  Si30  1  0.500000  0.000000  0.994722  1
  Ge  Ge31  1  0.000000  0.500000  0.005005  1
