# generated using pymatgen
data_Np3Tl3O10
_symmetry_space_group_name_H-M   'P 1'
_cell_length_a   7.97279696
_cell_length_b   7.97193224
_cell_length_c   18.00228400
_cell_angle_alpha   102.79869832
_cell_angle_beta   102.77580555
_cell_angle_gamma   89.96214570
_symmetry_Int_Tables_number   1
_chemical_formula_structural   Np3Tl3O10
_chemical_formula_sum   'Np12 Tl12 O40'
_cell_volume   1086.74234323
_cell_formula_units_Z   4
loop_
 _symmetry_equiv_pos_site_id
 _symmetry_equiv_pos_as_xyz
  1  'x, y, z'
loop_
 _atom_site_type_symbol
 _atom_site_label
 _atom_site_symmetry_multiplicity
 _atom_site_fract_x
 _atom_site_fract_y
 _atom_site_fract_z
 _atom_site_occupancy
  Np  Np0  1  0.500442  0.996923  0.999794  1
  Np  Np1  1  0.001374  0.997991  0.000321  1
  Np  Np2  1  0.831786  0.333072  0.166397  1
  Np  Np3  1  0.832029  0.833305  0.166322  1
  Np  Np4  1  0.165637  0.669513  0.333324  1
  Np  Np5  1  0.664885  0.668740  0.332915  1
  Np  Np6  1  0.499259  0.501878  0.500645  1
  Np  Np7  1  0.498529  0.001280  0.500199  1
  Np  Np8  1  0.834607  0.333191  0.666875  1
  Np  Np9  1  0.334566  0.333441  0.666946  1
  Np  Np10  1  0.170193  0.665722  0.833615  1
  Np  Np11  1  0.169309  0.164765  0.833128  1
  Tl  Tl12  1  0.501620  0.487757  0.001254  1
  Tl  Tl13  1  0.002191  0.488620  0.002597  1
  Tl  Tl14  1  0.333271  0.832477  0.166134  1
  Tl  Tl15  1  0.333407  0.332263  0.165952  1
  Tl  Tl16  1  0.663553  0.178169  0.330337  1
  Tl  Tl17  1  0.165191  0.178561  0.331243  1
  Tl  Tl18  1  0.989273  0.503023  0.503429  1
  Tl  Tl19  1  0.988559  0.001977  0.502771  1
  Tl  Tl20  1  0.334628  0.833068  0.667080  1
  Tl  Tl21  1  0.834714  0.833487  0.667180  1
  Tl  Tl22  1  0.678680  0.164020  0.830707  1
  Tl  Tl23  1  0.679299  0.664443  0.831337  1
  O  O24  1  0.258903  0.023219  0.043478  1
  O  O25  1  0.295236  0.488004  0.090528  1
  O  O26  1  0.977324  0.236475  0.088665  1
  O  O27  1  0.975893  0.851508  0.084501  1
  O  O28  1  0.598843  0.222426  0.082077  1
  O  O29  1  0.597665  0.854853  0.080390  1
  O  O30  1  0.811158  0.568396  0.125598  1
  O  O31  1  0.855655  0.098253  0.207947  1
  O  O32  1  0.068942  0.448400  0.252885  1
  O  O33  1  0.687433  0.430032  0.244729  1
  O  O34  1  0.689634  0.815656  0.248679  1
  O  O35  1  0.070806  0.809543  0.254530  1
  O  O36  1  0.370126  0.178296  0.242175  1
  O  O37  1  0.406255  0.644213  0.290442  1
  O  O38  1  0.923527  0.689815  0.374774  1
  O  O39  1  0.636389  0.907101  0.420756  1
  O  O40  1  0.264050  0.888627  0.412608  1
  O  O41  1  0.641955  0.524638  0.416904  1
  O  O42  1  0.260499  0.531920  0.412867  1
  O  O43  1  0.475800  0.242588  0.458148  1
  O  O44  1  0.524571  0.761051  0.543173  1
  O  O45  1  0.353305  0.477534  0.584534  1
  O  O46  1  0.356946  0.094724  0.578130  1
  O  O47  1  0.735048  0.476878  0.586661  1
  O  O48  1  0.989306  0.795598  0.591175  1
  O  O49  1  0.730497  0.105656  0.586288  1
  O  O50  1  0.073658  0.310741  0.625432  1
  O  O51  1  0.595564  0.355630  0.708065  1
  O  O52  1  0.939252  0.561102  0.747789  1
  O  O53  1  0.312035  0.571692  0.755024  1
  O  O54  1  0.679309  0.870889  0.742727  1
  O  O55  1  0.934449  0.188895  0.747138  1
  O  O56  1  0.315635  0.188737  0.748765  1
  O  O57  1  0.142938  0.904890  0.790230  1
  O  O58  1  0.191278  0.424711  0.875192  1
  O  O59  1  0.031089  0.760491  0.913147  1
  O  O60  1  0.399573  0.772921  0.918612  1
  O  O61  1  0.025246  0.142639  0.917063  1
  O  O62  1  0.403032  0.136629  0.918225  1
  O  O63  1  0.743905  0.976885  0.958139  1
