# generated using pymatgen
data_Cs2Nd5Y(CBr6)2
_symmetry_space_group_name_H-M   'P 1'
_cell_length_a   9.06074894
_cell_length_b   9.09718652
_cell_length_c   9.68732912
_cell_angle_alpha   70.70671057
_cell_angle_beta   85.05033442
_cell_angle_gamma   89.24271222
_symmetry_Int_Tables_number   1
_chemical_formula_structural   Cs2Nd5Y(CBr6)2
_chemical_formula_sum   'Cs2 Nd5 Y1 C2 Br12'
_cell_volume   750.74678504
_cell_formula_units_Z   1
loop_
 _symmetry_equiv_pos_site_id
 _symmetry_equiv_pos_as_xyz
  1  'x, y, z'
loop_
 _atom_site_type_symbol
 _atom_site_label
 _atom_site_symmetry_multiplicity
 _atom_site_fract_x
 _atom_site_fract_y
 _atom_site_fract_z
 _atom_site_occupancy
  Cs  Cs0  1  0.467777  0.360896  0.331485  1
  Cs  Cs1  1  0.531353  0.640335  0.668142  1
  Nd  Nd2  1  0.915175  0.738414  0.005405  1
  Nd  Nd3  1  0.084829  0.261489  0.996287  1
  Nd  Nd4  1  0.737942  0.087023  0.000433  1
  Nd  Nd5  1  0.262813  0.913419  0.998524  1
  Nd  Nd6  1  0.974655  0.884560  0.327399  1
  Y  Y7  1  0.026566  0.112639  0.679906  1
  C  C8  1  0.006629  0.026883  0.922052  1
  C  C9  1  0.994461  0.974044  0.076402  1
  Br  Br10  1  0.076589  0.196402  0.333454  1
  Br  Br11  1  0.923865  0.810730  0.673610  1
  Br  Br12  1  0.208661  0.590888  0.999631  1
  Br  Br13  1  0.791543  0.409679  0.998176  1
  Br  Br14  1  0.405380  0.204979  0.001123  1
  Br  Br15  1  0.594828  0.796302  0.996152  1
  Br  Br16  1  0.665747  0.000609  0.327423  1
  Br  Br17  1  0.326090  0.002426  0.669766  1
  Br  Br18  1  0.283647  0.771495  0.323731  1
  Br  Br19  1  0.727690  0.223979  0.672858  1
  Br  Br20  1  0.847056  0.588069  0.328215  1
  Br  Br21  1  0.146702  0.404742  0.669827  1
