# generated using pymatgen
data_Nb2AlB2IrRu4
_symmetry_space_group_name_H-M   'P 1'
_cell_length_a   9.39209672
_cell_length_b   9.33511683
_cell_length_c   2.98340500
_cell_angle_alpha   90.00000000
_cell_angle_beta   90.00000000
_cell_angle_gamma   90.15689309
_symmetry_Int_Tables_number   1
_chemical_formula_structural   Nb2AlB2IrRu4
_chemical_formula_sum   'Nb4 Al2 B4 Ir2 Ru8'
_cell_volume   261.57299134
_cell_formula_units_Z   2
loop_
 _symmetry_equiv_pos_site_id
 _symmetry_equiv_pos_as_xyz
  1  'x, y, z'
loop_
 _atom_site_type_symbol
 _atom_site_label
 _atom_site_symmetry_multiplicity
 _atom_site_fract_x
 _atom_site_fract_y
 _atom_site_fract_z
 _atom_site_occupancy
  Nb  Nb0  1  0.826536  0.677350  0.000000  1
  Nb  Nb1  1  0.173464  0.322650  0.000000  1
  Nb  Nb2  1  0.317705  0.823505  0.000000  1
  Nb  Nb3  1  0.682295  0.176495  0.000000  1
  Al  Al4  1  0.500000  0.500000  0.000000  1
  Al  Al5  1  0.000000  0.000000  0.000000  1
  B  B6  1  0.627328  0.880690  0.000000  1
  B  B7  1  0.372672  0.119310  0.000000  1
  B  B8  1  0.124552  0.624519  0.000000  1
  B  B9  1  0.875448  0.375481  0.000000  1
  Ir  Ir10  1  0.568377  0.715613  0.500000  1
  Ir  Ir11  1  0.431623  0.284387  0.500000  1
  Ru  Ru12  1  0.068403  0.784524  0.500000  1
  Ru  Ru13  1  0.931597  0.215476  0.500000  1
  Ru  Ru14  1  0.284847  0.567429  0.500000  1
  Ru  Ru15  1  0.715153  0.432571  0.500000  1
  Ru  Ru16  1  0.215311  0.069817  0.500000  1
  Ru  Ru17  1  0.784689  0.930183  0.500000  1
  Ru  Ru18  1  0.500000  0.000000  0.500000  1
  Ru  Ru19  1  0.000000  0.500000  0.500000  1
