# generated using pymatgen
data_Dy2Er14TlIn5Co2
_symmetry_space_group_name_H-M   'P 1'
_cell_length_a   10.29343556
_cell_length_b   10.30422588
_cell_length_c   6.98539436
_cell_angle_alpha   89.99556710
_cell_angle_beta   90.00318279
_cell_angle_gamma   119.99448162
_symmetry_Int_Tables_number   1
_chemical_formula_structural   Dy2Er14TlIn5Co2
_chemical_formula_sum   'Dy2 Er14 Tl1 In5 Co2'
_cell_volume   641.68431934
_cell_formula_units_Z   1
loop_
 _symmetry_equiv_pos_site_id
 _symmetry_equiv_pos_as_xyz
  1  'x, y, z'
loop_
 _atom_site_type_symbol
 _atom_site_label
 _atom_site_symmetry_multiplicity
 _atom_site_fract_x
 _atom_site_fract_y
 _atom_site_fract_z
 _atom_site_occupancy
  Dy  Dy0  1  0.534616  0.069928  0.504923  1
  Dy  Dy1  1  0.929506  0.465006  0.504604  1
  Er  Er2  1  0.535514  0.464467  0.504872  1
  Er  Er3  1  0.464392  0.928410  0.005201  1
  Er  Er4  1  0.072631  0.535375  0.006461  1
  Er  Er5  1  0.463297  0.535406  0.006342  1
  Er  Er6  1  0.178398  0.356542  0.711764  1
  Er  Er7  1  0.643583  0.821159  0.711999  1
  Er  Er8  1  0.177426  0.821249  0.712508  1
  Er  Er9  1  0.821614  0.643154  0.208827  1
  Er  Er10  1  0.356900  0.178426  0.211126  1
  Er  Er11  1  0.821681  0.178139  0.210869  1
  Er  Er12  1  0.666087  0.333079  0.896334  1
  Er  Er13  1  0.333828  0.666909  0.396131  1
  Er  Er14  1  0.000752  0.001415  0.491686  1
  Er  Er15  1  0.000613  0.001773  0.993282  1
  Tl  Tl16  1  0.836590  0.674093  0.754048  1
  In  In17  1  0.325181  0.162725  0.753287  1
  In  In18  1  0.836982  0.162390  0.753539  1
  In  In19  1  0.162953  0.325591  0.253612  1
  In  In20  1  0.674765  0.837248  0.253261  1
  In  In21  1  0.162905  0.837199  0.253249  1
  Co  Co22  1  0.666539  0.333816  0.279682  1
  Co  Co23  1  0.333246  0.666501  0.780435  1
