# generated using pymatgen
data_Li3InSiPd3
_symmetry_space_group_name_H-M   'P 1'
_cell_length_a   7.01263898
_cell_length_b   7.01263925
_cell_length_c   7.01263794
_cell_angle_alpha   60.60525449
_cell_angle_beta   60.60526325
_cell_angle_gamma   60.60527239
_symmetry_Int_Tables_number   1
_chemical_formula_structural   Li3InSiPd3
_chemical_formula_sum   'Li6 In2 Si2 Pd6'
_cell_volume   247.18707363
_cell_formula_units_Z   2
loop_
 _symmetry_equiv_pos_site_id
 _symmetry_equiv_pos_as_xyz
  1  'x, y, z'
loop_
 _atom_site_type_symbol
 _atom_site_label
 _atom_site_symmetry_multiplicity
 _atom_site_fract_x
 _atom_site_fract_y
 _atom_site_fract_z
 _atom_site_occupancy
  Li  Li0  1  0.565736  0.830032  0.340694  1
  Li  Li1  1  0.340694  0.565736  0.830032  1
  Li  Li2  1  0.830032  0.340694  0.565736  1
  Li  Li3  1  0.659306  0.169968  0.434264  1
  Li  Li4  1  0.169968  0.434264  0.659306  1
  Li  Li5  1  0.434264  0.659306  0.169968  1
  In  In6  1  0.281632  0.281632  0.281632  1
  In  In7  1  0.718368  0.718368  0.718368  1
  Si  Si8  1  0.900155  0.900155  0.900155  1
  Si  Si9  1  0.099845  0.099845  0.099845  1
  Pd  Pd10  1  0.901245  0.500000  0.098755  1
  Pd  Pd11  1  0.098755  0.901245  0.500000  1
  Pd  Pd12  1  0.500000  0.098755  0.901245  1
  Pd  Pd13  1  0.253066  0.000000  0.746934  1
  Pd  Pd14  1  0.746934  0.253066  0.000000  1
  Pd  Pd15  1  0.000000  0.746934  0.253066  1
