# generated using pymatgen
data_Lu3Hf(Al8Pt3)3
_symmetry_space_group_name_H-M   'P 1'
_cell_length_a   7.48870794
_cell_length_b   7.50629123
_cell_length_c   13.06388544
_cell_angle_alpha   84.55406410
_cell_angle_beta   79.05350175
_cell_angle_gamma   59.90881835
_symmetry_Int_Tables_number   1
_chemical_formula_structural   Lu3Hf(Al8Pt3)3
_chemical_formula_sum   'Lu3 Hf1 Al24 Pt9'
_cell_volume   623.82203826
_cell_formula_units_Z   1
loop_
 _symmetry_equiv_pos_site_id
 _symmetry_equiv_pos_as_xyz
  1  'x, y, z'
loop_
 _atom_site_type_symbol
 _atom_site_label
 _atom_site_symmetry_multiplicity
 _atom_site_fract_x
 _atom_site_fract_y
 _atom_site_fract_z
 _atom_site_occupancy
  Lu  Lu0  1  0.606268  0.831604  0.192593  1
  Lu  Lu1  1  0.734202  0.498814  0.806825  1
  Lu  Lu2  1  0.266390  0.501078  0.192858  1
  Hf  Hf3  1  0.393595  0.168317  0.808303  1
  Al  Al4  1  0.681510  0.836139  0.940850  1
  Al  Al5  1  0.317207  0.166331  0.054717  1
  Al  Al6  1  0.146375  0.832759  0.562889  1
  Al  Al7  1  0.853076  0.167112  0.437909  1
  Al  Al8  1  0.479991  0.166715  0.560581  1
  Al  Al9  1  0.519263  0.833778  0.441249  1
  Al  Al10  1  0.217792  0.165369  0.328415  1
  Al  Al11  1  0.779200  0.836388  0.675087  1
  Al  Al12  1  0.435547  0.504726  0.675531  1
  Al  Al13  1  0.562878  0.493727  0.327473  1
  Al  Al14  1  0.109981  0.159788  0.674373  1
  Al  Al15  1  0.890782  0.839700  0.328562  1
  Al  Al16  1  0.355525  0.495864  0.940848  1
  Al  Al17  1  0.646763  0.500979  0.055814  1
  Al  Al18  1  0.019141  0.169181  0.948164  1
  Al  Al19  1  0.984145  0.832001  0.047812  1
  Al  Al20  1  0.186730  0.499182  0.441337  1
  Al  Al21  1  0.813783  0.500361  0.558973  1
  Al  Al22  1  0.733073  0.163894  0.183182  1
  Al  Al23  1  0.266964  0.840925  0.816843  1
  Al  Al24  1  0.065406  0.626149  0.815485  1
  Al  Al25  1  0.939471  0.369080  0.183932  1
  Al  Al26  1  0.849618  0.042835  0.815960  1
  Al  Al27  1  0.145718  0.957598  0.183478  1
  Pt  Pt28  1  0.119615  0.489931  0.640327  1
  Pt  Pt29  1  0.879606  0.509397  0.360412  1
  Pt  Pt30  1  0.657322  0.171806  0.998892  1
  Pt  Pt31  1  0.343660  0.827821  0.999559  1
  Pt  Pt32  1  0.537218  0.166795  0.360834  1
  Pt  Pt33  1  0.463443  0.832689  0.640067  1
  Pt  Pt34  1  0.777160  0.176677  0.638440  1
  Pt  Pt35  1  0.221760  0.824221  0.362393  1
  Pt  Pt36  1  0.999823  0.500268  0.999033  1
