# generated using pymatgen
data_NdNpSe3
_symmetry_space_group_name_H-M   'P 1'
_cell_length_a   4.16914800
_cell_length_b   10.92737000
_cell_length_c   11.50587700
_cell_angle_alpha   90.00000000
_cell_angle_beta   90.00000000
_cell_angle_gamma   90.00000000
_symmetry_Int_Tables_number   1
_chemical_formula_structural   NdNpSe3
_chemical_formula_sum   'Nd4 Np4 Se12'
_cell_volume   524.18270530
_cell_formula_units_Z   4
loop_
 _symmetry_equiv_pos_site_id
 _symmetry_equiv_pos_as_xyz
  1  'x, y, z'
loop_
 _atom_site_type_symbol
 _atom_site_label
 _atom_site_symmetry_multiplicity
 _atom_site_fract_x
 _atom_site_fract_y
 _atom_site_fract_z
 _atom_site_occupancy
  Nd  Nd0  1  0.750000  0.495260  0.695010  1
  Nd  Nd1  1  0.750000  0.004740  0.195010  1
  Nd  Nd2  1  0.250000  0.504740  0.304990  1
  Nd  Nd3  1  0.250000  0.995260  0.804990  1
  Np  Np4  1  0.250000  0.188775  0.494356  1
  Np  Np5  1  0.250000  0.311225  0.994356  1
  Np  Np6  1  0.750000  0.811225  0.505644  1
  Np  Np7  1  0.750000  0.688775  0.005644  1
  Se  Se8  1  0.250000  0.293968  0.732176  1
  Se  Se9  1  0.250000  0.206032  0.232176  1
  Se  Se10  1  0.750000  0.706032  0.267824  1
  Se  Se11  1  0.750000  0.793968  0.767824  1
  Se  Se12  1  0.750000  0.053162  0.619443  1
  Se  Se13  1  0.750000  0.446838  0.119443  1
  Se  Se14  1  0.250000  0.946838  0.380557  1
  Se  Se15  1  0.250000  0.553162  0.880557  1
  Se  Se16  1  0.250000  0.629147  0.546480  1
  Se  Se17  1  0.250000  0.870853  0.046480  1
  Se  Se18  1  0.750000  0.370853  0.453520  1
  Se  Se19  1  0.750000  0.129147  0.953520  1
