# generated using pymatgen
data_Ca4GeSb3Pt4
_symmetry_space_group_name_H-M   'P 1'
_cell_length_a   4.56593000
_cell_length_b   7.34218168
_cell_length_c   7.91865033
_cell_angle_alpha   89.94220621
_cell_angle_beta   90.00000000
_cell_angle_gamma   90.00000000
_symmetry_Int_Tables_number   1
_chemical_formula_structural   Ca4GeSb3Pt4
_chemical_formula_sum   'Ca4 Ge1 Sb3 Pt4'
_cell_volume   265.46380839
_cell_formula_units_Z   1
loop_
 _symmetry_equiv_pos_site_id
 _symmetry_equiv_pos_as_xyz
  1  'x, y, z'
loop_
 _atom_site_type_symbol
 _atom_site_label
 _atom_site_symmetry_multiplicity
 _atom_site_fract_x
 _atom_site_fract_y
 _atom_site_fract_z
 _atom_site_occupancy
  Ca  Ca0  1  0.750000  0.001051  0.701830  1
  Ca  Ca1  1  0.250000  0.988409  0.301304  1
  Ca  Ca2  1  0.750000  0.515273  0.804842  1
  Ca  Ca3  1  0.250000  0.494943  0.189896  1
  Ge  Ge4  1  0.250000  0.816456  0.914743  1
  Sb  Sb5  1  0.750000  0.685270  0.410420  1
  Sb  Sb6  1  0.250000  0.316940  0.589171  1
  Sb  Sb7  1  0.750000  0.184428  0.086734  1
  Pt  Pt8  1  0.750000  0.800317  0.073693  1
  Pt  Pt9  1  0.250000  0.190981  0.909049  1
  Pt  Pt10  1  0.750000  0.299724  0.411433  1
  Pt  Pt11  1  0.250000  0.706208  0.606886  1
