# generated using pymatgen
data_Tm2Si2NiRh
_symmetry_space_group_name_H-M   'P 1'
_cell_length_a   4.16241200
_cell_length_b   6.77107330
_cell_length_c   7.27276113
_cell_angle_alpha   91.51910996
_cell_angle_beta   90.00000000
_cell_angle_gamma   90.00000000
_symmetry_Int_Tables_number   1
_chemical_formula_structural   Tm2Si2NiRh
_chemical_formula_sum   'Tm4 Si4 Ni2 Rh2'
_cell_volume   204.90343528
_cell_formula_units_Z   2
loop_
 _symmetry_equiv_pos_site_id
 _symmetry_equiv_pos_as_xyz
  1  'x, y, z'
loop_
 _atom_site_type_symbol
 _atom_site_label
 _atom_site_symmetry_multiplicity
 _atom_site_fract_x
 _atom_site_fract_y
 _atom_site_fract_z
 _atom_site_occupancy
  Tm  Tm0  1  0.250000  0.999505  0.794246  1
  Tm  Tm1  1  0.750000  0.000495  0.205754  1
  Tm  Tm2  1  0.250000  0.493344  0.686301  1
  Tm  Tm3  1  0.750000  0.506656  0.313699  1
  Si  Si4  1  0.250000  0.293698  0.106477  1
  Si  Si5  1  0.750000  0.706302  0.893523  1
  Si  Si6  1  0.250000  0.804876  0.407552  1
  Si  Si7  1  0.750000  0.195124  0.592448  1
  Ni  Ni8  1  0.750000  0.821881  0.577781  1
  Ni  Ni9  1  0.250000  0.178119  0.422219  1
  Rh  Rh10  1  0.750000  0.342251  0.935019  1
  Rh  Rh11  1  0.250000  0.657749  0.064981  1
