# generated using pymatgen
data_Rb8Ga11I
_symmetry_space_group_name_H-M   'P 1'
_cell_length_a   9.99081651
_cell_length_b   9.99081763
_cell_length_c   17.60731613
_cell_angle_alpha   89.99999992
_cell_angle_beta   106.48188256
_cell_angle_gamma   59.99999862
_symmetry_Int_Tables_number   1
_chemical_formula_structural   Rb8Ga11I
_chemical_formula_sum   'Rb16 Ga22 I2'
_cell_volume   1438.04629243
_cell_formula_units_Z   2
loop_
 _symmetry_equiv_pos_site_id
 _symmetry_equiv_pos_as_xyz
  1  'x, y, z'
loop_
 _atom_site_type_symbol
 _atom_site_label
 _atom_site_symmetry_multiplicity
 _atom_site_fract_x
 _atom_site_fract_y
 _atom_site_fract_z
 _atom_site_occupancy
  Rb  Rb0  1  0.969038  0.677913  0.069688  1
  Rb  Rb1  1  0.747601  0.353049  0.069688  1
  Rb  Rb2  1  0.422737  0.899350  0.069688  1
  Rb  Rb3  1  0.150787  0.924606  0.226180  1
  Rb  Rb4  1  0.849214  0.575394  0.273820  1
  Rb  Rb5  1  0.577263  0.822086  0.430312  1
  Rb  Rb6  1  0.252400  0.600649  0.430312  1
  Rb  Rb7  1  0.030962  0.146951  0.430312  1
  Rb  Rb8  1  0.969038  0.853049  0.569688  1
  Rb  Rb9  1  0.747601  0.399350  0.569688  1
  Rb  Rb10  1  0.422737  0.177913  0.569688  1
  Rb  Rb11  1  0.150786  0.424606  0.726180  1
  Rb  Rb12  1  0.849214  0.075393  0.773820  1
  Rb  Rb13  1  0.577263  0.100650  0.930312  1
  Rb  Rb14  1  0.252400  0.646951  0.930312  1
  Rb  Rb15  1  0.030962  0.322086  0.930312  1
  Ga  Ga16  1  0.409329  0.295335  0.113993  1
  Ga  Ga17  1  0.700837  0.024155  0.166672  1
  Ga  Ga18  1  0.441680  0.534165  0.166672  1
  Ga  Ga19  1  0.190826  0.275008  0.166672  1
  Ga  Ga20  1  0.693734  0.250001  0.250000  1
  Ga  Ga21  1  0.500000  0.056265  0.250000  1
  Ga  Ga22  1  0.306266  0.443735  0.250000  1
  Ga  Ga23  1  0.809173  0.965834  0.333328  1
  Ga  Ga24  1  0.558320  0.475846  0.333328  1
  Ga  Ga25  1  0.299163  0.224992  0.333328  1
  Ga  Ga26  1  0.590671  0.204664  0.386006  1
  Ga  Ga27  1  0.409329  0.795335  0.613994  1
  Ga  Ga28  1  0.700837  0.775008  0.666672  1
  Ga  Ga29  1  0.441680  0.524154  0.666672  1
  Ga  Ga30  1  0.190827  0.034165  0.666672  1
  Ga  Ga31  1  0.693734  0.556266  0.750000  1
  Ga  Ga32  1  0.500000  0.943734  0.750000  1
  Ga  Ga33  1  0.306266  0.750000  0.750000  1
  Ga  Ga34  1  0.809174  0.724992  0.833328  1
  Ga  Ga35  1  0.558320  0.465834  0.833328  1
  Ga  Ga36  1  0.299163  0.975845  0.833328  1
  Ga  Ga37  1  0.590671  0.704665  0.886006  1
  I  I38  1  0.000000  0.000000  0.000000  1
  I  I39  1  0.000000  0.500000  0.500000  1
