# generated using pymatgen
data_Y5Er7(TcOs)2
_symmetry_space_group_name_H-M   'P 1'
_cell_length_a   6.25781971
_cell_length_b   7.42964353
_cell_length_c   9.01746997
_cell_angle_alpha   89.98795654
_cell_angle_beta   90.11991694
_cell_angle_gamma   90.07292622
_symmetry_Int_Tables_number   1
_chemical_formula_structural   Y5Er7(TcOs)2
_chemical_formula_sum   'Y5 Er7 Tc2 Os2'
_cell_volume   419.25129889
_cell_formula_units_Z   1
loop_
 _symmetry_equiv_pos_site_id
 _symmetry_equiv_pos_as_xyz
  1  'x, y, z'
loop_
 _atom_site_type_symbol
 _atom_site_label
 _atom_site_symmetry_multiplicity
 _atom_site_fract_x
 _atom_site_fract_y
 _atom_site_fract_z
 _atom_site_occupancy
  Y  Y0  1  0.338509  0.675337  0.062068  1
  Y  Y1  1  0.877205  0.538807  0.250565  1
  Y  Y2  1  0.622720  0.039527  0.250288  1
  Y  Y3  1  0.128647  0.459624  0.749410  1
  Y  Y4  1  0.371565  0.960214  0.749435  1
  Er  Er5  1  0.161275  0.174930  0.437706  1
  Er  Er6  1  0.663876  0.324967  0.562868  1
  Er  Er7  1  0.835824  0.825392  0.936766  1
  Er  Er8  1  0.664607  0.324676  0.936902  1
  Er  Er9  1  0.836194  0.825051  0.562795  1
  Er  Er10  1  0.338414  0.674662  0.438344  1
  Er  Er11  1  0.161182  0.174685  0.062140  1
  Tc  Tc12  1  0.041637  0.884840  0.250949  1
  Tc  Tc13  1  0.457607  0.382892  0.250931  1
  Os  Os14  1  0.956129  0.117233  0.750095  1
  Os  Os15  1  0.544612  0.617166  0.748737  1
