# generated using pymatgen
data_CeLuTh2(Al3Ir)6
_symmetry_space_group_name_H-M   'P 1'
_cell_length_a   7.62590037
_cell_length_b   7.63022749
_cell_length_c   9.46499700
_cell_angle_alpha   90.00000000
_cell_angle_beta   90.00000000
_cell_angle_gamma   119.52443604
_symmetry_Int_Tables_number   1
_chemical_formula_structural   CeLuTh2(Al3Ir)6
_chemical_formula_sum   'Ce1 Lu1 Th2 Al18 Ir6'
_cell_volume   479.22671949
_cell_formula_units_Z   1
loop_
 _symmetry_equiv_pos_site_id
 _symmetry_equiv_pos_as_xyz
  1  'x, y, z'
loop_
 _atom_site_type_symbol
 _atom_site_label
 _atom_site_symmetry_multiplicity
 _atom_site_fract_x
 _atom_site_fract_y
 _atom_site_fract_z
 _atom_site_occupancy
  Ce  Ce0  1  0.002680  0.328228  0.750000  1
  Lu  Lu1  1  0.327548  0.005495  0.750000  1
  Th  Th2  1  0.995140  0.671393  0.250000  1
  Th  Th3  1  0.670553  0.994530  0.250000  1
  Al  Al4  1  0.135818  0.133456  0.250000  1
  Al  Al5  1  0.871955  0.872047  0.750000  1
  Al  Al6  1  0.006103  0.335636  0.071344  1
  Al  Al7  1  0.001408  0.667352  0.918963  1
  Al  Al8  1  0.001408  0.667352  0.581037  1
  Al  Al9  1  0.335446  0.004978  0.431987  1
  Al  Al10  1  0.006103  0.335636  0.428656  1
  Al  Al11  1  0.661110  0.998129  0.580903  1
  Al  Al12  1  0.661110  0.998129  0.919097  1
  Al  Al13  1  0.335446  0.004978  0.068013  1
  Al  Al14  1  0.333801  0.331827  0.556838  1
  Al  Al15  1  0.663245  0.663031  0.456673  1
  Al  Al16  1  0.663245  0.663031  0.043327  1
  Al  Al17  1  0.333801  0.331827  0.943162  1
  Al  Al18  1  0.341916  0.544054  0.250000  1
  Al  Al19  1  0.657182  0.448592  0.750000  1
  Al  Al20  1  0.544000  0.339120  0.250000  1
  Al  Al21  1  0.449018  0.659867  0.750000  1
  Ir  Ir22  1  0.673575  0.328197  0.999794  1
  Ir  Ir23  1  0.328006  0.672815  0.000249  1
  Ir  Ir24  1  0.328006  0.672815  0.499751  1
  Ir  Ir25  1  0.673575  0.328197  0.500206  1
  Ir  Ir26  1  0.999403  0.999645  0.000015  1
  Ir  Ir27  1  0.999403  0.999645  0.499985  1
