# generated using pymatgen
data_Tb16Dy3CdIr12
_symmetry_space_group_name_H-M   'P 1'
_cell_length_a   10.92138500
_cell_length_b   10.92138500
_cell_length_c   6.32947500
_cell_angle_alpha   90.00000000
_cell_angle_beta   90.00000000
_cell_angle_gamma   90.00000000
_symmetry_Int_Tables_number   1
_chemical_formula_structural   Tb16Dy3CdIr12
_chemical_formula_sum   'Tb16 Dy3 Cd1 Ir12'
_cell_volume   754.95857627
_cell_formula_units_Z   1
loop_
 _symmetry_equiv_pos_site_id
 _symmetry_equiv_pos_as_xyz
  1  'x, y, z'
loop_
 _atom_site_type_symbol
 _atom_site_label
 _atom_site_symmetry_multiplicity
 _atom_site_fract_x
 _atom_site_fract_y
 _atom_site_fract_z
 _atom_site_occupancy
  Tb  Tb0  1  0.281982  0.083905  0.380295  1
  Tb  Tb1  1  0.291416  0.911476  0.879315  1
  Tb  Tb2  1  0.708584  0.088524  0.879315  1
  Tb  Tb3  1  0.718018  0.916095  0.380295  1
  Tb  Tb4  1  0.588778  0.791836  0.882061  1
  Tb  Tb5  1  0.587226  0.208040  0.378275  1
  Tb  Tb6  1  0.412774  0.791960  0.378275  1
  Tb  Tb7  1  0.411222  0.208164  0.882061  1
  Tb  Tb8  1  0.208040  0.412774  0.621725  1
  Tb  Tb9  1  0.208164  0.588778  0.117939  1
  Tb  Tb10  1  0.791836  0.411222  0.117939  1
  Tb  Tb11  1  0.791960  0.587226  0.621725  1
  Tb  Tb12  1  0.911476  0.708584  0.120685  1
  Tb  Tb13  1  0.916095  0.281982  0.619705  1
  Tb  Tb14  1  0.083905  0.718018  0.619705  1
  Tb  Tb15  1  0.088524  0.291416  0.120685  1
  Dy  Dy16  1  0.000000  0.000000  0.000000  1
  Dy  Dy17  1  0.500000  0.500000  0.000000  1
  Dy  Dy18  1  0.500000  0.500000  0.500000  1
  Cd  Cd19  1  0.000000  0.000000  0.500000  1
  Ir  Ir20  1  0.844162  0.157631  0.241221  1
  Ir  Ir21  1  0.842369  0.844162  0.758779  1
  Ir  Ir22  1  0.157631  0.155838  0.758779  1
  Ir  Ir23  1  0.155838  0.842369  0.241221  1
  Ir  Ir24  1  0.654865  0.346636  0.746532  1
  Ir  Ir25  1  0.653364  0.654865  0.253468  1
  Ir  Ir26  1  0.346636  0.345135  0.253468  1
  Ir  Ir27  1  0.345135  0.653364  0.746532  1
  Ir  Ir28  1  0.500000  0.000000  0.125643  1
  Ir  Ir29  1  0.500000  0.000000  0.619535  1
  Ir  Ir30  1  0.000000  0.500000  0.874357  1
  Ir  Ir31  1  0.000000  0.500000  0.380465  1
