# generated using pymatgen
data_Nd3Dy2Mn2P12Ir17
_symmetry_space_group_name_H-M   'P 1'
_cell_length_a   12.69360200
_cell_length_b   12.78768274
_cell_length_c   3.99327000
_cell_angle_alpha   90.00000000
_cell_angle_beta   90.00000000
_cell_angle_gamma   119.75692481
_symmetry_Int_Tables_number   1
_chemical_formula_structural   Nd3Dy2Mn2P12Ir17
_chemical_formula_sum   'Nd3 Dy2 Mn2 P12 Ir17'
_cell_volume   562.72290110
_cell_formula_units_Z   1
loop_
 _symmetry_equiv_pos_site_id
 _symmetry_equiv_pos_as_xyz
  1  'x, y, z'
loop_
 _atom_site_type_symbol
 _atom_site_label
 _atom_site_symmetry_multiplicity
 _atom_site_fract_x
 _atom_site_fract_y
 _atom_site_fract_z
 _atom_site_occupancy
  Nd  Nd0  1  0.000585  0.810181  0.000000  1
  Nd  Nd1  1  0.190404  0.189819  0.000000  1
  Nd  Nd2  1  0.812930  0.000000  0.000000  1
  Dy  Dy3  1  0.332221  0.663487  0.500000  1
  Dy  Dy4  1  0.668734  0.336513  0.500000  1
  Mn  Mn5  1  0.998879  0.456288  0.500000  1
  Mn  Mn6  1  0.542591  0.543712  0.500000  1
  P  P7  1  0.999370  0.631564  0.500000  1
  P  P8  1  0.367806  0.368436  0.500000  1
  P  P9  1  0.640983  0.000000  0.500000  1
  P  P10  1  0.515029  0.684784  0.000000  1
  P  P11  1  0.308071  0.822528  0.000000  1
  P  P12  1  0.167747  0.481660  0.000000  1
  P  P13  1  0.485543  0.177472  0.000000  1
  P  P14  1  0.686086  0.518340  0.000000  1
  P  P15  1  0.830245  0.315216  0.000000  1
  P  P16  1  0.999940  0.180252  0.500000  1
  P  P17  1  0.819688  0.819748  0.500000  1
  P  P18  1  0.181524  0.000000  0.500000  1
  Ir  Ir19  1  0.504930  0.866230  0.000000  1
  Ir  Ir20  1  0.128724  0.637103  0.000000  1
  Ir  Ir21  1  0.359259  0.492651  0.000000  1
  Ir  Ir22  1  0.491621  0.362897  0.000000  1
  Ir  Ir23  1  0.866609  0.507349  0.000000  1
  Ir  Ir24  1  0.638701  0.133770  0.000000  1
  Ir  Ir25  1  0.461576  0.000000  0.500000  1
  Ir  Ir26  1  0.997943  0.284902  0.000000  1
  Ir  Ir27  1  0.713041  0.715098  0.000000  1
  Ir  Ir28  1  0.290152  0.000000  0.000000  1
  Ir  Ir29  1  0.618308  0.800709  0.500000  1
  Ir  Ir30  1  0.203093  0.821797  0.500000  1
  Ir  Ir31  1  0.177718  0.377562  0.500000  1
  Ir  Ir32  1  0.381296  0.178203  0.500000  1
  Ir  Ir33  1  0.800156  0.622438  0.500000  1
  Ir  Ir34  1  0.817597  0.199291  0.500000  1
  Ir  Ir35  1  0.000898  0.000000  0.500000  1
