# generated using pymatgen
data_Tb6Al24Ni2Ru5Pt
_symmetry_space_group_name_H-M   'P 1'
_cell_length_a   8.82347693
_cell_length_b   8.82347682
_cell_length_c   9.50391249
_cell_angle_alpha   90.50804069
_cell_angle_beta   89.49195889
_cell_angle_gamma   120.02615204
_symmetry_Int_Tables_number   1
_chemical_formula_structural   Tb6Al24Ni2Ru5Pt
_chemical_formula_sum   'Tb6 Al24 Ni2 Ru5 Pt1'
_cell_volume   640.58283600
_cell_formula_units_Z   1
loop_
 _symmetry_equiv_pos_site_id
 _symmetry_equiv_pos_as_xyz
  1  'x, y, z'
loop_
 _atom_site_type_symbol
 _atom_site_label
 _atom_site_symmetry_multiplicity
 _atom_site_fract_x
 _atom_site_fract_y
 _atom_site_fract_z
 _atom_site_occupancy
  Tb  Tb0  1  0.385272  0.193512  0.250795  1
  Tb  Tb1  1  0.807570  0.192430  0.250244  1
  Tb  Tb2  1  0.806488  0.614728  0.250795  1
  Tb  Tb3  1  0.614728  0.806488  0.749205  1
  Tb  Tb4  1  0.192430  0.807570  0.749756  1
  Tb  Tb5  1  0.193512  0.385272  0.749205  1
  Al  Al6  1  0.438441  0.878149  0.253064  1
  Al  Al7  1  0.121851  0.561559  0.253064  1
  Al  Al8  1  0.436414  0.563586  0.255647  1
  Al  Al9  1  0.561559  0.121851  0.746936  1
  Al  Al10  1  0.878149  0.438441  0.746936  1
  Al  Al11  1  0.563586  0.436414  0.744353  1
  Al  Al12  1  0.163139  0.836861  0.423925  1
  Al  Al13  1  0.163987  0.327084  0.424291  1
  Al  Al14  1  0.672916  0.836013  0.424291  1
  Al  Al15  1  0.836861  0.163139  0.576075  1
  Al  Al16  1  0.836013  0.672916  0.575709  1
  Al  Al17  1  0.327084  0.163987  0.575709  1
  Al  Al18  1  0.837171  0.162829  0.922206  1
  Al  Al19  1  0.842227  0.675379  0.922667  1
  Al  Al20  1  0.324621  0.157773  0.922667  1
  Al  Al21  1  0.162829  0.837171  0.077794  1
  Al  Al22  1  0.157773  0.324621  0.077333  1
  Al  Al23  1  0.675379  0.842227  0.077333  1
  Al  Al24  1  0.332341  0.667659  0.521982  1
  Al  Al25  1  0.667659  0.332341  0.478018  1
  Al  Al26  1  0.669710  0.330290  0.017587  1
  Al  Al27  1  0.330290  0.669710  0.982413  1
  Al  Al28  1  0.999821  0.000179  0.249922  1
  Al  Al29  1  0.000179  0.999821  0.750078  1
  Ni  Ni30  1  0.500000  0.000000  0.500000  1
  Ni  Ni31  1  0.000000  0.500000  0.500000  1
  Ru  Ru32  1  0.000000  0.000000  0.500000  1
  Ru  Ru33  1  0.000000  0.000000  0.000000  1
  Ru  Ru34  1  0.500000  0.500000  0.500000  1
  Ru  Ru35  1  0.500000  0.000000  0.000000  1
  Ru  Ru36  1  0.000000  0.500000  0.000000  1
  Pt  Pt37  1  0.500000  0.500000  0.000000  1
