# generated using pymatgen
data_Tb4Tm3Lu(B6Os)4
_symmetry_space_group_name_H-M   'P 1'
_cell_length_a   3.63802800
_cell_length_b   9.11157002
_cell_length_c   11.50471003
_cell_angle_alpha   90.00848141
_cell_angle_beta   90.00000000
_cell_angle_gamma   90.00000000
_symmetry_Int_Tables_number   1
_chemical_formula_structural   Tb4Tm3Lu(B6Os)4
_chemical_formula_sum   'Tb4 Tm3 Lu1 B24 Os4'
_cell_volume   381.35981370
_cell_formula_units_Z   1
loop_
 _symmetry_equiv_pos_site_id
 _symmetry_equiv_pos_as_xyz
  1  'x, y, z'
loop_
 _atom_site_type_symbol
 _atom_site_label
 _atom_site_symmetry_multiplicity
 _atom_site_fract_x
 _atom_site_fract_y
 _atom_site_fract_z
 _atom_site_occupancy
  Tb  Tb0  1  0.000000  0.321592  0.414053  1
  Tb  Tb1  1  0.000000  0.678410  0.586071  1
  Tb  Tb2  1  0.000000  0.821458  0.085867  1
  Tb  Tb3  1  0.000000  0.178575  0.913977  1
  Tm  Tm4  1  0.000000  0.944288  0.372935  1
  Tm  Tm5  1  0.000000  0.055719  0.627153  1
  Tm  Tm6  1  0.000000  0.444385  0.126825  1
  Lu  Lu7  1  0.000000  0.555681  0.872926  1
  B  B8  1  0.500000  0.554637  0.432601  1
  B  B9  1  0.500000  0.445398  0.567499  1
  B  B10  1  0.500000  0.054605  0.067380  1
  B  B11  1  0.500000  0.945240  0.932557  1
  B  B12  1  0.500000  0.749520  0.419255  1
  B  B13  1  0.500000  0.250555  0.580786  1
  B  B14  1  0.500000  0.249576  0.080707  1
  B  B15  1  0.500000  0.750015  0.919229  1
  B  B16  1  0.500000  0.791691  0.266265  1
  B  B17  1  0.500000  0.208472  0.733773  1
  B  B18  1  0.500000  0.291718  0.233698  1
  B  B19  1  0.500000  0.707869  0.766409  1
  B  B20  1  0.500000  0.631063  0.184682  1
  B  B21  1  0.500000  0.369303  0.815454  1
  B  B22  1  0.500000  0.131097  0.315254  1
  B  B23  1  0.500000  0.868824  0.684806  1
  B  B24  1  0.500000  0.983330  0.213561  1
  B  B25  1  0.500000  0.016577  0.786468  1
  B  B26  1  0.500000  0.483308  0.286411  1
  B  B27  1  0.500000  0.516935  0.713906  1
  B  B28  1  0.500000  0.604273  0.028260  1
  B  B29  1  0.500000  0.396079  0.970988  1
  B  B30  1  0.500000  0.104508  0.471273  1
  B  B31  1  0.500000  0.895484  0.528754  1
  Os  Os32  1  0.000000  0.638334  0.320384  1
  Os  Os33  1  0.000000  0.361993  0.679848  1
  Os  Os34  1  0.000000  0.138383  0.179510  1
  Os  Os35  1  0.000000  0.861106  0.820478  1
