# generated using pymatgen
data_Ho6Lu4Si5Sn
_symmetry_space_group_name_H-M   'P 1'
_cell_length_a   8.42514200
_cell_length_b   8.44516165
_cell_length_c   6.26957900
_cell_angle_alpha   90.00000000
_cell_angle_beta   90.00000000
_cell_angle_gamma   119.92162171
_symmetry_Int_Tables_number   1
_chemical_formula_structural   Ho6Lu4Si5Sn
_chemical_formula_sum   'Ho6 Lu4 Si5 Sn1'
_cell_volume   386.63099538
_cell_formula_units_Z   1
loop_
 _symmetry_equiv_pos_site_id
 _symmetry_equiv_pos_as_xyz
  1  'x, y, z'
loop_
 _atom_site_type_symbol
 _atom_site_label
 _atom_site_symmetry_multiplicity
 _atom_site_fract_x
 _atom_site_fract_y
 _atom_site_fract_z
 _atom_site_occupancy
  Ho  Ho0  1  0.765148  0.000000  0.750000  1
  Ho  Ho1  1  0.755831  0.756987  0.250000  1
  Ho  Ho2  1  0.998843  0.243013  0.250000  1
  Ho  Ho3  1  0.989464  0.748766  0.750000  1
  Ho  Ho4  1  0.240698  0.251234  0.750000  1
  Ho  Ho5  1  0.241230  0.000000  0.250000  1
  Lu  Lu6  1  0.673724  0.342173  0.002996  1
  Lu  Lu7  1  0.331549  0.657827  0.497004  1
  Lu  Lu8  1  0.331549  0.657827  0.002996  1
  Lu  Lu9  1  0.673724  0.342173  0.497004  1
  Si  Si10  1  0.395159  0.393745  0.250000  1
  Si  Si11  1  0.001413  0.606255  0.250000  1
  Si  Si12  1  0.998623  0.395647  0.750000  1
  Si  Si13  1  0.602977  0.604353  0.750000  1
  Si  Si14  1  0.604290  0.000000  0.250000  1
  Sn  Sn15  1  0.395779  0.000000  0.750000  1
