# generated using pymatgen
data_LiTa3Tc3P4
_symmetry_space_group_name_H-M   'P 1'
_cell_length_a   7.57437600
_cell_length_b   7.57437634
_cell_length_c   3.16390200
_cell_angle_alpha   90.00000000
_cell_angle_beta   90.00000000
_cell_angle_gamma   119.99998979
_symmetry_Int_Tables_number   1
_chemical_formula_structural   LiTa3Tc3P4
_chemical_formula_sum   'Li1 Ta3 Tc3 P4'
_cell_volume   157.19815300
_cell_formula_units_Z   1
loop_
 _symmetry_equiv_pos_site_id
 _symmetry_equiv_pos_as_xyz
  1  'x, y, z'
loop_
 _atom_site_type_symbol
 _atom_site_label
 _atom_site_symmetry_multiplicity
 _atom_site_fract_x
 _atom_site_fract_y
 _atom_site_fract_z
 _atom_site_occupancy
  Li  Li0  1  0.000000  0.000000  0.000000  1
  Ta  Ta1  1  0.542712  0.085424  0.000000  1
  Ta  Ta2  1  0.914576  0.457288  0.000000  1
  Ta  Ta3  1  0.542712  0.457288  0.000000  1
  Tc  Tc4  1  0.199916  0.800084  0.500000  1
  Tc  Tc5  1  0.199916  0.399832  0.500000  1
  Tc  Tc6  1  0.600168  0.800084  0.500000  1
  P  P7  1  0.838388  0.161612  0.500000  1
  P  P8  1  0.323224  0.161612  0.500000  1
  P  P9  1  0.333333  0.666667  0.000000  1
  P  P10  1  0.838388  0.676776  0.500000  1
