# generated using pymatgen
data_Nd2ErPaPt4
_symmetry_space_group_name_H-M   'P 1'
_cell_length_a   4.59044500
_cell_length_b   5.66835164
_cell_length_c   7.16051172
_cell_angle_alpha   88.93792449
_cell_angle_beta   90.00000000
_cell_angle_gamma   90.00000000
_symmetry_Int_Tables_number   1
_chemical_formula_structural   Nd2ErPaPt4
_chemical_formula_sum   'Nd2 Er1 Pa1 Pt4'
_cell_volume   186.28634166
_cell_formula_units_Z   1
loop_
 _symmetry_equiv_pos_site_id
 _symmetry_equiv_pos_as_xyz
  1  'x, y, z'
loop_
 _atom_site_type_symbol
 _atom_site_label
 _atom_site_symmetry_multiplicity
 _atom_site_fract_x
 _atom_site_fract_y
 _atom_site_fract_z
 _atom_site_occupancy
  Nd  Nd0  1  0.750000  0.354837  0.816542  1
  Nd  Nd1  1  0.250000  0.859327  0.683391  1
  Er  Er2  1  0.750000  0.145283  0.318792  1
  Pa  Pa3  1  0.250000  0.644098  0.183178  1
  Pt  Pt4  1  0.250000  0.159497  0.067036  1
  Pt  Pt5  1  0.750000  0.831278  0.978860  1
  Pt  Pt6  1  0.750000  0.657173  0.431822  1
  Pt  Pt7  1  0.250000  0.348508  0.520379  1
