# generated using pymatgen
data_TbHo11GaCo4Pb
_symmetry_space_group_name_H-M   'P 1'
_cell_length_a   8.30795277
_cell_length_b   8.32385576
_cell_length_c   8.32385502
_cell_angle_alpha   112.22031297
_cell_angle_beta   109.10694943
_cell_angle_gamma   107.19883904
_symmetry_Int_Tables_number   1
_chemical_formula_structural   TbHo11GaCo4Pb
_chemical_formula_sum   'Tb1 Ho11 Ga1 Co4 Pb1'
_cell_volume   441.85144357
_cell_formula_units_Z   1
loop_
 _symmetry_equiv_pos_site_id
 _symmetry_equiv_pos_as_xyz
  1  'x, y, z'
loop_
 _atom_site_type_symbol
 _atom_site_label
 _atom_site_symmetry_multiplicity
 _atom_site_fract_x
 _atom_site_fract_y
 _atom_site_fract_z
 _atom_site_occupancy
  Tb  Tb0  1  0.970941  0.268824  0.702118  1
  Ho  Ho1  1  0.029116  0.731508  0.297607  1
  Ho  Ho2  1  0.674377  0.859896  0.184432  1
  Ho  Ho3  1  0.325442  0.510194  0.186639  1
  Ho  Ho4  1  0.325442  0.138803  0.815249  1
  Ho  Ho5  1  0.674377  0.489945  0.814481  1
  Ho  Ho6  1  0.565520  0.267850  0.297669  1
  Ho  Ho7  1  0.434169  0.732628  0.701541  1
  Ho  Ho8  1  0.180232  0.781092  0.960929  1
  Ho  Ho9  1  0.820237  0.780005  0.600678  1
  Ho  Ho10  1  0.180232  0.219304  0.399140  1
  Ho  Ho11  1  0.820237  0.219560  0.040232  1
  Ga  Ga12  1  0.000030  0.500632  0.499398  1
  Co  Co13  1  0.115956  0.113770  0.002186  1
  Co  Co14  1  0.884605  0.885336  0.999270  1
  Co  Co15  1  0.659177  0.499651  0.159525  1
  Co  Co16  1  0.341781  0.500693  0.841088  1
  Pb  Pb17  1  0.498128  0.000309  0.497819  1
