# generated using pymatgen
data_Zr3Nb3(B2Os5)2
_symmetry_space_group_name_H-M   'P 1'
_cell_length_a   9.58246213
_cell_length_b   9.58246292
_cell_length_c   3.09913500
_cell_angle_alpha   90.00000000
_cell_angle_beta   90.00000000
_cell_angle_gamma   90.06424090
_symmetry_Int_Tables_number   1
_chemical_formula_structural   Zr3Nb3(B2Os5)2
_chemical_formula_sum   'Zr3 Nb3 B4 Os10'
_cell_volume   284.57351660
_cell_formula_units_Z   1
loop_
 _symmetry_equiv_pos_site_id
 _symmetry_equiv_pos_as_xyz
  1  'x, y, z'
loop_
 _atom_site_type_symbol
 _atom_site_label
 _atom_site_symmetry_multiplicity
 _atom_site_fract_x
 _atom_site_fract_y
 _atom_site_fract_z
 _atom_site_occupancy
  Zr  Zr0  1  0.822754  0.677904  0.000000  1
  Zr  Zr1  1  0.177904  0.322754  0.000000  1
  Zr  Zr2  1  0.323458  0.823458  0.000000  1
  Nb  Nb3  1  0.678384  0.178384  0.000000  1
  Nb  Nb4  1  0.499683  0.500143  0.000000  1
  Nb  Nb5  1  0.000143  0.999683  0.000000  1
  B  B6  1  0.620478  0.879136  0.000000  1
  B  B7  1  0.379136  0.120478  0.000000  1
  B  B8  1  0.120111  0.620111  0.000000  1
  B  B9  1  0.878878  0.378878  0.000000  1
  Os  Os10  1  0.569744  0.719689  0.500000  1
  Os  Os11  1  0.433936  0.279834  0.500000  1
  Os  Os12  1  0.069536  0.780406  0.500000  1
  Os  Os13  1  0.925502  0.217336  0.500000  1
  Os  Os14  1  0.280406  0.569536  0.500000  1
  Os  Os15  1  0.717336  0.425502  0.500000  1
  Os  Os16  1  0.219689  0.069744  0.500000  1
  Os  Os17  1  0.779834  0.933936  0.500000  1
  Os  Os18  1  0.504288  0.004288  0.500000  1
  Os  Os19  1  0.998800  0.498800  0.500000  1
