# generated using pymatgen
data_Tb4Ho3Lu(InAu2)4
_symmetry_space_group_name_H-M   'P 1'
_cell_length_a   8.02990964
_cell_length_b   8.02990964
_cell_length_c   7.33643200
_cell_angle_alpha   90.00000000
_cell_angle_beta   90.00000000
_cell_angle_gamma   89.64914269
_symmetry_Int_Tables_number   1
_chemical_formula_structural   Tb4Ho3Lu(InAu2)4
_chemical_formula_sum   'Tb4 Ho3 Lu1 In4 Au8'
_cell_volume   473.04022225
_cell_formula_units_Z   1
loop_
 _symmetry_equiv_pos_site_id
 _symmetry_equiv_pos_as_xyz
  1  'x, y, z'
loop_
 _atom_site_type_symbol
 _atom_site_label
 _atom_site_symmetry_multiplicity
 _atom_site_fract_x
 _atom_site_fract_y
 _atom_site_fract_z
 _atom_site_occupancy
  Tb  Tb0  1  0.838948  0.161052  0.500000  1
  Tb  Tb1  1  0.159943  0.840057  0.500000  1
  Tb  Tb2  1  0.339512  0.339279  0.000000  1
  Tb  Tb3  1  0.660721  0.660488  0.000000  1
  Ho  Ho4  1  0.678854  0.676892  0.500000  1
  Ho  Ho5  1  0.323108  0.321146  0.500000  1
  Ho  Ho6  1  0.177678  0.822323  0.000000  1
  Lu  Lu7  1  0.823008  0.176993  0.000000  1
  In  In8  1  0.500197  0.000176  0.249477  1
  In  In9  1  0.999824  0.499803  0.750523  1
  In  In10  1  0.500197  0.000176  0.750523  1
  In  In11  1  0.999824  0.499803  0.249477  1
  Au  Au12  1  0.630778  0.369222  0.264542  1
  Au  Au13  1  0.371377  0.628623  0.269272  1
  Au  Au14  1  0.127115  0.130178  0.770058  1
  Au  Au15  1  0.869822  0.872885  0.770058  1
  Au  Au16  1  0.371377  0.628623  0.730728  1
  Au  Au17  1  0.630778  0.369222  0.735458  1
  Au  Au18  1  0.869822  0.872885  0.229942  1
  Au  Au19  1  0.127115  0.130178  0.229942  1
