# generated using pymatgen
data_Yb2Co9Si7Ru3
_symmetry_space_group_name_H-M   'P 1'
_cell_length_a   3.73420500
_cell_length_b   9.16227980
_cell_length_c   9.16228000
_cell_angle_alpha   120.00000074
_cell_angle_beta   90.00000000
_cell_angle_gamma   90.00000000
_symmetry_Int_Tables_number   1
_chemical_formula_structural   Yb2Co9Si7Ru3
_chemical_formula_sum   'Yb2 Co9 Si7 Ru3'
_cell_volume   271.47878341
_cell_formula_units_Z   1
loop_
 _symmetry_equiv_pos_site_id
 _symmetry_equiv_pos_as_xyz
  1  'x, y, z'
loop_
 _atom_site_type_symbol
 _atom_site_label
 _atom_site_symmetry_multiplicity
 _atom_site_fract_x
 _atom_site_fract_y
 _atom_site_fract_z
 _atom_site_occupancy
  Yb  Yb0  1  0.000000  0.666667  0.333333  1
  Yb  Yb1  1  0.500000  0.333333  0.666667  1
  Co  Co2  1  0.000000  0.570515  0.947047  1
  Co  Co3  1  0.000000  0.376532  0.429485  1
  Co  Co4  1  0.000000  0.052953  0.623468  1
  Co  Co5  1  0.000000  0.874398  0.155352  1
  Co  Co6  1  0.000000  0.280954  0.125602  1
  Co  Co7  1  0.000000  0.844648  0.719046  1
  Co  Co8  1  0.500000  0.949233  0.384783  1
  Co  Co9  1  0.500000  0.435549  0.050767  1
  Co  Co10  1  0.500000  0.615217  0.564451  1
  Si  Si11  1  0.000000  0.000000  0.000000  1
  Si  Si12  1  0.500000  0.709514  0.111871  1
  Si  Si13  1  0.500000  0.402357  0.290486  1
  Si  Si14  1  0.500000  0.888129  0.597643  1
  Si  Si15  1  0.000000  0.592618  0.704580  1
  Si  Si16  1  0.000000  0.111964  0.407382  1
  Si  Si17  1  0.000000  0.295420  0.888036  1
  Ru  Ru18  1  0.500000  0.785150  0.898680  1
  Ru  Ru19  1  0.500000  0.113530  0.214850  1
  Ru  Ru20  1  0.500000  0.101320  0.886470  1
