# generated using pymatgen
data_K2LuMnF7
_symmetry_space_group_name_H-M   'P 1'
_cell_length_a   8.07460861
_cell_length_b   8.07460717
_cell_length_c   8.07460805
_cell_angle_alpha   120.64951643
_cell_angle_beta   117.95856477
_cell_angle_gamma   91.22519486
_symmetry_Int_Tables_number   1
_chemical_formula_structural   K2LuMnF7
_chemical_formula_sum   'K4 Lu2 Mn2 F14'
_cell_volume   375.83286367
_cell_formula_units_Z   2
loop_
 _symmetry_equiv_pos_site_id
 _symmetry_equiv_pos_as_xyz
  1  'x, y, z'
loop_
 _atom_site_type_symbol
 _atom_site_label
 _atom_site_symmetry_multiplicity
 _atom_site_fract_x
 _atom_site_fract_y
 _atom_site_fract_z
 _atom_site_occupancy
  K  K0  1  0.500000  0.500000  0.000000  1
  K  K1  1  0.000000  0.000000  0.000000  1
  K  K2  1  0.000000  0.500000  0.000000  1
  K  K3  1  0.000000  0.000000  0.500000  1
  Lu  Lu4  1  0.000000  0.500000  0.500000  1
  Lu  Lu5  1  0.500000  0.000000  0.500000  1
  Mn  Mn6  1  0.500000  0.500000  0.500000  1
  Mn  Mn7  1  0.500000  0.000000  0.000000  1
  F  F8  1  0.874023  0.594510  0.279513  1
  F  F9  1  0.185001  0.905490  0.279513  1
  F  F10  1  0.186647  0.813939  0.768599  1
  F  F11  1  0.454660  0.686061  0.372708  1
  F  F12  1  0.454660  0.081952  0.768599  1
  F  F13  1  0.186647  0.418048  0.372708  1
  F  F14  1  0.813353  0.581952  0.627292  1
  F  F15  1  0.545340  0.918048  0.231401  1
  F  F16  1  0.545340  0.313939  0.627292  1
  F  F17  1  0.813353  0.186061  0.231401  1
  F  F18  1  0.414010  0.250000  0.164010  1
  F  F19  1  0.125977  0.405490  0.720487  1
  F  F20  1  0.814999  0.094510  0.720487  1
  F  F21  1  0.585990  0.750000  0.835990  1
