# generated using pymatgen
data_Dy2Er6Sc11Si16Os
_symmetry_space_group_name_H-M   'P 1'
_cell_length_a   6.98787128
_cell_length_b   7.33441040
_cell_length_c   13.82744981
_cell_angle_alpha   90.03536585
_cell_angle_beta   90.01693102
_cell_angle_gamma   90.13381794
_symmetry_Int_Tables_number   1
_chemical_formula_structural   Dy2Er6Sc11Si16Os
_chemical_formula_sum   'Dy2 Er6 Sc11 Si16 Os1'
_cell_volume   708.68119484
_cell_formula_units_Z   1
loop_
 _symmetry_equiv_pos_site_id
 _symmetry_equiv_pos_as_xyz
  1  'x, y, z'
loop_
 _atom_site_type_symbol
 _atom_site_label
 _atom_site_symmetry_multiplicity
 _atom_site_fract_x
 _atom_site_fract_y
 _atom_site_fract_z
 _atom_site_occupancy
  Dy  Dy0  1  0.012593  0.178619  0.092441  1
  Dy  Dy1  1  0.992828  0.819246  0.901096  1
  Er  Er2  1  0.489496  0.673121  0.902976  1
  Er  Er3  1  0.992820  0.818681  0.599162  1
  Er  Er4  1  0.511860  0.323158  0.094366  1
  Er  Er5  1  0.012555  0.178872  0.407400  1
  Er  Er6  1  0.512000  0.322979  0.405732  1
  Er  Er7  1  0.489497  0.673144  0.596893  1
  Sc  Sc8  1  0.843375  0.496378  0.250099  1
  Sc  Sc9  1  0.343676  0.003598  0.250069  1
  Sc  Sc10  1  0.655781  0.994659  0.749924  1
  Sc  Sc11  1  0.324529  0.175610  0.627429  1
  Sc  Sc12  1  0.673177  0.824962  0.373996  1
  Sc  Sc13  1  0.173467  0.673106  0.377072  1
  Sc  Sc14  1  0.673166  0.824876  0.126115  1
  Sc  Sc15  1  0.823234  0.331738  0.628679  1
  Sc  Sc16  1  0.324606  0.175620  0.872417  1
  Sc  Sc17  1  0.823154  0.331917  0.871239  1
  Sc  Sc18  1  0.173575  0.672879  0.123037  1
  Si  Si19  1  0.026385  0.117403  0.749779  1
  Si  Si20  1  0.975060  0.886801  0.250180  1
  Si  Si21  1  0.470771  0.613647  0.250052  1
  Si  Si22  1  0.511691  0.396679  0.749904  1
  Si  Si23  1  0.285657  0.856994  0.749696  1
  Si  Si24  1  0.717881  0.131481  0.250314  1
  Si  Si25  1  0.216508  0.369623  0.250285  1
  Si  Si26  1  0.794222  0.631302  0.749688  1
  Si  Si27  1  0.156277  0.466488  0.550074  1
  Si  Si28  1  0.842413  0.536185  0.464005  1
  Si  Si29  1  0.345222  0.964873  0.462847  1
  Si  Si30  1  0.842047  0.536158  0.036050  1
  Si  Si31  1  0.659303  0.034249  0.539728  1
  Si  Si32  1  0.156608  0.466189  0.949878  1
  Si  Si33  1  0.658322  0.034557  0.960321  1
  Si  Si34  1  0.346217  0.964579  0.037138  1
  Os  Os35  1  0.150029  0.499629  0.749920  1
