# generated using pymatgen
data_LaTb4PrRuBr10
_symmetry_space_group_name_H-M   'P 1'
_cell_length_a   7.52735181
_cell_length_b   9.46871349
_cell_length_c   9.36282764
_cell_angle_alpha   107.71177397
_cell_angle_beta   95.52284728
_cell_angle_gamma   106.78566642
_symmetry_Int_Tables_number   1
_chemical_formula_structural   LaTb4PrRuBr10
_chemical_formula_sum   'La1 Tb4 Pr1 Ru1 Br10'
_cell_volume   596.08224203
_cell_formula_units_Z   1
loop_
 _symmetry_equiv_pos_site_id
 _symmetry_equiv_pos_as_xyz
  1  'x, y, z'
loop_
 _atom_site_type_symbol
 _atom_site_label
 _atom_site_symmetry_multiplicity
 _atom_site_fract_x
 _atom_site_fract_y
 _atom_site_fract_z
 _atom_site_occupancy
  La  La0  1  0.123385  0.046637  0.763631  1
  Tb  Tb1  1  0.976628  0.304226  0.098076  1
  Tb  Tb2  1  0.022998  0.695821  0.902804  1
  Tb  Tb3  1  0.366811  0.140399  0.180724  1
  Tb  Tb4  1  0.632304  0.859158  0.819645  1
  Pr  Pr5  1  0.876034  0.953114  0.238340  1
  Ru  Ru6  1  0.004439  0.001977  0.992096  1
  Br  Br7  1  0.554954  0.175590  0.921786  1
  Br  Br8  1  0.448096  0.825491  0.080604  1
  Br  Br9  1  0.354038  0.451584  0.271403  1
  Br  Br10  1  0.646124  0.548295  0.728715  1
  Br  Br11  1  0.262504  0.086769  0.450793  1
  Br  Br12  1  0.732650  0.911569  0.548931  1
  Br  Br13  1  0.788042  0.262979  0.344038  1
  Br  Br14  1  0.212047  0.733889  0.656491  1
  Br  Br15  1  0.085244  0.378076  0.835320  1
  Br  Br16  1  0.913701  0.624425  0.166604  1
