# generated using pymatgen
data_Dy3HoAl15(SiRh2)3
_symmetry_space_group_name_H-M   'P 1'
_cell_length_a   7.52508496
_cell_length_b   7.48629592
_cell_length_c   9.39348649
_cell_angle_alpha   89.98251175
_cell_angle_beta   89.92538681
_cell_angle_gamma   119.77086339
_symmetry_Int_Tables_number   1
_chemical_formula_structural   Dy3HoAl15(SiRh2)3
_chemical_formula_sum   'Dy3 Ho1 Al15 Si3 Rh6'
_cell_volume   459.33902898
_cell_formula_units_Z   1
loop_
 _symmetry_equiv_pos_site_id
 _symmetry_equiv_pos_as_xyz
  1  'x, y, z'
loop_
 _atom_site_type_symbol
 _atom_site_label
 _atom_site_symmetry_multiplicity
 _atom_site_fract_x
 _atom_site_fract_y
 _atom_site_fract_z
 _atom_site_occupancy
  Dy  Dy0  1  0.005954  0.342011  0.253851  1
  Dy  Dy1  1  0.674705  0.000605  0.747815  1
  Dy  Dy2  1  0.320047  0.992267  0.249790  1
  Ho  Ho3  1  0.994607  0.663958  0.747428  1
  Al  Al4  1  0.128091  0.125512  0.750062  1
  Al  Al5  1  0.871880  0.871805  0.249262  1
  Al  Al6  1  0.338779  0.002820  0.923519  1
  Al  Al7  1  0.001456  0.330103  0.929616  1
  Al  Al8  1  0.666038  0.002112  0.075266  1
  Al  Al9  1  0.662127  0.997995  0.422378  1
  Al  Al10  1  0.338481  0.002878  0.576872  1
  Al  Al11  1  0.333160  0.331430  0.055485  1
  Al  Al12  1  0.664300  0.668001  0.945457  1
  Al  Al13  1  0.663748  0.667537  0.556061  1
  Al  Al14  1  0.335532  0.331940  0.444824  1
  Al  Al15  1  0.337619  0.550097  0.750213  1
  Al  Al16  1  0.661736  0.450724  0.250284  1
  Al  Al17  1  0.548587  0.343067  0.750001  1
  Al  Al18  1  0.455171  0.658323  0.249741  1
  Si  Si19  1  0.002426  0.328469  0.575829  1
  Si  Si20  1  0.997046  0.672137  0.431024  1
  Si  Si21  1  0.997753  0.665553  0.064656  1
  Rh  Rh22  1  0.689745  0.337718  0.501416  1
  Rh  Rh23  1  0.310430  0.662768  0.497391  1
  Rh  Rh24  1  0.319268  0.670461  0.002763  1
  Rh  Rh25  1  0.680124  0.336357  0.999490  1
  Rh  Rh26  1  0.000076  0.000341  0.499270  1
  Rh  Rh27  1  0.001115  0.993011  0.000237  1
