# generated using pymatgen
data_Sm2HoCu6Ni7B2
_symmetry_space_group_name_H-M   'P 1'
_cell_length_a   5.03877588
_cell_length_b   5.03877659
_cell_length_c   10.96877300
_cell_angle_alpha   90.00000000
_cell_angle_beta   90.00000000
_cell_angle_gamma   119.95410522
_symmetry_Int_Tables_number   1
_chemical_formula_structural   Sm2HoCu6Ni7B2
_chemical_formula_sum   'Sm2 Ho1 Cu6 Ni7 B2'
_cell_volume   241.29009022
_cell_formula_units_Z   1
loop_
 _symmetry_equiv_pos_site_id
 _symmetry_equiv_pos_as_xyz
  1  'x, y, z'
loop_
 _atom_site_type_symbol
 _atom_site_label
 _atom_site_symmetry_multiplicity
 _atom_site_fract_x
 _atom_site_fract_y
 _atom_site_fract_z
 _atom_site_occupancy
  Sm  Sm0  1  0.000000  0.000000  0.679177  1
  Sm  Sm1  1  0.000000  0.000000  0.320823  1
  Ho  Ho2  1  0.000000  0.000000  0.000000  1
  Cu  Cu3  1  0.500000  0.000000  0.500000  1
  Cu  Cu4  1  0.000000  0.500000  0.500000  1
  Cu  Cu5  1  0.665513  0.334487  0.685785  1
  Cu  Cu6  1  0.334487  0.665513  0.685785  1
  Cu  Cu7  1  0.334487  0.665513  0.314215  1
  Cu  Cu8  1  0.665513  0.334487  0.314215  1
  Ni  Ni9  1  0.500000  0.500000  0.500000  1
  Ni  Ni10  1  0.500000  0.500000  0.872033  1
  Ni  Ni11  1  0.500000  0.000000  0.872062  1
  Ni  Ni12  1  0.000000  0.500000  0.872062  1
  Ni  Ni13  1  0.500000  0.500000  0.127967  1
  Ni  Ni14  1  0.500000  0.000000  0.127938  1
  Ni  Ni15  1  0.000000  0.500000  0.127938  1
  B  B16  1  0.666817  0.333183  0.000000  1
  B  B17  1  0.333183  0.666817  0.000000  1
