# generated using pymatgen
data_Pr8Co3Si12Pt
_symmetry_space_group_name_H-M   'P 1'
_cell_length_a   8.15065500
_cell_length_b   8.15065637
_cell_length_c   8.53244600
_cell_angle_alpha   90.00000000
_cell_angle_beta   90.00000000
_cell_angle_gamma   120.00000663
_symmetry_Int_Tables_number   1
_chemical_formula_structural   Pr8Co3Si12Pt
_chemical_formula_sum   'Pr8 Co3 Si12 Pt1'
_cell_volume   490.89571983
_cell_formula_units_Z   1
loop_
 _symmetry_equiv_pos_site_id
 _symmetry_equiv_pos_as_xyz
  1  'x, y, z'
loop_
 _atom_site_type_symbol
 _atom_site_label
 _atom_site_symmetry_multiplicity
 _atom_site_fract_x
 _atom_site_fract_y
 _atom_site_fract_z
 _atom_site_occupancy
  Pr  Pr0  1  0.497354  0.502646  0.753380  1
  Pr  Pr1  1  0.499222  0.500778  0.247542  1
  Pr  Pr2  1  0.005291  0.502646  0.753380  1
  Pr  Pr3  1  0.001556  0.500778  0.247542  1
  Pr  Pr4  1  0.497354  0.994709  0.753380  1
  Pr  Pr5  1  0.499222  0.998444  0.247542  1
  Pr  Pr6  1  0.000000  0.000000  0.751023  1
  Pr  Pr7  1  0.000000  0.000000  0.248418  1
  Co  Co8  1  0.666667  0.333333  0.992758  1
  Co  Co9  1  0.333333  0.666667  0.007291  1
  Co  Co10  1  0.333333  0.666667  0.491582  1
  Si  Si11  1  0.828468  0.171532  0.001186  1
  Si  Si12  1  0.170826  0.829174  0.999063  1
  Si  Si13  1  0.343064  0.171532  0.001186  1
  Si  Si14  1  0.172509  0.827491  0.502010  1
  Si  Si15  1  0.658346  0.829174  0.999063  1
  Si  Si16  1  0.836025  0.163975  0.497577  1
  Si  Si17  1  0.828468  0.656936  0.001186  1
  Si  Si18  1  0.654983  0.827491  0.502010  1
  Si  Si19  1  0.170826  0.341654  0.999063  1
  Si  Si20  1  0.327950  0.163975  0.497577  1
  Si  Si21  1  0.172509  0.345017  0.502010  1
  Si  Si22  1  0.836025  0.672050  0.497577  1
  Pt  Pt23  1  0.666667  0.333333  0.506655  1
