# generated using pymatgen
data_Y2LuZr7Pb6
_symmetry_space_group_name_H-M   'P 1'
_cell_length_a   8.83606400
_cell_length_b   8.80488272
_cell_length_c   5.99798400
_cell_angle_alpha   90.00000000
_cell_angle_beta   90.00000000
_cell_angle_gamma   120.11722414
_symmetry_Int_Tables_number   1
_chemical_formula_structural   Y2LuZr7Pb6
_chemical_formula_sum   'Y2 Lu1 Zr7 Pb6'
_cell_volume   403.64924956
_cell_formula_units_Z   1
loop_
 _symmetry_equiv_pos_site_id
 _symmetry_equiv_pos_as_xyz
  1  'x, y, z'
loop_
 _atom_site_type_symbol
 _atom_site_label
 _atom_site_symmetry_multiplicity
 _atom_site_fract_x
 _atom_site_fract_y
 _atom_site_fract_z
 _atom_site_occupancy
  Y  Y0  1  0.762229  0.759703  0.250000  1
  Y  Y1  1  0.002527  0.240297  0.250000  1
  Lu  Lu2  1  0.760564  0.000000  0.750000  1
  Zr  Zr3  1  0.330182  0.666345  0.500868  1
  Zr  Zr4  1  0.246016  0.000000  0.250000  1
  Zr  Zr5  1  0.663839  0.333655  0.500868  1
  Zr  Zr6  1  0.002886  0.758030  0.750000  1
  Zr  Zr7  1  0.330182  0.666345  0.999132  1
  Zr  Zr8  1  0.244856  0.241970  0.750000  1
  Zr  Zr9  1  0.663839  0.333655  0.999132  1
  Pb  Pb10  1  0.606740  0.606908  0.750000  1
  Pb  Pb11  1  0.389335  0.000000  0.750000  1
  Pb  Pb12  1  0.601529  0.000000  0.250000  1
  Pb  Pb13  1  0.999833  0.393092  0.750000  1
  Pb  Pb14  1  0.393806  0.392169  0.250000  1
  Pb  Pb15  1  0.001638  0.607831  0.250000  1
