# generated using pymatgen
data_HfFe(NiP)2
_symmetry_space_group_name_H-M   'P 1'
_cell_length_a   3.63311914
_cell_length_b   10.26335675
_cell_length_c   12.03892534
_cell_angle_alpha   90.04383113
_cell_angle_beta   89.96828488
_cell_angle_gamma   90.00365438
_symmetry_Int_Tables_number   1
_chemical_formula_structural   HfFe(NiP)2
_chemical_formula_sum   'Hf6 Fe6 Ni12 P12'
_cell_volume   448.90722160
_cell_formula_units_Z   6
loop_
 _symmetry_equiv_pos_site_id
 _symmetry_equiv_pos_as_xyz
  1  'x, y, z'
loop_
 _atom_site_type_symbol
 _atom_site_label
 _atom_site_symmetry_multiplicity
 _atom_site_fract_x
 _atom_site_fract_y
 _atom_site_fract_z
 _atom_site_occupancy
  Hf  Hf0  1  0.751892  0.000067  0.472291  1
  Hf  Hf1  1  0.251858  0.499911  0.527350  1
  Hf  Hf2  1  0.251859  0.677225  0.792717  1
  Hf  Hf3  1  0.251875  0.322843  0.792673  1
  Hf  Hf4  1  0.751844  0.821875  0.206978  1
  Hf  Hf5  1  0.751851  0.178042  0.207014  1
  Fe  Fe6  1  0.751980  0.000097  0.011265  1
  Fe  Fe7  1  0.251932  0.200021  0.568440  1
  Fe  Fe8  1  0.251937  0.799965  0.568382  1
  Fe  Fe9  1  0.751786  0.298745  0.431380  1
  Fe  Fe10  1  0.751741  0.701243  0.431431  1
  Fe  Fe11  1  0.251773  0.000021  0.836788  1
  Ni  Ni12  1  0.251822  0.499967  0.985586  1
  Ni  Ni13  1  0.251639  0.625028  0.294957  1
  Ni  Ni14  1  0.251746  0.374903  0.294905  1
  Ni  Ni15  1  0.751803  0.874953  0.705650  1
  Ni  Ni16  1  0.751822  0.125120  0.705630  1
  Ni  Ni17  1  0.251788  0.170357  0.003220  1
  Ni  Ni18  1  0.251744  0.829561  0.003287  1
  Ni  Ni19  1  0.751904  0.331604  0.997699  1
  Ni  Ni20  1  0.751832  0.668475  0.997658  1
  Ni  Ni21  1  0.751493  0.500125  0.169515  1
  Ni  Ni22  1  0.251817  0.999994  0.296742  1
  Ni  Ni23  1  0.751789  0.499990  0.699552  1
  P  P24  1  0.251862  0.183329  0.386763  1
  P  P25  1  0.251831  0.816661  0.386686  1
  P  P26  1  0.751921  0.315718  0.612694  1
  P  P27  1  0.751920  0.684207  0.612769  1
  P  P28  1  0.251844  0.999965  0.119348  1
  P  P29  1  0.751872  0.500038  0.875913  1
  P  P30  1  0.251821  0.654823  0.115164  1
  P  P31  1  0.251836  0.344980  0.115125  1
  P  P32  1  0.751778  0.845719  0.885727  1
  P  P33  1  0.751811  0.154419  0.885755  1
  P  P34  1  0.251905  0.000024  0.644713  1
  P  P35  1  0.751681  0.499986  0.358234  1
