# generated using pymatgen
data_SrPr7(Sn4Pt3)4
_symmetry_space_group_name_H-M   'P 1'
_cell_length_a   14.77619759
_cell_length_b   14.75601798
_cell_length_c   4.49786400
_cell_angle_alpha   90.00000000
_cell_angle_beta   90.00000000
_cell_angle_gamma   119.95482571
_symmetry_Int_Tables_number   1
_chemical_formula_structural   SrPr7(Sn4Pt3)4
_chemical_formula_sum   'Sr1 Pr7 Sn16 Pt12'
_cell_volume   849.70139385
_cell_formula_units_Z   1
loop_
 _symmetry_equiv_pos_site_id
 _symmetry_equiv_pos_as_xyz
  1  'x, y, z'
loop_
 _atom_site_type_symbol
 _atom_site_label
 _atom_site_symmetry_multiplicity
 _atom_site_fract_x
 _atom_site_fract_y
 _atom_site_fract_z
 _atom_site_occupancy
  Sr  Sr0  1  0.000000  0.181702  0.500000  1
  Pr  Pr1  1  0.178869  0.998181  0.500000  1
  Pr  Pr2  1  0.821131  0.819313  0.500000  1
  Pr  Pr3  1  0.667303  0.334603  0.000000  1
  Pr  Pr4  1  0.332697  0.667301  0.000000  1
  Pr  Pr5  1  0.563701  0.999785  0.000000  1
  Pr  Pr6  1  0.436299  0.436084  0.000000  1
  Pr  Pr7  1  0.000000  0.565542  0.000000  1
  Sn  Sn8  1  0.495619  0.126075  0.500000  1
  Sn  Sn9  1  0.873646  0.369710  0.500000  1
  Sn  Sn10  1  0.631018  0.505486  0.500000  1
  Sn  Sn11  1  0.504381  0.630456  0.500000  1
  Sn  Sn12  1  0.368982  0.874468  0.500000  1
  Sn  Sn13  1  0.126354  0.496064  0.500000  1
  Sn  Sn14  1  0.374547  0.186166  0.000000  1
  Sn  Sn15  1  0.814457  0.187746  0.000000  1
  Sn  Sn16  1  0.812332  0.625870  0.000000  1
  Sn  Sn17  1  0.625453  0.811618  0.000000  1
  Sn  Sn18  1  0.000000  0.998533  0.000000  1
  Sn  Sn19  1  0.187668  0.813536  0.000000  1
  Sn  Sn20  1  0.724219  0.999506  0.500000  1
  Sn  Sn21  1  0.275781  0.275287  0.500000  1
  Sn  Sn22  1  0.000000  0.725997  0.500000  1
  Sn  Sn23  1  0.185543  0.373288  0.000000  1
  Pt  Pt24  1  0.000000  0.366064  0.000000  1
  Pt  Pt25  1  0.362065  0.999613  0.000000  1
  Pt  Pt26  1  0.478199  0.300683  0.500000  1
  Pt  Pt27  1  0.700103  0.177784  0.500000  1
  Pt  Pt28  1  0.822019  0.522514  0.500000  1
  Pt  Pt29  1  0.521801  0.822485  0.500000  1
  Pt  Pt30  1  0.177981  0.700495  0.500000  1
  Pt  Pt31  1  0.299897  0.477681  0.500000  1
  Pt  Pt32  1  0.000000  0.820192  0.000000  1
  Pt  Pt33  1  0.181653  0.177139  0.000000  1
  Pt  Pt34  1  0.818347  0.995485  0.000000  1
  Pt  Pt35  1  0.637935  0.637548  0.000000  1
