# generated using pymatgen
data_Pa3Sn3Os2Rh
_symmetry_space_group_name_H-M   'P 1'
_cell_length_a   7.47371200
_cell_length_b   7.47371284
_cell_length_c   3.98356000
_cell_angle_alpha   90.00000000
_cell_angle_beta   90.00000000
_cell_angle_gamma   119.99998743
_symmetry_Int_Tables_number   1
_chemical_formula_structural   Pa3Sn3Os2Rh
_chemical_formula_sum   'Pa3 Sn3 Os2 Rh1'
_cell_volume   192.69693855
_cell_formula_units_Z   1
loop_
 _symmetry_equiv_pos_site_id
 _symmetry_equiv_pos_as_xyz
  1  'x, y, z'
loop_
 _atom_site_type_symbol
 _atom_site_label
 _atom_site_symmetry_multiplicity
 _atom_site_fract_x
 _atom_site_fract_y
 _atom_site_fract_z
 _atom_site_occupancy
  Pa  Pa0  1  0.414511  0.414511  0.500000  1
  Pa  Pa1  1  0.585489  0.000000  0.500000  1
  Pa  Pa2  1  0.000000  0.585489  0.500000  1
  Sn  Sn3  1  0.747166  0.747166  0.000000  1
  Sn  Sn4  1  0.252834  0.000000  0.000000  1
  Sn  Sn5  1  0.000000  0.252834  0.000000  1
  Os  Os6  1  0.666667  0.333333  0.000000  1
  Os  Os7  1  0.333333  0.666667  0.000000  1
  Rh  Rh8  1  0.000000  0.000000  0.500000  1
