# generated using pymatgen
data_Lu12Ga2Tc2Sn
_symmetry_space_group_name_H-M   'P 1'
_cell_length_a   8.30038180
_cell_length_b   8.30036475
_cell_length_c   8.30038300
_cell_angle_alpha   109.80400364
_cell_angle_beta   109.99161300
_cell_angle_gamma   108.62150240
_symmetry_Int_Tables_number   1
_chemical_formula_structural   Lu12Ga2Tc2Sn
_chemical_formula_sum   'Lu12 Ga2 Tc2 Sn1'
_cell_volume   440.14764812
_cell_formula_units_Z   1
loop_
 _symmetry_equiv_pos_site_id
 _symmetry_equiv_pos_as_xyz
  1  'x, y, z'
loop_
 _atom_site_type_symbol
 _atom_site_label
 _atom_site_symmetry_multiplicity
 _atom_site_fract_x
 _atom_site_fract_y
 _atom_site_fract_z
 _atom_site_occupancy
  Lu  Lu0  1  0.320344  0.318374  0.638801  1
  Lu  Lu1  1  0.679656  0.681626  0.361199  1
  Lu  Lu2  1  0.320429  0.681626  0.001971  1
  Lu  Lu3  1  0.679571  0.318374  0.998029  1
  Lu  Lu4  1  0.444765  0.189788  0.254932  1
  Lu  Lu5  1  0.555235  0.810212  0.745068  1
  Lu  Lu6  1  0.934856  0.189788  0.745023  1
  Lu  Lu7  1  0.193869  0.946796  0.752927  1
  Lu  Lu8  1  0.065144  0.810212  0.254977  1
  Lu  Lu9  1  0.806131  0.053204  0.247073  1
  Lu  Lu10  1  0.193895  0.440916  0.247021  1
  Lu  Lu11  1  0.806105  0.559084  0.752979  1
  Ga  Ga12  1  0.000000  0.000000  0.000000  1
  Ga  Ga13  1  0.500000  0.000000  0.500000  1
  Tc  Tc14  1  0.336335  0.336311  0.999978  1
  Tc  Tc15  1  0.663665  0.663689  0.000022  1
  Sn  Sn16  1  0.000000  0.500000  0.500000  1
