# generated using pymatgen
data_Y2Er6TcOsBr8
_symmetry_space_group_name_H-M   'P 1'
_cell_length_a   8.96678864
_cell_length_b   8.91599977
_cell_length_c   6.54928162
_cell_angle_alpha   89.52705437
_cell_angle_beta   89.40705768
_cell_angle_gamma   89.32807986
_symmetry_Int_Tables_number   1
_chemical_formula_structural   Y2Er6TcOsBr8
_chemical_formula_sum   'Y2 Er6 Tc1 Os1 Br8'
_cell_volume   523.51985670
_cell_formula_units_Z   1
loop_
 _symmetry_equiv_pos_site_id
 _symmetry_equiv_pos_as_xyz
  1  'x, y, z'
loop_
 _atom_site_type_symbol
 _atom_site_label
 _atom_site_symmetry_multiplicity
 _atom_site_fract_x
 _atom_site_fract_y
 _atom_site_fract_z
 _atom_site_occupancy
  Y  Y0  1  0.252454  0.899205  0.010412  1
  Y  Y1  1  0.747249  0.100887  0.990686  1
  Er  Er2  1  0.098429  0.753016  0.488428  1
  Er  Er3  1  0.901569  0.247530  0.510732  1
  Er  Er4  1  0.754442  0.903411  0.507802  1
  Er  Er5  1  0.245800  0.097065  0.491541  1
  Er  Er6  1  0.095161  0.245329  0.992176  1
  Er  Er7  1  0.904564  0.754658  0.008665  1
  Tc  Tc8  1  0.994326  0.005659  0.250759  1
  Os  Os9  1  0.005274  0.994523  0.749165  1
  Br  Br10  1  0.419666  0.816893  0.411781  1
  Br  Br11  1  0.579982  0.182804  0.590024  1
  Br  Br12  1  0.182028  0.578537  0.090746  1
  Br  Br13  1  0.818412  0.421422  0.907273  1
  Br  Br14  1  0.413192  0.192949  0.092338  1
  Br  Br15  1  0.586902  0.806579  0.906809  1
  Br  Br16  1  0.810677  0.584963  0.406913  1
  Br  Br17  1  0.189872  0.414569  0.593750  1
