# generated using pymatgen
data_Er3In3CuAgIr
_symmetry_space_group_name_H-M   'P 1'
_cell_length_a   7.64588700
_cell_length_b   7.64588642
_cell_length_c   3.86988400
_cell_angle_alpha   90.00000000
_cell_angle_beta   90.00000000
_cell_angle_gamma   119.99999817
_symmetry_Int_Tables_number   1
_chemical_formula_structural   Er3In3CuAgIr
_chemical_formula_sum   'Er3 In3 Cu1 Ag1 Ir1'
_cell_volume   195.92249586
_cell_formula_units_Z   1
loop_
 _symmetry_equiv_pos_site_id
 _symmetry_equiv_pos_as_xyz
  1  'x, y, z'
loop_
 _atom_site_type_symbol
 _atom_site_label
 _atom_site_symmetry_multiplicity
 _atom_site_fract_x
 _atom_site_fract_y
 _atom_site_fract_z
 _atom_site_occupancy
  Er  Er0  1  0.026492  0.604639  0.500000  1
  Er  Er1  1  0.395361  0.421853  0.500000  1
  Er  Er2  1  0.578147  0.973508  0.500000  1
  In  In3  1  0.750808  0.748344  0.000000  1
  In  In4  1  0.997536  0.249192  0.000000  1
  In  In5  1  0.251656  0.002464  0.000000  1
  Cu  Cu6  1  0.000000  0.000000  0.500000  1
  Ag  Ag7  1  0.666667  0.333333  0.000000  1
  Ir  Ir8  1  0.333333  0.666667  0.000000  1
