# generated using pymatgen
data_Hf8TaPt3O2
_symmetry_space_group_name_H-M   'P 1'
_cell_length_a   8.86042625
_cell_length_b   8.86042665
_cell_length_c   8.74380300
_cell_angle_alpha   60.43446246
_cell_angle_beta   60.43446101
_cell_angle_gamma   60.51583260
_symmetry_Int_Tables_number   1
_chemical_formula_structural   Hf8TaPt3O2
_chemical_formula_sum   'Hf16 Ta2 Pt6 O4'
_cell_volume   490.45838115
_cell_formula_units_Z   2
loop_
 _symmetry_equiv_pos_site_id
 _symmetry_equiv_pos_as_xyz
  1  'x, y, z'
loop_
 _atom_site_type_symbol
 _atom_site_label
 _atom_site_symmetry_multiplicity
 _atom_site_fract_x
 _atom_site_fract_y
 _atom_site_fract_z
 _atom_site_occupancy
  Hf  Hf0  1  0.112241  0.620805  0.633477  1
  Hf  Hf1  1  0.620805  0.112241  0.633477  1
  Hf  Hf2  1  0.635835  0.635835  0.091706  1
  Hf  Hf3  1  0.635835  0.635835  0.636625  1
  Hf  Hf4  1  0.795295  0.795295  0.204705  1
  Hf  Hf5  1  0.184588  0.184588  0.815412  1
  Hf  Hf6  1  0.810447  0.188795  0.806423  1
  Hf  Hf7  1  0.188795  0.810447  0.194335  1
  Hf  Hf8  1  0.188795  0.810447  0.806423  1
  Hf  Hf9  1  0.810447  0.188795  0.194335  1
  Hf  Hf10  1  0.434730  0.434730  0.065270  1
  Hf  Hf11  1  0.065668  0.065668  0.434332  1
  Hf  Hf12  1  0.432051  0.061331  0.432012  1
  Hf  Hf13  1  0.061331  0.432051  0.074606  1
  Hf  Hf14  1  0.061331  0.432051  0.432012  1
  Hf  Hf15  1  0.432051  0.061331  0.074606  1
  Ta  Ta16  1  0.752950  0.418759  0.414145  1
  Ta  Ta17  1  0.418759  0.752950  0.414145  1
  Pt  Pt18  1  0.418585  0.418585  0.760275  1
  Pt  Pt19  1  0.418585  0.418585  0.402555  1
  Pt  Pt20  1  0.447283  0.857503  0.847607  1
  Pt  Pt21  1  0.857503  0.447283  0.847607  1
  Pt  Pt22  1  0.851830  0.851830  0.457763  1
  Pt  Pt23  1  0.851830  0.851830  0.838578  1
  O  O24  1  0.615858  0.140417  0.121863  1
  O  O25  1  0.140417  0.615858  0.121863  1
  O  O26  1  0.128078  0.128078  0.624867  1
  O  O27  1  0.128078  0.128078  0.118976  1
