# generated using pymatgen
data_Ir4Rh5S12
_symmetry_space_group_name_H-M   'P 1'
_cell_length_a   7.56810976
_cell_length_b   7.56810974
_cell_length_c   6.32304213
_cell_angle_alpha   77.74215870
_cell_angle_beta   77.74216608
_cell_angle_gamma   92.30670840
_symmetry_Int_Tables_number   1
_chemical_formula_structural   Ir4Rh5S12
_chemical_formula_sum   'Ir4 Rh5 S12'
_cell_volume   344.45226343
_cell_formula_units_Z   1
loop_
 _symmetry_equiv_pos_site_id
 _symmetry_equiv_pos_as_xyz
  1  'x, y, z'
loop_
 _atom_site_type_symbol
 _atom_site_label
 _atom_site_symmetry_multiplicity
 _atom_site_fract_x
 _atom_site_fract_y
 _atom_site_fract_z
 _atom_site_occupancy
  Ir  Ir0  1  0.161920  0.838474  0.000070  1
  Ir  Ir1  1  0.838474  0.161920  0.000070  1
  Ir  Ir2  1  0.000063  0.000063  0.500000  1
  Ir  Ir3  1  0.349757  0.349757  0.947220  1
  Rh  Rh4  1  0.650221  0.650221  0.053043  1
  Rh  Rh5  1  0.783390  0.491001  0.450771  1
  Rh  Rh6  1  0.508801  0.216340  0.549143  1
  Rh  Rh7  1  0.216340  0.508801  0.549143  1
  Rh  Rh8  1  0.491001  0.783390  0.450771  1
  S  S9  1  0.856959  0.439901  0.101501  1
  S  S10  1  0.560158  0.142913  0.899085  1
  S  S11  1  0.142913  0.560158  0.899085  1
  S  S12  1  0.439901  0.856959  0.101501  1
  S  S13  1  0.117035  0.117035  0.111766  1
  S  S14  1  0.883647  0.883647  0.888008  1
  S  S15  1  0.033216  0.718002  0.384572  1
  S  S16  1  0.282045  0.966656  0.615088  1
  S  S17  1  0.966656  0.282045  0.615088  1
  S  S18  1  0.583762  0.583762  0.727692  1
  S  S19  1  0.415742  0.415742  0.271808  1
  S  S20  1  0.718002  0.033216  0.384572  1
