# generated using pymatgen
data_Er3Lu5In3Ru
_symmetry_space_group_name_H-M   'P 1'
_cell_length_a   10.24058200
_cell_length_b   10.24058186
_cell_length_c   6.94704200
_cell_angle_alpha   90.00000000
_cell_angle_beta   90.00000000
_cell_angle_gamma   120.00000045
_symmetry_Int_Tables_number   1
_chemical_formula_structural   Er3Lu5In3Ru
_chemical_formula_sum   'Er6 Lu10 In6 Ru2'
_cell_volume   630.92803751
_cell_formula_units_Z   2
loop_
 _symmetry_equiv_pos_site_id
 _symmetry_equiv_pos_as_xyz
  1  'x, y, z'
loop_
 _atom_site_type_symbol
 _atom_site_label
 _atom_site_symmetry_multiplicity
 _atom_site_fract_x
 _atom_site_fract_y
 _atom_site_fract_z
 _atom_site_occupancy
  Er  Er0  1  0.532386  0.064773  0.524174  1
  Er  Er1  1  0.935227  0.467614  0.524174  1
  Er  Er2  1  0.532386  0.467614  0.524174  1
  Er  Er3  1  0.467614  0.935227  0.024174  1
  Er  Er4  1  0.064773  0.532386  0.024174  1
  Er  Er5  1  0.467614  0.532386  0.024174  1
  Lu  Lu6  1  0.177308  0.354617  0.727609  1
  Lu  Lu7  1  0.645383  0.822692  0.727609  1
  Lu  Lu8  1  0.177308  0.822692  0.727609  1
  Lu  Lu9  1  0.822692  0.645383  0.227609  1
  Lu  Lu10  1  0.354617  0.177308  0.227609  1
  Lu  Lu11  1  0.822692  0.177308  0.227609  1
  Lu  Lu12  1  0.666667  0.333333  0.904221  1
  Lu  Lu13  1  0.333333  0.666667  0.404221  1
  Lu  Lu14  1  0.000000  0.000000  0.507325  1
  Lu  Lu15  1  0.000000  0.000000  0.007325  1
  In  In16  1  0.837470  0.674941  0.771268  1
  In  In17  1  0.325059  0.162530  0.771268  1
  In  In18  1  0.837470  0.162530  0.771268  1
  In  In19  1  0.162530  0.325059  0.271268  1
  In  In20  1  0.674941  0.837470  0.271268  1
  In  In21  1  0.162530  0.837470  0.271268  1
  Ru  Ru22  1  0.666667  0.333333  0.297141  1
  Ru  Ru23  1  0.333333  0.666667  0.797141  1
