# generated using pymatgen
data_La2Pr8Ir5Rh
_symmetry_space_group_name_H-M   'P 1'
_cell_length_a   11.33587500
_cell_length_b   11.36684100
_cell_length_c   6.69227300
_cell_angle_alpha   90.00000000
_cell_angle_beta   90.00000000
_cell_angle_gamma   90.00000000
_symmetry_Int_Tables_number   1
_chemical_formula_structural   La2Pr8Ir5Rh
_chemical_formula_sum   'La4 Pr16 Ir10 Rh2'
_cell_volume   862.32004661
_cell_formula_units_Z   2
loop_
 _symmetry_equiv_pos_site_id
 _symmetry_equiv_pos_as_xyz
  1  'x, y, z'
loop_
 _atom_site_type_symbol
 _atom_site_label
 _atom_site_symmetry_multiplicity
 _atom_site_fract_x
 _atom_site_fract_y
 _atom_site_fract_z
 _atom_site_occupancy
  La  La0  1  0.293518  0.092123  0.387093  1
  La  La1  1  0.293518  0.907877  0.887093  1
  La  La2  1  0.706482  0.092123  0.887093  1
  La  La3  1  0.706482  0.907877  0.387093  1
  Pr  Pr4  1  0.590852  0.790051  0.883884  1
  Pr  Pr5  1  0.590852  0.209949  0.383884  1
  Pr  Pr6  1  0.409148  0.790051  0.383884  1
  Pr  Pr7  1  0.409148  0.209949  0.883884  1
  Pr  Pr8  1  0.208561  0.409952  0.614839  1
  Pr  Pr9  1  0.208561  0.590048  0.114839  1
  Pr  Pr10  1  0.791439  0.409952  0.114839  1
  Pr  Pr11  1  0.791439  0.590048  0.614839  1
  Pr  Pr12  1  0.908999  0.708934  0.112981  1
  Pr  Pr13  1  0.908999  0.291066  0.612981  1
  Pr  Pr14  1  0.091001  0.708934  0.612981  1
  Pr  Pr15  1  0.091001  0.291066  0.112981  1
  Pr  Pr16  1  0.000000  0.000000  0.497656  1
  Pr  Pr17  1  0.000000  0.000000  0.997656  1
  Pr  Pr18  1  0.500000  0.500000  0.002249  1
  Pr  Pr19  1  0.500000  0.500000  0.502249  1
  Ir  Ir20  1  0.845704  0.154391  0.248440  1
  Ir  Ir21  1  0.845704  0.845609  0.748440  1
  Ir  Ir22  1  0.154296  0.154391  0.748440  1
  Ir  Ir23  1  0.154296  0.845609  0.248440  1
  Ir  Ir24  1  0.654903  0.347119  0.751738  1
  Ir  Ir25  1  0.654903  0.652881  0.251738  1
  Ir  Ir26  1  0.345097  0.347119  0.251738  1
  Ir  Ir27  1  0.345097  0.652881  0.751738  1
  Ir  Ir28  1  0.500000  0.000000  0.119247  1
  Ir  Ir29  1  0.500000  0.000000  0.619247  1
  Rh  Rh30  1  0.000000  0.500000  0.882894  1
  Rh  Rh31  1  0.000000  0.500000  0.382894  1
