# generated using pymatgen
data_Ca12Al14BrClO32
_symmetry_space_group_name_H-M   'P 1'
_cell_length_a   10.49724864
_cell_length_b   10.49724829
_cell_length_c   10.49724874
_cell_angle_alpha   109.42268754
_cell_angle_beta   109.42269123
_cell_angle_gamma   109.56833323
_symmetry_Int_Tables_number   1
_chemical_formula_structural   Ca12Al14BrClO32
_chemical_formula_sum   'Ca12 Al14 Br1 Cl1 O32'
_cell_volume   890.43778522
_cell_formula_units_Z   1
loop_
 _symmetry_equiv_pos_site_id
 _symmetry_equiv_pos_as_xyz
  1  'x, y, z'
loop_
 _atom_site_type_symbol
 _atom_site_label
 _atom_site_symmetry_multiplicity
 _atom_site_fract_x
 _atom_site_fract_y
 _atom_site_fract_z
 _atom_site_occupancy
  Ca  Ca0  1  0.263990  0.263990  0.000000  1
  Ca  Ca1  1  0.979663  0.479663  0.500000  1
  Ca  Ca2  1  0.520337  0.020337  0.500000  1
  Ca  Ca3  1  0.736010  0.736010  0.000000  1
  Ca  Ca4  1  0.239049  0.874513  0.863543  1
  Ca  Ca5  1  0.010970  0.375506  0.136457  1
  Ca  Ca6  1  0.491968  0.375295  0.617160  1
  Ca  Ca7  1  0.758135  0.874809  0.382840  1
  Ca  Ca8  1  0.125191  0.508032  0.883327  1
  Ca  Ca9  1  0.624705  0.241865  0.116673  1
  Ca  Ca10  1  0.624494  0.760951  0.635464  1
  Ca  Ca11  1  0.125487  0.989030  0.364536  1
  Al  Al12  1  0.908771  0.158993  0.784190  1
  Al  Al13  1  0.374804  0.124580  0.215810  1
  Al  Al14  1  0.340753  0.625439  0.749581  1
  Al  Al15  1  0.875857  0.591173  0.250419  1
  Al  Al16  1  0.374561  0.124143  0.715315  1
  Al  Al17  1  0.408827  0.659247  0.284685  1
  Al  Al18  1  0.841007  0.625196  0.749777  1
  Al  Al19  1  0.875420  0.091229  0.250223  1
  Al  Al20  1  0.000000  0.000000  0.000000  1
  Al  Al21  1  0.250000  0.750000  0.500000  1
  Al  Al22  1  0.498800  0.874878  0.123622  1
  Al  Al23  1  0.751256  0.375178  0.876378  1
  Al  Al24  1  0.125122  0.248744  0.623922  1
  Al  Al25  1  0.624822  0.501200  0.376078  1
  Br  Br26  1  0.500000  0.500000  0.000000  1
  Cl  Cl27  1  0.750000  0.250000  0.500000  1
  O  O28  1  0.744649  0.988015  0.622188  1
  O  O29  1  0.365827  0.122462  0.377812  1
  O  O30  1  0.505386  0.628319  0.742738  1
  O  O31  1  0.885581  0.762648  0.257262  1
  O  O32  1  0.371681  0.114419  0.877067  1
  O  O33  1  0.237352  0.494614  0.122933  1
  O  O34  1  0.011985  0.634173  0.756634  1
  O  O35  1  0.877538  0.255351  0.243366  1
  O  O36  1  0.078840  0.236327  0.767659  1
  O  O37  1  0.468667  0.311181  0.232341  1
  O  O38  1  0.170541  0.438534  0.657485  1
  O  O39  1  0.781049  0.513055  0.342515  1
  O  O40  1  0.561466  0.218951  0.732007  1
  O  O41  1  0.486945  0.829459  0.267993  1
  O  O42  1  0.763673  0.531333  0.842514  1
  O  O43  1  0.688819  0.921160  0.157486  1
  O  O44  1  0.189270  0.034135  0.044300  1
  O  O45  1  0.259887  0.716001  0.655219  1
  O  O46  1  0.989834  0.144970  0.955700  1
  O  O47  1  0.060782  0.604666  0.344781  1
  O  O48  1  0.669330  0.538958  0.566667  1
  O  O49  1  0.276983  0.209908  0.629005  1
  O  O50  1  0.580903  0.647978  0.370995  1
  O  O51  1  0.972290  0.102663  0.433333  1
  O  O52  1  0.352022  0.723017  0.932925  1
  O  O53  1  0.897337  0.330670  0.869629  1
  O  O54  1  0.461042  0.027710  0.130371  1
  O  O55  1  0.790092  0.419097  0.067075  1
  O  O56  1  0.395334  0.740113  0.456116  1
  O  O57  1  0.855030  0.810730  0.844865  1
  O  O58  1  0.283999  0.939218  0.543884  1
  O  O59  1  0.965865  0.010166  0.155135  1
