# generated using pymatgen
data_Na(BBr)6
_symmetry_space_group_name_H-M   'P 1'
_cell_length_a   10.06087711
_cell_length_b   10.06087626
_cell_length_c   17.03895900
_cell_angle_alpha   107.17142209
_cell_angle_beta   72.82857941
_cell_angle_gamma   119.99999470
_symmetry_Int_Tables_number   1
_chemical_formula_structural   Na(BBr)6
_chemical_formula_sum   'Na4 B24 Br24'
_cell_volume   1404.16629259
_cell_formula_units_Z   4
loop_
 _symmetry_equiv_pos_site_id
 _symmetry_equiv_pos_as_xyz
  1  'x, y, z'
loop_
 _atom_site_type_symbol
 _atom_site_label
 _atom_site_symmetry_multiplicity
 _atom_site_fract_x
 _atom_site_fract_y
 _atom_site_fract_z
 _atom_site_occupancy
  Na  Na0  1  0.640719  0.359281  0.077843  1
  Na  Na1  1  0.188890  0.811109  0.433328  1
  Na  Na2  1  0.811108  0.188891  0.566672  1
  Na  Na3  1  0.359281  0.640719  0.922157  1
  B  B4  1  0.042886  0.191319  0.019807  1
  B  B5  1  0.808682  0.871374  0.019807  1
  B  B6  1  0.128626  0.957115  0.019807  1
  B  B7  1  0.887268  0.058903  0.084873  1
  B  B8  1  0.086763  0.112732  0.084873  1
  B  B9  1  0.941096  0.913236  0.084873  1
  B  B10  1  0.449294  0.354813  0.415116  1
  B  B11  1  0.645187  0.509598  0.415116  1
  B  B12  1  0.490402  0.550706  0.415116  1
  B  B13  1  0.567121  0.366215  0.480038  1
  B  B14  1  0.319056  0.432879  0.480038  1
  B  B15  1  0.633785  0.680944  0.480038  1
  B  B16  1  0.366215  0.319056  0.519962  1
  B  B17  1  0.680944  0.567121  0.519962  1
  B  B18  1  0.432878  0.633785  0.519962  1
  B  B19  1  0.509598  0.449294  0.584884  1
  B  B20  1  0.354813  0.490402  0.584884  1
  B  B21  1  0.550706  0.645187  0.584884  1
  B  B22  1  0.058904  0.086764  0.915127  1
  B  B23  1  0.913237  0.887268  0.915127  1
  B  B24  1  0.112733  0.941096  0.915127  1
  B  B25  1  0.871374  0.042885  0.980193  1
  B  B26  1  0.191318  0.128626  0.980193  1
  B  B27  1  0.957114  0.808681  0.980193  1
  Br  Br28  1  0.090071  0.413680  0.043550  1
  Br  Br29  1  0.586320  0.719941  0.043550  1
  Br  Br30  1  0.280060  0.909929  0.043550  1
  Br  Br31  1  0.756161  0.126678  0.180104  1
  Br  Br32  1  0.190411  0.243838  0.180104  1
  Br  Br33  1  0.873322  0.809589  0.180104  1
  Br  Br34  1  0.389123  0.184641  0.319791  1
  Br  Br35  1  0.815359  0.524273  0.319791  1
  Br  Br36  1  0.475727  0.610877  0.319791  1
  Br  Br37  1  0.641743  0.207145  0.452863  1
  Br  Br38  1  0.112540  0.358257  0.452863  1
  Br  Br39  1  0.792855  0.887461  0.452863  1
  Br  Br40  1  0.207145  0.112540  0.547138  1
  Br  Br41  1  0.887460  0.641743  0.547138  1
  Br  Br42  1  0.358257  0.792855  0.547138  1
  Br  Br43  1  0.524273  0.389123  0.680210  1
  Br  Br44  1  0.184641  0.475727  0.680210  1
  Br  Br45  1  0.610877  0.815359  0.680210  1
  Br  Br46  1  0.126678  0.190411  0.819896  1
  Br  Br47  1  0.809589  0.756162  0.819896  1
  Br  Br48  1  0.243839  0.873322  0.819896  1
  Br  Br49  1  0.719940  0.090071  0.956450  1
  Br  Br50  1  0.413680  0.280059  0.956450  1
  Br  Br51  1  0.909929  0.586320  0.956450  1
