# generated using pymatgen
data_Cs8KRb3(GaTe3)4
_symmetry_space_group_name_H-M   'P 1'
_cell_length_a   14.70093806
_cell_length_b   9.18022543
_cell_length_c   12.06562036
_cell_angle_alpha   53.22321121
_cell_angle_beta   90.18242749
_cell_angle_gamma   90.05605864
_symmetry_Int_Tables_number   1
_chemical_formula_structural   Cs8KRb3(GaTe3)4
_chemical_formula_sum   'Cs8 K1 Rb3 Ga4 Te12'
_cell_volume   1304.25936452
_cell_formula_units_Z   1
loop_
 _symmetry_equiv_pos_site_id
 _symmetry_equiv_pos_as_xyz
  1  'x, y, z'
loop_
 _atom_site_type_symbol
 _atom_site_label
 _atom_site_symmetry_multiplicity
 _atom_site_fract_x
 _atom_site_fract_y
 _atom_site_fract_z
 _atom_site_occupancy
  Cs  Cs0  1  0.909146  0.336923  0.397865  1
  Cs  Cs1  1  0.409209  0.663312  0.101952  1
  Cs  Cs2  1  0.090588  0.663050  0.602229  1
  Cs  Cs3  1  0.591012  0.336771  0.898125  1
  Cs  Cs4  1  0.192013  0.133216  0.584300  1
  Cs  Cs5  1  0.692044  0.866558  0.915923  1
  Cs  Cs6  1  0.808080  0.867138  0.415607  1
  Cs  Cs7  1  0.308055  0.133246  0.084101  1
  K  K8  1  0.887879  0.353984  0.979303  1
  Rb  Rb9  1  0.613965  0.356978  0.479674  1
  Rb  Rb10  1  0.113875  0.642773  0.020251  1
  Rb  Rb11  1  0.385999  0.643039  0.520298  1
  Ga  Ga12  1  0.936967  0.058705  0.843160  1
  Ga  Ga13  1  0.437025  0.940482  0.657216  1
  Ga  Ga14  1  0.062965  0.940781  0.156831  1
  Ga  Ga15  1  0.563156  0.059720  0.342619  1
  Te  Te16  1  0.396662  0.148440  0.379802  1
  Te  Te17  1  0.896319  0.853809  0.119580  1
  Te  Te18  1  0.603334  0.851909  0.619996  1
  Te  Te19  1  0.103411  0.148102  0.880002  1
  Te  Te20  1  0.677242  0.338658  0.198302  1
  Te  Te21  1  0.176725  0.661350  0.301429  1
  Te  Te22  1  0.323369  0.661399  0.801086  1
  Te  Te23  1  0.824092  0.339488  0.702194  1
  Te  Te24  1  0.557980  0.862697  0.250025  1
  Te  Te25  1  0.055748  0.140602  0.246643  1
  Te  Te26  1  0.441956  0.137259  0.749977  1
  Te  Te27  1  0.941186  0.859612  0.751514  1
