# generated using pymatgen
data_Sm2HoEr(ReB6)2
_symmetry_space_group_name_H-M   'P 1'
_cell_length_a   3.70362000
_cell_length_b   9.20495202
_cell_length_c   11.63602002
_cell_angle_alpha   90.00729621
_cell_angle_beta   90.00000000
_cell_angle_gamma   90.00000000
_symmetry_Int_Tables_number   1
_chemical_formula_structural   Sm2HoEr(ReB6)2
_chemical_formula_sum   'Sm4 Ho2 Er2 Re4 B24'
_cell_volume   396.69105360
_cell_formula_units_Z   2
loop_
 _symmetry_equiv_pos_site_id
 _symmetry_equiv_pos_as_xyz
  1  'x, y, z'
loop_
 _atom_site_type_symbol
 _atom_site_label
 _atom_site_symmetry_multiplicity
 _atom_site_fract_x
 _atom_site_fract_y
 _atom_site_fract_z
 _atom_site_occupancy
  Sm  Sm0  1  0.000000  0.323138  0.414258  1
  Sm  Sm1  1  0.000000  0.676862  0.585742  1
  Sm  Sm2  1  0.000000  0.822988  0.085682  1
  Sm  Sm3  1  0.000000  0.177012  0.914318  1
  Ho  Ho4  1  0.000000  0.942842  0.369707  1
  Ho  Ho5  1  0.000000  0.057158  0.630293  1
  Er  Er6  1  0.000000  0.442846  0.130245  1
  Er  Er7  1  0.000000  0.557154  0.869755  1
  Re  Re8  1  0.000000  0.638769  0.319492  1
  Re  Re9  1  0.000000  0.361231  0.680508  1
  Re  Re10  1  0.000000  0.139214  0.180268  1
  Re  Re11  1  0.000000  0.860786  0.819732  1
  B  B12  1  0.500000  0.554277  0.431277  1
  B  B13  1  0.500000  0.445723  0.568723  1
  B  B14  1  0.500000  0.054334  0.068698  1
  B  B15  1  0.500000  0.945666  0.931302  1
  B  B16  1  0.500000  0.749613  0.416636  1
  B  B17  1  0.500000  0.250387  0.583364  1
  B  B18  1  0.500000  0.249913  0.083351  1
  B  B19  1  0.500000  0.750087  0.916649  1
  B  B20  1  0.500000  0.791471  0.265647  1
  B  B21  1  0.500000  0.208529  0.734353  1
  B  B22  1  0.500000  0.291759  0.234266  1
  B  B23  1  0.500000  0.708241  0.765734  1
  B  B24  1  0.500000  0.629610  0.185726  1
  B  B25  1  0.500000  0.370390  0.814274  1
  B  B26  1  0.500000  0.129877  0.314097  1
  B  B27  1  0.500000  0.870123  0.685903  1
  B  B28  1  0.500000  0.983076  0.212770  1
  B  B29  1  0.500000  0.016924  0.787230  1
  B  B30  1  0.500000  0.482906  0.287052  1
  B  B31  1  0.500000  0.517094  0.712948  1
  B  B32  1  0.500000  0.597093  0.026903  1
  B  B33  1  0.500000  0.402907  0.973097  1
  B  B34  1  0.500000  0.097384  0.473028  1
  B  B35  1  0.500000  0.902616  0.526972  1
