# generated using pymatgen
data_Tb16MgCd3Ru3Pt
_symmetry_space_group_name_H-M   'P 1'
_cell_length_a   9.70676508
_cell_length_b   9.74002368
_cell_length_c   9.74002513
_cell_angle_alpha   59.63717627
_cell_angle_beta   59.50021241
_cell_angle_gamma   59.50020867
_symmetry_Int_Tables_number   1
_chemical_formula_structural   Tb16MgCd3Ru3Pt
_chemical_formula_sum   'Tb16 Mg1 Cd3 Ru3 Pt1'
_cell_volume   644.42202845
_cell_formula_units_Z   1
loop_
 _symmetry_equiv_pos_site_id
 _symmetry_equiv_pos_as_xyz
  1  'x, y, z'
loop_
 _atom_site_type_symbol
 _atom_site_label
 _atom_site_symmetry_multiplicity
 _atom_site_fract_x
 _atom_site_fract_y
 _atom_site_fract_z
 _atom_site_occupancy
  Tb  Tb0  1  0.345224  0.350878  0.350878  1
  Tb  Tb1  1  0.344569  0.349951  0.957870  1
  Tb  Tb2  1  0.344569  0.957870  0.349951  1
  Tb  Tb3  1  0.965093  0.344852  0.344852  1
  Tb  Tb4  1  0.814494  0.189699  0.189699  1
  Tb  Tb5  1  0.185624  0.811957  0.811957  1
  Tb  Tb6  1  0.188355  0.810825  0.188964  1
  Tb  Tb7  1  0.815801  0.188168  0.806355  1
  Tb  Tb8  1  0.188355  0.188964  0.810825  1
  Tb  Tb9  1  0.815801  0.806355  0.188168  1
  Tb  Tb10  1  0.937193  0.562508  0.562508  1
  Tb  Tb11  1  0.557913  0.938262  0.938262  1
  Tb  Tb12  1  0.558127  0.938792  0.566081  1
  Tb  Tb13  1  0.937151  0.561971  0.938732  1
  Tb  Tb14  1  0.558127  0.566081  0.938792  1
  Tb  Tb15  1  0.937151  0.938732  0.561971  1
  Mg  Mg16  1  0.575992  0.575166  0.575166  1
  Cd  Cd17  1  0.581525  0.580585  0.256608  1
  Cd  Cd18  1  0.581525  0.256608  0.580585  1
  Cd  Cd19  1  0.255188  0.581179  0.581179  1
  Ru  Ru20  1  0.144751  0.138238  0.138238  1
  Ru  Ru21  1  0.145768  0.139799  0.579426  1
  Ru  Ru22  1  0.145768  0.579426  0.139799  1
  Pt  Pt23  1  0.575934  0.143135  0.143135  1
