# generated using pymatgen
data_Y7Ho(Si4W3)4
_symmetry_space_group_name_H-M   'P 1'
_cell_length_a   6.78158655
_cell_length_b   6.94902800
_cell_length_c   12.91786026
_cell_angle_alpha   90.00991135
_cell_angle_beta   90.00096151
_cell_angle_gamma   90.01786213
_symmetry_Int_Tables_number   1
_chemical_formula_structural   Y7Ho(Si4W3)4
_chemical_formula_sum   'Y7 Ho1 Si16 W12'
_cell_volume   608.75974257
_cell_formula_units_Z   1
loop_
 _symmetry_equiv_pos_site_id
 _symmetry_equiv_pos_as_xyz
  1  'x, y, z'
loop_
 _atom_site_type_symbol
 _atom_site_label
 _atom_site_symmetry_multiplicity
 _atom_site_fract_x
 _atom_site_fract_y
 _atom_site_fract_z
 _atom_site_occupancy
  Y  Y0  1  0.495859  0.667463  0.593478  1
  Y  Y1  1  0.996178  0.832616  0.906530  1
  Y  Y2  1  0.504319  0.332525  0.093576  1
  Y  Y3  1  0.003941  0.167499  0.406837  1
  Y  Y4  1  0.503836  0.332470  0.406811  1
  Y  Y5  1  0.003936  0.167720  0.093559  1
  Y  Y6  1  0.495803  0.667514  0.906198  1
  Ho  Ho7  1  0.995301  0.831968  0.593508  1
  Si  Si8  1  0.661232  0.957344  0.453162  1
  Si  Si9  1  0.161215  0.542635  0.047268  1
  Si  Si10  1  0.339314  0.042918  0.952557  1
  Si  Si11  1  0.839068  0.457650  0.547376  1
  Si  Si12  1  0.337950  0.041989  0.547253  1
  Si  Si13  1  0.839062  0.457445  0.952548  1
  Si  Si14  1  0.661082  0.957144  0.047233  1
  Si  Si15  1  0.160931  0.543121  0.453040  1
  Si  Si16  1  0.463929  0.369201  0.749903  1
  Si  Si17  1  0.964307  0.129757  0.749484  1
  Si  Si18  1  0.536193  0.630646  0.250084  1
  Si  Si19  1  0.036027  0.869814  0.250117  1
  Si  Si20  1  0.697268  0.867271  0.749749  1
  Si  Si21  1  0.196218  0.632806  0.749530  1
  Si  Si22  1  0.303104  0.132774  0.250150  1
  Si  Si23  1  0.803232  0.367725  0.250352  1
  W  W24  1  0.668310  0.162700  0.625655  1
  W  W25  1  0.167889  0.336645  0.874001  1
  W  W26  1  0.331817  0.837119  0.125608  1
  W  W27  1  0.831928  0.663607  0.374768  1
  W  W28  1  0.331760  0.836833  0.374399  1
  W  W29  1  0.832171  0.663278  0.125830  1
  W  W30  1  0.668707  0.163005  0.874223  1
  W  W31  1  0.168284  0.336790  0.625490  1
  W  W32  1  0.833673  0.498986  0.749671  1
  W  W33  1  0.333607  0.000707  0.749610  1
  W  W34  1  0.166411  0.501428  0.250169  1
  W  W35  1  0.666137  0.998887  0.250270  1
