# generated using pymatgen
data_NdSmFe3Co9P7
_symmetry_space_group_name_H-M   'P 1'
_cell_length_a   9.06367500
_cell_length_b   9.06367506
_cell_length_c   3.65073000
_cell_angle_alpha   90.00000000
_cell_angle_beta   90.00000000
_cell_angle_gamma   120.00000442
_symmetry_Int_Tables_number   1
_chemical_formula_structural   NdSmFe3Co9P7
_chemical_formula_sum   'Nd1 Sm1 Fe3 Co9 P7'
_cell_volume   259.72812396
_cell_formula_units_Z   1
loop_
 _symmetry_equiv_pos_site_id
 _symmetry_equiv_pos_as_xyz
  1  'x, y, z'
loop_
 _atom_site_type_symbol
 _atom_site_label
 _atom_site_symmetry_multiplicity
 _atom_site_fract_x
 _atom_site_fract_y
 _atom_site_fract_z
 _atom_site_occupancy
  Nd  Nd0  1  0.333333  0.666667  0.000000  1
  Sm  Sm1  1  0.666667  0.333333  0.500000  1
  Fe  Fe2  1  0.215448  0.121051  0.500000  1
  Fe  Fe3  1  0.878949  0.094398  0.500000  1
  Fe  Fe4  1  0.905602  0.784552  0.500000  1
  Co  Co5  1  0.429602  0.370012  0.000000  1
  Co  Co6  1  0.629988  0.059591  0.000000  1
  Co  Co7  1  0.940409  0.570398  0.000000  1
  Co  Co8  1  0.154910  0.882801  0.000000  1
  Co  Co9  1  0.117199  0.272109  0.000000  1
  Co  Co10  1  0.727891  0.845090  0.000000  1
  Co  Co11  1  0.383918  0.952883  0.500000  1
  Co  Co12  1  0.047117  0.431033  0.500000  1
  Co  Co13  1  0.568967  0.616082  0.500000  1
  P  P14  1  0.407112  0.109743  0.000000  1
  P  P15  1  0.890257  0.297370  0.000000  1
  P  P16  1  0.702630  0.592888  0.000000  1
  P  P17  1  0.106912  0.709780  0.500000  1
  P  P18  1  0.290220  0.397130  0.500000  1
  P  P19  1  0.602870  0.893088  0.500000  1
  P  P20  1  0.000000  0.000000  0.000000  1
