# generated using pymatgen
data_Th6Al24Fe5Tc3
_symmetry_space_group_name_H-M   'P 1'
_cell_length_a   8.93484700
_cell_length_b   8.93484733
_cell_length_c   9.52218500
_cell_angle_alpha   90.00000000
_cell_angle_beta   90.00000000
_cell_angle_gamma   120.00000987
_symmetry_Int_Tables_number   1
_chemical_formula_structural   Th6Al24Fe5Tc3
_chemical_formula_sum   'Th6 Al24 Fe5 Tc3'
_cell_volume   658.32668540
_cell_formula_units_Z   1
loop_
 _symmetry_equiv_pos_site_id
 _symmetry_equiv_pos_as_xyz
  1  'x, y, z'
loop_
 _atom_site_type_symbol
 _atom_site_label
 _atom_site_symmetry_multiplicity
 _atom_site_fract_x
 _atom_site_fract_y
 _atom_site_fract_z
 _atom_site_occupancy
  Th  Th0  1  0.804315  0.195685  0.749632  1
  Th  Th1  1  0.195685  0.804315  0.250368  1
  Th  Th2  1  0.391370  0.195685  0.749632  1
  Th  Th3  1  0.608630  0.804315  0.250368  1
  Th  Th4  1  0.804315  0.608630  0.749632  1
  Th  Th5  1  0.195685  0.391370  0.250368  1
  Al  Al6  1  0.666667  0.333333  0.003863  1
  Al  Al7  1  0.333333  0.666667  0.996137  1
  Al  Al8  1  0.333333  0.666667  0.494659  1
  Al  Al9  1  0.666667  0.333333  0.505341  1
  Al  Al10  1  0.839655  0.160345  0.425091  1
  Al  Al11  1  0.160345  0.839655  0.574909  1
  Al  Al12  1  0.320691  0.160345  0.425091  1
  Al  Al13  1  0.159153  0.840847  0.921231  1
  Al  Al14  1  0.679309  0.839655  0.574909  1
  Al  Al15  1  0.840847  0.159153  0.078769  1
  Al  Al16  1  0.839655  0.679309  0.425091  1
  Al  Al17  1  0.681694  0.840847  0.921231  1
  Al  Al18  1  0.160345  0.320691  0.574909  1
  Al  Al19  1  0.318306  0.159153  0.078769  1
  Al  Al20  1  0.159153  0.318306  0.921231  1
  Al  Al21  1  0.840847  0.681694  0.078769  1
  Al  Al22  1  0.437797  0.562203  0.742779  1
  Al  Al23  1  0.562203  0.437797  0.257221  1
  Al  Al24  1  0.124406  0.562203  0.742779  1
  Al  Al25  1  0.875594  0.437797  0.257221  1
  Al  Al26  1  0.437797  0.875594  0.742779  1
  Al  Al27  1  0.562203  0.124406  0.257221  1
  Al  Al28  1  0.000000  0.000000  0.749704  1
  Al  Al29  1  0.000000  0.000000  0.250296  1
  Fe  Fe30  1  0.500000  0.500000  0.500000  1
  Fe  Fe31  1  0.000000  0.500000  0.500000  1
  Fe  Fe32  1  0.500000  0.000000  0.500000  1
  Fe  Fe33  1  0.000000  0.000000  0.000000  1
  Fe  Fe34  1  0.000000  0.000000  0.500000  1
  Tc  Tc35  1  0.500000  0.500000  0.000000  1
  Tc  Tc36  1  0.000000  0.500000  0.000000  1
  Tc  Tc37  1  0.500000  0.000000  0.000000  1
