# generated using pymatgen
data_Al3V13
_symmetry_space_group_name_H-M   'P 1'
_cell_length_a   4.85290000
_cell_length_b   4.75936200
_cell_length_c   9.55574100
_cell_angle_alpha   90.00000000
_cell_angle_beta   90.00000000
_cell_angle_gamma   90.00000000
_symmetry_Int_Tables_number   1
_chemical_formula_structural   Al3V13
_chemical_formula_sum   'Al3 V13'
_cell_volume   220.70615817
_cell_formula_units_Z   1
loop_
 _symmetry_equiv_pos_site_id
 _symmetry_equiv_pos_as_xyz
  1  'x, y, z'
loop_
 _atom_site_type_symbol
 _atom_site_label
 _atom_site_symmetry_multiplicity
 _atom_site_fract_x
 _atom_site_fract_y
 _atom_site_fract_z
 _atom_site_occupancy
  Al  Al0  1  0.500000  0.500000  0.000000  1
  Al  Al1  1  0.000000  0.000000  0.249607  1
  Al  Al2  1  0.000000  0.000000  0.750393  1
  V  V3  1  0.500000  0.500000  0.500000  1
  V  V4  1  0.500000  0.000000  0.625026  1
  V  V5  1  0.500000  0.000000  0.126350  1
  V  V6  1  0.744188  0.500000  0.253875  1
  V  V7  1  0.744188  0.500000  0.746125  1
  V  V8  1  0.000000  0.743272  0.500000  1
  V  V9  1  0.000000  0.742630  0.000000  1
  V  V10  1  0.500000  0.000000  0.374974  1
  V  V11  1  0.500000  0.000000  0.873650  1
  V  V12  1  0.255812  0.500000  0.253875  1
  V  V13  1  0.255812  0.500000  0.746125  1
  V  V14  1  0.000000  0.256728  0.500000  1
  V  V15  1  0.000000  0.257370  0.000000  1
