# generated using pymatgen
data_Y19Ho(Bi2Sb)4
_symmetry_space_group_name_H-M   'P 1'
_cell_length_a   8.20989607
_cell_length_b   9.48094800
_cell_length_c   12.05369710
_cell_angle_alpha   90.00000000
_cell_angle_beta   90.01478688
_cell_angle_gamma   90.00000000
_symmetry_Int_Tables_number   1
_chemical_formula_structural   Y19Ho(Bi2Sb)4
_chemical_formula_sum   'Y19 Ho1 Bi8 Sb4'
_cell_volume   938.23079456
_cell_formula_units_Z   1
loop_
 _symmetry_equiv_pos_site_id
 _symmetry_equiv_pos_as_xyz
  1  'x, y, z'
loop_
 _atom_site_type_symbol
 _atom_site_label
 _atom_site_symmetry_multiplicity
 _atom_site_fract_x
 _atom_site_fract_y
 _atom_site_fract_z
 _atom_site_occupancy
  Y  Y0  1  0.529602  0.750000  0.511586  1
  Y  Y1  1  0.970476  0.250000  0.011657  1
  Y  Y2  1  0.470492  0.250000  0.488372  1
  Y  Y3  1  0.182649  0.750000  0.718554  1
  Y  Y4  1  0.683151  0.750000  0.782137  1
  Y  Y5  1  0.817125  0.250000  0.281845  1
  Y  Y6  1  0.317136  0.250000  0.218110  1
  Y  Y7  1  0.309827  0.439284  0.941382  1
  Y  Y8  1  0.810007  0.060923  0.558630  1
  Y  Y9  1  0.690633  0.938837  0.058506  1
  Y  Y10  1  0.189988  0.560859  0.441342  1
  Y  Y11  1  0.690633  0.561163  0.058506  1
  Y  Y12  1  0.189988  0.939141  0.441342  1
  Y  Y13  1  0.309827  0.060716  0.941382  1
  Y  Y14  1  0.810007  0.439077  0.558630  1
  Y  Y15  1  0.353653  0.750000  0.212609  1
  Y  Y16  1  0.854020  0.750000  0.287044  1
  Y  Y17  1  0.646178  0.250000  0.787359  1
  Y  Y18  1  0.146124  0.250000  0.712695  1
  Ho  Ho19  1  0.028638  0.750000  0.988427  1
  Bi  Bi20  1  0.433496  0.003887  0.673809  1
  Bi  Bi21  1  0.933875  0.496647  0.826548  1
  Bi  Bi22  1  0.566446  0.503893  0.326177  1
  Bi  Bi23  1  0.066520  0.995802  0.173412  1
  Bi  Bi24  1  0.566446  0.996107  0.326177  1
  Bi  Bi25  1  0.066520  0.504198  0.173412  1
  Bi  Bi26  1  0.433496  0.496113  0.673809  1
  Bi  Bi27  1  0.933875  0.003353  0.826548  1
  Sb  Sb28  1  0.409644  0.750000  0.959242  1
  Sb  Sb29  1  0.910371  0.750000  0.540780  1
  Sb  Sb30  1  0.589571  0.250000  0.040777  1
  Sb  Sb31  1  0.089584  0.250000  0.459195  1
