# generated using pymatgen
data_Dy3MgIn2Ga2Pt
_symmetry_space_group_name_H-M   'P 1'
_cell_length_a   7.23551802
_cell_length_b   7.23551861
_cell_length_c   4.45183700
_cell_angle_alpha   90.00000000
_cell_angle_beta   90.00000000
_cell_angle_gamma   120.31888837
_symmetry_Int_Tables_number   1
_chemical_formula_structural   Dy3MgIn2Ga2Pt
_chemical_formula_sum   'Dy3 Mg1 In2 Ga2 Pt1'
_cell_volume   201.18919862
_cell_formula_units_Z   1
loop_
 _symmetry_equiv_pos_site_id
 _symmetry_equiv_pos_as_xyz
  1  'x, y, z'
loop_
 _atom_site_type_symbol
 _atom_site_label
 _atom_site_symmetry_multiplicity
 _atom_site_fract_x
 _atom_site_fract_y
 _atom_site_fract_z
 _atom_site_occupancy
  Dy  Dy0  1  0.590544  0.999225  0.500000  1
  Dy  Dy1  1  0.409465  0.409465  0.500000  1
  Dy  Dy2  1  0.999225  0.590544  0.500000  1
  Mg  Mg3  1  0.762178  0.762178  0.000000  1
  In  In4  1  0.996269  0.245097  0.000000  1
  In  In5  1  0.245097  0.996269  0.000000  1
  Ga  Ga6  1  0.337729  0.665461  0.000000  1
  Ga  Ga7  1  0.665461  0.337729  0.000000  1
  Pt  Pt8  1  0.994032  0.994032  0.500000  1
