# generated using pymatgen
data_Cs3Pu(PS4)2
_symmetry_space_group_name_H-M   'P 1'
_cell_length_a   15.53444581
_cell_length_b   6.97618700
_cell_length_c   15.62503800
_cell_angle_alpha   90.00000000
_cell_angle_beta   99.64320751
_cell_angle_gamma   90.00000000
_symmetry_Int_Tables_number   1
_chemical_formula_structural   Cs3Pu(PS4)2
_chemical_formula_sum   'Cs12 Pu4 P8 S32'
_cell_volume   1669.37770427
_cell_formula_units_Z   4
loop_
 _symmetry_equiv_pos_site_id
 _symmetry_equiv_pos_as_xyz
  1  'x, y, z'
loop_
 _atom_site_type_symbol
 _atom_site_label
 _atom_site_symmetry_multiplicity
 _atom_site_fract_x
 _atom_site_fract_y
 _atom_site_fract_z
 _atom_site_occupancy
  Cs  Cs0  1  0.608272  0.755085  0.025534  1
  Cs  Cs1  1  0.047115  0.246935  0.110220  1
  Cs  Cs2  1  0.276582  0.741119  0.120539  1
  Cs  Cs3  1  0.223418  0.241118  0.379461  1
  Cs  Cs4  1  0.452885  0.746935  0.389780  1
  Cs  Cs5  1  0.891729  0.255085  0.474466  1
  Cs  Cs6  1  0.108272  0.744915  0.525535  1
  Cs  Cs7  1  0.547114  0.253065  0.610219  1
  Cs  Cs8  1  0.776582  0.758881  0.620539  1
  Cs  Cs9  1  0.723418  0.258881  0.879461  1
  Cs  Cs10  1  0.952885  0.753066  0.889781  1
  Cs  Cs11  1  0.391728  0.244916  0.974465  1
  Pu  Pu12  1  0.877899  0.765478  0.228373  1
  Pu  Pu13  1  0.622101  0.265477  0.271627  1
  Pu  Pu14  1  0.377899  0.734523  0.728373  1
  Pu  Pu15  1  0.122101  0.234522  0.771627  1
  P  P16  1  0.782094  0.223211  0.128508  1
  P  P17  1  0.417569  0.246820  0.224000  1
  P  P18  1  0.082431  0.746820  0.276000  1
  P  P19  1  0.717906  0.723210  0.371492  1
  P  P20  1  0.282094  0.276789  0.628507  1
  P  P21  1  0.917569  0.253179  0.724000  1
  P  P22  1  0.582431  0.753180  0.776000  1
  P  P23  1  0.217906  0.776790  0.871492  1
  S  S24  1  0.832706  0.992458  0.070968  1
  S  S25  1  0.649151  0.250555  0.092779  1
  S  S26  1  0.839740  0.472719  0.095723  1
  S  S27  1  0.048283  0.751456  0.142990  1
  S  S28  1  0.288815  0.239970  0.174289  1
  S  S29  1  0.477858  0.486140  0.182146  1
  S  S30  1  0.483401  0.011486  0.187921  1
  S  S31  1  0.697717  0.654814  0.241358  1
  S  S32  1  0.802283  0.154815  0.258642  1
  S  S33  1  0.016600  0.511487  0.312079  1
  S  S34  1  0.022142  0.986139  0.317853  1
  S  S35  1  0.211186  0.739971  0.325712  1
  S  S36  1  0.451717  0.251456  0.357010  1
  S  S37  1  0.660260  0.972719  0.404277  1
  S  S38  1  0.850848  0.750554  0.407222  1
  S  S39  1  0.667294  0.492457  0.429031  1
  S  S40  1  0.332706  0.507542  0.570968  1
  S  S41  1  0.149152  0.249446  0.592779  1
  S  S42  1  0.339740  0.027280  0.595723  1
  S  S43  1  0.548283  0.748544  0.642990  1
  S  S44  1  0.788815  0.260029  0.674288  1
  S  S45  1  0.977858  0.013860  0.682146  1
  S  S46  1  0.983400  0.488514  0.687921  1
  S  S47  1  0.197717  0.845186  0.741358  1
  S  S48  1  0.302283  0.345185  0.758643  1
  S  S49  1  0.516600  0.988515  0.812079  1
  S  S50  1  0.522142  0.513861  0.817854  1
  S  S51  1  0.711185  0.760029  0.825712  1
  S  S52  1  0.951717  0.248544  0.857010  1
  S  S53  1  0.160260  0.527281  0.904278  1
  S  S54  1  0.350849  0.749446  0.907221  1
  S  S55  1  0.167294  0.007542  0.929031  1
