# generated using pymatgen
data_Pu8Co(Si4Ir)3
_symmetry_space_group_name_H-M   'P 1'
_cell_length_a   8.03198700
_cell_length_b   8.03198794
_cell_length_c   8.32793900
_cell_angle_alpha   90.00000000
_cell_angle_beta   90.00000000
_cell_angle_gamma   120.00000850
_symmetry_Int_Tables_number   1
_chemical_formula_structural   Pu8Co(Si4Ir)3
_chemical_formula_sum   'Pu8 Co1 Si12 Ir3'
_cell_volume   465.27977445
_cell_formula_units_Z   1
loop_
 _symmetry_equiv_pos_site_id
 _symmetry_equiv_pos_as_xyz
  1  'x, y, z'
loop_
 _atom_site_type_symbol
 _atom_site_label
 _atom_site_symmetry_multiplicity
 _atom_site_fract_x
 _atom_site_fract_y
 _atom_site_fract_z
 _atom_site_occupancy
  Pu  Pu0  1  0.499958  0.500042  0.749320  1
  Pu  Pu1  1  0.500596  0.499404  0.250395  1
  Pu  Pu2  1  0.000083  0.500042  0.749320  1
  Pu  Pu3  1  0.998809  0.499404  0.250395  1
  Pu  Pu4  1  0.499958  0.999917  0.749320  1
  Pu  Pu5  1  0.500596  0.001191  0.250395  1
  Pu  Pu6  1  0.000000  0.000000  0.748841  1
  Pu  Pu7  1  0.000000  0.000000  0.251342  1
  Co  Co8  1  0.666667  0.333333  0.503714  1
  Si  Si9  1  0.835050  0.164950  0.001647  1
  Si  Si10  1  0.165172  0.834828  0.999946  1
  Si  Si11  1  0.329899  0.164950  0.001647  1
  Si  Si12  1  0.163586  0.836414  0.499697  1
  Si  Si13  1  0.669656  0.834828  0.999946  1
  Si  Si14  1  0.828737  0.171263  0.498551  1
  Si  Si15  1  0.835050  0.670101  0.001647  1
  Si  Si16  1  0.672829  0.836414  0.499697  1
  Si  Si17  1  0.165172  0.330344  0.999946  1
  Si  Si18  1  0.342524  0.171263  0.498551  1
  Si  Si19  1  0.163586  0.327171  0.499697  1
  Si  Si20  1  0.828737  0.657476  0.498551  1
  Ir  Ir21  1  0.666667  0.333333  0.997802  1
  Ir  Ir22  1  0.333333  0.666667  0.002535  1
  Ir  Ir23  1  0.333333  0.666667  0.497093  1
