# generated using pymatgen
data_Ba3V2(SeS)4
_symmetry_space_group_name_H-M   'P 1'
_cell_length_a   11.41030721
_cell_length_b   11.41030653
_cell_length_c   11.44213408
_cell_angle_alpha   51.42353874
_cell_angle_beta   51.42353866
_cell_angle_gamma   51.54456480
_symmetry_Int_Tables_number   1
_chemical_formula_structural   Ba3V2(SeS)4
_chemical_formula_sum   'Ba6 V4 Se8 S8'
_cell_volume   841.66380145
_cell_formula_units_Z   2
loop_
 _symmetry_equiv_pos_site_id
 _symmetry_equiv_pos_as_xyz
  1  'x, y, z'
loop_
 _atom_site_type_symbol
 _atom_site_label
 _atom_site_symmetry_multiplicity
 _atom_site_fract_x
 _atom_site_fract_y
 _atom_site_fract_z
 _atom_site_occupancy
  Ba  Ba0  1  0.753955  0.431982  0.059223  1
  Ba  Ba1  1  0.579252  0.920747  0.250000  1
  Ba  Ba2  1  0.068017  0.746045  0.440777  1
  Ba  Ba3  1  0.929437  0.247335  0.578015  1
  Ba  Ba4  1  0.437601  0.062400  0.749999  1
  Ba  Ba5  1  0.252665  0.570563  0.921985  1
  V  V6  1  0.162837  0.162031  0.158065  1
  V  V7  1  0.337969  0.337163  0.341935  1
  V  V8  1  0.659186  0.658156  0.662451  1
  V  V9  1  0.841844  0.840814  0.837549  1
  Se  Se10  1  0.609954  0.789925  0.039186  1
  Se  Se11  1  0.084456  0.079759  0.084003  1
  Se  Se12  1  0.539205  0.286338  0.110932  1
  Se  Se13  1  0.958262  0.389505  0.212228  1
  Se  Se14  1  0.110494  0.541738  0.287773  1
  Se  Se15  1  0.213662  0.960797  0.389067  1
  Se  Se16  1  0.420240  0.415543  0.415996  1
  Se  Se17  1  0.710075  0.890047  0.460813  1
  S  S18  1  0.286115  0.124448  0.535376  1
  S  S19  1  0.588227  0.584504  0.586903  1
  S  S20  1  0.791020  0.032459  0.624232  1
  S  S21  1  0.876073  0.469133  0.709817  1
  S  S22  1  0.030867  0.623928  0.790183  1
  S  S23  1  0.467541  0.708980  0.875769  1
  S  S24  1  0.915496  0.911773  0.913097  1
  S  S25  1  0.375552  0.213885  0.964625  1
