# generated using pymatgen
data_DyLu5(ThSn2)4
_symmetry_space_group_name_H-M   'P 1'
_cell_length_a   8.07722100
_cell_length_b   8.15227201
_cell_length_c   15.40261702
_cell_angle_alpha   89.99447777
_cell_angle_beta   90.00000000
_cell_angle_gamma   90.00000000
_symmetry_Int_Tables_number   1
_chemical_formula_structural   DyLu5(ThSn2)4
_chemical_formula_sum   'Dy2 Lu10 Th8 Sn16'
_cell_volume   1014.22694106
_cell_formula_units_Z   2
loop_
 _symmetry_equiv_pos_site_id
 _symmetry_equiv_pos_as_xyz
  1  'x, y, z'
loop_
 _atom_site_type_symbol
 _atom_site_label
 _atom_site_symmetry_multiplicity
 _atom_site_fract_x
 _atom_site_fract_y
 _atom_site_fract_z
 _atom_site_occupancy
  Dy  Dy0  1  0.362044  0.837740  0.875940  1
  Dy  Dy1  1  0.862044  0.662260  0.624060  1
  Lu  Lu2  1  0.638034  0.162189  0.375315  1
  Lu  Lu3  1  0.138034  0.337811  0.124685  1
  Lu  Lu4  1  0.638015  0.162088  0.124455  1
  Lu  Lu5  1  0.138015  0.337912  0.375545  1
  Lu  Lu6  1  0.361786  0.837838  0.624366  1
  Lu  Lu7  1  0.861786  0.662162  0.875634  1
  Lu  Lu8  1  0.191740  0.498957  0.750027  1
  Lu  Lu9  1  0.691740  0.001043  0.749973  1
  Lu  Lu10  1  0.808425  0.500413  0.249959  1
  Lu  Lu11  1  0.308425  0.999587  0.250041  1
  Th  Th12  1  0.519752  0.321175  0.904434  1
  Th  Th13  1  0.019752  0.178825  0.595566  1
  Th  Th14  1  0.480179  0.678728  0.404284  1
  Th  Th15  1  0.980179  0.821272  0.095716  1
  Th  Th16  1  0.480207  0.678588  0.096062  1
  Th  Th17  1  0.980207  0.821412  0.403938  1
  Th  Th18  1  0.519950  0.321149  0.595538  1
  Th  Th19  1  0.019950  0.178851  0.904462  1
  Sn  Sn20  1  0.299562  0.041963  0.043315  1
  Sn  Sn21  1  0.799562  0.458037  0.456685  1
  Sn  Sn22  1  0.699309  0.960119  0.542247  1
  Sn  Sn23  1  0.199309  0.539881  0.957753  1
  Sn  Sn24  1  0.701551  0.959279  0.957691  1
  Sn  Sn25  1  0.201551  0.540721  0.542309  1
  Sn  Sn26  1  0.299900  0.041249  0.457377  1
  Sn  Sn27  1  0.799900  0.458751  0.042623  1
  Sn  Sn28  1  0.557235  0.623646  0.749840  1
  Sn  Sn29  1  0.057235  0.876354  0.750160  1
  Sn  Sn30  1  0.442678  0.375255  0.249974  1
  Sn  Sn31  1  0.942678  0.124745  0.250026  1
  Sn  Sn32  1  0.326971  0.143977  0.749644  1
  Sn  Sn33  1  0.826971  0.356023  0.750356  1
  Sn  Sn34  1  0.672662  0.856788  0.250028  1
  Sn  Sn35  1  0.172662  0.643212  0.249972  1
