# generated using pymatgen
data_SrHoLuSe4
_symmetry_space_group_name_H-M   'P 1'
_cell_length_a   4.10704900
_cell_length_b   12.64639000
_cell_length_c   14.87325800
_cell_angle_alpha   90.00000000
_cell_angle_beta   90.00000000
_cell_angle_gamma   90.00000000
_symmetry_Int_Tables_number   1
_chemical_formula_structural   SrHoLuSe4
_chemical_formula_sum   'Sr4 Ho4 Lu4 Se16'
_cell_volume   772.50725479
_cell_formula_units_Z   4
loop_
 _symmetry_equiv_pos_site_id
 _symmetry_equiv_pos_as_xyz
  1  'x, y, z'
loop_
 _atom_site_type_symbol
 _atom_site_label
 _atom_site_symmetry_multiplicity
 _atom_site_fract_x
 _atom_site_fract_y
 _atom_site_fract_z
 _atom_site_occupancy
  Sr  Sr0  1  0.250000  0.760005  0.333889  1
  Sr  Sr1  1  0.250000  0.260005  0.166111  1
  Sr  Sr2  1  0.750000  0.239995  0.666111  1
  Sr  Sr3  1  0.750000  0.739995  0.833889  1
  Ho  Ho4  1  0.250000  0.438800  0.388843  1
  Ho  Ho5  1  0.250000  0.938800  0.111157  1
  Ho  Ho6  1  0.750000  0.561200  0.611157  1
  Ho  Ho7  1  0.750000  0.061200  0.888843  1
  Lu  Lu8  1  0.250000  0.417687  0.903026  1
  Lu  Lu9  1  0.250000  0.917687  0.596974  1
  Lu  Lu10  1  0.750000  0.582313  0.096974  1
  Lu  Lu11  1  0.750000  0.082313  0.403026  1
  Se  Se12  1  0.250000  0.206754  0.830579  1
  Se  Se13  1  0.250000  0.706754  0.669421  1
  Se  Se14  1  0.750000  0.793246  0.169421  1
  Se  Se15  1  0.750000  0.293246  0.330579  1
  Se  Se16  1  0.250000  0.126395  0.529484  1
  Se  Se17  1  0.250000  0.626395  0.970516  1
  Se  Se18  1  0.750000  0.873605  0.470516  1
  Se  Se19  1  0.750000  0.373605  0.029484  1
  Se  Se20  1  0.250000  0.028936  0.286353  1
  Se  Se21  1  0.250000  0.528936  0.213647  1
  Se  Se22  1  0.750000  0.971064  0.713647  1
  Se  Se23  1  0.750000  0.471064  0.786353  1
  Se  Se24  1  0.250000  0.408987  0.577199  1
  Se  Se25  1  0.250000  0.908987  0.922801  1
  Se  Se26  1  0.750000  0.591013  0.422801  1
  Se  Se27  1  0.750000  0.091013  0.077199  1
