# generated using pymatgen
data_Ho8Ga(Si5Mo4)3
_symmetry_space_group_name_H-M   'P 1'
_cell_length_a   6.76633497
_cell_length_b   6.93479206
_cell_length_c   12.96035156
_cell_angle_alpha   90.12447887
_cell_angle_beta   89.96450416
_cell_angle_gamma   90.08393578
_symmetry_Int_Tables_number   1
_chemical_formula_structural   Ho8Ga(Si5Mo4)3
_chemical_formula_sum   'Ho8 Ga1 Si15 Mo12'
_cell_volume   608.13800662
_cell_formula_units_Z   1
loop_
 _symmetry_equiv_pos_site_id
 _symmetry_equiv_pos_as_xyz
  1  'x, y, z'
loop_
 _atom_site_type_symbol
 _atom_site_label
 _atom_site_symmetry_multiplicity
 _atom_site_fract_x
 _atom_site_fract_y
 _atom_site_fract_z
 _atom_site_occupancy
  Ho  Ho0  1  0.996607  0.168650  0.094059  1
  Ho  Ho1  1  0.003491  0.832071  0.906456  1
  Ho  Ho2  1  0.502733  0.667915  0.906292  1
  Ho  Ho3  1  0.004615  0.832403  0.593693  1
  Ho  Ho4  1  0.496113  0.332178  0.093835  1
  Ho  Ho5  1  0.995222  0.167414  0.405365  1
  Ho  Ho6  1  0.498141  0.332309  0.405015  1
  Ho  Ho7  1  0.507151  0.668429  0.594455  1
  Ga  Ga8  1  0.166193  0.456847  0.545538  1
  Si  Si9  1  0.035262  0.134480  0.749138  1
  Si  Si10  1  0.963737  0.868238  0.248377  1
  Si  Si11  1  0.464687  0.634206  0.249468  1
  Si  Si12  1  0.532796  0.366628  0.750669  1
  Si  Si13  1  0.303237  0.867356  0.750527  1
  Si  Si14  1  0.696380  0.130338  0.249610  1
  Si  Si15  1  0.196372  0.370823  0.250225  1
  Si  Si16  1  0.805316  0.630324  0.750143  1
  Si  Si17  1  0.839587  0.543693  0.453049  1
  Si  Si18  1  0.339446  0.957626  0.453673  1
  Si  Si19  1  0.839010  0.542624  0.046416  1
  Si  Si20  1  0.661245  0.042190  0.546507  1
  Si  Si21  1  0.160442  0.456495  0.954183  1
  Si  Si22  1  0.660080  0.041819  0.953301  1
  Si  Si23  1  0.338784  0.957514  0.046901  1
  Mo  Mo24  1  0.165350  0.498235  0.753301  1
  Mo  Mo25  1  0.833751  0.501051  0.249476  1
  Mo  Mo26  1  0.332723  0.001649  0.249390  1
  Mo  Mo27  1  0.668102  0.998910  0.750667  1
  Mo  Mo28  1  0.335439  0.157733  0.628056  1
  Mo  Mo29  1  0.669374  0.835854  0.374222  1
  Mo  Mo30  1  0.167144  0.670553  0.370212  1
  Mo  Mo31  1  0.668036  0.835700  0.125385  1
  Mo  Mo32  1  0.824218  0.335524  0.626955  1
  Mo  Mo33  1  0.330671  0.163162  0.875879  1
  Mo  Mo34  1  0.829226  0.335490  0.875272  1
  Mo  Mo35  1  0.169323  0.663567  0.124293  1
