# generated using pymatgen
data_Ho7Sn23(Ru2Pt)2
_symmetry_space_group_name_H-M   'P 1'
_cell_length_a   9.87108393
_cell_length_b   9.89083443
_cell_length_c   10.07408302
_cell_angle_alpha   89.99999717
_cell_angle_beta   90.22092990
_cell_angle_gamma   120.06621184
_symmetry_Int_Tables_number   1
_chemical_formula_structural   Ho7Sn23(Ru2Pt)2
_chemical_formula_sum   'Ho7 Sn23 Ru4 Pt2'
_cell_volume   851.21541033
_cell_formula_units_Z   1
loop_
 _symmetry_equiv_pos_site_id
 _symmetry_equiv_pos_as_xyz
  1  'x, y, z'
loop_
 _atom_site_type_symbol
 _atom_site_label
 _atom_site_symmetry_multiplicity
 _atom_site_fract_x
 _atom_site_fract_y
 _atom_site_fract_z
 _atom_site_occupancy
  Ho  Ho0  1  0.995108  0.997554  0.004232  1
  Ho  Ho1  1  0.519595  0.482983  0.692608  1
  Ho  Ho2  1  0.519595  0.036611  0.692608  1
  Ho  Ho3  1  0.962779  0.481389  0.691899  1
  Ho  Ho4  1  0.032478  0.516239  0.306457  1
  Ho  Ho5  1  0.483690  0.966872  0.306153  1
  Ho  Ho6  1  0.483690  0.516819  0.306153  1
  Sn  Sn7  1  0.666024  0.333012  0.177869  1
  Sn  Sn8  1  0.665365  0.332682  0.875565  1
  Sn  Sn9  1  0.332097  0.666049  0.124422  1
  Sn  Sn10  1  0.355945  0.351047  0.003007  1
  Sn  Sn11  1  0.995742  0.645819  0.003143  1
  Sn  Sn12  1  0.650308  0.998701  0.000601  1
  Sn  Sn13  1  0.650308  0.651608  0.000601  1
  Sn  Sn14  1  0.341005  0.670503  0.825748  1
  Sn  Sn15  1  0.442833  0.221418  0.459190  1
  Sn  Sn16  1  0.221649  0.778087  0.536551  1
  Sn  Sn17  1  0.221649  0.443560  0.536551  1
  Sn  Sn18  1  0.558613  0.779305  0.539687  1
  Sn  Sn19  1  0.116917  0.882212  0.276633  1
  Sn  Sn20  1  0.779485  0.558415  0.459257  1
  Sn  Sn21  1  0.779485  0.221072  0.459257  1
  Sn  Sn22  1  0.355945  0.004898  0.003007  1
  Sn  Sn23  1  0.116917  0.234704  0.276633  1
  Sn  Sn24  1  0.765089  0.882544  0.276612  1
  Sn  Sn25  1  0.238364  0.119182  0.716221  1
  Sn  Sn26  1  0.877885  0.762543  0.718653  1
  Sn  Sn27  1  0.877885  0.115343  0.718653  1
  Sn  Sn28  1  0.000301  0.000151  0.502738  1
  Sn  Sn29  1  0.995742  0.349923  0.003143  1
  Ru  Ru30  1  0.660934  0.830467  0.800543  1
  Ru  Ru31  1  0.337239  0.168620  0.201749  1
  Ru  Ru32  1  0.829737  0.661133  0.201197  1
  Ru  Ru33  1  0.829737  0.168605  0.201197  1
  Pt  Pt34  1  0.169934  0.827589  0.800731  1
  Pt  Pt35  1  0.169934  0.342344  0.800731  1
