# generated using pymatgen
data_Mg3(ScTc12)2
_symmetry_space_group_name_H-M   'P 1'
_cell_length_a   8.35956988
_cell_length_b   8.35956971
_cell_length_c   8.35394732
_cell_angle_alpha   109.47105621
_cell_angle_beta   109.47105461
_cell_angle_gamma   109.49881334
_symmetry_Int_Tables_number   1
_chemical_formula_structural   Mg3(ScTc12)2
_chemical_formula_sum   'Mg3 Sc2 Tc24'
_cell_volume   449.25349719
_cell_formula_units_Z   1
loop_
 _symmetry_equiv_pos_site_id
 _symmetry_equiv_pos_as_xyz
  1  'x, y, z'
loop_
 _atom_site_type_symbol
 _atom_site_label
 _atom_site_symmetry_multiplicity
 _atom_site_fract_x
 _atom_site_fract_y
 _atom_site_fract_z
 _atom_site_occupancy
  Mg  Mg0  1  0.999257  0.999257  0.000000  1
  Mg  Mg1  1  0.636685  0.000145  0.000000  1
  Mg  Mg2  1  0.000145  0.636685  0.000000  1
  Sc  Sc3  1  0.000545  0.000545  0.635023  1
  Sc  Sc4  1  0.365523  0.365523  0.364977  1
  Tc  Tc5  1  0.396049  0.674146  0.000000  1
  Tc  Tc6  1  0.720498  0.324670  0.327075  1
  Tc  Tc7  1  0.393423  0.997596  0.672925  1
  Tc  Tc8  1  0.674146  0.396049  0.000000  1
  Tc  Tc9  1  0.997596  0.393423  0.672925  1
  Tc  Tc10  1  0.324670  0.720498  0.327075  1
  Tc  Tc11  1  0.323344  0.323344  0.716373  1
  Tc  Tc12  1  0.997957  0.675711  0.393468  1
  Tc  Tc13  1  0.675711  0.997957  0.393468  1
  Tc  Tc14  1  0.606972  0.606972  0.283627  1
  Tc  Tc15  1  0.282244  0.604490  0.606532  1
  Tc  Tc16  1  0.604490  0.282244  0.606532  1
  Tc  Tc17  1  0.376133  0.192340  0.000000  1
  Tc  Tc18  1  0.185398  0.807197  0.809335  1
  Tc  Tc19  1  0.376063  0.997860  0.190665  1
  Tc  Tc20  1  0.192340  0.376133  0.000000  1
  Tc  Tc21  1  0.997860  0.376063  0.190665  1
  Tc  Tc22  1  0.807197  0.185398  0.809335  1
  Tc  Tc23  1  0.808266  0.808266  0.183061  1
  Tc  Tc24  1  0.998259  0.191360  0.373480  1
  Tc  Tc25  1  0.191360  0.998259  0.373480  1
  Tc  Tc26  1  0.625207  0.625207  0.816939  1
  Tc  Tc27  1  0.817880  0.624780  0.626520  1
  Tc  Tc28  1  0.624780  0.817880  0.626520  1
