# generated using pymatgen
data_Ho5AsS4
_symmetry_space_group_name_H-M   'P 1'
_cell_length_a   6.80340971
_cell_length_b   6.80341004
_cell_length_c   6.80341097
_cell_angle_alpha   99.59949617
_cell_angle_beta   99.59947941
_cell_angle_gamma   131.79596457
_symmetry_Int_Tables_number   1
_chemical_formula_structural   Ho5AsS4
_chemical_formula_sum   'Ho5 As1 S4'
_cell_volume   214.30193190
_cell_formula_units_Z   1
loop_
 _symmetry_equiv_pos_site_id
 _symmetry_equiv_pos_as_xyz
  1  'x, y, z'
loop_
 _atom_site_type_symbol
 _atom_site_label
 _atom_site_symmetry_multiplicity
 _atom_site_fract_x
 _atom_site_fract_y
 _atom_site_fract_z
 _atom_site_occupancy
  Ho  Ho0  1  0.398986  0.801268  0.200254  1
  Ho  Ho1  1  0.000000  0.000000  0.000000  1
  Ho  Ho2  1  0.601014  0.198732  0.799746  1
  Ho  Ho3  1  0.198732  0.398986  0.597717  1
  Ho  Ho4  1  0.801268  0.601014  0.402283  1
  As  As5  1  0.500000  0.500000  0.000000  1
  S  S6  1  0.100140  0.699419  0.799558  1
  S  S7  1  0.699419  0.899860  0.599278  1
  S  S8  1  0.300581  0.100140  0.400722  1
  S  S9  1  0.899860  0.300581  0.200442  1
