# generated using pymatgen
data_DyHo4Ta3(P3Ir4)4
_symmetry_space_group_name_H-M   'P 1'
_cell_length_a   12.75602300
_cell_length_b   12.75627566
_cell_length_c   3.98909700
_cell_angle_alpha   90.00000000
_cell_angle_beta   90.00000000
_cell_angle_gamma   119.99934222
_symmetry_Int_Tables_number   1
_chemical_formula_structural   DyHo4Ta3(P3Ir4)4
_chemical_formula_sum   'Dy1 Ho4 Ta3 P12 Ir16'
_cell_volume   562.14363333
_cell_formula_units_Z   1
loop_
 _symmetry_equiv_pos_site_id
 _symmetry_equiv_pos_as_xyz
  1  'x, y, z'
loop_
 _atom_site_type_symbol
 _atom_site_label
 _atom_site_symmetry_multiplicity
 _atom_site_fract_x
 _atom_site_fract_y
 _atom_site_fract_z
 _atom_site_occupancy
  Dy  Dy0  1  0.813718  0.000000  0.000000  1
  Ho  Ho1  1  0.333352  0.666693  0.500000  1
  Ho  Ho2  1  0.666660  0.333307  0.500000  1
  Ho  Ho3  1  0.000009  0.813735  0.000000  1
  Ho  Ho4  1  0.186274  0.186265  0.000000  1
  Ta  Ta5  1  0.000007  0.453007  0.500000  1
  Ta  Ta6  1  0.547000  0.546993  0.500000  1
  Ta  Ta7  1  0.453016  0.000000  0.500000  1
  P  P8  1  0.999999  0.643499  0.500000  1
  P  P9  1  0.356501  0.356501  0.500000  1
  P  P10  1  0.643317  0.000000  0.500000  1
  P  P11  1  0.517156  0.684959  0.000000  1
  P  P12  1  0.315056  0.832189  0.000000  1
  P  P13  1  0.167806  0.482872  0.000000  1
  P  P14  1  0.482867  0.167811  0.000000  1
  P  P15  1  0.684934  0.517128  0.000000  1
  P  P16  1  0.832197  0.315041  0.000000  1
  P  P17  1  0.000089  0.176233  0.500000  1
  P  P18  1  0.823856  0.823767  0.500000  1
  P  P19  1  0.176166  0.000000  0.500000  1
  Ir  Ir20  1  0.506657  0.863655  0.000000  1
  Ir  Ir21  1  0.136317  0.643002  0.000000  1
  Ir  Ir22  1  0.356993  0.493322  0.000000  1
  Ir  Ir23  1  0.493317  0.356998  0.000000  1
  Ir  Ir24  1  0.863674  0.506678  0.000000  1
  Ir  Ir25  1  0.643003  0.136345  0.000000  1
  Ir  Ir26  1  0.000074  0.283706  0.000000  1
  Ir  Ir27  1  0.716368  0.716294  0.000000  1
  Ir  Ir28  1  0.283590  0.000000  0.000000  1
  Ir  Ir29  1  0.626837  0.804506  0.500000  1
  Ir  Ir30  1  0.195249  0.822289  0.500000  1
  Ir  Ir31  1  0.177709  0.372971  0.500000  1
  Ir  Ir32  1  0.372960  0.177711  0.500000  1
  Ir  Ir33  1  0.804738  0.627029  0.500000  1
  Ir  Ir34  1  0.822331  0.195494  0.500000  1
  Ir  Ir35  1  0.000204  0.000000  0.500000  1
