# generated using pymatgen
data_Li2Sn2GePt2
_symmetry_space_group_name_H-M   'P 1'
_cell_length_a   4.30476200
_cell_length_b   4.30476215
_cell_length_c   16.09559500
_cell_angle_alpha   90.00000000
_cell_angle_beta   90.00000000
_cell_angle_gamma   119.99998348
_symmetry_Int_Tables_number   1
_chemical_formula_structural   Li2Sn2GePt2
_chemical_formula_sum   'Li4 Sn4 Ge2 Pt4'
_cell_volume   258.30692272
_cell_formula_units_Z   2
loop_
 _symmetry_equiv_pos_site_id
 _symmetry_equiv_pos_as_xyz
  1  'x, y, z'
loop_
 _atom_site_type_symbol
 _atom_site_label
 _atom_site_symmetry_multiplicity
 _atom_site_fract_x
 _atom_site_fract_y
 _atom_site_fract_z
 _atom_site_occupancy
  Li  Li0  1  0.000000  0.000000  0.168560  1
  Li  Li1  1  0.000000  0.000000  0.831440  1
  Li  Li2  1  0.000000  0.000000  0.668560  1
  Li  Li3  1  0.000000  0.000000  0.331440  1
  Sn  Sn4  1  0.333333  0.666667  0.073704  1
  Sn  Sn5  1  0.666667  0.333333  0.926296  1
  Sn  Sn6  1  0.666667  0.333333  0.573704  1
  Sn  Sn7  1  0.333333  0.666667  0.426296  1
  Ge  Ge8  1  0.333333  0.666667  0.750000  1
  Ge  Ge9  1  0.666667  0.333333  0.250000  1
  Pt  Pt10  1  0.000000  0.000000  0.000000  1
  Pt  Pt11  1  0.000000  0.000000  0.500000  1
  Pt  Pt12  1  0.333333  0.666667  0.250000  1
  Pt  Pt13  1  0.666667  0.333333  0.750000  1
