# generated using pymatgen
data_La2DyCo(P3Rh4)2
_symmetry_space_group_name_H-M   'P 1'
_cell_length_a   3.91707600
_cell_length_b   11.25499500
_cell_length_c   12.97445300
_cell_angle_alpha   90.00000000
_cell_angle_beta   90.00000000
_cell_angle_gamma   90.00000000
_symmetry_Int_Tables_number   1
_chemical_formula_structural   La2DyCo(P3Rh4)2
_chemical_formula_sum   'La4 Dy2 Co2 P12 Rh16'
_cell_volume   572.00043815
_cell_formula_units_Z   2
loop_
 _symmetry_equiv_pos_site_id
 _symmetry_equiv_pos_as_xyz
  1  'x, y, z'
loop_
 _atom_site_type_symbol
 _atom_site_label
 _atom_site_symmetry_multiplicity
 _atom_site_fract_x
 _atom_site_fract_y
 _atom_site_fract_z
 _atom_site_occupancy
  La  La0  1  0.000000  0.500000  0.524247  1
  La  La1  1  0.500000  0.000000  0.478374  1
  La  La2  1  0.500000  0.815884  0.201267  1
  La  La3  1  0.500000  0.184116  0.201267  1
  Dy  Dy4  1  0.000000  0.683954  0.798452  1
  Dy  Dy5  1  0.000000  0.316046  0.798452  1
  Co  Co6  1  0.000000  0.500000  0.976488  1
  Co  Co7  1  0.500000  0.000000  0.011054  1
  P  P8  1  0.500000  0.500000  0.881505  1
  P  P9  1  0.000000  0.000000  0.109872  1
  P  P10  1  0.500000  0.500000  0.346220  1
  P  P11  1  0.000000  0.000000  0.655252  1
  P  P12  1  0.500000  0.312576  0.623194  1
  P  P13  1  0.500000  0.687424  0.623194  1
  P  P14  1  0.000000  0.189605  0.384030  1
  P  P15  1  0.000000  0.810395  0.384030  1
  P  P16  1  0.500000  0.849033  0.895301  1
  P  P17  1  0.500000  0.150967  0.895301  1
  P  P18  1  0.000000  0.641641  0.101062  1
  P  P19  1  0.000000  0.358359  0.101062  1
  Rh  Rh20  1  0.500000  0.500000  0.166539  1
  Rh  Rh21  1  0.000000  0.000000  0.833771  1
  Rh  Rh22  1  0.500000  0.500000  0.706988  1
  Rh  Rh23  1  0.000000  0.000000  0.295298  1
  Rh  Rh24  1  0.500000  0.338974  0.992847  1
  Rh  Rh25  1  0.500000  0.661026  0.992847  1
  Rh  Rh26  1  0.000000  0.165120  0.000756  1
  Rh  Rh27  1  0.000000  0.834880  0.000756  1
  Rh  Rh28  1  0.500000  0.293973  0.432176  1
  Rh  Rh29  1  0.500000  0.706027  0.432176  1
  Rh  Rh30  1  0.000000  0.207104  0.573981  1
  Rh  Rh31  1  0.000000  0.792896  0.573981  1
  Rh  Rh32  1  0.500000  0.873617  0.715478  1
  Rh  Rh33  1  0.500000  0.126383  0.715478  1
  Rh  Rh34  1  0.000000  0.623574  0.288653  1
  Rh  Rh35  1  0.000000  0.376426  0.288653  1
