# generated using pymatgen
data_Tm3Lu5Tc(B8Ru)3
_symmetry_space_group_name_H-M   'P 1'
_cell_length_a   3.60803100
_cell_length_b   9.03935841
_cell_length_c   11.41615705
_cell_angle_alpha   89.92271346
_cell_angle_beta   90.00000000
_cell_angle_gamma   90.00000000
_symmetry_Int_Tables_number   1
_chemical_formula_structural   Tm3Lu5Tc(B8Ru)3
_chemical_formula_sum   'Tm3 Lu5 Tc1 B24 Ru3'
_cell_volume   372.32946525
_cell_formula_units_Z   1
loop_
 _symmetry_equiv_pos_site_id
 _symmetry_equiv_pos_as_xyz
  1  'x, y, z'
loop_
 _atom_site_type_symbol
 _atom_site_label
 _atom_site_symmetry_multiplicity
 _atom_site_fract_x
 _atom_site_fract_y
 _atom_site_fract_z
 _atom_site_occupancy
  Tm  Tm0  1  0.000000  0.323372  0.413226  1
  Tm  Tm1  1  0.000000  0.677901  0.583442  1
  Tm  Tm2  1  0.000000  0.819598  0.087959  1
  Lu  Lu3  1  0.000000  0.178223  0.915079  1
  Lu  Lu4  1  0.000000  0.943367  0.372442  1
  Lu  Lu5  1  0.000000  0.057018  0.628001  1
  Lu  Lu6  1  0.000000  0.444272  0.127881  1
  Lu  Lu7  1  0.000000  0.556501  0.871840  1
  Tc  Tc8  1  0.000000  0.637912  0.320780  1
  B  B9  1  0.500000  0.552846  0.433663  1
  B  B10  1  0.500000  0.446301  0.567089  1
  B  B11  1  0.500000  0.053754  0.066293  1
  B  B12  1  0.500000  0.946503  0.933679  1
  B  B13  1  0.500000  0.749690  0.419828  1
  B  B14  1  0.500000  0.250753  0.580315  1
  B  B15  1  0.500000  0.249240  0.079564  1
  B  B16  1  0.500000  0.750616  0.919898  1
  B  B17  1  0.500000  0.792500  0.265520  1
  B  B18  1  0.500000  0.207932  0.734805  1
  B  B19  1  0.500000  0.291669  0.233577  1
  B  B20  1  0.500000  0.708561  0.765537  1
  B  B21  1  0.500000  0.630730  0.184608  1
  B  B22  1  0.500000  0.368594  0.815949  1
  B  B23  1  0.500000  0.130947  0.315110  1
  B  B24  1  0.500000  0.869613  0.684491  1
  B  B25  1  0.500000  0.982144  0.212766  1
  B  B26  1  0.500000  0.018340  0.787724  1
  B  B27  1  0.500000  0.481038  0.287003  1
  B  B28  1  0.500000  0.517724  0.713041  1
  B  B29  1  0.500000  0.604725  0.028330  1
  B  B30  1  0.500000  0.394237  0.970552  1
  B  B31  1  0.500000  0.105499  0.471201  1
  B  B32  1  0.500000  0.896139  0.529359  1
  Ru  Ru33  1  0.000000  0.361442  0.680088  1
  Ru  Ru34  1  0.000000  0.137968  0.178525  1
  Ru  Ru35  1  0.000000  0.862328  0.820832  1
