# generated using pymatgen
data_Sc4Co10P12(IrRh)5
_symmetry_space_group_name_H-M   'P 1'
_cell_length_a   3.72482600
_cell_length_b   10.45802112
_cell_length_c   12.07276029
_cell_angle_alpha   89.94706968
_cell_angle_beta   90.00000000
_cell_angle_gamma   90.00000000
_symmetry_Int_Tables_number   1
_chemical_formula_structural   Sc4Co10P12(IrRh)5
_chemical_formula_sum   'Sc4 Co10 P12 Ir5 Rh5'
_cell_volume   470.28583358
_cell_formula_units_Z   1
loop_
 _symmetry_equiv_pos_site_id
 _symmetry_equiv_pos_as_xyz
  1  'x, y, z'
loop_
 _atom_site_type_symbol
 _atom_site_label
 _atom_site_symmetry_multiplicity
 _atom_site_fract_x
 _atom_site_fract_y
 _atom_site_fract_z
 _atom_site_occupancy
  Sc  Sc0  1  0.250000  0.587035  0.713526  1
  Sc  Sc1  1  0.250000  0.912354  0.214052  1
  Sc  Sc2  1  0.750000  0.423282  0.289842  1
  Sc  Sc3  1  0.750000  0.076329  0.790020  1
  Co  Co4  1  0.750000  0.776900  0.822060  1
  Co  Co5  1  0.750000  0.723202  0.322398  1
  Co  Co6  1  0.250000  0.877460  0.696440  1
  Co  Co7  1  0.250000  0.622273  0.197127  1
  Co  Co8  1  0.750000  0.109997  0.301889  1
  Co  Co9  1  0.750000  0.389795  0.801805  1
  Co  Co10  1  0.250000  0.463319  0.931161  1
  Co  Co11  1  0.250000  0.036828  0.430719  1
  Co  Co12  1  0.750000  0.538211  0.068551  1
  Co  Co13  1  0.750000  0.961868  0.568350  1
  P  P14  1  0.250000  0.432665  0.113186  1
  P  P15  1  0.250000  0.067817  0.612646  1
  P  P16  1  0.750000  0.578590  0.886939  1
  P  P17  1  0.750000  0.921360  0.387098  1
  P  P18  1  0.250000  0.271041  0.869165  1
  P  P19  1  0.250000  0.229903  0.370001  1
  P  P20  1  0.750000  0.728251  0.140768  1
  P  P21  1  0.750000  0.771437  0.640366  1
  P  P22  1  0.250000  0.604778  0.376057  1
  P  P23  1  0.250000  0.894437  0.875023  1
  P  P24  1  0.750000  0.405972  0.620461  1
  P  P25  1  0.750000  0.093932  0.121606  1
  Ir  Ir26  1  0.250000  0.085938  0.971696  1
  Ir  Ir27  1  0.750000  0.597059  0.525359  1
  Ir  Ir28  1  0.750000  0.903612  0.026563  1
  Ir  Ir29  1  0.250000  0.226500  0.180112  1
  Ir  Ir30  1  0.250000  0.273748  0.680015  1
  Rh  Rh31  1  0.250000  0.712296  0.983948  1
  Rh  Rh32  1  0.250000  0.788179  0.483690  1
  Rh  Rh33  1  0.750000  0.279572  0.007700  1
  Rh  Rh34  1  0.750000  0.220070  0.506585  1
  Rh  Rh35  1  0.250000  0.413994  0.473073  1
