# generated using pymatgen
data_Ho9Er3Si11Ge
_symmetry_space_group_name_H-M   'P 1'
_cell_length_a   3.84059700
_cell_length_b   5.66361404
_cell_length_c   23.58934200
_cell_angle_alpha   82.60387193
_cell_angle_beta   90.00000000
_cell_angle_gamma   90.00000000
_symmetry_Int_Tables_number   1
_chemical_formula_structural   Ho9Er3Si11Ge
_chemical_formula_sum   'Ho9 Er3 Si11 Ge1'
_cell_volume   508.83820255
_cell_formula_units_Z   1
loop_
 _symmetry_equiv_pos_site_id
 _symmetry_equiv_pos_as_xyz
  1  'x, y, z'
loop_
 _atom_site_type_symbol
 _atom_site_label
 _atom_site_symmetry_multiplicity
 _atom_site_fract_x
 _atom_site_fract_y
 _atom_site_fract_z
 _atom_site_occupancy
  Ho  Ho0  1  0.000000  0.913532  0.939769  1
  Ho  Ho1  1  0.500000  0.448397  0.393797  1
  Ho  Ho2  1  0.500000  0.438643  0.893148  1
  Ho  Ho3  1  0.000000  0.555769  0.106480  1
  Ho  Ho4  1  0.000000  0.560147  0.606046  1
  Ho  Ho5  1  0.500000  0.256632  0.226541  1
  Ho  Ho6  1  0.500000  0.252205  0.727206  1
  Ho  Ho7  1  0.000000  0.748457  0.273738  1
  Ho  Ho8  1  0.000000  0.739708  0.773614  1
  Er  Er9  1  0.500000  0.080018  0.059780  1
  Er  Er10  1  0.500000  0.085910  0.559027  1
  Er  Er11  1  0.000000  0.922982  0.440524  1
  Si  Si12  1  0.500000  0.618950  0.012388  1
  Si  Si13  1  0.500000  0.628456  0.512543  1
  Si  Si14  1  0.000000  0.381671  0.487761  1
  Si  Si15  1  0.000000  0.373773  0.987334  1
  Si  Si16  1  0.500000  0.769185  0.179413  1
  Si  Si17  1  0.500000  0.758258  0.680271  1
  Si  Si18  1  0.000000  0.235598  0.320840  1
  Si  Si19  1  0.000000  0.225897  0.820511  1
  Si  Si20  1  0.500000  0.961425  0.346836  1
  Si  Si21  1  0.500000  0.951477  0.846115  1
  Si  Si22  1  0.000000  0.043437  0.153490  1
  Ge  Ge23  1  0.000000  0.049472  0.652824  1
