# generated using pymatgen
data_CaTh3(ZnSn)4
_symmetry_space_group_name_H-M   'P 1'
_cell_length_a   4.58847500
_cell_length_b   4.58847719
_cell_length_c   16.62692300
_cell_angle_alpha   90.00000000
_cell_angle_beta   90.00000000
_cell_angle_gamma   120.00002026
_symmetry_Int_Tables_number   1
_chemical_formula_structural   CaTh3(ZnSn)4
_chemical_formula_sum   'Ca1 Th3 Zn4 Sn4'
_cell_volume   303.16521946
_cell_formula_units_Z   1
loop_
 _symmetry_equiv_pos_site_id
 _symmetry_equiv_pos_as_xyz
  1  'x, y, z'
loop_
 _atom_site_type_symbol
 _atom_site_label
 _atom_site_symmetry_multiplicity
 _atom_site_fract_x
 _atom_site_fract_y
 _atom_site_fract_z
 _atom_site_occupancy
  Ca  Ca0  1  0.000000  0.000000  0.000000  1
  Th  Th1  1  0.000000  0.000000  0.254003  1
  Th  Th2  1  0.000000  0.000000  0.745997  1
  Th  Th3  1  0.000000  0.000000  0.500000  1
  Zn  Zn4  1  0.333333  0.666667  0.159453  1
  Zn  Zn5  1  0.666667  0.333333  0.840547  1
  Zn  Zn6  1  0.666667  0.333333  0.640594  1
  Zn  Zn7  1  0.333333  0.666667  0.359406  1
  Sn  Sn8  1  0.333333  0.666667  0.617891  1
  Sn  Sn9  1  0.666667  0.333333  0.382109  1
  Sn  Sn10  1  0.666667  0.333333  0.121235  1
  Sn  Sn11  1  0.333333  0.666667  0.878765  1
