# generated using pymatgen
data_Hf4Al2CrRe5
_symmetry_space_group_name_H-M   'P 1'
_cell_length_a   5.25704400
_cell_length_b   5.22533696
_cell_length_c   8.55225500
_cell_angle_alpha   90.00000000
_cell_angle_beta   90.00000000
_cell_angle_gamma   120.20091701
_symmetry_Int_Tables_number   1
_chemical_formula_structural   Hf4Al2CrRe5
_chemical_formula_sum   'Hf4 Al2 Cr1 Re5'
_cell_volume   203.04128861
_cell_formula_units_Z   1
loop_
 _symmetry_equiv_pos_site_id
 _symmetry_equiv_pos_as_xyz
  1  'x, y, z'
loop_
 _atom_site_type_symbol
 _atom_site_label
 _atom_site_symmetry_multiplicity
 _atom_site_fract_x
 _atom_site_fract_y
 _atom_site_fract_z
 _atom_site_occupancy
  Hf  Hf0  1  0.333199  0.666398  0.435742  1
  Hf  Hf1  1  0.666763  0.333525  0.933162  1
  Hf  Hf2  1  0.666763  0.333525  0.566838  1
  Hf  Hf3  1  0.333199  0.666398  0.064258  1
  Al  Al4  1  0.002815  0.005630  0.995666  1
  Al  Al5  1  0.002815  0.005630  0.504334  1
  Cr  Cr6  1  0.170742  0.341487  0.750000  1
  Re  Re7  1  0.829943  0.169408  0.250000  1
  Re  Re8  1  0.339467  0.169408  0.250000  1
  Re  Re9  1  0.654691  0.824119  0.750000  1
  Re  Re10  1  0.830177  0.660351  0.250000  1
  Re  Re11  1  0.169426  0.824119  0.750000  1
