# generated using pymatgen
data_Li2Tm8Sc9Si16Ag
_symmetry_space_group_name_H-M   'P 1'
_cell_length_a   6.88338451
_cell_length_b   7.35635685
_cell_length_c   13.93044200
_cell_angle_alpha   90.00000000
_cell_angle_beta   90.00000000
_cell_angle_gamma   89.85167029
_symmetry_Int_Tables_number   1
_chemical_formula_structural   Li2Tm8Sc9Si16Ag
_chemical_formula_sum   'Li2 Tm8 Sc9 Si16 Ag1'
_cell_volume   705.38831288
_cell_formula_units_Z   1
loop_
 _symmetry_equiv_pos_site_id
 _symmetry_equiv_pos_as_xyz
  1  'x, y, z'
loop_
 _atom_site_type_symbol
 _atom_site_label
 _atom_site_symmetry_multiplicity
 _atom_site_fract_x
 _atom_site_fract_y
 _atom_site_fract_z
 _atom_site_occupancy
  Li  Li0  1  0.839861  0.493473  0.250000  1
  Li  Li1  1  0.341047  0.007463  0.250000  1
  Tm  Tm2  1  0.013608  0.181627  0.098677  1
  Tm  Tm3  1  0.990394  0.814440  0.902529  1
  Tm  Tm4  1  0.485820  0.674385  0.903255  1
  Tm  Tm5  1  0.990394  0.814440  0.597471  1
  Tm  Tm6  1  0.512419  0.317737  0.097711  1
  Tm  Tm7  1  0.013608  0.181627  0.401323  1
  Tm  Tm8  1  0.512419  0.317737  0.402289  1
  Tm  Tm9  1  0.485820  0.674385  0.596745  1
  Sc  Sc10  1  0.657818  0.996674  0.750000  1
  Sc  Sc11  1  0.323835  0.182554  0.626776  1
  Sc  Sc12  1  0.669380  0.822903  0.373204  1
  Sc  Sc13  1  0.169865  0.679904  0.372503  1
  Sc  Sc14  1  0.669380  0.822903  0.126796  1
  Sc  Sc15  1  0.835248  0.327249  0.626802  1
  Sc  Sc16  1  0.323835  0.182554  0.873224  1
  Sc  Sc17  1  0.835248  0.327249  0.873198  1
  Sc  Sc18  1  0.169865  0.679904  0.127497  1
  Si  Si19  1  0.026748  0.094440  0.750000  1
  Si  Si20  1  0.970423  0.901568  0.250000  1
  Si  Si21  1  0.470297  0.602095  0.250000  1
  Si  Si22  1  0.533490  0.388885  0.750000  1
  Si  Si23  1  0.288394  0.877653  0.750000  1
  Si  Si24  1  0.716312  0.123572  0.250000  1
  Si  Si25  1  0.218884  0.377725  0.250000  1
  Si  Si26  1  0.778227  0.630602  0.750000  1
  Si  Si27  1  0.161629  0.460856  0.530525  1
  Si  Si28  1  0.839315  0.536589  0.464287  1
  Si  Si29  1  0.340372  0.964263  0.465307  1
  Si  Si30  1  0.839315  0.536589  0.035713  1
  Si  Si31  1  0.658005  0.032232  0.539468  1
  Si  Si32  1  0.161629  0.460856  0.969475  1
  Si  Si33  1  0.658005  0.032232  0.960532  1
  Si  Si34  1  0.340372  0.964263  0.034693  1
  Ag  Ag35  1  0.158716  0.516372  0.750000  1
