# generated using pymatgen
data_HfZr6Co17P12
_symmetry_space_group_name_H-M   'P 1'
_cell_length_a   3.65416600
_cell_length_b   10.40762000
_cell_length_c   12.04816100
_cell_angle_alpha   90.00000000
_cell_angle_beta   90.00000000
_cell_angle_gamma   90.00000000
_symmetry_Int_Tables_number   1
_chemical_formula_structural   HfZr6Co17P12
_chemical_formula_sum   'Hf1 Zr6 Co17 P12'
_cell_volume   458.20567297
_cell_formula_units_Z   1
loop_
 _symmetry_equiv_pos_site_id
 _symmetry_equiv_pos_as_xyz
  1  'x, y, z'
loop_
 _atom_site_type_symbol
 _atom_site_label
 _atom_site_symmetry_multiplicity
 _atom_site_fract_x
 _atom_site_fract_y
 _atom_site_fract_z
 _atom_site_occupancy
  Hf  Hf0  1  0.500000  0.500000  0.157339  1
  Zr  Zr1  1  0.000000  0.500000  0.533045  1
  Zr  Zr2  1  0.500000  0.000000  0.473257  1
  Zr  Zr3  1  0.500000  0.824035  0.208388  1
  Zr  Zr4  1  0.500000  0.175965  0.208388  1
  Zr  Zr5  1  0.000000  0.678301  0.794737  1
  Zr  Zr6  1  0.000000  0.321699  0.794737  1
  Co  Co7  1  0.000000  0.500000  0.986179  1
  Co  Co8  1  0.500000  0.000000  0.013632  1
  Co  Co9  1  0.500000  0.296516  0.435597  1
  Co  Co10  1  0.500000  0.703484  0.435597  1
  Co  Co11  1  0.000000  0.199695  0.567769  1
  Co  Co12  1  0.000000  0.800305  0.567769  1
  Co  Co13  1  0.500000  0.876785  0.705866  1
  Co  Co14  1  0.500000  0.123215  0.705866  1
  Co  Co15  1  0.000000  0.624941  0.297069  1
  Co  Co16  1  0.000000  0.375059  0.297069  1
  Co  Co17  1  0.500000  0.327872  0.988570  1
  Co  Co18  1  0.500000  0.672128  0.988570  1
  Co  Co19  1  0.000000  0.162709  0.001811  1
  Co  Co20  1  0.000000  0.837291  0.001811  1
  Co  Co21  1  0.000000  0.000000  0.832804  1
  Co  Co22  1  0.500000  0.500000  0.702378  1
  Co  Co23  1  0.000000  0.000000  0.296814  1
  P  P24  1  0.500000  0.314916  0.619282  1
  P  P25  1  0.500000  0.685084  0.619282  1
  P  P26  1  0.000000  0.182555  0.384034  1
  P  P27  1  0.000000  0.817445  0.384034  1
  P  P28  1  0.500000  0.500000  0.878692  1
  P  P29  1  0.000000  0.000000  0.119805  1
  P  P30  1  0.500000  0.850011  0.885970  1
  P  P31  1  0.500000  0.149989  0.885970  1
  P  P32  1  0.000000  0.668061  0.106151  1
  P  P33  1  0.000000  0.331939  0.106151  1
  P  P34  1  0.500000  0.500000  0.367410  1
  P  P35  1  0.000000  0.000000  0.648157  1
