# generated using pymatgen
data_Na12Li8Lu(VAs4)3
_symmetry_space_group_name_H-M   'P 1'
_cell_length_a   9.67592761
_cell_length_b   9.67592728
_cell_length_c   13.82677072
_cell_angle_alpha   89.88199524
_cell_angle_beta   89.88199795
_cell_angle_gamma   143.24381078
_symmetry_Int_Tables_number   1
_chemical_formula_structural   Na12Li8Lu(VAs4)3
_chemical_formula_sum   'Na12 Li8 Lu1 V3 As12'
_cell_volume   774.63368585
_cell_formula_units_Z   1
loop_
 _symmetry_equiv_pos_site_id
 _symmetry_equiv_pos_as_xyz
  1  'x, y, z'
loop_
 _atom_site_type_symbol
 _atom_site_label
 _atom_site_symmetry_multiplicity
 _atom_site_fract_x
 _atom_site_fract_y
 _atom_site_fract_z
 _atom_site_occupancy
  Na  Na0  1  0.595015  0.939095  0.822427  1
  Na  Na1  1  0.272607  0.272820  0.323072  1
  Na  Na2  1  0.229064  0.226863  0.818579  1
  Na  Na3  1  0.727180  0.727393  0.676928  1
  Na  Na4  1  0.432755  0.098236  0.669474  1
  Na  Na5  1  0.901764  0.567245  0.330526  1
  Na  Na6  1  0.060905  0.404985  0.177573  1
  Na  Na7  1  0.404787  0.055805  0.184638  1
  Na  Na8  1  0.566526  0.899005  0.328162  1
  Na  Na9  1  0.100995  0.433474  0.671838  1
  Na  Na10  1  0.944195  0.595213  0.815362  1
  Na  Na11  1  0.773137  0.770936  0.181421  1
  Li  Li12  1  0.083559  0.916441  0.000000  1
  Li  Li13  1  0.581180  0.418820  0.500000  1
  Li  Li14  1  0.915759  0.084241  0.000000  1
  Li  Li15  1  0.755480  0.244520  0.000000  1
  Li  Li16  1  0.748659  0.251341  0.500000  1
  Li  Li17  1  0.245473  0.754527  0.000000  1
  Li  Li18  1  0.252060  0.747940  0.500000  1
  Li  Li19  1  0.417985  0.582015  0.500000  1
  Lu  Lu20  1  0.589607  0.410393  0.000000  1
  V  V21  1  0.082654  0.917346  0.500000  1
  V  V22  1  0.410972  0.589028  0.000000  1
  V  V23  1  0.916953  0.083047  0.500000  1
  As  As24  1  0.064685  0.381989  0.398392  1
  As  As25  1  0.917696  0.581266  0.118832  1
  As  As26  1  0.418734  0.082304  0.881168  1
  As  As27  1  0.618011  0.935315  0.601608  1
  As  As28  1  0.934075  0.616655  0.599476  1
  As  As29  1  0.117977  0.438612  0.897108  1
  As  As30  1  0.561388  0.882023  0.102892  1
  As  As31  1  0.383345  0.065925  0.400524  1
  As  As32  1  0.222509  0.223613  0.598222  1
  As  As33  1  0.717907  0.741984  0.896817  1
  As  As34  1  0.258016  0.282093  0.103183  1
  As  As35  1  0.776387  0.777491  0.401778  1
