# generated using pymatgen
data_ThSc6Sn5Ru12
_symmetry_space_group_name_H-M   'P 1'
_cell_length_a   4.56848301
_cell_length_b   6.50047801
_cell_length_c   13.69945700
_cell_angle_alpha   90.00051071
_cell_angle_beta   89.99934771
_cell_angle_gamma   89.99374816
_symmetry_Int_Tables_number   1
_chemical_formula_structural   ThSc6Sn5Ru12
_chemical_formula_sum   'Th1 Sc6 Sn5 Ru12'
_cell_volume   406.83720144
_cell_formula_units_Z   1
loop_
 _symmetry_equiv_pos_site_id
 _symmetry_equiv_pos_as_xyz
  1  'x, y, z'
loop_
 _atom_site_type_symbol
 _atom_site_label
 _atom_site_symmetry_multiplicity
 _atom_site_fract_x
 _atom_site_fract_y
 _atom_site_fract_z
 _atom_site_occupancy
  Th  Th0  1  0.000000  0.000000  0.000000  1
  Sc  Sc1  1  0.000000  0.500001  0.000000  1
  Sc  Sc2  1  0.499969  0.000008  0.180124  1
  Sc  Sc3  1  0.999963  0.500002  0.334551  1
  Sc  Sc4  1  0.500000  0.000000  0.500000  1
  Sc  Sc5  1  0.000037  0.500000  0.665449  1
  Sc  Sc6  1  0.500031  0.999992  0.819876  1
  Sn  Sn7  1  0.499965  0.500003  0.169106  1
  Sn  Sn8  1  0.999980  0.999998  0.337584  1
  Sn  Sn9  1  0.500000  0.500001  0.500000  1
  Sn  Sn10  1  0.000020  0.000002  0.662416  1
  Sn  Sn11  1  0.500036  0.499999  0.830894  1
  Ru  Ru12  1  0.499920  0.248660  0.000000  1
  Ru  Ru13  1  0.500080  0.751341  0.000000  1
  Ru  Ru14  1  0.999932  0.249137  0.166720  1
  Ru  Ru15  1  0.000010  0.750855  0.166721  1
  Ru  Ru16  1  0.500099  0.251831  0.333834  1
  Ru  Ru17  1  0.499827  0.748173  0.333836  1
  Ru  Ru18  1  0.999605  0.251495  0.499998  1
  Ru  Ru19  1  0.000395  0.748506  0.500002  1
  Ru  Ru20  1  0.500174  0.251827  0.666164  1
  Ru  Ru21  1  0.499902  0.748169  0.666166  1
  Ru  Ru22  1  0.999990  0.249144  0.833279  1
  Ru  Ru23  1  0.000068  0.750862  0.833280  1
