# generated using pymatgen
data_HfNb2(AlRu2)3
_symmetry_space_group_name_H-M   'P 1'
_cell_length_a   4.40621200
_cell_length_b   6.22642700
_cell_length_c   13.16748200
_cell_angle_alpha   90.00000000
_cell_angle_beta   89.99986966
_cell_angle_gamma   90.00000000
_symmetry_Int_Tables_number   1
_chemical_formula_structural   HfNb2(AlRu2)3
_chemical_formula_sum   'Hf2 Nb4 Al6 Ru12'
_cell_volume   361.24930727
_cell_formula_units_Z   2
loop_
 _symmetry_equiv_pos_site_id
 _symmetry_equiv_pos_as_xyz
  1  'x, y, z'
loop_
 _atom_site_type_symbol
 _atom_site_label
 _atom_site_symmetry_multiplicity
 _atom_site_fract_x
 _atom_site_fract_y
 _atom_site_fract_z
 _atom_site_occupancy
  Hf  Hf0  1  0.000089  0.000000  0.666657  1
  Hf  Hf1  1  0.500096  0.500000  0.833344  1
  Nb  Nb2  1  0.000004  0.000000  0.999275  1
  Nb  Nb3  1  0.499901  0.500000  0.166429  1
  Nb  Nb4  1  0.999903  0.000000  0.333568  1
  Nb  Nb5  1  0.500002  0.500000  0.500726  1
  Al  Al6  1  0.000014  0.500000  0.000400  1
  Al  Al7  1  0.499897  0.000000  0.166985  1
  Al  Al8  1  0.999899  0.500000  0.333021  1
  Al  Al9  1  0.500014  0.000000  0.499596  1
  Al  Al10  1  0.000089  0.500000  0.666408  1
  Al  Al11  1  0.500091  0.000000  0.833588  1
  Ru  Ru12  1  0.500002  0.247610  0.003219  1
  Ru  Ru13  1  0.500002  0.752391  0.003219  1
  Ru  Ru14  1  0.999895  0.250560  0.167417  1
  Ru  Ru15  1  0.999895  0.749441  0.167417  1
  Ru  Ru16  1  0.499897  0.249444  0.332583  1
  Ru  Ru17  1  0.499897  0.750557  0.332583  1
  Ru  Ru18  1  0.000000  0.252388  0.496782  1
  Ru  Ru19  1  0.000000  0.747612  0.496782  1
  Ru  Ru20  1  0.500103  0.251864  0.664188  1
  Ru  Ru21  1  0.500103  0.748137  0.664188  1
  Ru  Ru22  1  0.000103  0.248133  0.835811  1
  Ru  Ru23  1  0.000103  0.751868  0.835811  1
