# generated using pymatgen
data_DyY5(CI5)2
_symmetry_space_group_name_H-M   'P 1'
_cell_length_a   7.68859439
_cell_length_b   9.52392843
_cell_length_c   9.60157283
_cell_angle_alpha   106.97133587
_cell_angle_beta   96.50824320
_cell_angle_gamma   104.33821491
_symmetry_Int_Tables_number   1
_chemical_formula_structural   DyY5(CI5)2
_chemical_formula_sum   'Dy1 Y5 C2 I10'
_cell_volume   638.30945411
_cell_formula_units_Z   1
loop_
 _symmetry_equiv_pos_site_id
 _symmetry_equiv_pos_as_xyz
  1  'x, y, z'
loop_
 _atom_site_type_symbol
 _atom_site_label
 _atom_site_symmetry_multiplicity
 _atom_site_fract_x
 _atom_site_fract_y
 _atom_site_fract_z
 _atom_site_occupancy
  Dy  Dy0  1  0.626683  0.868139  0.822744  1
  Y  Y1  1  0.103138  0.038080  0.782001  1
  Y  Y2  1  0.373450  0.131782  0.177128  1
  Y  Y3  1  0.896953  0.961844  0.217961  1
  Y  Y4  1  0.028448  0.743256  0.925466  1
  Y  Y5  1  0.971642  0.256744  0.074485  1
  C  C6  1  0.908391  0.969943  0.958614  1
  C  C7  1  0.090990  0.029750  0.041028  1
  I  I8  1  0.192373  0.736425  0.649069  1
  I  I9  1  0.087210  0.364419  0.822250  1
  I  I10  1  0.456701  0.810044  0.093113  1
  I  I11  1  0.254759  0.084591  0.458221  1
  I  I12  1  0.543934  0.189732  0.906459  1
  I  I13  1  0.807367  0.263558  0.350959  1
  I  I14  1  0.345331  0.452880  0.272749  1
  I  I15  1  0.912931  0.635622  0.177786  1
  I  I16  1  0.654664  0.547830  0.727488  1
  I  I17  1  0.745035  0.915362  0.542480  1
