# generated using pymatgen
data_EuPaI6
_symmetry_space_group_name_H-M   'P 1'
_cell_length_a   8.89391597
_cell_length_b   8.89391613
_cell_length_c   8.89391739
_cell_angle_alpha   53.80385802
_cell_angle_beta   53.80385250
_cell_angle_gamma   53.80384873
_symmetry_Int_Tables_number   1
_chemical_formula_structural   EuPaI6
_chemical_formula_sum   'Eu1 Pa1 I6'
_cell_volume   425.41872522
_cell_formula_units_Z   1
loop_
 _symmetry_equiv_pos_site_id
 _symmetry_equiv_pos_as_xyz
  1  'x, y, z'
loop_
 _atom_site_type_symbol
 _atom_site_label
 _atom_site_symmetry_multiplicity
 _atom_site_fract_x
 _atom_site_fract_y
 _atom_site_fract_z
 _atom_site_occupancy
  Eu  Eu0  1  0.666318  0.666318  0.666318  1
  Pa  Pa1  1  0.333398  0.333398  0.333398  1
  I  I2  1  0.712583  0.426526  0.097079  1
  I  I3  1  0.556172  0.940919  0.267007  1
  I  I4  1  0.097078  0.712583  0.426525  1
  I  I5  1  0.940919  0.267006  0.556172  1
  I  I6  1  0.426526  0.097078  0.712583  1
  I  I7  1  0.267007  0.556172  0.940918  1
