# generated using pymatgen
data_LiEr3Cd4Co
_symmetry_space_group_name_H-M   'P 1'
_cell_length_a   8.07522300
_cell_length_b   8.07522253
_cell_length_c   3.52047200
_cell_angle_alpha   90.00000000
_cell_angle_beta   90.00000000
_cell_angle_gamma   119.99999785
_symmetry_Int_Tables_number   1
_chemical_formula_structural   LiEr3Cd4Co
_chemical_formula_sum   'Li1 Er3 Cd4 Co1'
_cell_volume   198.81106823
_cell_formula_units_Z   1
loop_
 _symmetry_equiv_pos_site_id
 _symmetry_equiv_pos_as_xyz
  1  'x, y, z'
loop_
 _atom_site_type_symbol
 _atom_site_label
 _atom_site_symmetry_multiplicity
 _atom_site_fract_x
 _atom_site_fract_y
 _atom_site_fract_z
 _atom_site_occupancy
  Li  Li0  1  0.666667  0.333333  0.500000  1
  Er  Er1  1  0.719405  0.951318  0.500000  1
  Er  Er2  1  0.231913  0.280595  0.500000  1
  Er  Er3  1  0.048682  0.768087  0.500000  1
  Cd  Cd4  1  0.933857  0.340283  0.000000  1
  Cd  Cd5  1  0.406427  0.066143  0.000000  1
  Cd  Cd6  1  0.659717  0.593573  0.000000  1
  Cd  Cd7  1  0.333333  0.666667  0.000000  1
  Co  Co8  1  0.000000  0.000000  0.000000  1
