# generated using pymatgen
data_Pa3Zn(Co5B2)2
_symmetry_space_group_name_H-M   'P 1'
_cell_length_a   5.00220400
_cell_length_b   5.00220423
_cell_length_c   9.94009800
_cell_angle_alpha   90.00000000
_cell_angle_beta   90.00000000
_cell_angle_gamma   119.99999850
_symmetry_Int_Tables_number   1
_chemical_formula_structural   Pa3Zn(Co5B2)2
_chemical_formula_sum   'Pa3 Zn1 Co10 B4'
_cell_volume   215.39921804
_cell_formula_units_Z   1
loop_
 _symmetry_equiv_pos_site_id
 _symmetry_equiv_pos_as_xyz
  1  'x, y, z'
loop_
 _atom_site_type_symbol
 _atom_site_label
 _atom_site_symmetry_multiplicity
 _atom_site_fract_x
 _atom_site_fract_y
 _atom_site_fract_z
 _atom_site_occupancy
  Pa  Pa0  1  0.000000  0.000000  0.663921  1
  Pa  Pa1  1  0.000000  0.000000  0.336079  1
  Pa  Pa2  1  0.000000  0.000000  0.000000  1
  Zn  Zn3  1  0.666667  0.333333  0.000000  1
  Co  Co4  1  0.500179  0.000358  0.500000  1
  Co  Co5  1  0.500179  0.499821  0.500000  1
  Co  Co6  1  0.999642  0.499821  0.500000  1
  Co  Co7  1  0.498127  0.996253  0.204836  1
  Co  Co8  1  0.498127  0.501873  0.204836  1
  Co  Co9  1  0.003747  0.501873  0.204836  1
  Co  Co10  1  0.498127  0.996253  0.795164  1
  Co  Co11  1  0.498127  0.501873  0.795164  1
  Co  Co12  1  0.003747  0.501873  0.795164  1
  Co  Co13  1  0.333333  0.666667  0.000000  1
  B  B14  1  0.333333  0.666667  0.650690  1
  B  B15  1  0.666667  0.333333  0.651606  1
  B  B16  1  0.666667  0.333333  0.348394  1
  B  B17  1  0.333333  0.666667  0.349310  1
