# generated using pymatgen
data_Sc2Be2GaIr5
_symmetry_space_group_name_H-M   'P 1'
_cell_length_a   9.51585700
_cell_length_b   9.51585700
_cell_length_c   3.09583600
_cell_angle_alpha   90.00000000
_cell_angle_beta   90.00000000
_cell_angle_gamma   90.00000000
_symmetry_Int_Tables_number   1
_chemical_formula_structural   Sc2Be2GaIr5
_chemical_formula_sum   'Sc4 Be4 Ga2 Ir10'
_cell_volume   280.33270019
_cell_formula_units_Z   2
loop_
 _symmetry_equiv_pos_site_id
 _symmetry_equiv_pos_as_xyz
  1  'x, y, z'
loop_
 _atom_site_type_symbol
 _atom_site_label
 _atom_site_symmetry_multiplicity
 _atom_site_fract_x
 _atom_site_fract_y
 _atom_site_fract_z
 _atom_site_occupancy
  Sc  Sc0  1  0.674983  0.174983  0.000000  1
  Sc  Sc1  1  0.325017  0.825017  0.000000  1
  Sc  Sc2  1  0.174983  0.325017  0.000000  1
  Sc  Sc3  1  0.825017  0.674983  0.000000  1
  Be  Be4  1  0.123809  0.623809  0.000000  1
  Be  Be5  1  0.876191  0.376191  0.000000  1
  Be  Be6  1  0.623809  0.876191  0.000000  1
  Be  Be7  1  0.376191  0.123809  0.000000  1
  Ga  Ga8  1  0.000000  0.000000  0.000000  1
  Ga  Ga9  1  0.500000  0.500000  0.000000  1
  Ir  Ir10  1  0.209575  0.068066  0.500000  1
  Ir  Ir11  1  0.790425  0.931934  0.500000  1
  Ir  Ir12  1  0.068066  0.790425  0.500000  1
  Ir  Ir13  1  0.709575  0.431934  0.500000  1
  Ir  Ir14  1  0.931934  0.209575  0.500000  1
  Ir  Ir15  1  0.290425  0.568066  0.500000  1
  Ir  Ir16  1  0.568066  0.709575  0.500000  1
  Ir  Ir17  1  0.431934  0.290425  0.500000  1
  Ir  Ir18  1  0.500000  0.000000  0.500000  1
  Ir  Ir19  1  0.000000  0.500000  0.500000  1
