# generated using pymatgen
data_Tb7LuTi3Si16Mo9
_symmetry_space_group_name_H-M   'P 1'
_cell_length_a   6.92049558
_cell_length_b   6.92008472
_cell_length_c   12.83880757
_cell_angle_alpha   89.96489180
_cell_angle_beta   90.06495981
_cell_angle_gamma   89.80598522
_symmetry_Int_Tables_number   1
_chemical_formula_structural   Tb7LuTi3Si16Mo9
_chemical_formula_sum   'Tb7 Lu1 Ti3 Si16 Mo9'
_cell_volume   614.85179422
_cell_formula_units_Z   1
loop_
 _symmetry_equiv_pos_site_id
 _symmetry_equiv_pos_as_xyz
  1  'x, y, z'
loop_
 _atom_site_type_symbol
 _atom_site_label
 _atom_site_symmetry_multiplicity
 _atom_site_fract_x
 _atom_site_fract_y
 _atom_site_fract_z
 _atom_site_occupancy
  Tb  Tb0  1  0.495985  0.838766  0.718738  1
  Tb  Tb1  1  0.499629  0.161740  0.217507  1
  Tb  Tb2  1  0.838604  0.495833  0.281303  1
  Tb  Tb3  1  0.161838  0.499625  0.782414  1
  Tb  Tb4  1  0.660088  0.998918  0.968729  1
  Tb  Tb5  1  0.002433  0.339147  0.531144  1
  Tb  Tb6  1  0.999028  0.659966  0.031357  1
  Lu  Lu7  1  0.340244  0.000723  0.468871  1
  Ti  Ti8  1  0.171525  0.831464  0.248876  1
  Ti  Ti9  1  0.831424  0.171226  0.751362  1
  Ti  Ti10  1  0.668867  0.669318  0.499859  1
  Si  Si11  1  0.200305  0.128035  0.683214  1
  Si  Si12  1  0.375116  0.695791  0.935158  1
  Si  Si13  1  0.626305  0.298186  0.434411  1
  Si  Si14  1  0.695966  0.375200  0.064995  1
  Si  Si15  1  0.299693  0.630177  0.564982  1
  Si  Si16  1  0.797027  0.872820  0.185384  1
  Si  Si17  1  0.130216  0.198313  0.317096  1
  Si  Si18  1  0.872876  0.797035  0.814639  1
  Si  Si19  1  0.286923  0.964365  0.061268  1
  Si  Si20  1  0.539206  0.791812  0.314806  1
  Si  Si21  1  0.458255  0.211461  0.814670  1
  Si  Si22  1  0.790184  0.539794  0.685851  1
  Si  Si23  1  0.211466  0.458081  0.185523  1
  Si  Si24  1  0.708632  0.041024  0.563315  1
  Si  Si25  1  0.964572  0.286812  0.938764  1
  Si  Si26  1  0.042456  0.712160  0.436160  1
  Mo  Mo27  1  0.331660  0.331437  0.000050  1
  Mo  Mo28  1  0.156278  0.001999  0.872546  1
  Mo  Mo29  1  0.494268  0.667240  0.126221  1
  Mo  Mo30  1  0.505240  0.339782  0.624137  1
  Mo  Mo31  1  0.667077  0.494387  0.874185  1
  Mo  Mo32  1  0.340776  0.506683  0.375270  1
  Mo  Mo33  1  0.840593  0.993236  0.374943  1
  Mo  Mo34  1  0.002267  0.156318  0.127620  1
  Mo  Mo35  1  0.992979  0.841128  0.624632  1
