# generated using pymatgen
data_Tb19Dy(Bi2Rh)4
_symmetry_space_group_name_H-M   'P 1'
_cell_length_a   8.06526803
_cell_length_b   9.03930802
_cell_length_c   12.51562404
_cell_angle_alpha   90.00409349
_cell_angle_beta   89.99238808
_cell_angle_gamma   89.99431254
_symmetry_Int_Tables_number   1
_chemical_formula_structural   Tb19Dy(Bi2Rh)4
_chemical_formula_sum   'Tb19 Dy1 Bi8 Rh4'
_cell_volume   912.44457099
_cell_formula_units_Z   1
loop_
 _symmetry_equiv_pos_site_id
 _symmetry_equiv_pos_as_xyz
  1  'x, y, z'
loop_
 _atom_site_type_symbol
 _atom_site_label
 _atom_site_symmetry_multiplicity
 _atom_site_fract_x
 _atom_site_fract_y
 _atom_site_fract_z
 _atom_site_occupancy
  Tb  Tb0  1  0.841312  0.749988  0.793813  1
  Tb  Tb1  1  0.158727  0.250004  0.206180  1
  Tb  Tb2  1  0.341255  0.250009  0.706213  1
  Tb  Tb3  1  0.658739  0.750000  0.293790  1
  Tb  Tb4  1  0.374914  0.749999  0.694059  1
  Tb  Tb5  1  0.625084  0.249998  0.305949  1
  Tb  Tb6  1  0.874968  0.250012  0.805975  1
  Tb  Tb7  1  0.125093  0.749978  0.194016  1
  Tb  Tb8  1  0.954042  0.750000  0.501251  1
  Tb  Tb9  1  0.045964  0.249994  0.498752  1
  Tb  Tb10  1  0.453992  0.250019  0.998747  1
  Tb  Tb11  1  0.545946  0.749982  0.001245  1
  Tb  Tb12  1  0.678123  0.040745  0.566037  1
  Tb  Tb13  1  0.321882  0.959260  0.433967  1
  Tb  Tb14  1  0.178097  0.959240  0.933963  1
  Tb  Tb15  1  0.321879  0.540739  0.433962  1
  Tb  Tb16  1  0.821891  0.040724  0.066031  1
  Tb  Tb17  1  0.678123  0.459245  0.566037  1
  Tb  Tb18  1  0.821960  0.459264  0.066006  1
  Dy  Dy19  1  0.177910  0.540753  0.933993  1
  Bi  Bi20  1  0.569329  0.491651  0.826338  1
  Bi  Bi21  1  0.430629  0.508358  0.173680  1
  Bi  Bi22  1  0.069409  0.508365  0.673711  1
  Bi  Bi23  1  0.430612  0.991646  0.173685  1
  Bi  Bi24  1  0.930612  0.491642  0.326315  1
  Bi  Bi25  1  0.569393  0.008358  0.826315  1
  Bi  Bi26  1  0.930615  0.008360  0.326308  1
  Bi  Bi27  1  0.069390  0.991641  0.673684  1
  Rh  Rh28  1  0.570320  0.749992  0.510253  1
  Rh  Rh29  1  0.429684  0.250006  0.489765  1
  Rh  Rh30  1  0.070314  0.250088  0.989764  1
  Rh  Rh31  1  0.929791  0.749942  0.010196  1
