# generated using pymatgen
data_ErTm2Fe8Ru
_symmetry_space_group_name_H-M   'P 1'
_cell_length_a   5.07180604
_cell_length_b   5.07180791
_cell_length_c   8.69874938
_cell_angle_alpha   73.05073111
_cell_angle_beta   73.05072097
_cell_angle_gamma   60.00001293
_symmetry_Int_Tables_number   1
_chemical_formula_structural   ErTm2Fe8Ru
_chemical_formula_sum   'Er1 Tm2 Fe8 Ru1'
_cell_volume   182.47250770
_cell_formula_units_Z   1
loop_
 _symmetry_equiv_pos_site_id
 _symmetry_equiv_pos_as_xyz
  1  'x, y, z'
loop_
 _atom_site_type_symbol
 _atom_site_label
 _atom_site_symmetry_multiplicity
 _atom_site_fract_x
 _atom_site_fract_y
 _atom_site_fract_z
 _atom_site_occupancy
  Er  Er0  1  0.000000  0.000000  0.000000  1
  Tm  Tm1  1  0.141601  0.141601  0.575195  1
  Tm  Tm2  1  0.858399  0.858399  0.424805  1
  Fe  Fe3  1  0.076969  0.582085  0.758861  1
  Fe  Fe4  1  0.582085  0.582085  0.758861  1
  Fe  Fe5  1  0.582085  0.076969  0.758861  1
  Fe  Fe6  1  0.923031  0.417915  0.241139  1
  Fe  Fe7  1  0.417915  0.417915  0.241139  1
  Fe  Fe8  1  0.417915  0.923031  0.241139  1
  Fe  Fe9  1  0.333226  0.333226  0.000324  1
  Fe  Fe10  1  0.666774  0.666774  0.999676  1
  Ru  Ru11  1  0.500000  0.500000  0.500000  1
