# generated using pymatgen
data_Ca14SiSb11
_symmetry_space_group_name_H-M   'P 1'
_cell_length_a   16.26331287
_cell_length_b   16.26340926
_cell_length_c   16.26340900
_cell_angle_alpha   93.78490065
_cell_angle_beta   117.83965547
_cell_angle_gamma   117.83965567
_symmetry_Int_Tables_number   1
_chemical_formula_structural   Ca14SiSb11
_chemical_formula_sum   'Ca56 Si4 Sb44'
_cell_volume   3133.61977201
_cell_formula_units_Z   4
loop_
 _symmetry_equiv_pos_site_id
 _symmetry_equiv_pos_as_xyz
  1  'x, y, z'
loop_
 _atom_site_type_symbol
 _atom_site_label
 _atom_site_symmetry_multiplicity
 _atom_site_fract_x
 _atom_site_fract_y
 _atom_site_fract_z
 _atom_site_occupancy
  Ca  Ca0  1  0.969119  0.254321  0.372273  1
  Ca  Ca1  1  0.354744  0.881012  0.481904  1
  Ca  Ca2  1  0.590463  0.838894  0.566913  1
  Ca  Ca3  1  0.100890  0.473735  0.118989  1
  Ca  Ca4  1  0.228022  0.976451  0.066917  1
  Ca  Ca5  1  0.090462  0.523549  0.751569  1
  Ca  Ca6  1  0.030881  0.745679  0.627727  1
  Ca  Ca7  1  0.882045  0.754317  0.785199  1
  Ca  Ca8  1  0.145254  0.627160  0.526269  1
  Ca  Ca9  1  0.409537  0.161106  0.433087  1
  Ca  Ca10  1  0.600890  0.618989  0.973735  1
  Ca  Ca11  1  0.899112  0.872842  0.018098  1
  Ca  Ca12  1  0.354446  0.249998  0.604446  1
  Ca  Ca13  1  0.645256  0.118988  0.518096  1
  Ca  Ca14  1  0.645254  0.026269  0.127160  1
  Ca  Ca15  1  0.969120  0.214799  0.596848  1
  Ca  Ca16  1  0.854446  0.104446  0.749998  1
  Ca  Ca17  1  0.590462  0.251569  0.023549  1
  Ca  Ca18  1  0.399110  0.381011  0.026265  1
  Ca  Ca19  1  0.530881  0.127727  0.245679  1
  Ca  Ca20  1  0.271978  0.433083  0.523549  1
  Ca  Ca21  1  0.854744  0.981904  0.381012  1
  Ca  Ca22  1  0.271982  0.338893  0.748434  1
  Ca  Ca23  1  0.771982  0.248434  0.838893  1
  Ca  Ca24  1  0.399112  0.518098  0.372842  1
  Ca  Ca25  1  0.382045  0.285199  0.254317  1
  Ca  Ca26  1  0.909537  0.933087  0.661106  1
  Ca  Ca27  1  0.354746  0.973731  0.872840  1
  Ca  Ca28  1  0.100888  0.127158  0.981902  1
  Ca  Ca29  1  0.145555  0.750001  0.895554  1
  Ca  Ca30  1  0.899110  0.526265  0.881011  1
  Ca  Ca31  1  0.728022  0.566917  0.476451  1
  Ca  Ca32  1  0.409538  0.748431  0.976451  1
  Ca  Ca33  1  0.354445  0.604446  0.749999  1
  Ca  Ca34  1  0.882047  0.627728  0.096847  1
  Ca  Ca35  1  0.469120  0.096848  0.714799  1
  Ca  Ca36  1  0.854445  0.249999  0.104446  1
  Ca  Ca37  1  0.854746  0.372840  0.473731  1
  Ca  Ca38  1  0.469119  0.872273  0.754321  1
  Ca  Ca39  1  0.771978  0.023549  0.933083  1
  Ca  Ca40  1  0.617953  0.403153  0.872272  1
  Ca  Ca41  1  0.909538  0.476451  0.248431  1
  Ca  Ca42  1  0.145554  0.895554  0.250002  1
  Ca  Ca43  1  0.645555  0.395554  0.250001  1
  Ca  Ca44  1  0.145256  0.018096  0.618988  1
  Ca  Ca45  1  0.728018  0.661107  0.251566  1
  Ca  Ca46  1  0.530880  0.903152  0.285201  1
  Ca  Ca47  1  0.382047  0.596847  0.127728  1
  Ca  Ca48  1  0.117955  0.245683  0.214801  1
  Ca  Ca49  1  0.030880  0.785201  0.403152  1
  Ca  Ca50  1  0.090463  0.066913  0.338894  1
  Ca  Ca51  1  0.228018  0.751566  0.161107  1
  Ca  Ca52  1  0.117953  0.372272  0.903153  1
  Ca  Ca53  1  0.600888  0.481902  0.627158  1
  Ca  Ca54  1  0.617955  0.714801  0.745683  1
  Ca  Ca55  1  0.645554  0.750002  0.395554  1
  Si  Si56  1  0.250008  0.625004  0.375014  1
  Si  Si57  1  0.249992  0.124986  0.874996  1
  Si  Si58  1  0.750008  0.875014  0.125004  1
  Si  Si59  1  0.749992  0.374996  0.624986  1
  Sb  Sb60  1  0.107430  0.422508  0.306802  1
  Sb  Sb61  1  0.155519  0.072541  0.177384  1
  Sb  Sb62  1  0.615705  0.800630  0.193195  1
  Sb  Sb63  1  0.750000  0.125000  0.375000  1
  Sb  Sb64  1  0.615701  0.315074  0.422498  1
  Sb  Sb65  1  0.115701  0.922498  0.815074  1
  Sb  Sb66  1  0.250000  0.740242  0.759758  1
  Sb  Sb67  1  0.884299  0.077502  0.184926  1
  Sb  Sb68  1  0.895158  0.822617  0.478140  1
  Sb  Sb69  1  0.604841  0.082980  0.927458  1
  Sb  Sb70  1  0.250000  0.009758  0.490242  1
  Sb  Sb71  1  0.155520  0.582979  0.978137  1
  Sb  Sb72  1  0.107430  0.184920  0.800628  1
  Sb  Sb73  1  0.892570  0.577492  0.693198  1
  Sb  Sb74  1  0.607430  0.300628  0.684920  1
  Sb  Sb75  1  0.604842  0.021860  0.677383  1
  Sb  Sb76  1  0.115705  0.693195  0.300630  1
  Sb  Sb77  1  0.344481  0.322616  0.427459  1
  Sb  Sb78  1  0.607430  0.806802  0.922508  1
  Sb  Sb79  1  0.250000  0.875000  0.625000  1
  Sb  Sb80  1  0.392570  0.193198  0.077492  1
  Sb  Sb81  1  0.104842  0.177383  0.521860  1
  Sb  Sb82  1  0.750000  0.990242  0.509758  1
  Sb  Sb83  1  0.750000  0.259758  0.240242  1
  Sb  Sb84  1  0.384299  0.684926  0.577502  1
  Sb  Sb85  1  0.844481  0.927459  0.822616  1
  Sb  Sb86  1  0.392570  0.699372  0.315080  1
  Sb  Sb87  1  0.480482  0.490242  0.740242  1
  Sb  Sb88  1  0.384295  0.199370  0.806805  1
  Sb  Sb89  1  0.980482  0.240242  0.990242  1
  Sb  Sb90  1  0.844480  0.417021  0.021863  1
  Sb  Sb91  1  0.750000  0.625000  0.875000  1
  Sb  Sb92  1  0.344480  0.521863  0.917021  1
  Sb  Sb93  1  0.104841  0.427458  0.582980  1
  Sb  Sb94  1  0.892570  0.815080  0.199372  1
  Sb  Sb95  1  0.395158  0.978140  0.322617  1
  Sb  Sb96  1  0.895159  0.572542  0.417020  1
  Sb  Sb97  1  0.655519  0.677384  0.572541  1
  Sb  Sb98  1  0.250000  0.375000  0.125000  1
  Sb  Sb99  1  0.884295  0.306805  0.699370  1
  Sb  Sb100  1  0.519518  0.509758  0.259758  1
  Sb  Sb101  1  0.395159  0.917020  0.072542  1
  Sb  Sb102  1  0.019518  0.759758  0.009758  1
  Sb  Sb103  1  0.655520  0.478137  0.082979  1
