# generated using pymatgen
data_Y13Th3MgZn3Ir4
_symmetry_space_group_name_H-M   'P 1'
_cell_length_a   9.67036225
_cell_length_b   9.69206884
_cell_length_c   9.69206900
_cell_angle_alpha   60.00000287
_cell_angle_beta   59.92572261
_cell_angle_gamma   59.92572251
_symmetry_Int_Tables_number   1
_chemical_formula_structural   Y13Th3MgZn3Ir4
_chemical_formula_sum   'Y13 Th3 Mg1 Zn3 Ir4'
_cell_volume   641.61165602
_cell_formula_units_Z   1
loop_
 _symmetry_equiv_pos_site_id
 _symmetry_equiv_pos_as_xyz
  1  'x, y, z'
loop_
 _atom_site_type_symbol
 _atom_site_label
 _atom_site_symmetry_multiplicity
 _atom_site_fract_x
 _atom_site_fract_y
 _atom_site_fract_z
 _atom_site_occupancy
  Y  Y0  1  0.185423  0.604859  0.604859  1
  Y  Y1  1  0.058876  0.442212  0.442212  1
  Y  Y2  1  0.437352  0.062367  0.062367  1
  Y  Y3  1  0.437352  0.062367  0.437914  1
  Y  Y4  1  0.058876  0.442212  0.056701  1
  Y  Y5  1  0.437352  0.437914  0.062367  1
  Y  Y6  1  0.058876  0.056701  0.442212  1
  Y  Y7  1  0.181348  0.814136  0.814136  1
  Y  Y8  1  0.813026  0.185517  0.185517  1
  Y  Y9  1  0.813026  0.185517  0.815938  1
  Y  Y10  1  0.181348  0.814136  0.190381  1
  Y  Y11  1  0.813026  0.815938  0.185517  1
  Y  Y12  1  0.181348  0.190381  0.814136  1
  Th  Th13  1  0.601472  0.599699  0.599699  1
  Th  Th14  1  0.601472  0.599699  0.199130  1
  Th  Th15  1  0.601472  0.199130  0.599699  1
  Mg  Mg16  1  0.529515  0.823496  0.823496  1
  Zn  Zn17  1  0.835635  0.833380  0.833380  1
  Zn  Zn18  1  0.835635  0.833380  0.497605  1
  Zn  Zn19  1  0.835635  0.497605  0.833380  1
  Ir  Ir20  1  0.393671  0.393294  0.393294  1
  Ir  Ir21  1  0.393671  0.393294  0.819741  1
  Ir  Ir22  1  0.393671  0.819741  0.393294  1
  Ir  Ir23  1  0.820922  0.393026  0.393026  1
