# generated using pymatgen
data_Li3V2InRh6
_symmetry_space_group_name_H-M   'P 1'
_cell_length_a   4.25755500
_cell_length_b   6.04909000
_cell_length_c   12.80328900
_cell_angle_alpha   90.00000000
_cell_angle_beta   90.00010753
_cell_angle_gamma   90.00000000
_symmetry_Int_Tables_number   1
_chemical_formula_structural   Li3V2InRh6
_chemical_formula_sum   'Li6 V4 In2 Rh12'
_cell_volume   329.74017320
_cell_formula_units_Z   2
loop_
 _symmetry_equiv_pos_site_id
 _symmetry_equiv_pos_as_xyz
  1  'x, y, z'
loop_
 _atom_site_type_symbol
 _atom_site_label
 _atom_site_symmetry_multiplicity
 _atom_site_fract_x
 _atom_site_fract_y
 _atom_site_fract_z
 _atom_site_occupancy
  Li  Li0  1  0.999989  0.500000  0.005906  1
  Li  Li1  1  0.499903  0.000000  0.169942  1
  Li  Li2  1  0.999903  0.500000  0.330081  1
  Li  Li3  1  0.499985  0.000000  0.494076  1
  Li  Li4  1  0.000117  0.500000  0.667826  1
  Li  Li5  1  0.500114  0.000000  0.832143  1
  V  V6  1  0.000003  0.000000  0.006444  1
  V  V7  1  0.499913  0.500000  0.168054  1
  V  V8  1  0.999918  0.000000  0.331945  1
  V  V9  1  0.500005  0.500000  0.493635  1
  In  In10  1  0.000065  0.000000  0.669230  1
  In  In11  1  0.500067  0.500000  0.830696  1
  Rh  Rh12  1  0.499997  0.246165  0.011729  1
  Rh  Rh13  1  0.499997  0.753836  0.011729  1
  Rh  Rh14  1  0.999930  0.251773  0.170416  1
  Rh  Rh15  1  0.999930  0.748227  0.170416  1
  Rh  Rh16  1  0.499932  0.248159  0.329641  1
  Rh  Rh17  1  0.499932  0.751840  0.329641  1
  Rh  Rh18  1  0.999998  0.253847  0.488232  1
  Rh  Rh19  1  0.999998  0.746154  0.488232  1
  Rh  Rh20  1  0.500073  0.264224  0.648268  1
  Rh  Rh21  1  0.500073  0.735775  0.648268  1
  Rh  Rh22  1  0.000079  0.235683  0.851724  1
  Rh  Rh23  1  0.000079  0.764317  0.851724  1
