# generated using pymatgen
data_Dy2Ho2Lu2FeBi2
_symmetry_space_group_name_H-M   'P 1'
_cell_length_a   8.25239510
_cell_length_b   8.24289956
_cell_length_c   4.16981900
_cell_angle_alpha   90.00000000
_cell_angle_beta   90.00000000
_cell_angle_gamma   119.94627603
_symmetry_Int_Tables_number   1
_chemical_formula_structural   Dy2Ho2Lu2FeBi2
_chemical_formula_sum   'Dy2 Ho2 Lu2 Fe1 Bi2'
_cell_volume   245.77783288
_cell_formula_units_Z   1
loop_
 _symmetry_equiv_pos_site_id
 _symmetry_equiv_pos_as_xyz
  1  'x, y, z'
loop_
 _atom_site_type_symbol
 _atom_site_label
 _atom_site_symmetry_multiplicity
 _atom_site_fract_x
 _atom_site_fract_y
 _atom_site_fract_z
 _atom_site_occupancy
  Dy  Dy0  1  0.000039  0.612224  0.500000  1
  Dy  Dy1  1  0.390087  0.389649  0.500000  1
  Ho  Ho2  1  0.999852  0.229265  0.000000  1
  Ho  Ho3  1  0.610107  0.999579  0.500000  1
  Lu  Lu4  1  0.228781  0.999625  0.000000  1
  Lu  Lu5  1  0.771167  0.770941  0.000000  1
  Fe  Fe6  1  0.999753  0.997220  0.500000  1
  Bi  Bi7  1  0.334977  0.668336  0.000000  1
  Bi  Bi8  1  0.665237  0.333160  0.000000  1
