# generated using pymatgen
data_Sr3Ca(MgP2)2
_symmetry_space_group_name_H-M   'P 1'
_cell_length_a   8.40112895
_cell_length_b   8.40112720
_cell_length_c   7.44316700
_cell_angle_alpha   90.66564804
_cell_angle_beta   89.33435210
_cell_angle_gamma   150.55416067
_symmetry_Int_Tables_number   1
_chemical_formula_structural   Sr3Ca(MgP2)2
_chemical_formula_sum   'Sr3 Ca1 Mg2 P4'
_cell_volume   258.23437507
_cell_formula_units_Z   1
loop_
 _symmetry_equiv_pos_site_id
 _symmetry_equiv_pos_as_xyz
  1  'x, y, z'
loop_
 _atom_site_type_symbol
 _atom_site_label
 _atom_site_symmetry_multiplicity
 _atom_site_fract_x
 _atom_site_fract_y
 _atom_site_fract_z
 _atom_site_occupancy
  Sr  Sr0  1  0.537564  0.462436  0.230992  1
  Sr  Sr1  1  0.704860  0.295140  0.892475  1
  Sr  Sr2  1  0.296975  0.703025  0.398712  1
  Ca  Ca3  1  0.463426  0.536574  0.733619  1
  Mg  Mg4  1  0.092441  0.907559  0.580613  1
  Mg  Mg5  1  0.905931  0.094069  0.076439  1
  P  P6  1  0.056683  0.943317  0.926607  1
  P  P7  1  0.670885  0.329115  0.496557  1
  P  P8  1  0.331007  0.668993  0.992004  1
  P  P9  1  0.940227  0.059773  0.440700  1
