# generated using pymatgen
data_Th2Al3Si2Pt3
_symmetry_space_group_name_H-M   'P 1'
_cell_length_a   8.45274988
_cell_length_b   8.45275126
_cell_length_c   8.45275095
_cell_angle_alpha   138.00364126
_cell_angle_beta   103.07466925
_cell_angle_gamma   91.75306819
_symmetry_Int_Tables_number   1
_chemical_formula_structural   Th2Al3Si2Pt3
_chemical_formula_sum   'Th4 Al6 Si4 Pt6'
_cell_volume   374.86874714
_cell_formula_units_Z   2
loop_
 _symmetry_equiv_pos_site_id
 _symmetry_equiv_pos_as_xyz
  1  'x, y, z'
loop_
 _atom_site_type_symbol
 _atom_site_label
 _atom_site_symmetry_multiplicity
 _atom_site_fract_x
 _atom_site_fract_y
 _atom_site_fract_z
 _atom_site_occupancy
  Th  Th0  1  0.868643  0.628945  0.239699  1
  Th  Th1  1  0.131357  0.371055  0.760301  1
  Th  Th2  1  0.389245  0.128945  0.260301  1
  Th  Th3  1  0.610755  0.871055  0.739699  1
  Al  Al4  1  0.500000  0.750000  0.250000  1
  Al  Al5  1  0.500000  0.250000  0.750000  1
  Al  Al6  1  0.238963  0.988963  0.750000  1
  Al  Al7  1  0.761037  0.511037  0.750000  1
  Al  Al8  1  0.761037  0.011037  0.250000  1
  Al  Al9  1  0.238963  0.488963  0.250000  1
  Si  Si10  1  0.030320  0.886864  0.143457  1
  Si  Si11  1  0.969680  0.113136  0.856543  1
  Si  Si12  1  0.743407  0.386864  0.356543  1
  Si  Si13  1  0.256593  0.613136  0.643457  1
  Pt  Pt14  1  0.000000  0.750000  0.750000  1
  Pt  Pt15  1  0.000000  0.250000  0.250000  1
  Pt  Pt16  1  0.237952  0.866809  0.371145  1
  Pt  Pt17  1  0.762048  0.133191  0.628855  1
  Pt  Pt18  1  0.495664  0.366809  0.128855  1
  Pt  Pt19  1  0.504336  0.633191  0.871145  1
