# generated using pymatgen
data_Pr8Nb11Si16Mo
_symmetry_space_group_name_H-M   'P 1'
_cell_length_a   7.00933960
_cell_length_b   7.25342457
_cell_length_c   13.61243652
_cell_angle_alpha   90.02062616
_cell_angle_beta   89.96505924
_cell_angle_gamma   89.93115955
_symmetry_Int_Tables_number   1
_chemical_formula_structural   Pr8Nb11Si16Mo
_chemical_formula_sum   'Pr8 Nb11 Si16 Mo1'
_cell_volume   692.07895985
_cell_formula_units_Z   1
loop_
 _symmetry_equiv_pos_site_id
 _symmetry_equiv_pos_as_xyz
  1  'x, y, z'
loop_
 _atom_site_type_symbol
 _atom_site_label
 _atom_site_symmetry_multiplicity
 _atom_site_fract_x
 _atom_site_fract_y
 _atom_site_fract_z
 _atom_site_occupancy
  Pr  Pr0  1  0.505711  0.331784  0.096178  1
  Pr  Pr1  1  0.004311  0.169003  0.404009  1
  Pr  Pr2  1  0.494740  0.668066  0.595840  1
  Pr  Pr3  1  0.995341  0.831859  0.903314  1
  Pr  Pr4  1  0.494518  0.668032  0.902766  1
  Pr  Pr5  1  0.995228  0.831818  0.595866  1
  Pr  Pr6  1  0.505025  0.331544  0.405251  1
  Pr  Pr7  1  0.005680  0.168544  0.096369  1
  Nb  Nb8  1  0.838405  0.324834  0.626008  1
  Nb  Nb9  1  0.338286  0.175214  0.872239  1
  Nb  Nb10  1  0.162471  0.675211  0.127075  1
  Nb  Nb11  1  0.660266  0.826347  0.373884  1
  Nb  Nb12  1  0.163701  0.675590  0.374365  1
  Nb  Nb13  1  0.662503  0.824865  0.126958  1
  Nb  Nb14  1  0.837662  0.324242  0.871880  1
  Nb  Nb15  1  0.662120  0.012514  0.749110  1
  Nb  Nb16  1  0.160826  0.486608  0.749039  1
  Nb  Nb17  1  0.338501  0.989320  0.250566  1
  Nb  Nb18  1  0.838942  0.512230  0.250387  1
  Si  Si19  1  0.651977  0.042490  0.545433  1
  Si  Si20  1  0.155888  0.458101  0.956152  1
  Si  Si21  1  0.343795  0.958287  0.043639  1
  Si  Si22  1  0.843942  0.542285  0.456338  1
  Si  Si23  1  0.342006  0.959796  0.458541  1
  Si  Si24  1  0.843822  0.541651  0.043232  1
  Si  Si25  1  0.656008  0.041120  0.956468  1
  Si  Si26  1  0.158312  0.454193  0.545254  1
  Si  Si27  1  0.538843  0.367423  0.747670  1
  Si  Si28  1  0.043878  0.130649  0.748513  1
  Si  Si29  1  0.459121  0.630293  0.250415  1
  Si  Si30  1  0.958783  0.869676  0.250563  1
  Si  Si31  1  0.797460  0.612940  0.749518  1
  Si  Si32  1  0.299691  0.889013  0.748912  1
  Si  Si33  1  0.202636  0.386206  0.250510  1
  Si  Si34  1  0.701776  0.114689  0.250113  1
  Mo  Mo35  1  0.337823  0.173561  0.627626  1
