# generated using pymatgen
data_La2Tb4CoCl10
_symmetry_space_group_name_H-M   'P 1'
_cell_length_a   7.23068488
_cell_length_b   9.05564597
_cell_length_c   8.90056400
_cell_angle_alpha   108.18763600
_cell_angle_beta   95.07417985
_cell_angle_gamma   107.36856628
_symmetry_Int_Tables_number   1
_chemical_formula_structural   La2Tb4CoCl10
_chemical_formula_sum   'La2 Tb4 Co1 Cl10'
_cell_volume   517.72402376
_cell_formula_units_Z   1
loop_
 _symmetry_equiv_pos_site_id
 _symmetry_equiv_pos_as_xyz
  1  'x, y, z'
loop_
 _atom_site_type_symbol
 _atom_site_label
 _atom_site_symmetry_multiplicity
 _atom_site_fract_x
 _atom_site_fract_y
 _atom_site_fract_z
 _atom_site_occupancy
  La  La0  1  0.135289  0.053786  0.759891  1
  La  La1  1  0.864711  0.946214  0.240109  1
  Tb  Tb2  1  0.976063  0.307006  0.102682  1
  Tb  Tb3  1  0.023937  0.692994  0.897318  1
  Tb  Tb4  1  0.367536  0.144426  0.185190  1
  Tb  Tb5  1  0.632464  0.855574  0.814810  1
  Co  Co6  1  0.000000  0.000000  0.000000  1
  Cl  Cl7  1  0.557702  0.171091  0.926210  1
  Cl  Cl8  1  0.442298  0.828909  0.073790  1
  Cl  Cl9  1  0.349580  0.449449  0.270357  1
  Cl  Cl10  1  0.650420  0.550551  0.729643  1
  Cl  Cl11  1  0.255568  0.083321  0.448253  1
  Cl  Cl12  1  0.744432  0.916679  0.551747  1
  Cl  Cl13  1  0.783477  0.259311  0.342456  1
  Cl  Cl14  1  0.216523  0.740689  0.657544  1
  Cl  Cl15  1  0.084120  0.377223  0.838868  1
  Cl  Cl16  1  0.915880  0.622777  0.161132  1
