# generated using pymatgen
data_Ca3PrSc2(RuO6)2
_symmetry_space_group_name_H-M   'P 1'
_cell_length_a   5.51927999
_cell_length_b   5.69395390
_cell_length_c   7.89920438
_cell_angle_alpha   89.86608323
_cell_angle_beta   89.70814265
_cell_angle_gamma   90.00289674
_symmetry_Int_Tables_number   1
_chemical_formula_structural   Ca3PrSc2(RuO6)2
_chemical_formula_sum   'Ca3 Pr1 Sc2 Ru2 O12'
_cell_volume   248.24065136
_cell_formula_units_Z   1
loop_
 _symmetry_equiv_pos_site_id
 _symmetry_equiv_pos_as_xyz
  1  'x, y, z'
loop_
 _atom_site_type_symbol
 _atom_site_label
 _atom_site_symmetry_multiplicity
 _atom_site_fract_x
 _atom_site_fract_y
 _atom_site_fract_z
 _atom_site_occupancy
  Ca  Ca0  1  0.485905  0.446235  0.250574  1
  Ca  Ca1  1  0.513424  0.552568  0.749305  1
  Ca  Ca2  1  0.986882  0.054872  0.749807  1
  Pr  Pr3  1  0.013313  0.944697  0.249756  1
  Sc  Sc4  1  0.999335  0.497773  0.995189  1
  Sc  Sc5  1  0.500802  0.001667  0.505368  1
  Ru  Ru6  1  0.999555  0.499290  0.501664  1
  Ru  Ru7  1  0.500909  0.000457  0.997991  1
  O  O8  1  0.096736  0.469665  0.741745  1
  O  O9  1  0.208229  0.198925  0.046233  1
  O  O10  1  0.195082  0.209992  0.451295  1
  O  O11  1  0.301958  0.713024  0.054148  1
  O  O12  1  0.289067  0.701813  0.447783  1
  O  O13  1  0.405801  0.965772  0.758400  1
  O  O14  1  0.589094  0.030605  0.245052  1
  O  O15  1  0.709350  0.302036  0.549697  1
  O  O16  1  0.694361  0.288505  0.947880  1
  O  O17  1  0.795814  0.805328  0.955575  1
  O  O18  1  0.809220  0.792650  0.547253  1
  O  O19  1  0.905162  0.524124  0.255286  1
