# generated using pymatgen
data_TbYb6Y4In9Pd4
_symmetry_space_group_name_H-M   'P 1'
_cell_length_a   13.35351933
_cell_length_b   13.35353450
_cell_length_c   3.67620400
_cell_angle_alpha   90.00000000
_cell_angle_beta   90.00000000
_cell_angle_gamma   112.16313481
_symmetry_Int_Tables_number   1
_chemical_formula_structural   TbYb6Y4In9Pd4
_chemical_formula_sum   'Tb1 Yb6 Y4 In9 Pd4'
_cell_volume   607.09379195
_cell_formula_units_Z   1
loop_
 _symmetry_equiv_pos_site_id
 _symmetry_equiv_pos_as_xyz
  1  'x, y, z'
loop_
 _atom_site_type_symbol
 _atom_site_label
 _atom_site_symmetry_multiplicity
 _atom_site_fract_x
 _atom_site_fract_y
 _atom_site_fract_z
 _atom_site_occupancy
  Tb  Tb0  1  0.689781  0.689782  0.000000  1
  Yb  Yb1  1  0.413362  0.069396  0.000000  1
  Yb  Yb2  1  0.586584  0.930625  0.000000  1
  Yb  Yb3  1  0.069395  0.413361  0.000000  1
  Yb  Yb4  1  0.930626  0.586585  0.000000  1
  Yb  Yb5  1  0.160273  0.839763  0.000000  1
  Yb  Yb6  1  0.839763  0.160274  0.000000  1
  Y  Y7  1  0.377093  0.622758  0.000000  1
  Y  Y8  1  0.622760  0.377094  0.000000  1
  Y  Y9  1  0.310052  0.310050  0.000000  1
  Y  Y10  1  0.999998  0.999999  0.000000  1
  In  In11  1  0.369641  0.834823  0.500000  1
  In  In12  1  0.630366  0.165175  0.500000  1
  In  In13  1  0.834823  0.369641  0.500000  1
  In  In14  1  0.165175  0.630366  0.500000  1
  In  In15  1  0.217686  0.078070  0.500000  1
  In  In16  1  0.782388  0.922098  0.500000  1
  In  In17  1  0.078070  0.217686  0.500000  1
  In  In18  1  0.922098  0.782388  0.500000  1
  In  In19  1  0.499811  0.499811  0.500000  1
  Pd  Pd20  1  0.446649  0.243956  0.500000  1
  Pd  Pd21  1  0.553742  0.755909  0.500000  1
  Pd  Pd22  1  0.243955  0.446647  0.500000  1
  Pd  Pd23  1  0.755910  0.553744  0.500000  1
