# generated using pymatgen
data_Lu2Ta3P7Rh9
_symmetry_space_group_name_H-M   'P 1'
_cell_length_a   3.90067000
_cell_length_b   9.61692601
_cell_length_c   9.61695501
_cell_angle_alpha   119.99860858
_cell_angle_beta   90.00053327
_cell_angle_gamma   89.99827352
_symmetry_Int_Tables_number   1
_chemical_formula_structural   Lu2Ta3P7Rh9
_chemical_formula_sum   'Lu2 Ta3 P7 Rh9'
_cell_volume   312.42788550
_cell_formula_units_Z   1
loop_
 _symmetry_equiv_pos_site_id
 _symmetry_equiv_pos_as_xyz
  1  'x, y, z'
loop_
 _atom_site_type_symbol
 _atom_site_label
 _atom_site_symmetry_multiplicity
 _atom_site_fract_x
 _atom_site_fract_y
 _atom_site_fract_z
 _atom_site_occupancy
  Lu  Lu0  1  0.261347  0.666671  0.333357  1
  Lu  Lu1  1  0.762161  0.333359  0.666668  1
  Ta  Ta2  1  0.761922  0.094897  0.872208  1
  Ta  Ta3  1  0.761928  0.127779  0.222676  1
  Ta  Ta4  1  0.761925  0.777309  0.905103  1
  P  P5  1  0.262164  0.999990  0.000004  1
  P  P6  1  0.761720  0.875097  0.587029  1
  P  P7  1  0.761711  0.412980  0.288056  1
  P  P8  1  0.761707  0.711945  0.124935  1
  P  P9  1  0.261991  0.118736  0.417219  1
  P  P10  1  0.262008  0.582775  0.701510  1
  P  P11  1  0.261984  0.298480  0.881272  1
  Rh  Rh12  1  0.261884  0.884602  0.161672  1
  Rh  Rh13  1  0.261882  0.838327  0.722931  1
  Rh  Rh14  1  0.261875  0.277060  0.115398  1
  Rh  Rh15  1  0.761975  0.611729  0.555530  1
  Rh  Rh16  1  0.761949  0.444457  0.056177  1
  Rh  Rh17  1  0.761966  0.943811  0.388271  1
  Rh  Rh18  1  0.261962  0.367583  0.440764  1
  Rh  Rh19  1  0.261962  0.559224  0.926806  1
  Rh  Rh20  1  0.261978  0.073192  0.632413  1
