# generated using pymatgen
data_LaTb4TmU4O20
_symmetry_space_group_name_H-M   'P 1'
_cell_length_a   6.67046203
_cell_length_b   7.55998097
_cell_length_c   8.49039627
_cell_angle_alpha   101.10579901
_cell_angle_beta   97.82729321
_cell_angle_gamma   107.26812416
_symmetry_Int_Tables_number   1
_chemical_formula_structural   LaTb4TmU4O20
_chemical_formula_sum   'La1 Tb4 Tm1 U4 O20'
_cell_volume   392.56785906
_cell_formula_units_Z   1
loop_
 _symmetry_equiv_pos_site_id
 _symmetry_equiv_pos_as_xyz
  1  'x, y, z'
loop_
 _atom_site_type_symbol
 _atom_site_label
 _atom_site_symmetry_multiplicity
 _atom_site_fract_x
 _atom_site_fract_y
 _atom_site_fract_z
 _atom_site_occupancy
  La  La0  1  0.000000  0.500000  0.500000  1
  Tb  Tb1  1  0.614773  0.706342  0.700523  1
  Tb  Tb2  1  0.385227  0.293658  0.299477  1
  Tb  Tb3  1  0.198112  0.898670  0.893898  1
  Tb  Tb4  1  0.801888  0.101330  0.106102  1
  Tm  Tm5  1  0.000000  0.000000  0.500000  1
  U  U6  1  0.404107  0.806203  0.301292  1
  U  U7  1  0.199236  0.399729  0.901536  1
  U  U8  1  0.800764  0.600271  0.098464  1
  U  U9  1  0.595893  0.193797  0.698708  1
  O  O10  1  0.438690  0.532535  0.135577  1
  O  O11  1  0.554819  0.987097  0.840489  1
  O  O12  1  0.269520  0.144104  0.743346  1
  O  O13  1  0.368703  0.596795  0.438896  1
  O  O14  1  0.053820  0.735457  0.329463  1
  O  O15  1  0.445181  0.012903  0.159511  1
  O  O16  1  0.151118  0.183781  0.031610  1
  O  O17  1  0.561310  0.467465  0.864423  1
  O  O18  1  0.855533  0.336655  0.949939  1
  O  O19  1  0.261920  0.609195  0.767130  1
  O  O20  1  0.953084  0.784301  0.655212  1
  O  O21  1  0.352644  0.060453  0.454104  1
  O  O22  1  0.647356  0.939547  0.545896  1
  O  O23  1  0.046916  0.215699  0.344788  1
  O  O24  1  0.738080  0.390805  0.232870  1
  O  O25  1  0.144467  0.663345  0.050061  1
  O  O26  1  0.848882  0.816219  0.968390  1
  O  O27  1  0.946180  0.264543  0.670537  1
  O  O28  1  0.631297  0.403205  0.561104  1
  O  O29  1  0.730480  0.855896  0.256654  1
