# generated using pymatgen
data_Ce2Nd2In2Pd3Pt
_symmetry_space_group_name_H-M   'P 1'
_cell_length_a   7.87774435
_cell_length_b   7.87774398
_cell_length_c   3.81274500
_cell_angle_alpha   90.00000000
_cell_angle_beta   90.00000000
_cell_angle_gamma   91.81629793
_symmetry_Int_Tables_number   1
_chemical_formula_structural   Ce2Nd2In2Pd3Pt
_chemical_formula_sum   'Ce2 Nd2 In2 Pd3 Pt1'
_cell_volume   236.49570316
_cell_formula_units_Z   1
loop_
 _symmetry_equiv_pos_site_id
 _symmetry_equiv_pos_as_xyz
  1  'x, y, z'
loop_
 _atom_site_type_symbol
 _atom_site_label
 _atom_site_symmetry_multiplicity
 _atom_site_fract_x
 _atom_site_fract_y
 _atom_site_fract_z
 _atom_site_occupancy
  Ce  Ce0  1  0.324677  0.830669  0.500000  1
  Ce  Ce1  1  0.669331  0.175323  0.500000  1
  Nd  Nd2  1  0.826768  0.673232  0.500000  1
  Nd  Nd3  1  0.176398  0.323602  0.500000  1
  In  In4  1  0.996802  0.999831  0.000000  1
  In  In5  1  0.500169  0.503198  0.000000  1
  Pd  Pd6  1  0.867941  0.367660  0.000000  1
  Pd  Pd7  1  0.132340  0.632059  0.000000  1
  Pd  Pd8  1  0.627243  0.872757  0.000000  1
  Pt  Pt9  1  0.378332  0.121668  0.000000  1
