# generated using pymatgen
data_Tb5Y3(TmRu2)2
_symmetry_space_group_name_H-M   'P 1'
_cell_length_a   6.36295238
_cell_length_b   7.28912044
_cell_length_c   8.49861508
_cell_angle_alpha   96.64098294
_cell_angle_beta   112.11810854
_cell_angle_gamma   90.01241466
_symmetry_Int_Tables_number   1
_chemical_formula_structural   Tb5Y3(TmRu2)2
_chemical_formula_sum   'Tb5 Y3 Tm2 Ru4'
_cell_volume   362.30105727
_cell_formula_units_Z   1
loop_
 _symmetry_equiv_pos_site_id
 _symmetry_equiv_pos_as_xyz
  1  'x, y, z'
loop_
 _atom_site_type_symbol
 _atom_site_label
 _atom_site_symmetry_multiplicity
 _atom_site_fract_x
 _atom_site_fract_y
 _atom_site_fract_z
 _atom_site_occupancy
  Tb  Tb0  1  0.022717  0.584195  0.814943  1
  Tb  Tb1  1  0.206714  0.185508  0.567241  1
  Tb  Tb2  1  0.639621  0.314621  0.432939  1
  Tb  Tb3  1  0.793269  0.814605  0.432810  1
  Tb  Tb4  1  0.360483  0.685288  0.566848  1
  Y  Y5  1  0.792028  0.083475  0.814817  1
  Y  Y6  1  0.977092  0.416259  0.184871  1
  Y  Y7  1  0.207662  0.916417  0.185253  1
  Tm  Tm8  1  0.422595  0.249610  0.999730  1
  Tm  Tm9  1  0.577417  0.750459  0.000304  1
  Ru  Ru10  1  0.602544  0.426255  0.781981  1
  Ru  Ru11  1  0.819337  0.074926  0.218098  1
  Ru  Ru12  1  0.398574  0.574248  0.218213  1
  Ru  Ru13  1  0.179945  0.924134  0.781952  1
