# generated using pymatgen
data_Hf16Co2Ni2Mo3Pb
_symmetry_space_group_name_H-M   'P 1'
_cell_length_a   8.74845395
_cell_length_b   8.74845518
_cell_length_c   8.76668801
_cell_angle_alpha   59.87259770
_cell_angle_beta   59.87258839
_cell_angle_gamma   59.92405785
_symmetry_Int_Tables_number   1
_chemical_formula_structural   Hf16Co2Ni2Mo3Pb
_chemical_formula_sum   'Hf16 Co2 Ni2 Mo3 Pb1'
_cell_volume   473.25508322
_cell_formula_units_Z   1
loop_
 _symmetry_equiv_pos_site_id
 _symmetry_equiv_pos_as_xyz
  1  'x, y, z'
loop_
 _atom_site_type_symbol
 _atom_site_label
 _atom_site_symmetry_multiplicity
 _atom_site_fract_x
 _atom_site_fract_y
 _atom_site_fract_z
 _atom_site_occupancy
  Hf  Hf0  1  0.702109  0.097751  0.094952  1
  Hf  Hf1  1  0.097751  0.702109  0.094952  1
  Hf  Hf2  1  0.096034  0.096034  0.705450  1
  Hf  Hf3  1  0.102059  0.102059  0.098634  1
  Hf  Hf4  1  0.314515  0.314515  0.698553  1
  Hf  Hf5  1  0.686859  0.686859  0.315072  1
  Hf  Hf6  1  0.315569  0.699327  0.313482  1
  Hf  Hf7  1  0.685693  0.315070  0.686192  1
  Hf  Hf8  1  0.699327  0.315569  0.313482  1
  Hf  Hf9  1  0.315070  0.685693  0.686192  1
  Hf  Hf10  1  0.955894  0.955894  0.541796  1
  Hf  Hf11  1  0.560430  0.560430  0.934342  1
  Hf  Hf12  1  0.953839  0.541840  0.953205  1
  Hf  Hf13  1  0.554896  0.935404  0.562987  1
  Hf  Hf14  1  0.541840  0.953839  0.953205  1
  Hf  Hf15  1  0.935404  0.554896  0.562987  1
  Co  Co16  1  0.324893  0.888825  0.890794  1
  Co  Co17  1  0.888825  0.324893  0.890794  1
  Ni  Ni18  1  0.890624  0.890624  0.324517  1
  Ni  Ni19  1  0.889293  0.889293  0.888370  1
  Mo  Mo20  1  0.993647  0.332580  0.332895  1
  Mo  Mo21  1  0.332580  0.993647  0.332895  1
  Mo  Mo22  1  0.332370  0.332370  0.993834  1
  Pb  Pb23  1  0.330475  0.330475  0.330414  1
