# generated using pymatgen
data_LaEuIr2F14
_symmetry_space_group_name_H-M   'P 1'
_cell_length_a   5.75171900
_cell_length_b   9.27778740
_cell_length_c   12.36071000
_cell_angle_alpha   62.12445690
_cell_angle_beta   90.00000000
_cell_angle_gamma   90.00000000
_symmetry_Int_Tables_number   1
_chemical_formula_structural   LaEuIr2F14
_chemical_formula_sum   'La2 Eu2 Ir4 F28'
_cell_volume   583.07001100
_cell_formula_units_Z   2
loop_
 _symmetry_equiv_pos_site_id
 _symmetry_equiv_pos_as_xyz
  1  'x, y, z'
loop_
 _atom_site_type_symbol
 _atom_site_label
 _atom_site_symmetry_multiplicity
 _atom_site_fract_x
 _atom_site_fract_y
 _atom_site_fract_z
 _atom_site_occupancy
  La  La0  1  0.239794  0.190766  0.733712  1
  La  La1  1  0.739794  0.809234  0.766288  1
  Eu  Eu2  1  0.761218  0.815739  0.265281  1
  Eu  Eu3  1  0.261218  0.184261  0.234719  1
  Ir  Ir4  1  0.244568  0.727308  0.540723  1
  Ir  Ir5  1  0.744568  0.272692  0.959277  1
  Ir  Ir6  1  0.756483  0.276856  0.452088  1
  Ir  Ir7  1  0.256483  0.723144  0.047912  1
  F  F8  1  0.960258  0.714416  0.457392  1
  F  F9  1  0.460258  0.285584  0.042608  1
  F  F10  1  0.038951  0.287888  0.539007  1
  F  F11  1  0.538951  0.712112  0.960993  1
  F  F12  1  0.060225  0.706959  0.923602  1
  F  F13  1  0.560225  0.293041  0.576398  1
  F  F14  1  0.939642  0.293919  0.079788  1
  F  F15  1  0.439642  0.706081  0.420212  1
  F  F16  1  0.739359  0.509833  0.862688  1
  F  F17  1  0.239359  0.490167  0.637312  1
  F  F18  1  0.259046  0.487949  0.140984  1
  F  F19  1  0.759046  0.512051  0.359016  1
  F  F20  1  0.740582  0.036870  0.048865  1
  F  F21  1  0.240582  0.963130  0.451135  1
  F  F22  1  0.260825  0.959738  0.953940  1
  F  F23  1  0.760825  0.040262  0.546060  1
  F  F24  1  0.052529  0.743105  0.666695  1
  F  F25  1  0.552529  0.256895  0.833305  1
  F  F26  1  0.951552  0.258449  0.329702  1
  F  F27  1  0.451552  0.741551  0.170298  1
  F  F28  1  0.024761  0.267063  0.869450  1
  F  F29  1  0.524761  0.732937  0.630550  1
  F  F30  1  0.978337  0.731997  0.135581  1
  F  F31  1  0.478337  0.268003  0.364419  1
  F  F32  1  0.085088  0.971048  0.230703  1
  F  F33  1  0.585088  0.028952  0.269297  1
  F  F34  1  0.906778  0.032820  0.769324  1
  F  F35  1  0.406778  0.967180  0.730676  1
