# generated using pymatgen
data_Lu4Al2Zn2Pt3Rh
_symmetry_space_group_name_H-M   'P 1'
_cell_length_a   4.19771300
_cell_length_b   6.80083276
_cell_length_c   7.94660883
_cell_angle_alpha   89.40226763
_cell_angle_beta   90.00000000
_cell_angle_gamma   90.00000000
_symmetry_Int_Tables_number   1
_chemical_formula_structural   Lu4Al2Zn2Pt3Rh
_chemical_formula_sum   'Lu4 Al2 Zn2 Pt3 Rh1'
_cell_volume   226.84699945
_cell_formula_units_Z   1
loop_
 _symmetry_equiv_pos_site_id
 _symmetry_equiv_pos_as_xyz
  1  'x, y, z'
loop_
 _atom_site_type_symbol
 _atom_site_label
 _atom_site_symmetry_multiplicity
 _atom_site_fract_x
 _atom_site_fract_y
 _atom_site_fract_z
 _atom_site_occupancy
  Lu  Lu0  1  0.250000  0.536555  0.178016  1
  Lu  Lu1  1  0.750000  0.461456  0.820616  1
  Lu  Lu2  1  0.750000  0.967602  0.684321  1
  Lu  Lu3  1  0.250000  0.037259  0.317788  1
  Al  Al4  1  0.250000  0.634884  0.560022  1
  Al  Al5  1  0.750000  0.360473  0.442581  1
  Zn  Zn6  1  0.750000  0.859517  0.063690  1
  Zn  Zn7  1  0.250000  0.141151  0.934567  1
  Pt  Pt8  1  0.250000  0.754878  0.868582  1
  Pt  Pt9  1  0.750000  0.246557  0.131074  1
  Pt  Pt10  1  0.750000  0.736369  0.385940  1
  Rh  Rh11  1  0.250000  0.263298  0.612804  1
