# generated using pymatgen
data_Eu2Lu2Ni13C4
_symmetry_space_group_name_H-M   'P 1'
_cell_length_a   8.35702784
_cell_length_b   8.35702746
_cell_length_c   3.88803500
_cell_angle_alpha   90.00000000
_cell_angle_beta   90.00000000
_cell_angle_gamma   90.42979132
_symmetry_Int_Tables_number   1
_chemical_formula_structural   Eu2Lu2Ni13C4
_chemical_formula_sum   'Eu2 Lu2 Ni13 C4'
_cell_volume   271.53237914
_cell_formula_units_Z   1
loop_
 _symmetry_equiv_pos_site_id
 _symmetry_equiv_pos_as_xyz
  1  'x, y, z'
loop_
 _atom_site_type_symbol
 _atom_site_label
 _atom_site_symmetry_multiplicity
 _atom_site_fract_x
 _atom_site_fract_y
 _atom_site_fract_z
 _atom_site_occupancy
  Eu  Eu0  1  0.850634  0.850634  0.000000  1
  Eu  Eu1  1  0.149366  0.149366  0.000000  1
  Lu  Lu2  1  0.313127  0.686873  0.000000  1
  Lu  Lu3  1  0.686873  0.313127  0.000000  1
  Ni  Ni4  1  0.500000  0.500000  0.500000  1
  Ni  Ni5  1  0.713092  0.076215  0.500000  1
  Ni  Ni6  1  0.286908  0.923785  0.500000  1
  Ni  Ni7  1  0.923785  0.286908  0.500000  1
  Ni  Ni8  1  0.076215  0.713092  0.500000  1
  Ni  Ni9  1  0.500000  0.000000  0.000000  1
  Ni  Ni10  1  0.000000  0.500000  0.000000  1
  Ni  Ni11  1  0.568287  0.787679  0.500000  1
  Ni  Ni12  1  0.431713  0.212321  0.500000  1
  Ni  Ni13  1  0.212321  0.431713  0.500000  1
  Ni  Ni14  1  0.787679  0.568287  0.500000  1
  Ni  Ni15  1  0.620537  0.620537  0.000000  1
  Ni  Ni16  1  0.379463  0.379463  0.000000  1
  C  C17  1  0.500000  0.000000  0.500000  1
  C  C18  1  0.000000  0.500000  0.500000  1
  C  C19  1  0.942941  0.057059  0.500000  1
  C  C20  1  0.057059  0.942941  0.500000  1
