# generated using pymatgen
data_Np4Al18(OsPd)3
_symmetry_space_group_name_H-M   'P 1'
_cell_length_a   7.59389320
_cell_length_b   7.59389321
_cell_length_c   9.45821200
_cell_angle_alpha   90.07997627
_cell_angle_beta   90.07997072
_cell_angle_gamma   118.74504198
_symmetry_Int_Tables_number   1
_chemical_formula_structural   Np4Al18(OsPd)3
_chemical_formula_sum   'Np4 Al18 Os3 Pd3'
_cell_volume   478.21287083
_cell_formula_units_Z   1
loop_
 _symmetry_equiv_pos_site_id
 _symmetry_equiv_pos_as_xyz
  1  'x, y, z'
loop_
 _atom_site_type_symbol
 _atom_site_label
 _atom_site_symmetry_multiplicity
 _atom_site_fract_x
 _atom_site_fract_y
 _atom_site_fract_z
 _atom_site_occupancy
  Np  Np0  1  0.992859  0.678128  0.246385  1
  Np  Np1  1  0.005708  0.320816  0.753279  1
  Np  Np2  1  0.679184  0.994292  0.246721  1
  Np  Np3  1  0.321872  0.007141  0.753615  1
  Al  Al4  1  0.132939  0.134295  0.250602  1
  Al  Al5  1  0.865705  0.867061  0.749398  1
  Al  Al6  1  0.999616  0.335002  0.077016  1
  Al  Al7  1  0.994325  0.659273  0.921375  1
  Al  Al8  1  0.999226  0.664781  0.578487  1
  Al  Al9  1  0.335219  0.000774  0.421513  1
  Al  Al10  1  0.000401  0.336357  0.423299  1
  Al  Al11  1  0.663643  0.999599  0.576701  1
  Al  Al12  1  0.664998  0.000384  0.922984  1
  Al  Al13  1  0.340727  0.005675  0.078625  1
  Al  Al14  1  0.329495  0.330186  0.553714  1
  Al  Al15  1  0.669814  0.670505  0.446286  1
  Al  Al16  1  0.670192  0.664414  0.046620  1
  Al  Al17  1  0.335586  0.329808  0.953380  1
  Al  Al18  1  0.342076  0.553042  0.249909  1
  Al  Al19  1  0.656343  0.448069  0.752005  1
  Al  Al20  1  0.551931  0.343657  0.247995  1
  Al  Al21  1  0.446958  0.657924  0.750091  1
  Os  Os22  1  0.672593  0.327407  0.000000  1
  Os  Os23  1  0.000941  0.999059  0.000000  1
  Os  Os24  1  0.999949  0.000051  0.500000  1
  Pd  Pd25  1  0.328795  0.671205  0.000000  1
  Pd  Pd26  1  0.328787  0.671213  0.500000  1
  Pd  Pd27  1  0.670119  0.329881  0.500000  1
