# generated using pymatgen
data_Tm3Zn3PtAu2
_symmetry_space_group_name_H-M   'P 1'
_cell_length_a   7.46860700
_cell_length_b   7.46860641
_cell_length_c   3.73791400
_cell_angle_alpha   90.00000000
_cell_angle_beta   90.00000000
_cell_angle_gamma   119.99999819
_symmetry_Int_Tables_number   1
_chemical_formula_structural   Tm3Zn3PtAu2
_chemical_formula_sum   'Tm3 Zn3 Pt1 Au2'
_cell_volume   180.56730874
_cell_formula_units_Z   1
loop_
 _symmetry_equiv_pos_site_id
 _symmetry_equiv_pos_as_xyz
  1  'x, y, z'
loop_
 _atom_site_type_symbol
 _atom_site_label
 _atom_site_symmetry_multiplicity
 _atom_site_fract_x
 _atom_site_fract_y
 _atom_site_fract_z
 _atom_site_occupancy
  Tm  Tm0  1  0.408001  0.012421  0.000000  1
  Tm  Tm1  1  0.987579  0.395579  0.000000  1
  Tm  Tm2  1  0.604421  0.592000  0.000000  1
  Zn  Zn3  1  0.736246  0.002268  0.500001  1
  Zn  Zn4  1  0.266022  0.263754  0.500001  1
  Zn  Zn5  1  0.997732  0.733978  0.500001  1
  Pt  Pt6  1  0.666667  0.333333  0.500001  1
  Au  Au7  1  0.000000  0.000000  0.000000  1
  Au  Au8  1  0.333333  0.666667  0.500001  1
