# generated using pymatgen
data_Nd12CuSi8Ni3
_symmetry_space_group_name_H-M   'P 1'
_cell_length_a   4.23554000
_cell_length_b   11.70339102
_cell_length_c   11.71827332
_cell_angle_alpha   90.01654498
_cell_angle_beta   90.00000000
_cell_angle_gamma   90.00000000
_symmetry_Int_Tables_number   1
_chemical_formula_structural   Nd12CuSi8Ni3
_chemical_formula_sum   'Nd12 Cu1 Si8 Ni3'
_cell_volume   580.87690281
_cell_formula_units_Z   1
loop_
 _symmetry_equiv_pos_site_id
 _symmetry_equiv_pos_as_xyz
  1  'x, y, z'
loop_
 _atom_site_type_symbol
 _atom_site_label
 _atom_site_symmetry_multiplicity
 _atom_site_fract_x
 _atom_site_fract_y
 _atom_site_fract_z
 _atom_site_occupancy
  Nd  Nd0  1  0.250000  0.060543  0.883119  1
  Nd  Nd1  1  0.250000  0.441600  0.379510  1
  Nd  Nd2  1  0.750000  0.940959  0.115809  1
  Nd  Nd3  1  0.750000  0.562198  0.616043  1
  Nd  Nd4  1  0.250000  0.118489  0.559248  1
  Nd  Nd5  1  0.250000  0.377167  0.059729  1
  Nd  Nd6  1  0.750000  0.874987  0.439708  1
  Nd  Nd7  1  0.750000  0.624772  0.940048  1
  Nd  Nd8  1  0.250000  0.803540  0.711541  1
  Nd  Nd9  1  0.250000  0.698104  0.210843  1
  Nd  Nd10  1  0.750000  0.196018  0.289426  1
  Nd  Nd11  1  0.750000  0.301158  0.793395  1
  Cu  Cu12  1  0.250000  0.363421  0.630225  1
  Si  Si13  1  0.250000  0.814937  0.969594  1
  Si  Si14  1  0.250000  0.683838  0.470725  1
  Si  Si15  1  0.750000  0.186410  0.031189  1
  Si  Si16  1  0.750000  0.313163  0.528037  1
  Si  Si17  1  0.250000  0.492674  0.802288  1
  Si  Si18  1  0.250000  0.008509  0.300078  1
  Si  Si19  1  0.750000  0.510560  0.198338  1
  Si  Si20  1  0.750000  0.991094  0.700672  1
  Ni  Ni21  1  0.250000  0.134757  0.129385  1
  Ni  Ni22  1  0.750000  0.634540  0.370034  1
  Ni  Ni23  1  0.750000  0.866562  0.871015  1
