# generated using pymatgen
data_Rb3Li2SiP3
_symmetry_space_group_name_H-M   'P 1'
_cell_length_a   9.83567747
_cell_length_b   9.83567749
_cell_length_c   15.56919800
_cell_angle_alpha   90.00000000
_cell_angle_beta   90.00000000
_cell_angle_gamma   143.00575711
_symmetry_Int_Tables_number   1
_chemical_formula_structural   Rb3Li2SiP3
_chemical_formula_sum   'Rb12 Li8 Si4 P12'
_cell_volume   906.31654841
_cell_formula_units_Z   4
loop_
 _symmetry_equiv_pos_site_id
 _symmetry_equiv_pos_as_xyz
  1  'x, y, z'
loop_
 _atom_site_type_symbol
 _atom_site_label
 _atom_site_symmetry_multiplicity
 _atom_site_fract_x
 _atom_site_fract_y
 _atom_site_fract_z
 _atom_site_occupancy
  Rb  Rb0  1  0.946564  0.609115  0.832928  1
  Rb  Rb1  1  0.553436  0.890885  0.332928  1
  Rb  Rb2  1  0.390885  0.053436  0.167072  1
  Rb  Rb3  1  0.053436  0.390885  0.167072  1
  Rb  Rb4  1  0.890885  0.553436  0.332928  1
  Rb  Rb5  1  0.446564  0.109115  0.667072  1
  Rb  Rb6  1  0.609115  0.946564  0.832928  1
  Rb  Rb7  1  0.278383  0.278383  0.323287  1
  Rb  Rb8  1  0.778383  0.778383  0.176713  1
  Rb  Rb9  1  0.221617  0.221617  0.823287  1
  Rb  Rb10  1  0.721617  0.721617  0.676713  1
  Rb  Rb11  1  0.109115  0.446564  0.667072  1
  Li  Li12  1  0.919492  0.080508  0.000000  1
  Li  Li13  1  0.580508  0.419492  0.500000  1
  Li  Li14  1  0.080508  0.919492  0.000000  1
  Li  Li15  1  0.419492  0.580508  0.500000  1
  Li  Li16  1  0.751860  0.248140  0.000000  1
  Li  Li17  1  0.748140  0.251860  0.500000  1
  Li  Li18  1  0.248140  0.751860  0.000000  1
  Li  Li19  1  0.251860  0.748140  0.500000  1
  Si  Si20  1  0.586872  0.413128  0.000000  1
  Si  Si21  1  0.913128  0.086872  0.500000  1
  Si  Si22  1  0.413128  0.586872  0.000000  1
  Si  Si23  1  0.086872  0.913128  0.500000  1
  P  P24  1  0.875605  0.561333  0.081901  1
  P  P25  1  0.438667  0.124395  0.918099  1
  P  P26  1  0.624395  0.938667  0.581901  1
  P  P27  1  0.938667  0.624395  0.581901  1
  P  P28  1  0.124395  0.438667  0.918099  1
  P  P29  1  0.561333  0.875605  0.081901  1
  P  P30  1  0.375605  0.061333  0.418099  1
  P  P31  1  0.200115  0.200115  0.575952  1
  P  P32  1  0.700115  0.700115  0.924048  1
  P  P33  1  0.299885  0.299885  0.075952  1
  P  P34  1  0.061333  0.375605  0.418099  1
  P  P35  1  0.799885  0.799885  0.424048  1
