# generated using pymatgen
data_Cu2S2Cl
_symmetry_space_group_name_H-M   'P 1'
_cell_length_a   3.76249475
_cell_length_b   3.68806372
_cell_length_c   7.92043125
_cell_angle_alpha   90.44541996
_cell_angle_beta   89.36624688
_cell_angle_gamma   60.41121817
_symmetry_Int_Tables_number   1
_chemical_formula_structural   Cu2S2Cl
_chemical_formula_sum   'Cu2 S2 Cl1'
_cell_volume   95.55680290
_cell_formula_units_Z   1
loop_
 _symmetry_equiv_pos_site_id
 _symmetry_equiv_pos_as_xyz
  1  'x, y, z'
loop_
 _atom_site_type_symbol
 _atom_site_label
 _atom_site_symmetry_multiplicity
 _atom_site_fract_x
 _atom_site_fract_y
 _atom_site_fract_z
 _atom_site_occupancy
  Cu  Cu0  1  0.840408  0.067458  0.658819  1
  Cu  Cu1  1  0.803715  0.095992  0.114099  1
  S  S2  1  0.161200  0.409793  0.755078  1
  S  S3  1  0.137887  0.427164  0.019136  1
  Cl  Cl4  1  0.633131  0.245663  0.389870  1
