# generated using pymatgen
data_Ho4Al2B4Ru3Rh7
_symmetry_space_group_name_H-M   'P 1'
_cell_length_a   9.55706200
_cell_length_b   9.57559062
_cell_length_c   3.09280600
_cell_angle_alpha   90.00000000
_cell_angle_beta   90.00000000
_cell_angle_gamma   89.94373093
_symmetry_Int_Tables_number   1
_chemical_formula_structural   Ho4Al2B4Ru3Rh7
_chemical_formula_sum   'Ho4 Al2 B4 Ru3 Rh7'
_cell_volume   283.03649908
_cell_formula_units_Z   1
loop_
 _symmetry_equiv_pos_site_id
 _symmetry_equiv_pos_as_xyz
  1  'x, y, z'
loop_
 _atom_site_type_symbol
 _atom_site_label
 _atom_site_symmetry_multiplicity
 _atom_site_fract_x
 _atom_site_fract_y
 _atom_site_fract_z
 _atom_site_occupancy
  Ho  Ho0  1  0.828093  0.323228  0.000000  1
  Ho  Ho1  1  0.321890  0.176041  0.000000  1
  Ho  Ho2  1  0.675371  0.824711  0.000000  1
  Ho  Ho3  1  0.175767  0.674055  0.000000  1
  Al  Al4  1  0.000434  0.003000  0.000000  1
  Al  Al5  1  0.499392  0.499991  0.000000  1
  B  B6  1  0.620755  0.120524  0.000000  1
  B  B7  1  0.118291  0.373515  0.000000  1
  B  B8  1  0.880084  0.620523  0.000000  1
  B  B9  1  0.378952  0.879234  0.000000  1
  Ru  Ru10  1  0.070053  0.218180  0.500000  1
  Ru  Ru11  1  0.499899  0.000092  0.500000  1
  Ru  Ru12  1  0.000179  0.501985  0.500000  1
  Rh  Rh13  1  0.217176  0.928628  0.500000  1
  Rh  Rh14  1  0.781992  0.069581  0.500000  1
  Rh  Rh15  1  0.929756  0.784071  0.500000  1
  Rh  Rh16  1  0.430384  0.717510  0.500000  1
  Rh  Rh17  1  0.570890  0.282566  0.500000  1
  Rh  Rh18  1  0.717012  0.570699  0.500000  1
  Rh  Rh19  1  0.283628  0.431866  0.500000  1
