# generated using pymatgen
data_Tm3LuGa20(OsRu2)2
_symmetry_space_group_name_H-M   'P 1'
_cell_length_a   8.89473402
_cell_length_b   8.89473402
_cell_length_c   6.36409600
_cell_angle_alpha   90.00000000
_cell_angle_beta   90.00000000
_cell_angle_gamma   90.00729182
_symmetry_Int_Tables_number   1
_chemical_formula_structural   Tm3LuGa20(OsRu2)2
_chemical_formula_sum   'Tm3 Lu1 Ga20 Os2 Ru4'
_cell_volume   503.50368134
_cell_formula_units_Z   1
loop_
 _symmetry_equiv_pos_site_id
 _symmetry_equiv_pos_as_xyz
  1  'x, y, z'
loop_
 _atom_site_type_symbol
 _atom_site_label
 _atom_site_symmetry_multiplicity
 _atom_site_fract_x
 _atom_site_fract_y
 _atom_site_fract_z
 _atom_site_occupancy
  Tm  Tm0  1  0.683518  0.183517  0.000000  1
  Tm  Tm1  1  0.816477  0.683523  0.000000  1
  Tm  Tm2  1  0.316483  0.816482  0.000000  1
  Lu  Lu3  1  0.183532  0.316468  0.000000  1
  Ga  Ga4  1  0.499999  0.000001  0.283278  1
  Ga  Ga5  1  0.499999  0.000001  0.716722  1
  Ga  Ga6  1  0.292840  0.561310  0.707237  1
  Ga  Ga7  1  0.000036  0.499964  0.283207  1
  Ga  Ga8  1  0.000036  0.499964  0.716793  1
  Ga  Ga9  1  0.061335  0.792848  0.707200  1
  Ga  Ga10  1  0.207151  0.061379  0.292744  1
  Ga  Ga11  1  0.061335  0.792848  0.292800  1
  Ga  Ga12  1  0.707152  0.438665  0.707200  1
  Ga  Ga13  1  0.207151  0.061379  0.707256  1
  Ga  Ga14  1  0.938690  0.207160  0.707237  1
  Ga  Ga15  1  0.707152  0.438665  0.292800  1
  Ga  Ga16  1  0.561334  0.707152  0.292806  1
  Ga  Ga17  1  0.938690  0.207160  0.292763  1
  Ga  Ga18  1  0.561334  0.707152  0.707194  1
  Ga  Ga19  1  0.792848  0.938666  0.292806  1
  Ga  Ga20  1  0.438621  0.292849  0.707256  1
  Ga  Ga21  1  0.792848  0.938666  0.707194  1
  Ga  Ga22  1  0.438621  0.292849  0.292744  1
  Ga  Ga23  1  0.292840  0.561310  0.292763  1
  Os  Os24  1  0.000039  0.000068  0.000000  1
  Os  Os25  1  0.499932  0.499961  0.000000  1
  Ru  Ru26  1  0.178077  0.321923  0.500000  1
  Ru  Ru27  1  0.321923  0.821920  0.500000  1
  Ru  Ru28  1  0.821927  0.678073  0.500000  1
  Ru  Ru29  1  0.678080  0.178077  0.500000  1
