# generated using pymatgen
data_Er4LuIr2Ru
_symmetry_space_group_name_H-M   'P 1'
_cell_length_a   10.70614900
_cell_length_b   10.70614900
_cell_length_c   6.36798700
_cell_angle_alpha   90.00000000
_cell_angle_beta   90.00000000
_cell_angle_gamma   90.00000000
_symmetry_Int_Tables_number   1
_chemical_formula_structural   Er4LuIr2Ru
_chemical_formula_sum   'Er16 Lu4 Ir8 Ru4'
_cell_volume   729.90902690
_cell_formula_units_Z   4
loop_
 _symmetry_equiv_pos_site_id
 _symmetry_equiv_pos_as_xyz
  1  'x, y, z'
loop_
 _atom_site_type_symbol
 _atom_site_label
 _atom_site_symmetry_multiplicity
 _atom_site_fract_x
 _atom_site_fract_y
 _atom_site_fract_z
 _atom_site_occupancy
  Er  Er0  1  0.292914  0.086499  0.377044  1
  Er  Er1  1  0.292914  0.913501  0.877044  1
  Er  Er2  1  0.707086  0.086499  0.877044  1
  Er  Er3  1  0.707086  0.913501  0.377044  1
  Er  Er4  1  0.586499  0.792914  0.877044  1
  Er  Er5  1  0.586499  0.207086  0.377044  1
  Er  Er6  1  0.413501  0.792914  0.377044  1
  Er  Er7  1  0.413501  0.207086  0.877044  1
  Er  Er8  1  0.207086  0.413501  0.622956  1
  Er  Er9  1  0.207086  0.586499  0.122956  1
  Er  Er10  1  0.792914  0.413501  0.122956  1
  Er  Er11  1  0.792914  0.586499  0.622956  1
  Er  Er12  1  0.913501  0.707086  0.122956  1
  Er  Er13  1  0.913501  0.292914  0.622956  1
  Er  Er14  1  0.086499  0.707086  0.622956  1
  Er  Er15  1  0.086499  0.292914  0.122956  1
  Lu  Lu16  1  0.000000  0.000000  0.500000  1
  Lu  Lu17  1  0.000000  0.000000  0.000000  1
  Lu  Lu18  1  0.500000  0.500000  0.000000  1
  Lu  Lu19  1  0.500000  0.500000  0.500000  1
  Ir  Ir20  1  0.848680  0.151320  0.250000  1
  Ir  Ir21  1  0.848680  0.848680  0.750000  1
  Ir  Ir22  1  0.151320  0.151320  0.750000  1
  Ir  Ir23  1  0.151320  0.848680  0.250000  1
  Ir  Ir24  1  0.651320  0.348680  0.750000  1
  Ir  Ir25  1  0.651320  0.651320  0.250000  1
  Ir  Ir26  1  0.348680  0.348680  0.250000  1
  Ir  Ir27  1  0.348680  0.651320  0.750000  1
  Ru  Ru28  1  0.500000  0.000000  0.122406  1
  Ru  Ru29  1  0.500000  0.000000  0.622406  1
  Ru  Ru30  1  0.000000  0.500000  0.877594  1
  Ru  Ru31  1  0.000000  0.500000  0.377594  1
