# generated using pymatgen
data_TbTmTh2(AlRh)4
_symmetry_space_group_name_H-M   'P 1'
_cell_length_a   4.30128800
_cell_length_b   6.90594875
_cell_length_c   8.03588064
_cell_angle_alpha   90.45616499
_cell_angle_beta   90.00000000
_cell_angle_gamma   90.00000000
_symmetry_Int_Tables_number   1
_chemical_formula_structural   TbTmTh2(AlRh)4
_chemical_formula_sum   'Tb1 Tm1 Th2 Al4 Rh4'
_cell_volume   238.69404605
_cell_formula_units_Z   1
loop_
 _symmetry_equiv_pos_site_id
 _symmetry_equiv_pos_as_xyz
  1  'x, y, z'
loop_
 _atom_site_type_symbol
 _atom_site_label
 _atom_site_symmetry_multiplicity
 _atom_site_fract_x
 _atom_site_fract_y
 _atom_site_fract_z
 _atom_site_occupancy
  Tb  Tb0  1  0.250000  0.457137  0.182554  1
  Tm  Tm1  1  0.750000  0.043035  0.682494  1
  Th  Th2  1  0.250000  0.961782  0.325328  1
  Th  Th3  1  0.750000  0.539202  0.823796  1
  Al  Al4  1  0.750000  0.625216  0.439027  1
  Al  Al5  1  0.750000  0.132571  0.057264  1
  Al  Al6  1  0.250000  0.365457  0.559324  1
  Al  Al7  1  0.250000  0.876610  0.937020  1
  Rh  Rh8  1  0.750000  0.761050  0.120671  1
  Rh  Rh9  1  0.750000  0.253136  0.378742  1
  Rh  Rh10  1  0.250000  0.242934  0.873571  1
  Rh  Rh11  1  0.250000  0.741869  0.620208  1
