# generated using pymatgen
data_YbDy2Ho(Mo2O7)2
_symmetry_space_group_name_H-M   'P 1'
_cell_length_a   7.29423566
_cell_length_b   7.29423534
_cell_length_c   7.41617211
_cell_angle_alpha   60.55660094
_cell_angle_beta   60.55660507
_cell_angle_gamma   60.01439829
_symmetry_Int_Tables_number   1
_chemical_formula_structural   YbDy2Ho(Mo2O7)2
_chemical_formula_sum   'Yb1 Dy2 Ho1 Mo4 O14'
_cell_volume   281.36841259
_cell_formula_units_Z   1
loop_
 _symmetry_equiv_pos_site_id
 _symmetry_equiv_pos_as_xyz
  1  'x, y, z'
loop_
 _atom_site_type_symbol
 _atom_site_label
 _atom_site_symmetry_multiplicity
 _atom_site_fract_x
 _atom_site_fract_y
 _atom_site_fract_z
 _atom_site_occupancy
  Yb  Yb0  1  0.125000  0.125000  0.625000  1
  Dy  Dy1  1  0.625000  0.125000  0.125000  1
  Dy  Dy2  1  0.125000  0.625000  0.125000  1
  Ho  Ho3  1  0.125000  0.125000  0.125000  1
  Mo  Mo4  1  0.125000  0.625000  0.625000  1
  Mo  Mo5  1  0.625000  0.125000  0.625000  1
  Mo  Mo6  1  0.625000  0.625000  0.125000  1
  Mo  Mo7  1  0.625000  0.625000  0.625000  1
  O  O8  1  0.709021  0.709021  0.285572  1
  O  O9  1  0.287837  0.287837  0.725177  1
  O  O10  1  0.699426  0.288016  0.724638  1
  O  O11  1  0.296344  0.709380  0.285448  1
  O  O12  1  0.288016  0.699426  0.724638  1
  O  O13  1  0.709380  0.296344  0.285448  1
  O  O14  1  0.540979  0.540979  0.964428  1
  O  O15  1  0.962163  0.962163  0.524823  1
  O  O16  1  0.550574  0.961984  0.525362  1
  O  O17  1  0.953656  0.540620  0.964552  1
  O  O18  1  0.961984  0.550574  0.525362  1
  O  O19  1  0.540620  0.953656  0.964552  1
  O  O20  1  0.251524  0.251524  0.243560  1
  O  O21  1  0.998476  0.998476  0.006440  1
