# generated using pymatgen
data_Sm8Sn(IO8)3
_symmetry_space_group_name_H-M   'P 1'
_cell_length_a   5.58615860
_cell_length_b   7.85590279
_cell_length_c   11.88893600
_cell_angle_alpha   76.36122938
_cell_angle_beta   90.26689161
_cell_angle_gamma   89.67176414
_symmetry_Int_Tables_number   1
_chemical_formula_structural   Sm8Sn(IO8)3
_chemical_formula_sum   'Sm8 Sn1 I3 O24'
_cell_volume   507.00770698
_cell_formula_units_Z   1
loop_
 _symmetry_equiv_pos_site_id
 _symmetry_equiv_pos_as_xyz
  1  'x, y, z'
loop_
 _atom_site_type_symbol
 _atom_site_label
 _atom_site_symmetry_multiplicity
 _atom_site_fract_x
 _atom_site_fract_y
 _atom_site_fract_z
 _atom_site_occupancy
  Sm  Sm0  1  0.740341  0.976531  0.754492  1
  Sm  Sm1  1  0.256272  0.012656  0.254280  1
  Sm  Sm2  1  0.196970  0.777239  0.585558  1
  Sm  Sm3  1  0.814392  0.800921  0.067524  1
  Sm  Sm4  1  0.680532  0.505431  0.758668  1
  Sm  Sm5  1  0.304763  0.505255  0.239238  1
  Sm  Sm6  1  0.197044  0.200654  0.924791  1
  Sm  Sm7  1  0.801066  0.222723  0.422954  1
  Sn  Sn8  1  0.252755  0.717529  0.889426  1
  I  I9  1  0.746014  0.735092  0.381087  1
  I  I10  1  0.249731  0.267370  0.617901  1
  I  I11  1  0.745300  0.278400  0.113114  1
  O  O12  1  0.030377  0.941013  0.896693  1
  O  O13  1  0.537744  0.858566  0.927213  1
  O  O14  1  0.924313  0.946722  0.392066  1
  O  O15  1  0.476625  0.773786  0.720734  1
  O  O16  1  0.467541  0.836024  0.432619  1
  O  O17  1  0.977841  0.708501  0.762453  1
  O  O18  1  0.579175  0.817481  0.233095  1
  O  O19  1  0.854218  0.641957  0.532248  1
  O  O20  1  0.367113  0.473386  0.883681  1
  O  O21  1  0.020368  0.707935  0.287373  1
  O  O22  1  0.377526  0.488275  0.616702  1
  O  O23  1  0.849948  0.354259  0.954693  1
  O  O24  1  0.148646  0.639344  0.063187  1
  O  O25  1  0.626735  0.513492  0.375814  1
  O  O26  1  0.981787  0.298041  0.714802  1
  O  O27  1  0.629225  0.508321  0.107247  1
  O  O28  1  0.137847  0.362651  0.466197  1
  O  O29  1  0.422151  0.184373  0.762292  1
  O  O30  1  0.030551  0.287705  0.243680  1
  O  O31  1  0.519098  0.162639  0.562758  1
  O  O32  1  0.533917  0.224837  0.272171  1
  O  O33  1  0.065217  0.059893  0.604626  1
  O  O34  1  0.478693  0.149810  0.073043  1
  O  O35  1  0.978163  0.061186  0.105580  1
