# generated using pymatgen
data_Dy3Mg2CdIrAu2
_symmetry_space_group_name_H-M   'P 1'
_cell_length_a   7.72389058
_cell_length_b   7.75433657
_cell_length_c   3.86728700
_cell_angle_alpha   90.00000000
_cell_angle_beta   90.00000000
_cell_angle_gamma   119.62216226
_symmetry_Int_Tables_number   1
_chemical_formula_structural   Dy3Mg2CdIrAu2
_chemical_formula_sum   'Dy3 Mg2 Cd1 Ir1 Au2'
_cell_volume   201.35329634
_cell_formula_units_Z   1
loop_
 _symmetry_equiv_pos_site_id
 _symmetry_equiv_pos_as_xyz
  1  'x, y, z'
loop_
 _atom_site_type_symbol
 _atom_site_label
 _atom_site_symmetry_multiplicity
 _atom_site_fract_x
 _atom_site_fract_y
 _atom_site_fract_z
 _atom_site_occupancy
  Dy  Dy0  1  0.577881  0.965357  0.000000  1
  Dy  Dy1  1  0.018718  0.606463  0.000000  1
  Dy  Dy2  1  0.402173  0.429206  0.000000  1
  Mg  Mg3  1  0.260138  0.003714  0.500000  1
  Mg  Mg4  1  0.998557  0.258573  0.500000  1
  Cd  Cd5  1  0.742519  0.736684  0.500000  1
  Ir  Ir6  1  0.320942  0.663623  0.500000  1
  Au  Au7  1  0.663275  0.319367  0.500000  1
  Au  Au8  1  0.015797  0.017012  0.000000  1
