# generated using pymatgen
data_Tb7Ho9CdHg3(OsPt)2
_symmetry_space_group_name_H-M   'P 1'
_cell_length_a   9.65194608
_cell_length_b   9.65194617
_cell_length_c   9.70646800
_cell_angle_alpha   59.81296290
_cell_angle_beta   59.81296260
_cell_angle_gamma   59.71201311
_symmetry_Int_Tables_number   1
_chemical_formula_structural   Tb7Ho9CdHg3(OsPt)2
_chemical_formula_sum   'Tb7 Ho9 Cd1 Hg3 Os2 Pt2'
_cell_volume   636.19995195
_cell_formula_units_Z   1
loop_
 _symmetry_equiv_pos_site_id
 _symmetry_equiv_pos_as_xyz
  1  'x, y, z'
loop_
 _atom_site_type_symbol
 _atom_site_label
 _atom_site_symmetry_multiplicity
 _atom_site_fract_x
 _atom_site_fract_y
 _atom_site_fract_z
 _atom_site_occupancy
  Tb  Tb0  1  0.807675  0.807702  0.192311  1
  Tb  Tb1  1  0.938114  0.555081  0.566281  1
  Tb  Tb2  1  0.554904  0.939363  0.939480  1
  Tb  Tb3  1  0.554904  0.939363  0.566253  1
  Tb  Tb4  1  0.938114  0.555081  0.940524  1
  Tb  Tb5  1  0.562303  0.562659  0.937519  1
  Tb  Tb6  1  0.938949  0.941121  0.559965  1
  Ho  Ho7  1  0.350924  0.350368  0.352689  1
  Ho  Ho8  1  0.350924  0.350368  0.946020  1
  Ho  Ho9  1  0.346029  0.954324  0.349823  1
  Ho  Ho10  1  0.952287  0.346519  0.350597  1
  Ho  Ho11  1  0.814333  0.188252  0.191030  1
  Ho  Ho12  1  0.187469  0.814831  0.806900  1
  Ho  Ho13  1  0.187469  0.814831  0.190800  1
  Ho  Ho14  1  0.814333  0.188252  0.806386  1
  Ho  Ho15  1  0.187526  0.188261  0.812106  1
  Cd  Cd16  1  0.256915  0.581088  0.580998  1
  Hg  Hg17  1  0.582396  0.584122  0.585128  1
  Hg  Hg18  1  0.582396  0.584122  0.248353  1
  Hg  Hg19  1  0.583740  0.245254  0.585503  1
  Os  Os20  1  0.144178  0.144730  0.136947  1
  Os  Os21  1  0.144178  0.144730  0.574147  1
  Pt  Pt22  1  0.146361  0.573254  0.140193  1
  Pt  Pt23  1  0.573581  0.146328  0.140047  1
