# generated using pymatgen
data_PrPa5O12
_symmetry_space_group_name_H-M   'P 1'
_cell_length_a   6.71915213
_cell_length_b   6.71915253
_cell_length_c   6.72561715
_cell_angle_alpha   80.40924362
_cell_angle_beta   80.40923304
_cell_angle_gamma   119.99291579
_symmetry_Int_Tables_number   1
_chemical_formula_structural   PrPa5O12
_chemical_formula_sum   'Pr1 Pa5 O12'
_cell_volume   247.95383082
_cell_formula_units_Z   1
loop_
 _symmetry_equiv_pos_site_id
 _symmetry_equiv_pos_as_xyz
  1  'x, y, z'
loop_
 _atom_site_type_symbol
 _atom_site_label
 _atom_site_symmetry_multiplicity
 _atom_site_fract_x
 _atom_site_fract_y
 _atom_site_fract_z
 _atom_site_occupancy
  Pr  Pr0  1  0.500000  0.500000  0.500000  1
  Pa  Pa1  1  0.833109  0.166891  0.500000  1
  Pa  Pa2  1  0.166891  0.833109  0.500000  1
  Pa  Pa3  1  0.666543  0.333457  0.000000  1
  Pa  Pa4  1  0.000000  0.000000  0.000000  1
  Pa  Pa5  1  0.333457  0.666543  0.000000  1
  O  O6  1  0.110084  0.110084  0.631483  1
  O  O7  1  0.707603  0.042739  0.877268  1
  O  O8  1  0.957261  0.292397  0.122732  1
  O  O9  1  0.368253  0.368253  0.889393  1
  O  O10  1  0.042739  0.707603  0.877268  1
  O  O11  1  0.543162  0.198266  0.368420  1
  O  O12  1  0.889916  0.889916  0.368517  1
  O  O13  1  0.456838  0.801734  0.631580  1
  O  O14  1  0.631747  0.631747  0.110607  1
  O  O15  1  0.292397  0.957261  0.122732  1
  O  O16  1  0.801734  0.456838  0.631580  1
  O  O17  1  0.198266  0.543162  0.368420  1
