# generated using pymatgen
data_Tb2Tm6Sc12Si15P
_symmetry_space_group_name_H-M   'P 1'
_cell_length_a   7.05443324
_cell_length_b   7.33870685
_cell_length_c   13.91047804
_cell_angle_alpha   90.09381849
_cell_angle_beta   90.02668415
_cell_angle_gamma   90.20602930
_symmetry_Int_Tables_number   1
_chemical_formula_structural   Tb2Tm6Sc12Si15P
_chemical_formula_sum   'Tb2 Tm6 Sc12 Si15 P1'
_cell_volume   720.14555519
_cell_formula_units_Z   1
loop_
 _symmetry_equiv_pos_site_id
 _symmetry_equiv_pos_as_xyz
  1  'x, y, z'
loop_
 _atom_site_type_symbol
 _atom_site_label
 _atom_site_symmetry_multiplicity
 _atom_site_fract_x
 _atom_site_fract_y
 _atom_site_fract_z
 _atom_site_occupancy
  Tb  Tb0  1  0.010307  0.175431  0.096028  1
  Tb  Tb1  1  0.990767  0.826603  0.900962  1
  Tm  Tm2  1  0.490274  0.675924  0.903818  1
  Tm  Tm3  1  0.990815  0.825317  0.599409  1
  Tm  Tm4  1  0.510907  0.323957  0.096026  1
  Tm  Tm5  1  0.010286  0.176184  0.403657  1
  Tm  Tm6  1  0.511489  0.323548  0.404605  1
  Tm  Tm7  1  0.489614  0.676329  0.595518  1
  Sc  Sc8  1  0.160214  0.502347  0.749574  1
  Sc  Sc9  1  0.838401  0.496944  0.250366  1
  Sc  Sc10  1  0.338802  0.003253  0.250232  1
  Sc  Sc11  1  0.662956  0.998344  0.749752  1
  Sc  Sc12  1  0.327651  0.173645  0.627016  1
  Sc  Sc13  1  0.667587  0.823112  0.375637  1
  Sc  Sc14  1  0.167906  0.677320  0.375497  1
  Sc  Sc15  1  0.667235  0.822511  0.124876  1
  Sc  Sc16  1  0.832790  0.322551  0.626188  1
  Sc  Sc17  1  0.328420  0.174422  0.872482  1
  Sc  Sc18  1  0.831930  0.323616  0.873449  1
  Sc  Sc19  1  0.168607  0.676446  0.124985  1
  Si  Si20  1  0.964697  0.884628  0.250651  1
  Si  Si21  1  0.466259  0.612873  0.250208  1
  Si  Si22  1  0.531338  0.385136  0.749696  1
  Si  Si23  1  0.296610  0.862330  0.749151  1
  Si  Si24  1  0.713346  0.127971  0.250906  1
  Si  Si25  1  0.215966  0.372217  0.250811  1
  Si  Si26  1  0.785518  0.629561  0.749127  1
  Si  Si27  1  0.159298  0.464203  0.540012  1
  Si  Si28  1  0.840666  0.535073  0.461385  1
  Si  Si29  1  0.338512  0.965950  0.460918  1
  Si  Si30  1  0.839416  0.535378  0.038587  1
  Si  Si31  1  0.661466  0.035865  0.540197  1
  Si  Si32  1  0.160693  0.464154  0.959930  1
  Si  Si33  1  0.658162  0.037000  0.959941  1
  Si  Si34  1  0.341650  0.964824  0.038842  1
  P  P35  1  0.029443  0.125031  0.749559  1
