# generated using pymatgen
data_Lu8Re(TcB8)3
_symmetry_space_group_name_H-M   'P 1'
_cell_length_a   3.61786900
_cell_length_b   9.05843821
_cell_length_c   11.40689426
_cell_angle_alpha   90.02454041
_cell_angle_beta   90.00000000
_cell_angle_gamma   90.00000000
_symmetry_Int_Tables_number   1
_chemical_formula_structural   Lu8Re(TcB8)3
_chemical_formula_sum   'Lu8 Re1 Tc3 B24'
_cell_volume   373.82947382
_cell_formula_units_Z   1
loop_
 _symmetry_equiv_pos_site_id
 _symmetry_equiv_pos_as_xyz
  1  'x, y, z'
loop_
 _atom_site_type_symbol
 _atom_site_label
 _atom_site_symmetry_multiplicity
 _atom_site_fract_x
 _atom_site_fract_y
 _atom_site_fract_z
 _atom_site_occupancy
  Lu  Lu0  1  0.000000  0.323532  0.414136  1
  Lu  Lu1  1  0.000000  0.676789  0.585791  1
  Lu  Lu2  1  0.000000  0.823260  0.086090  1
  Lu  Lu3  1  0.000000  0.177178  0.914304  1
  Lu  Lu4  1  0.000000  0.942856  0.369640  1
  Lu  Lu5  1  0.000000  0.058057  0.629375  1
  Lu  Lu6  1  0.000000  0.442670  0.130425  1
  Lu  Lu7  1  0.000000  0.556115  0.869989  1
  Re  Re8  1  0.000000  0.860957  0.820668  1
  Tc  Tc9  1  0.000000  0.638808  0.320287  1
  Tc  Tc10  1  0.000000  0.361216  0.679628  1
  Tc  Tc11  1  0.000000  0.138869  0.179657  1
  B  B12  1  0.500000  0.553167  0.433642  1
  B  B13  1  0.500000  0.447150  0.566406  1
  B  B14  1  0.500000  0.053036  0.066535  1
  B  B15  1  0.500000  0.947158  0.933828  1
  B  B16  1  0.500000  0.750278  0.419448  1
  B  B17  1  0.500000  0.250076  0.580416  1
  B  B18  1  0.500000  0.250073  0.080591  1
  B  B19  1  0.500000  0.749371  0.919663  1
  B  B20  1  0.500000  0.792775  0.264482  1
  B  B21  1  0.500000  0.207267  0.735279  1
  B  B22  1  0.500000  0.292752  0.235605  1
  B  B23  1  0.500000  0.706888  0.764573  1
  B  B24  1  0.500000  0.630119  0.184333  1
  B  B25  1  0.500000  0.369619  0.815652  1
  B  B26  1  0.500000  0.130205  0.315716  1
  B  B27  1  0.500000  0.870008  0.684113  1
  B  B28  1  0.500000  0.980564  0.211752  1
  B  B29  1  0.500000  0.019735  0.788024  1
  B  B30  1  0.500000  0.480591  0.288274  1
  B  B31  1  0.500000  0.519256  0.711872  1
  B  B32  1  0.500000  0.598910  0.027723  1
  B  B33  1  0.500000  0.400376  0.972494  1
  B  B34  1  0.500000  0.099397  0.472101  1
  B  B35  1  0.500000  0.900923  0.527487  1
