# generated using pymatgen
data_Er7Tm(MoI4)2
_symmetry_space_group_name_H-M   'P 1'
_cell_length_a   11.31432828
_cell_length_b   11.31033398
_cell_length_c   5.93480819
_cell_angle_alpha   90.38704472
_cell_angle_beta   90.39988925
_cell_angle_gamma   90.02338658
_symmetry_Int_Tables_number   1
_chemical_formula_structural   Er7Tm(MoI4)2
_chemical_formula_sum   'Er7 Tm1 Mo2 I8'
_cell_volume   759.43456511
_cell_formula_units_Z   1
loop_
 _symmetry_equiv_pos_site_id
 _symmetry_equiv_pos_as_xyz
  1  'x, y, z'
loop_
 _atom_site_type_symbol
 _atom_site_label
 _atom_site_symmetry_multiplicity
 _atom_site_fract_x
 _atom_site_fract_y
 _atom_site_fract_z
 _atom_site_occupancy
  Er  Er0  1  0.794986  0.084172  0.997234  1
  Er  Er1  1  0.084421  0.795011  0.497301  1
  Er  Er2  1  0.915905  0.204962  0.502743  1
  Er  Er3  1  0.795072  0.915799  0.496410  1
  Er  Er4  1  0.205190  0.083965  0.503613  1
  Er  Er5  1  0.084285  0.204923  0.003590  1
  Er  Er6  1  0.915952  0.794973  0.996427  1
  Tm  Tm7  1  0.203557  0.916385  0.002811  1
  Mo  Mo8  1  0.999813  0.000252  0.249836  1
  Mo  Mo9  1  0.000423  0.999647  0.750158  1
  I  I10  1  0.359956  0.848421  0.495071  1
  I  I11  1  0.640044  0.151593  0.504748  1
  I  I12  1  0.151904  0.640350  0.004757  1
  I  I13  1  0.848415  0.359968  0.995278  1
  I  I14  1  0.359821  0.151432  0.012906  1
  I  I15  1  0.640233  0.848156  0.987109  1
  I  I16  1  0.848158  0.640153  0.487105  1
  I  I17  1  0.151865  0.359838  0.512905  1
