# generated using pymatgen
data_K2Co3Br8
_symmetry_space_group_name_H-M   'P 1'
_cell_length_a   10.44771084
_cell_length_b   10.44771090
_cell_length_c   7.28065700
_cell_angle_alpha   83.95499167
_cell_angle_beta   83.95498612
_cell_angle_gamma   142.33702320
_symmetry_Int_Tables_number   1
_chemical_formula_structural   K2Co3Br8
_chemical_formula_sum   'K2 Co3 Br8'
_cell_volume   459.01499840
_cell_formula_units_Z   1
loop_
 _symmetry_equiv_pos_site_id
 _symmetry_equiv_pos_as_xyz
  1  'x, y, z'
loop_
 _atom_site_type_symbol
 _atom_site_label
 _atom_site_symmetry_multiplicity
 _atom_site_fract_x
 _atom_site_fract_y
 _atom_site_fract_z
 _atom_site_occupancy
  K  K0  1  0.649129  0.913563  0.531811  1
  K  K1  1  0.913563  0.649129  0.531811  1
  Co  Co2  1  0.002521  0.002521  0.023220  1
  Co  Co3  1  0.929113  0.318759  0.916403  1
  Co  Co4  1  0.318759  0.929113  0.916403  1
  Br  Br5  1  0.679432  0.679432  0.279949  1
  Br  Br6  1  0.980679  0.980679  0.705453  1
  Br  Br7  1  0.540849  0.945313  0.030834  1
  Br  Br8  1  0.945313  0.540849  0.030834  1
  Br  Br9  1  0.078918  0.459502  0.575592  1
  Br  Br10  1  0.459502  0.078918  0.575592  1
  Br  Br11  1  0.305021  0.111587  0.073225  1
  Br  Br12  1  0.111587  0.305021  0.073225  1
