# generated using pymatgen
data_Y6Fe7Co11
_symmetry_space_group_name_H-M   'P 1'
_cell_length_a   5.11034717
_cell_length_b   5.10993343
_cell_length_c   15.87309386
_cell_angle_alpha   89.99999935
_cell_angle_beta   90.42454667
_cell_angle_gamma   119.99732069
_symmetry_Int_Tables_number   1
_chemical_formula_structural   Y6Fe7Co11
_chemical_formula_sum   'Y6 Fe7 Co11'
_cell_volume   358.96631123
_cell_formula_units_Z   1
loop_
 _symmetry_equiv_pos_site_id
 _symmetry_equiv_pos_as_xyz
  1  'x, y, z'
loop_
 _atom_site_type_symbol
 _atom_site_label
 _atom_site_symmetry_multiplicity
 _atom_site_fract_x
 _atom_site_fract_y
 _atom_site_fract_z
 _atom_site_occupancy
  Y  Y0  1  0.332805  0.666403  0.958670  1
  Y  Y1  1  0.668307  0.334153  0.036971  1
  Y  Y2  1  0.666174  0.333087  0.460901  1
  Y  Y3  1  0.334467  0.667234  0.539516  1
  Y  Y4  1  0.333665  0.666833  0.749709  1
  Y  Y5  1  0.665767  0.332883  0.249930  1
  Fe  Fe6  1  0.663026  0.831513  0.127389  1
  Fe  Fe7  1  0.330512  0.665256  0.252426  1
  Fe  Fe8  1  0.666952  0.333475  0.749898  1
  Fe  Fe9  1  0.000977  0.000488  0.252231  1
  Fe  Fe10  1  0.001024  0.000512  0.750054  1
  Fe  Fe11  1  0.000260  0.000130  0.500388  1
  Fe  Fe12  1  0.003254  0.001627  0.998917  1
  Co  Co13  1  0.166570  0.832670  0.373605  1
  Co  Co14  1  0.166570  0.333901  0.373605  1
  Co  Co15  1  0.667613  0.833807  0.373073  1
  Co  Co16  1  0.834118  0.167443  0.627885  1
  Co  Co17  1  0.834118  0.666675  0.627885  1
  Co  Co18  1  0.332374  0.166187  0.627841  1
  Co  Co19  1  0.833433  0.166216  0.871413  1
  Co  Co20  1  0.833433  0.667217  0.871413  1
  Co  Co21  1  0.332902  0.166451  0.871301  1
  Co  Co22  1  0.165839  0.833279  0.127490  1
  Co  Co23  1  0.165839  0.332561  0.127490  1
