# generated using pymatgen
data_DyEr7Ga3Os
_symmetry_space_group_name_H-M   'P 1'
_cell_length_a   9.94550100
_cell_length_b   9.94550217
_cell_length_c   7.02779700
_cell_angle_alpha   90.00000000
_cell_angle_beta   90.00000000
_cell_angle_gamma   120.00000610
_symmetry_Int_Tables_number   1
_chemical_formula_structural   DyEr7Ga3Os
_chemical_formula_sum   'Dy2 Er14 Ga6 Os2'
_cell_volume   602.00929251
_cell_formula_units_Z   2
loop_
 _symmetry_equiv_pos_site_id
 _symmetry_equiv_pos_as_xyz
  1  'x, y, z'
loop_
 _atom_site_type_symbol
 _atom_site_label
 _atom_site_symmetry_multiplicity
 _atom_site_fract_x
 _atom_site_fract_y
 _atom_site_fract_z
 _atom_site_occupancy
  Dy  Dy0  1  0.000000  0.000000  0.266604  1
  Dy  Dy1  1  0.000000  0.000000  0.766604  1
  Er  Er2  1  0.171948  0.828052  0.990042  1
  Er  Er3  1  0.828052  0.171948  0.490042  1
  Er  Er4  1  0.171948  0.343897  0.990042  1
  Er  Er5  1  0.656103  0.828052  0.990042  1
  Er  Er6  1  0.343897  0.171948  0.490042  1
  Er  Er7  1  0.828052  0.656103  0.490042  1
  Er  Er8  1  0.333333  0.666667  0.661505  1
  Er  Er9  1  0.666667  0.333333  0.161505  1
  Er  Er10  1  0.465393  0.534607  0.295782  1
  Er  Er11  1  0.534607  0.465393  0.795782  1
  Er  Er12  1  0.465393  0.930786  0.295782  1
  Er  Er13  1  0.069214  0.534607  0.295782  1
  Er  Er14  1  0.930786  0.465393  0.795782  1
  Er  Er15  1  0.534607  0.069214  0.795782  1
  Ga  Ga16  1  0.164128  0.835872  0.543842  1
  Ga  Ga17  1  0.835872  0.164128  0.043842  1
  Ga  Ga18  1  0.164128  0.328257  0.543842  1
  Ga  Ga19  1  0.671743  0.835872  0.543842  1
  Ga  Ga20  1  0.328257  0.164128  0.043842  1
  Ga  Ga21  1  0.835872  0.671743  0.043842  1
  Os  Os22  1  0.333333  0.666667  0.055954  1
  Os  Os23  1  0.666667  0.333333  0.555954  1
