# generated using pymatgen
data_Nd2Tm5Sc3(In2Pt)4
_symmetry_space_group_name_H-M   'P 1'
_cell_length_a   3.56209000
_cell_length_b   8.09804772
_cell_length_c   18.00740786
_cell_angle_alpha   89.78558603
_cell_angle_beta   90.00000000
_cell_angle_gamma   90.00000000
_symmetry_Int_Tables_number   1
_chemical_formula_structural   Nd2Tm5Sc3(In2Pt)4
_chemical_formula_sum   'Nd2 Tm5 Sc3 In8 Pt4'
_cell_volume   519.43759640
_cell_formula_units_Z   1
loop_
 _symmetry_equiv_pos_site_id
 _symmetry_equiv_pos_as_xyz
  1  'x, y, z'
loop_
 _atom_site_type_symbol
 _atom_site_label
 _atom_site_symmetry_multiplicity
 _atom_site_fract_x
 _atom_site_fract_y
 _atom_site_fract_z
 _atom_site_occupancy
  Nd  Nd0  1  0.000000  0.996840  0.997480  1
  Nd  Nd1  1  0.000000  0.500841  0.500957  1
  Tm  Tm2  1  0.000000  0.620111  0.087851  1
  Tm  Tm3  1  0.000000  0.240014  0.217840  1
  Tm  Tm4  1  0.000000  0.763023  0.783345  1
  Tm  Tm5  1  0.000000  0.264386  0.712102  1
  Tm  Tm6  1  0.000000  0.737958  0.288036  1
  Sc  Sc7  1  0.000000  0.118484  0.412293  1
  Sc  Sc8  1  0.000000  0.881543  0.588641  1
  Sc  Sc9  1  0.000000  0.378896  0.909524  1
  In  In10  1  0.500000  0.406958  0.350428  1
  In  In11  1  0.500000  0.594141  0.652257  1
  In  In12  1  0.500000  0.093175  0.844791  1
  In  In13  1  0.500000  0.918155  0.154626  1
  In  In14  1  0.500000  0.304136  0.060958  1
  In  In15  1  0.500000  0.684178  0.935147  1
  In  In16  1  0.500000  0.182287  0.558043  1
  In  In17  1  0.500000  0.817410  0.442364  1
  Pt  Pt18  1  0.500000  0.026477  0.307299  1
  Pt  Pt19  1  0.500000  0.974415  0.693498  1
  Pt  Pt20  1  0.500000  0.471188  0.803654  1
  Pt  Pt21  1  0.500000  0.525387  0.198867  1
