# generated using pymatgen
data_Dy9Er(Bi2Rh)2
_symmetry_space_group_name_H-M   'P 1'
_cell_length_a   8.00389229
_cell_length_b   9.00878249
_cell_length_c   12.46167252
_cell_angle_alpha   90.01393587
_cell_angle_beta   89.94514975
_cell_angle_gamma   89.96494090
_symmetry_Int_Tables_number   1
_chemical_formula_structural   Dy9Er(Bi2Rh)2
_chemical_formula_sum   'Dy18 Er2 Bi8 Rh4'
_cell_volume   898.55233689
_cell_formula_units_Z   2
loop_
 _symmetry_equiv_pos_site_id
 _symmetry_equiv_pos_as_xyz
  1  'x, y, z'
loop_
 _atom_site_type_symbol
 _atom_site_label
 _atom_site_symmetry_multiplicity
 _atom_site_fract_x
 _atom_site_fract_y
 _atom_site_fract_z
 _atom_site_occupancy
  Dy  Dy0  1  0.662942  0.750109  0.707533  1
  Dy  Dy1  1  0.337058  0.249891  0.292467  1
  Dy  Dy2  1  0.163172  0.249941  0.792323  1
  Dy  Dy3  1  0.836828  0.750059  0.207677  1
  Dy  Dy4  1  0.125755  0.750008  0.808454  1
  Dy  Dy5  1  0.874245  0.249992  0.191546  1
  Dy  Dy6  1  0.625642  0.249820  0.691308  1
  Dy  Dy7  1  0.374358  0.750180  0.308692  1
  Dy  Dy8  1  0.548271  0.750010  0.998719  1
  Dy  Dy9  1  0.451729  0.249990  0.001281  1
  Dy  Dy10  1  0.048402  0.249812  0.501333  1
  Dy  Dy11  1  0.951598  0.750188  0.498667  1
  Dy  Dy12  1  0.823763  0.456535  0.933201  1
  Dy  Dy13  1  0.176237  0.543465  0.066799  1
  Dy  Dy14  1  0.323873  0.543401  0.566755  1
  Dy  Dy15  1  0.176225  0.956532  0.066812  1
  Dy  Dy16  1  0.676127  0.456599  0.433245  1
  Dy  Dy17  1  0.823775  0.043468  0.933188  1
  Er  Er18  1  0.675229  0.043449  0.433386  1
  Er  Er19  1  0.324771  0.956551  0.566614  1
  Bi  Bi20  1  0.934203  0.008687  0.673418  1
  Bi  Bi21  1  0.065797  0.991313  0.326582  1
  Bi  Bi22  1  0.433798  0.991272  0.826370  1
  Bi  Bi23  1  0.066120  0.508703  0.326500  1
  Bi  Bi24  1  0.566202  0.008728  0.173630  1
  Bi  Bi25  1  0.933880  0.491297  0.673500  1
  Bi  Bi26  1  0.566152  0.491284  0.173529  1
  Bi  Bi27  1  0.433848  0.508716  0.826471  1
  Rh  Rh28  1  0.924801  0.750039  0.989980  1
  Rh  Rh29  1  0.075199  0.249961  0.010020  1
  Rh  Rh30  1  0.424984  0.249338  0.509854  1
  Rh  Rh31  1  0.575016  0.750662  0.490146  1
