# generated using pymatgen
data_V12ZnGa4Cu3N4
_symmetry_space_group_name_H-M   'P 1'
_cell_length_a   6.55123700
_cell_length_b   6.55123700
_cell_length_c   6.55123700
_cell_angle_alpha   89.99814588
_cell_angle_beta   89.99814588
_cell_angle_gamma   89.99814588
_symmetry_Int_Tables_number   1
_chemical_formula_structural   V12ZnGa4Cu3N4
_chemical_formula_sum   'V12 Zn1 Ga4 Cu3 N4'
_cell_volume   281.17061603
_cell_formula_units_Z   1
loop_
 _symmetry_equiv_pos_site_id
 _symmetry_equiv_pos_as_xyz
  1  'x, y, z'
loop_
 _atom_site_type_symbol
 _atom_site_label
 _atom_site_symmetry_multiplicity
 _atom_site_fract_x
 _atom_site_fract_y
 _atom_site_fract_z
 _atom_site_occupancy
  V  V0  1  0.788762  0.961313  0.375337  1
  V  V1  1  0.709922  0.038386  0.875190  1
  V  V2  1  0.210475  0.461918  0.124713  1
  V  V3  1  0.289901  0.538333  0.624579  1
  V  V4  1  0.961313  0.375337  0.788762  1
  V  V5  1  0.038386  0.875190  0.709922  1
  V  V6  1  0.461918  0.124713  0.210475  1
  V  V7  1  0.538333  0.624579  0.289901  1
  V  V8  1  0.375337  0.788762  0.961313  1
  V  V9  1  0.875190  0.709922  0.038386  1
  V  V10  1  0.124713  0.210475  0.461918  1
  V  V11  1  0.624579  0.289901  0.538333  1
  Zn  Zn12  1  0.071101  0.071101  0.071101  1
  Ga  Ga13  1  0.178093  0.819662  0.327622  1
  Ga  Ga14  1  0.327622  0.178093  0.819662  1
  Ga  Ga15  1  0.819662  0.327622  0.178093  1
  Ga  Ga16  1  0.676406  0.676406  0.676406  1
  Cu  Cu17  1  0.571242  0.429920  0.928637  1
  Cu  Cu18  1  0.429920  0.928637  0.571242  1
  Cu  Cu19  1  0.928637  0.571242  0.429920  1
  N  N20  1  0.872606  0.126285  0.626081  1
  N  N21  1  0.626081  0.872606  0.126285  1
  N  N22  1  0.126285  0.626081  0.872606  1
  N  N23  1  0.373518  0.373518  0.373518  1
