# generated using pymatgen
data_Gd3(TmSn2)2
_symmetry_space_group_name_H-M   'P 1'
_cell_length_a   8.00745400
_cell_length_b   8.15032100
_cell_length_c   15.43068800
_cell_angle_alpha   90.00000000
_cell_angle_beta   90.00000000
_cell_angle_gamma   90.00000000
_symmetry_Int_Tables_number   1
_chemical_formula_structural   Gd3(TmSn2)2
_chemical_formula_sum   'Gd12 Tm8 Sn16'
_cell_volume   1007.05793637
_cell_formula_units_Z   4
loop_
 _symmetry_equiv_pos_site_id
 _symmetry_equiv_pos_as_xyz
  1  'x, y, z'
loop_
 _atom_site_type_symbol
 _atom_site_label
 _atom_site_symmetry_multiplicity
 _atom_site_fract_x
 _atom_site_fract_y
 _atom_site_fract_z
 _atom_site_occupancy
  Gd  Gd0  1  0.634116  0.162558  0.122054  1
  Gd  Gd1  1  0.134116  0.337442  0.377946  1
  Gd  Gd2  1  0.365884  0.837442  0.622054  1
  Gd  Gd3  1  0.865884  0.662558  0.877946  1
  Gd  Gd4  1  0.519195  0.320204  0.903167  1
  Gd  Gd5  1  0.019195  0.179796  0.596833  1
  Gd  Gd6  1  0.480805  0.679796  0.403167  1
  Gd  Gd7  1  0.980805  0.820204  0.096833  1
  Gd  Gd8  1  0.480864  0.678784  0.096363  1
  Gd  Gd9  1  0.980864  0.821216  0.403637  1
  Gd  Gd10  1  0.519136  0.321216  0.596363  1
  Gd  Gd11  1  0.019136  0.178784  0.903637  1
  Tm  Tm12  1  0.364620  0.837619  0.877573  1
  Tm  Tm13  1  0.864620  0.662381  0.622427  1
  Tm  Tm14  1  0.635380  0.162381  0.377573  1
  Tm  Tm15  1  0.135380  0.337619  0.122427  1
  Tm  Tm16  1  0.196819  0.502829  0.750594  1
  Tm  Tm17  1  0.696819  0.997171  0.749406  1
  Tm  Tm18  1  0.803181  0.497171  0.250594  1
  Tm  Tm19  1  0.303181  0.002829  0.249406  1
  Sn  Sn20  1  0.293362  0.037190  0.041569  1
  Sn  Sn21  1  0.793362  0.462810  0.458431  1
  Sn  Sn22  1  0.706638  0.962810  0.541569  1
  Sn  Sn23  1  0.206638  0.537190  0.958431  1
  Sn  Sn24  1  0.701119  0.962751  0.956537  1
  Sn  Sn25  1  0.201119  0.537249  0.543463  1
  Sn  Sn26  1  0.298881  0.037249  0.456537  1
  Sn  Sn27  1  0.798881  0.462751  0.043463  1
  Sn  Sn28  1  0.562348  0.619495  0.749480  1
  Sn  Sn29  1  0.062348  0.880505  0.750520  1
  Sn  Sn30  1  0.437652  0.380505  0.249480  1
  Sn  Sn31  1  0.937652  0.119495  0.250520  1
  Sn  Sn32  1  0.327958  0.147501  0.750456  1
  Sn  Sn33  1  0.827958  0.352499  0.749544  1
  Sn  Sn34  1  0.672042  0.852499  0.250456  1
  Sn  Sn35  1  0.172042  0.647501  0.249544  1
