# generated using pymatgen
data_Nd4AgPt
_symmetry_space_group_name_H-M   'P 1'
_cell_length_a   9.95005354
_cell_length_b   9.95005389
_cell_length_c   9.95005400
_cell_angle_alpha   59.99999964
_cell_angle_beta   59.99999847
_cell_angle_gamma   60.00000015
_symmetry_Int_Tables_number   1
_chemical_formula_structural   Nd4AgPt
_chemical_formula_sum   'Nd16 Ag4 Pt4'
_cell_volume   696.56441584
_cell_formula_units_Z   4
loop_
 _symmetry_equiv_pos_site_id
 _symmetry_equiv_pos_as_xyz
  1  'x, y, z'
loop_
 _atom_site_type_symbol
 _atom_site_label
 _atom_site_symmetry_multiplicity
 _atom_site_fract_x
 _atom_site_fract_y
 _atom_site_fract_z
 _atom_site_occupancy
  Nd  Nd0  1  0.353764  0.353764  0.353764  1
  Nd  Nd1  1  0.353764  0.353764  0.938709  1
  Nd  Nd2  1  0.353764  0.938709  0.353764  1
  Nd  Nd3  1  0.938709  0.353764  0.353764  1
  Nd  Nd4  1  0.809017  0.190983  0.190983  1
  Nd  Nd5  1  0.190983  0.809017  0.809017  1
  Nd  Nd6  1  0.190983  0.809017  0.190983  1
  Nd  Nd7  1  0.809017  0.190983  0.809017  1
  Nd  Nd8  1  0.190983  0.190983  0.809017  1
  Nd  Nd9  1  0.809017  0.809017  0.190983  1
  Nd  Nd10  1  0.934865  0.565135  0.565135  1
  Nd  Nd11  1  0.565135  0.934865  0.934865  1
  Nd  Nd12  1  0.565135  0.934865  0.565135  1
  Nd  Nd13  1  0.934865  0.565135  0.934865  1
  Nd  Nd14  1  0.565135  0.565135  0.934865  1
  Nd  Nd15  1  0.934865  0.934865  0.565135  1
  Ag  Ag16  1  0.581427  0.581427  0.581427  1
  Ag  Ag17  1  0.581427  0.581427  0.255721  1
  Ag  Ag18  1  0.581427  0.255721  0.581427  1
  Ag  Ag19  1  0.255721  0.581427  0.581427  1
  Pt  Pt20  1  0.143816  0.143816  0.143816  1
  Pt  Pt21  1  0.143816  0.143816  0.568552  1
  Pt  Pt22  1  0.143816  0.568552  0.143816  1
  Pt  Pt23  1  0.568552  0.143816  0.143816  1
