# generated using pymatgen
data_U3Pa5H24
_symmetry_space_group_name_H-M   'P 1'
_cell_length_a   6.62276400
_cell_length_b   6.60937800
_cell_length_c   6.60937800
_cell_angle_alpha   90.00000000
_cell_angle_beta   90.00000000
_cell_angle_gamma   90.00000000
_symmetry_Int_Tables_number   1
_chemical_formula_structural   U3Pa5H24
_chemical_formula_sum   'U3 Pa5 H24'
_cell_volume   289.30801160
_cell_formula_units_Z   1
loop_
 _symmetry_equiv_pos_site_id
 _symmetry_equiv_pos_as_xyz
  1  'x, y, z'
loop_
 _atom_site_type_symbol
 _atom_site_label
 _atom_site_symmetry_multiplicity
 _atom_site_fract_x
 _atom_site_fract_y
 _atom_site_fract_z
 _atom_site_occupancy
  U  U0  1  0.000502  0.000000  0.000000  1
  U  U1  1  0.499498  0.500000  0.500000  1
  U  U2  1  0.250000  0.000000  0.500000  1
  Pa  Pa3  1  0.750000  0.000000  0.500000  1
  Pa  Pa4  1  0.999875  0.500000  0.251174  1
  Pa  Pa5  1  0.999875  0.500000  0.748826  1
  Pa  Pa6  1  0.500125  0.751174  0.000000  1
  Pa  Pa7  1  0.500125  0.248826  0.000000  1
  H  H8  1  0.999792  0.154845  0.305257  1
  H  H9  1  0.500208  0.194743  0.654845  1
  H  H10  1  0.500208  0.805257  0.345155  1
  H  H11  1  0.805121  0.654958  0.500000  1
  H  H12  1  0.195205  0.655051  0.500000  1
  H  H13  1  0.344887  0.500000  0.805048  1
  H  H14  1  0.654891  0.500000  0.805033  1
  H  H15  1  0.304795  0.000000  0.155051  1
  H  H16  1  0.155113  0.305048  0.000000  1
  H  H17  1  0.845109  0.694967  0.000000  1
  H  H18  1  0.304795  0.000000  0.844949  1
  H  H19  1  0.845109  0.305033  0.000000  1
  H  H20  1  0.694879  0.000000  0.154958  1
  H  H21  1  0.694879  0.000000  0.845042  1
  H  H22  1  0.155113  0.694952  0.000000  1
  H  H23  1  0.999792  0.845155  0.694743  1
  H  H24  1  0.999792  0.154845  0.694743  1
  H  H25  1  0.999792  0.845155  0.305257  1
  H  H26  1  0.654891  0.500000  0.194967  1
  H  H27  1  0.344887  0.500000  0.194952  1
  H  H28  1  0.805121  0.345042  0.500000  1
  H  H29  1  0.195205  0.344949  0.500000  1
  H  H30  1  0.500208  0.805257  0.654845  1
  H  H31  1  0.500208  0.194743  0.345155  1
