# generated using pymatgen
data_Er2Sc3In4PtAu
_symmetry_space_group_name_H-M   'P 1'
_cell_length_a   3.59206900
_cell_length_b   7.86349017
_cell_length_c   17.72708668
_cell_angle_alpha   90.13349145
_cell_angle_beta   90.00000000
_cell_angle_gamma   90.00000000
_symmetry_Int_Tables_number   1
_chemical_formula_structural   Er2Sc3In4PtAu
_chemical_formula_sum   'Er4 Sc6 In8 Pt2 Au2'
_cell_volume   500.72146396
_cell_formula_units_Z   2
loop_
 _symmetry_equiv_pos_site_id
 _symmetry_equiv_pos_as_xyz
  1  'x, y, z'
loop_
 _atom_site_type_symbol
 _atom_site_label
 _atom_site_symmetry_multiplicity
 _atom_site_fract_x
 _atom_site_fract_y
 _atom_site_fract_z
 _atom_site_occupancy
  Er  Er0  1  0.000000  0.250896  0.214207  1
  Er  Er1  1  0.000000  0.749104  0.785793  1
  Er  Er2  1  0.000000  0.269041  0.719658  1
  Er  Er3  1  0.000000  0.730959  0.280342  1
  Sc  Sc4  1  0.000000  0.119314  0.420180  1
  Sc  Sc5  1  0.000000  0.880686  0.579820  1
  Sc  Sc6  1  0.000000  0.384886  0.916404  1
  Sc  Sc7  1  0.000000  0.615114  0.083596  1
  Sc  Sc8  1  0.000000  0.000000  0.000000  1
  Sc  Sc9  1  0.000000  0.500000  0.500000  1
  In  In10  1  0.500000  0.417081  0.355774  1
  In  In11  1  0.500000  0.582919  0.644226  1
  In  In12  1  0.500000  0.085041  0.856655  1
  In  In13  1  0.500000  0.914959  0.143345  1
  In  In14  1  0.500000  0.295132  0.058581  1
  In  In15  1  0.500000  0.704868  0.941419  1
  In  In16  1  0.500000  0.207299  0.560740  1
  In  In17  1  0.500000  0.792701  0.439260  1
  Pt  Pt18  1  0.500000  0.469416  0.808184  1
  Pt  Pt19  1  0.500000  0.530584  0.191816  1
  Au  Au20  1  0.500000  0.031273  0.305524  1
  Au  Au21  1  0.500000  0.968727  0.694476  1
