# generated using pymatgen
data_Ca4Al17SiRh6
_symmetry_space_group_name_H-M   'P 1'
_cell_length_a   7.54866907
_cell_length_b   7.52513627
_cell_length_c   9.60048138
_cell_angle_alpha   89.97030467
_cell_angle_beta   90.11552718
_cell_angle_gamma   119.19739892
_symmetry_Int_Tables_number   1
_chemical_formula_structural   Ca4Al17SiRh6
_chemical_formula_sum   'Ca4 Al17 Si1 Rh6'
_cell_volume   476.06177952
_cell_formula_units_Z   1
loop_
 _symmetry_equiv_pos_site_id
 _symmetry_equiv_pos_as_xyz
  1  'x, y, z'
loop_
 _atom_site_type_symbol
 _atom_site_label
 _atom_site_symmetry_multiplicity
 _atom_site_fract_x
 _atom_site_fract_y
 _atom_site_fract_z
 _atom_site_occupancy
  Ca  Ca0  1  0.993488  0.665445  0.248301  1
  Ca  Ca1  1  0.005110  0.327414  0.753913  1
  Ca  Ca2  1  0.677919  0.002774  0.247831  1
  Ca  Ca3  1  0.326305  0.004502  0.749022  1
  Al  Al4  1  0.130151  0.131205  0.249473  1
  Al  Al5  1  0.868140  0.869394  0.749323  1
  Al  Al6  1  0.998238  0.668311  0.927906  1
  Al  Al7  1  0.996734  0.664438  0.571069  1
  Al  Al8  1  0.334229  0.001567  0.427283  1
  Al  Al9  1  0.002997  0.335527  0.433289  1
  Al  Al10  1  0.663671  0.996680  0.571209  1
  Al  Al11  1  0.660748  0.994379  0.927279  1
  Al  Al12  1  0.334324  0.000577  0.071350  1
  Al  Al13  1  0.335996  0.334525  0.548826  1
  Al  Al14  1  0.665513  0.666742  0.450450  1
  Al  Al15  1  0.665981  0.666319  0.048547  1
  Al  Al16  1  0.337648  0.334587  0.953762  1
  Al  Al17  1  0.338147  0.548857  0.249526  1
  Al  Al18  1  0.662691  0.451617  0.751329  1
  Al  Al19  1  0.544648  0.338239  0.249995  1
  Al  Al20  1  0.451460  0.659996  0.749438  1
  Si  Si21  1  0.005425  0.335960  0.070740  1
  Rh  Rh22  1  0.680619  0.329009  0.003530  1
  Rh  Rh23  1  0.321539  0.664652  0.999553  1
  Rh  Rh24  1  0.327188  0.670983  0.498861  1
  Rh  Rh25  1  0.671530  0.328183  0.499624  1
  Rh  Rh26  1  0.999906  0.007259  0.999782  1
  Rh  Rh27  1  0.999654  0.000856  0.498789  1
