# generated using pymatgen
data_Dy4Fe5Si10Rh
_symmetry_space_group_name_H-M   'P 1'
_cell_length_a   8.01509330
_cell_length_b   8.02078011
_cell_length_c   8.02078013
_cell_angle_alpha   140.35388896
_cell_angle_beta   107.98560152
_cell_angle_gamma   85.49105098
_symmetry_Int_Tables_number   1
_chemical_formula_structural   Dy4Fe5Si10Rh
_chemical_formula_sum   'Dy4 Fe5 Si10 Rh1'
_cell_volume   301.96921574
_cell_formula_units_Z   1
loop_
 _symmetry_equiv_pos_site_id
 _symmetry_equiv_pos_as_xyz
  1  'x, y, z'
loop_
 _atom_site_type_symbol
 _atom_site_label
 _atom_site_symmetry_multiplicity
 _atom_site_fract_x
 _atom_site_fract_y
 _atom_site_fract_z
 _atom_site_occupancy
  Dy  Dy0  1  0.594573  0.362810  0.231762  1
  Dy  Dy1  1  0.404414  0.636931  0.767485  1
  Dy  Dy2  1  0.871126  0.138262  0.732863  1
  Dy  Dy3  1  0.136054  0.864127  0.271926  1
  Fe  Fe4  1  0.996406  0.747610  0.745485  1
  Fe  Fe5  1  0.447917  0.857264  0.590654  1
  Fe  Fe6  1  0.263025  0.354880  0.908145  1
  Fe  Fe7  1  0.737601  0.644273  0.093328  1
  Fe  Fe8  1  0.996406  0.250921  0.248796  1
  Si  Si9  1  0.248247  0.091477  0.156771  1
  Si  Si10  1  0.735658  0.905967  0.829692  1
  Si  Si11  1  0.073726  0.405494  0.668232  1
  Si  Si12  1  0.925539  0.594534  0.331005  1
  Si  Si13  1  0.796597  0.034338  0.246592  1
  Si  Si14  1  0.211324  0.463063  0.250775  1
  Si  Si15  1  0.211324  0.960548  0.748260  1
  Si  Si16  1  0.502640  0.734311  0.242805  1
  Si  Si17  1  0.502640  0.259835  0.768329  1
  Si  Si18  1  0.796597  0.550005  0.762259  1
  Rh  Rh19  1  0.548186  0.143349  0.404836  1
