# generated using pymatgen
data_Dy5HgSe4
_symmetry_space_group_name_H-M   'P 1'
_cell_length_a   7.15405872
_cell_length_b   7.15405930
_cell_length_c   7.15405879
_cell_angle_alpha   99.68605377
_cell_angle_beta   99.68604437
_cell_angle_gamma   131.56745504
_symmetry_Int_Tables_number   1
_chemical_formula_structural   Dy5HgSe4
_chemical_formula_sum   'Dy5 Hg1 Se4'
_cell_volume   249.83733933
_cell_formula_units_Z   1
loop_
 _symmetry_equiv_pos_site_id
 _symmetry_equiv_pos_as_xyz
  1  'x, y, z'
loop_
 _atom_site_type_symbol
 _atom_site_label
 _atom_site_symmetry_multiplicity
 _atom_site_fract_x
 _atom_site_fract_y
 _atom_site_fract_z
 _atom_site_occupancy
  Dy  Dy0  1  0.399184  0.802238  0.201421  1
  Dy  Dy1  1  0.000000  0.000000  0.000000  1
  Dy  Dy2  1  0.600816  0.197762  0.798579  1
  Dy  Dy3  1  0.197762  0.399184  0.596946  1
  Dy  Dy4  1  0.802238  0.600816  0.403054  1
  Hg  Hg5  1  0.500000  0.500000  0.000000  1
  Se  Se6  1  0.098912  0.697843  0.796753  1
  Se  Se7  1  0.697843  0.901088  0.598932  1
  Se  Se8  1  0.302157  0.098912  0.401068  1
  Se  Se9  1  0.901088  0.302157  0.203247  1
