# generated using pymatgen
data_Ho4TmIn4CoNi
_symmetry_space_group_name_H-M   'P 1'
_cell_length_a   3.57135500
_cell_length_b   7.98202887
_cell_length_c   17.87438853
_cell_angle_alpha   89.97472767
_cell_angle_beta   90.00000000
_cell_angle_gamma   90.00000000
_symmetry_Int_Tables_number   1
_chemical_formula_structural   Ho4TmIn4CoNi
_chemical_formula_sum   'Ho8 Tm2 In8 Co2 Ni2'
_cell_volume   509.53904435
_cell_formula_units_Z   2
loop_
 _symmetry_equiv_pos_site_id
 _symmetry_equiv_pos_as_xyz
  1  'x, y, z'
loop_
 _atom_site_type_symbol
 _atom_site_label
 _atom_site_symmetry_multiplicity
 _atom_site_fract_x
 _atom_site_fract_y
 _atom_site_fract_z
 _atom_site_occupancy
  Ho  Ho0  1  0.000000  0.500000  0.500000  1
  Ho  Ho1  1  0.000000  0.000000  0.000000  1
  Ho  Ho2  1  0.000000  0.740363  0.278240  1
  Ho  Ho3  1  0.000000  0.259637  0.721760  1
  Ho  Ho4  1  0.000000  0.747734  0.778592  1
  Ho  Ho5  1  0.000000  0.252266  0.221408  1
  Ho  Ho6  1  0.000000  0.615177  0.090361  1
  Ho  Ho7  1  0.000000  0.384823  0.909639  1
  Tm  Tm8  1  0.000000  0.883056  0.589486  1
  Tm  Tm9  1  0.000000  0.116944  0.410514  1
  In  In10  1  0.500000  0.704876  0.930476  1
  In  In11  1  0.500000  0.295124  0.069524  1
  In  In12  1  0.500000  0.797045  0.432346  1
  In  In13  1  0.500000  0.202955  0.567654  1
  In  In14  1  0.500000  0.572168  0.651811  1
  In  In15  1  0.500000  0.427832  0.348189  1
  In  In16  1  0.500000  0.927284  0.152386  1
  In  In17  1  0.500000  0.072716  0.847614  1
  Co  Co18  1  0.500000  0.520906  0.195698  1
  Co  Co19  1  0.500000  0.479094  0.804302  1
  Ni  Ni20  1  0.500000  0.977648  0.694646  1
  Ni  Ni21  1  0.500000  0.022352  0.305354  1
