# generated using pymatgen
data_DyHo4Zn2Bi
_symmetry_space_group_name_H-M   'P 1'
_cell_length_a   8.61972131
_cell_length_b   8.61972190
_cell_length_c   8.62353460
_cell_angle_alpha   123.39664306
_cell_angle_beta   123.39664226
_cell_angle_gamma   84.18304061
_symmetry_Int_Tables_number   1
_chemical_formula_structural   DyHo4Zn2Bi
_chemical_formula_sum   'Dy2 Ho8 Zn4 Bi2'
_cell_volume   427.50880773
_cell_formula_units_Z   2
loop_
 _symmetry_equiv_pos_site_id
 _symmetry_equiv_pos_as_xyz
  1  'x, y, z'
loop_
 _atom_site_type_symbol
 _atom_site_label
 _atom_site_symmetry_multiplicity
 _atom_site_fract_x
 _atom_site_fract_y
 _atom_site_fract_z
 _atom_site_occupancy
  Dy  Dy0  1  0.009843  0.509843  0.804942  1
  Dy  Dy1  1  0.704900  0.204900  0.195058  1
  Ho  Ho2  1  0.000190  0.000190  0.000000  1
  Ho  Ho3  1  0.500190  0.500190  0.000000  1
  Ho  Ho4  1  0.509616  0.705497  0.500000  1
  Ho  Ho5  1  0.205497  0.009616  0.500000  1
  Ho  Ho6  1  0.990254  0.490254  0.196330  1
  Ho  Ho7  1  0.293925  0.793925  0.803670  1
  Ho  Ho8  1  0.490071  0.294077  0.500000  1
  Ho  Ho9  1  0.794077  0.990071  0.500000  1
  Zn  Zn10  1  0.639706  0.139706  0.779123  1
  Zn  Zn11  1  0.360582  0.860582  0.220877  1
  Zn  Zn12  1  0.140420  0.360515  0.500000  1
  Zn  Zn13  1  0.860515  0.640420  0.500000  1
  Bi  Bi14  1  0.750107  0.750107  0.000000  1
  Bi  Bi15  1  0.250107  0.250107  0.000000  1
