# generated using pymatgen
data_Dy3Y2(RuO6)2
_symmetry_space_group_name_H-M   'P 1'
_cell_length_a   6.84859322
_cell_length_b   6.84859169
_cell_length_c   7.40006116
_cell_angle_alpha   74.16812685
_cell_angle_beta   74.16812825
_cell_angle_gamma   50.40311642
_symmetry_Int_Tables_number   1
_chemical_formula_structural   Dy3Y2(RuO6)2
_chemical_formula_sum   'Dy3 Y2 Ru2 O12'
_cell_volume   255.00032242
_cell_formula_units_Z   1
loop_
 _symmetry_equiv_pos_site_id
 _symmetry_equiv_pos_as_xyz
  1  'x, y, z'
loop_
 _atom_site_type_symbol
 _atom_site_label
 _atom_site_symmetry_multiplicity
 _atom_site_fract_x
 _atom_site_fract_y
 _atom_site_fract_z
 _atom_site_occupancy
  Dy  Dy0  1  0.697175  0.697175  0.639970  1
  Dy  Dy1  1  0.310713  0.310713  0.827358  1
  Dy  Dy2  1  0.689298  0.689298  0.172628  1
  Y  Y3  1  0.302814  0.302814  0.360218  1
  Y  Y4  1  0.000030  0.000030  0.499987  1
  Ru  Ru5  1  0.763987  0.236109  0.999924  1
  Ru  Ru6  1  0.236109  0.763987  0.999924  1
  O  O7  1  0.905973  0.423587  0.916105  1
  O  O8  1  0.423587  0.905973  0.916105  1
  O  O9  1  0.093847  0.576660  0.083605  1
  O  O10  1  0.576660  0.093847  0.083605  1
  O  O11  1  0.097192  0.595393  0.574695  1
  O  O12  1  0.595393  0.097192  0.574695  1
  O  O13  1  0.901828  0.405197  0.425685  1
  O  O14  1  0.405197  0.901828  0.425685  1
  O  O15  1  0.999362  0.999362  0.806251  1
  O  O16  1  0.000644  0.000644  0.193739  1
  O  O17  1  0.500436  0.500436  0.815650  1
  O  O18  1  0.499756  0.499756  0.184173  1
