# generated using pymatgen
data_TbLu(ScAu)2
_symmetry_space_group_name_H-M   'P 1'
_cell_length_a   4.75631600
_cell_length_b   6.97026100
_cell_length_c   8.56056800
_cell_angle_alpha   90.00000000
_cell_angle_beta   90.00000000
_cell_angle_gamma   90.00000000
_symmetry_Int_Tables_number   1
_chemical_formula_structural   TbLu(ScAu)2
_chemical_formula_sum   'Tb2 Lu2 Sc4 Au4'
_cell_volume   283.80648991
_cell_formula_units_Z   2
loop_
 _symmetry_equiv_pos_site_id
 _symmetry_equiv_pos_as_xyz
  1  'x, y, z'
loop_
 _atom_site_type_symbol
 _atom_site_label
 _atom_site_symmetry_multiplicity
 _atom_site_fract_x
 _atom_site_fract_y
 _atom_site_fract_z
 _atom_site_occupancy
  Tb  Tb0  1  0.750000  0.517006  0.821068  1
  Tb  Tb1  1  0.750000  0.017006  0.678932  1
  Lu  Lu2  1  0.250000  0.482834  0.180570  1
  Lu  Lu3  1  0.250000  0.982834  0.319430  1
  Sc  Sc4  1  0.250000  0.854191  0.925550  1
  Sc  Sc5  1  0.250000  0.354191  0.574450  1
  Sc  Sc6  1  0.750000  0.145832  0.079377  1
  Sc  Sc7  1  0.750000  0.645832  0.420623  1
  Au  Au8  1  0.250000  0.247316  0.900717  1
  Au  Au9  1  0.250000  0.747316  0.599283  1
  Au  Au10  1  0.750000  0.752822  0.104891  1
  Au  Au11  1  0.750000  0.252822  0.395109  1
