# generated using pymatgen
data_DyV3P3Rh2
_symmetry_space_group_name_H-M   'P 1'
_cell_length_a   3.89413900
_cell_length_b   6.85029774
_cell_length_c   9.92880205
_cell_angle_alpha   79.97991284
_cell_angle_beta   90.00000000
_cell_angle_gamma   90.00000000
_symmetry_Int_Tables_number   1
_chemical_formula_structural   DyV3P3Rh2
_chemical_formula_sum   'Dy2 V6 P6 Rh4'
_cell_volume   260.82086667
_cell_formula_units_Z   2
loop_
 _symmetry_equiv_pos_site_id
 _symmetry_equiv_pos_as_xyz
  1  'x, y, z'
loop_
 _atom_site_type_symbol
 _atom_site_label
 _atom_site_symmetry_multiplicity
 _atom_site_fract_x
 _atom_site_fract_y
 _atom_site_fract_z
 _atom_site_occupancy
  Dy  Dy0  1  0.250000  0.804610  0.791182  1
  Dy  Dy1  1  0.750000  0.195390  0.208818  1
  V  V2  1  0.250000  0.611183  0.513885  1
  V  V3  1  0.750000  0.388817  0.486115  1
  V  V4  1  0.250000  0.129203  0.500387  1
  V  V5  1  0.750000  0.870797  0.499613  1
  V  V6  1  0.250000  0.321296  0.725560  1
  V  V7  1  0.750000  0.678704  0.274440  1
  P  P8  1  0.250000  0.255513  0.976254  1
  P  P9  1  0.750000  0.744487  0.023746  1
  P  P10  1  0.250000  0.427978  0.329794  1
  P  P11  1  0.750000  0.572022  0.670206  1
  P  P12  1  0.250000  0.901880  0.338216  1
  P  P13  1  0.750000  0.098120  0.661784  1
  Rh  Rh14  1  0.250000  0.527846  0.095514  1
  Rh  Rh15  1  0.750000  0.472154  0.904486  1
  Rh  Rh16  1  0.250000  0.927223  0.099222  1
  Rh  Rh17  1  0.750000  0.072777  0.900778  1
