# generated using pymatgen
data_PuCrH5
_symmetry_space_group_name_H-M   'P 1'
_cell_length_a   4.29641400
_cell_length_b   4.50990900
_cell_length_c   11.29387200
_cell_angle_alpha   90.00000000
_cell_angle_beta   90.00000000
_cell_angle_gamma   90.00000000
_symmetry_Int_Tables_number   1
_chemical_formula_structural   PuCrH5
_chemical_formula_sum   'Pu4 Cr4 H20'
_cell_volume   218.83498988
_cell_formula_units_Z   4
loop_
 _symmetry_equiv_pos_site_id
 _symmetry_equiv_pos_as_xyz
  1  'x, y, z'
loop_
 _atom_site_type_symbol
 _atom_site_label
 _atom_site_symmetry_multiplicity
 _atom_site_fract_x
 _atom_site_fract_y
 _atom_site_fract_z
 _atom_site_occupancy
  Pu  Pu0  1  0.276279  0.251687  0.648119  1
  Pu  Pu1  1  0.776279  0.248313  0.351881  1
  Pu  Pu2  1  0.223721  0.748313  0.148119  1
  Pu  Pu3  1  0.723721  0.751687  0.851881  1
  Cr  Cr4  1  0.277466  0.252056  0.918219  1
  Cr  Cr5  1  0.777466  0.247944  0.081781  1
  Cr  Cr6  1  0.222534  0.747944  0.418219  1
  Cr  Cr7  1  0.722534  0.752056  0.581781  1
  H  H8  1  0.500574  0.510031  0.495097  1
  H  H9  1  0.000574  0.989969  0.504903  1
  H  H10  1  0.999426  0.489969  0.995097  1
  H  H11  1  0.499426  0.010031  0.004903  1
  H  H12  1  0.183580  0.986702  0.818006  1
  H  H13  1  0.683580  0.513298  0.181994  1
  H  H14  1  0.316420  0.013298  0.318006  1
  H  H15  1  0.816420  0.486702  0.681994  1
  H  H16  1  0.187008  0.520109  0.818724  1
  H  H17  1  0.687008  0.979891  0.181276  1
  H  H18  1  0.312992  0.479891  0.318724  1
  H  H19  1  0.812992  0.020109  0.681276  1
  H  H20  1  0.588926  0.251794  0.826174  1
  H  H21  1  0.088926  0.248206  0.173826  1
  H  H22  1  0.911074  0.748206  0.326174  1
  H  H23  1  0.411074  0.751794  0.673826  1
  H  H24  1  0.001526  0.009264  0.994935  1
  H  H25  1  0.501526  0.490736  0.005065  1
  H  H26  1  0.498474  0.990736  0.494935  1
  H  H27  1  0.998474  0.509264  0.505065  1
