# generated using pymatgen
data_Sm2Ga9OsPt2
_symmetry_space_group_name_H-M   'P 1'
_cell_length_a   7.67960333
_cell_length_b   7.67960021
_cell_length_c   9.59231007
_cell_angle_alpha   89.89409659
_cell_angle_beta   89.89406135
_cell_angle_gamma   119.87707022
_symmetry_Int_Tables_number   1
_chemical_formula_structural   Sm2Ga9OsPt2
_chemical_formula_sum   'Sm4 Ga18 Os2 Pt4'
_cell_volume   490.52926403
_cell_formula_units_Z   2
loop_
 _symmetry_equiv_pos_site_id
 _symmetry_equiv_pos_as_xyz
  1  'x, y, z'
loop_
 _atom_site_type_symbol
 _atom_site_label
 _atom_site_symmetry_multiplicity
 _atom_site_fract_x
 _atom_site_fract_y
 _atom_site_fract_z
 _atom_site_occupancy
  Sm  Sm0  1  0.996333  0.669147  0.249931  1
  Sm  Sm1  1  0.003667  0.330853  0.750069  1
  Sm  Sm2  1  0.669147  0.996333  0.249931  1
  Sm  Sm3  1  0.330853  0.003667  0.750069  1
  Ga  Ga4  1  0.132664  0.132664  0.250990  1
  Ga  Ga5  1  0.867336  0.867336  0.749010  1
  Ga  Ga6  1  0.001148  0.334262  0.082925  1
  Ga  Ga7  1  0.998852  0.665738  0.917075  1
  Ga  Ga8  1  0.000899  0.660163  0.576098  1
  Ga  Ga9  1  0.339837  0.999102  0.423902  1
  Ga  Ga10  1  0.999100  0.339836  0.423902  1
  Ga  Ga11  1  0.660164  0.000900  0.576098  1
  Ga  Ga12  1  0.665738  0.998852  0.917075  1
  Ga  Ga13  1  0.334262  0.001148  0.082925  1
  Ga  Ga14  1  0.337050  0.337049  0.560871  1
  Ga  Ga15  1  0.662951  0.662950  0.439129  1
  Ga  Ga16  1  0.664731  0.664730  0.071726  1
  Ga  Ga17  1  0.335269  0.335269  0.928274  1
  Ga  Ga18  1  0.337174  0.545028  0.254626  1
  Ga  Ga19  1  0.662827  0.454971  0.745374  1
  Ga  Ga20  1  0.545029  0.337174  0.254626  1
  Ga  Ga21  1  0.454971  0.662826  0.745374  1
  Os  Os22  1  0.328333  0.671667  0.500000  1
  Os  Os23  1  0.671667  0.328333  0.500000  1
  Pt  Pt24  1  0.670106  0.329895  0.000000  1
  Pt  Pt25  1  0.329895  0.670105  0.000000  1
  Pt  Pt26  1  0.000000  0.000000  0.000000  1
  Pt  Pt27  1  0.000000  0.000000  0.500000  1
