# generated using pymatgen
data_TbGd2(RhPb)3
_symmetry_space_group_name_H-M   'P 1'
_cell_length_a   7.81306400
_cell_length_b   7.80859322
_cell_length_c   3.81166300
_cell_angle_alpha   90.00000000
_cell_angle_beta   90.00000000
_cell_angle_gamma   120.01894148
_symmetry_Int_Tables_number   1
_chemical_formula_structural   TbGd2(RhPb)3
_chemical_formula_sum   'Tb1 Gd2 Rh3 Pb3'
_cell_volume   201.35220279
_cell_formula_units_Z   1
loop_
 _symmetry_equiv_pos_site_id
 _symmetry_equiv_pos_as_xyz
  1  'x, y, z'
loop_
 _atom_site_type_symbol
 _atom_site_label
 _atom_site_symmetry_multiplicity
 _atom_site_fract_x
 _atom_site_fract_y
 _atom_site_fract_z
 _atom_site_occupancy
  Tb  Tb0  1  0.403175  0.000000  0.000000  1
  Gd  Gd1  1  0.999646  0.402904  0.000000  1
  Gd  Gd2  1  0.596741  0.597095  0.000000  1
  Rh  Rh3  1  0.001342  0.000000  0.000000  1
  Rh  Rh4  1  0.665190  0.331600  0.500001  1
  Rh  Rh5  1  0.333590  0.668401  0.500001  1
  Pb  Pb6  1  0.733575  0.000000  0.500001  1
  Pb  Pb7  1  0.266689  0.266635  0.500001  1
  Pb  Pb8  1  0.000054  0.733366  0.500001  1
