# generated using pymatgen
data_La3FeReH12
_symmetry_space_group_name_H-M   'P 1'
_cell_length_a   4.87308100
_cell_length_b   4.87307994
_cell_length_c   8.60338600
_cell_angle_alpha   90.00000000
_cell_angle_beta   90.00000000
_cell_angle_gamma   120.00000044
_symmetry_Int_Tables_number   1
_chemical_formula_structural   La3FeReH12
_chemical_formula_sum   'La3 Fe1 Re1 H12'
_cell_volume   176.93233289
_cell_formula_units_Z   1
loop_
 _symmetry_equiv_pos_site_id
 _symmetry_equiv_pos_as_xyz
  1  'x, y, z'
loop_
 _atom_site_type_symbol
 _atom_site_label
 _atom_site_symmetry_multiplicity
 _atom_site_fract_x
 _atom_site_fract_y
 _atom_site_fract_z
 _atom_site_occupancy
  La  La0  1  0.000000  0.000000  0.976284  1
  La  La1  1  0.666667  0.333333  0.347025  1
  La  La2  1  0.333333  0.666667  0.633937  1
  Fe  Fe3  1  0.333333  0.666667  0.250871  1
  Re  Re4  1  0.666667  0.333333  0.760049  1
  H  H5  1  0.177799  0.822201  0.358335  1
  H  H6  1  0.644399  0.822201  0.358335  1
  H  H7  1  0.177799  0.355601  0.358335  1
  H  H8  1  0.833950  0.166050  0.635283  1
  H  H9  1  0.332101  0.166050  0.635283  1
  H  H10  1  0.833950  0.667899  0.635283  1
  H  H11  1  0.496476  0.992952  0.881506  1
  H  H12  1  0.496476  0.503524  0.881506  1
  H  H13  1  0.007048  0.503524  0.881506  1
  H  H14  1  0.481673  0.963348  0.135486  1
  H  H15  1  0.481673  0.518327  0.135486  1
  H  H16  1  0.036652  0.518327  0.135486  1
