# generated using pymatgen
data_HoTm3(Si5Pt3)2
_symmetry_space_group_name_H-M   'P 1'
_cell_length_a   8.12954857
_cell_length_b   8.12826964
_cell_length_c   8.12826892
_cell_angle_alpha   136.33210011
_cell_angle_beta   104.16807366
_cell_angle_gamma   91.82433541
_symmetry_Int_Tables_number   1
_chemical_formula_structural   HoTm3(Si5Pt3)2
_chemical_formula_sum   'Ho1 Tm3 Si10 Pt6'
_cell_volume   341.62903345
_cell_formula_units_Z   1
loop_
 _symmetry_equiv_pos_site_id
 _symmetry_equiv_pos_as_xyz
  1  'x, y, z'
loop_
 _atom_site_type_symbol
 _atom_site_label
 _atom_site_symmetry_multiplicity
 _atom_site_fract_x
 _atom_site_fract_y
 _atom_site_fract_z
 _atom_site_occupancy
  Ho  Ho0  1  0.900609  0.129532  0.771076  1
  Tm  Tm1  1  0.642497  0.370218  0.272279  1
  Tm  Tm2  1  0.357778  0.629856  0.727922  1
  Tm  Tm3  1  0.098296  0.870071  0.228224  1
  Si  Si4  1  0.271854  0.521472  0.249570  1
  Si  Si5  1  0.728386  0.478053  0.749904  1
  Si  Si6  1  0.728386  0.978482  0.250333  1
  Si  Si7  1  0.271854  0.022284  0.750382  1
  Si  Si8  1  0.460484  0.111805  0.348677  1
  Si  Si9  1  0.538383  0.887232  0.651150  1
  Si  Si10  1  0.763669  0.611967  0.151702  1
  Si  Si11  1  0.236794  0.388510  0.848285  1
  Si  Si12  1  0.999971  0.249324  0.249160  1
  Si  Si13  1  0.999971  0.750810  0.750647  1
  Pt  Pt14  1  0.252463  0.137919  0.114543  1
  Pt  Pt15  1  0.747550  0.861536  0.886015  1
  Pt  Pt16  1  0.024272  0.637783  0.386490  1
  Pt  Pt17  1  0.976651  0.363202  0.613448  1
  Pt  Pt18  1  0.500066  0.250301  0.750424  1
  Pt  Pt19  1  0.500066  0.749643  0.249765  1
