# generated using pymatgen
data_PrSm7(Tm3Sn4)4
_symmetry_space_group_name_H-M   'P 1'
_cell_length_a   8.04210677
_cell_length_b   8.19551579
_cell_length_c   15.45427300
_cell_angle_alpha   90.00706802
_cell_angle_beta   89.81313184
_cell_angle_gamma   90.22058506
_symmetry_Int_Tables_number   1
_chemical_formula_structural   PrSm7(Tm3Sn4)4
_chemical_formula_sum   'Pr1 Sm7 Tm12 Sn16'
_cell_volume   1018.56599890
_cell_formula_units_Z   1
loop_
 _symmetry_equiv_pos_site_id
 _symmetry_equiv_pos_as_xyz
  1  'x, y, z'
loop_
 _atom_site_type_symbol
 _atom_site_label
 _atom_site_symmetry_multiplicity
 _atom_site_fract_x
 _atom_site_fract_y
 _atom_site_fract_z
 _atom_site_occupancy
  Pr  Pr0  1  0.514306  0.321640  0.904668  1
  Sm  Sm1  1  0.016914  0.177993  0.595530  1
  Sm  Sm2  1  0.482684  0.678800  0.403095  1
  Sm  Sm3  1  0.982848  0.821736  0.097326  1
  Sm  Sm4  1  0.483966  0.679576  0.097171  1
  Sm  Sm5  1  0.982851  0.821588  0.403045  1
  Sm  Sm6  1  0.517865  0.320992  0.596781  1
  Sm  Sm7  1  0.017084  0.177133  0.903413  1
  Tm  Tm8  1  0.361339  0.837295  0.876835  1
  Tm  Tm9  1  0.863043  0.663070  0.622884  1
  Tm  Tm10  1  0.637250  0.163246  0.376910  1
  Tm  Tm11  1  0.139106  0.335753  0.124439  1
  Tm  Tm12  1  0.639095  0.162835  0.123504  1
  Tm  Tm13  1  0.137204  0.336944  0.376449  1
  Tm  Tm14  1  0.362311  0.836896  0.622068  1
  Tm  Tm15  1  0.861098  0.663795  0.875910  1
  Tm  Tm16  1  0.194397  0.504367  0.749227  1
  Tm  Tm17  1  0.694725  0.996393  0.749264  1
  Tm  Tm18  1  0.806072  0.496093  0.250571  1
  Tm  Tm19  1  0.305427  0.003633  0.250308  1
  Sn  Sn20  1  0.300179  0.039272  0.042656  1
  Sn  Sn21  1  0.800221  0.460393  0.457896  1
  Sn  Sn22  1  0.700165  0.959163  0.541419  1
  Sn  Sn23  1  0.193690  0.543170  0.959507  1
  Sn  Sn24  1  0.699804  0.957581  0.958631  1
  Sn  Sn25  1  0.200281  0.538797  0.541710  1
  Sn  Sn26  1  0.299916  0.040643  0.457606  1
  Sn  Sn27  1  0.805482  0.461648  0.043289  1
  Sn  Sn28  1  0.559747  0.625009  0.749387  1
  Sn  Sn29  1  0.060027  0.876893  0.749616  1
  Sn  Sn30  1  0.440759  0.376881  0.250067  1
  Sn  Sn31  1  0.939775  0.122140  0.250553  1
  Sn  Sn32  1  0.323783  0.144251  0.748663  1
  Sn  Sn33  1  0.827793  0.354147  0.749371  1
  Sn  Sn34  1  0.674414  0.854627  0.250160  1
  Sn  Sn35  1  0.174382  0.645610  0.250073  1
