# generated using pymatgen
data_Ti4GaRe24
_symmetry_space_group_name_H-M   'P 1'
_cell_length_a   8.37205264
_cell_length_b   8.37205253
_cell_length_c   8.37205200
_cell_angle_alpha   109.47121935
_cell_angle_beta   109.47121909
_cell_angle_gamma   109.47122586
_symmetry_Int_Tables_number   1
_chemical_formula_structural   Ti4GaRe24
_chemical_formula_sum   'Ti4 Ga1 Re24'
_cell_volume   451.72477324
_cell_formula_units_Z   1
loop_
 _symmetry_equiv_pos_site_id
 _symmetry_equiv_pos_as_xyz
  1  'x, y, z'
loop_
 _atom_site_type_symbol
 _atom_site_label
 _atom_site_symmetry_multiplicity
 _atom_site_fract_x
 _atom_site_fract_y
 _atom_site_fract_z
 _atom_site_occupancy
  Ti  Ti0  1  0.635403  0.000000  0.000000  1
  Ti  Ti1  1  0.000000  0.635403  0.000000  1
  Ti  Ti2  1  0.000000  0.000000  0.635403  1
  Ti  Ti3  1  0.364597  0.364597  0.364597  1
  Ga  Ga4  1  0.000000  0.000000  0.000000  1
  Re  Re5  1  0.398229  0.680449  0.000000  1
  Re  Re6  1  0.717779  0.319551  0.319551  1
  Re  Re7  1  0.398229  0.000000  0.680449  1
  Re  Re8  1  0.680449  0.398229  0.000000  1
  Re  Re9  1  0.000000  0.398229  0.680449  1
  Re  Re10  1  0.319551  0.717779  0.319551  1
  Re  Re11  1  0.319551  0.319551  0.717779  1
  Re  Re12  1  0.000000  0.680449  0.398229  1
  Re  Re13  1  0.680449  0.000000  0.398229  1
  Re  Re14  1  0.601771  0.601771  0.282221  1
  Re  Re15  1  0.282221  0.601771  0.601771  1
  Re  Re16  1  0.601771  0.282221  0.601771  1
  Re  Re17  1  0.375310  0.193234  0.000000  1
  Re  Re18  1  0.182076  0.806766  0.806766  1
  Re  Re19  1  0.375310  0.000000  0.193234  1
  Re  Re20  1  0.193234  0.375310  0.000000  1
  Re  Re21  1  0.000000  0.375310  0.193234  1
  Re  Re22  1  0.806766  0.182076  0.806766  1
  Re  Re23  1  0.806766  0.806766  0.182076  1
  Re  Re24  1  0.000000  0.193234  0.375310  1
  Re  Re25  1  0.193234  0.000000  0.375310  1
  Re  Re26  1  0.624690  0.624690  0.817924  1
  Re  Re27  1  0.817924  0.624690  0.624690  1
  Re  Re28  1  0.624690  0.817924  0.624690  1
