# generated using pymatgen
data_Li2ScAlB28
_symmetry_space_group_name_H-M   'P 1'
_cell_length_a   7.23745540
_cell_length_b   7.23745570
_cell_length_c   7.29191744
_cell_angle_alpha   131.81920997
_cell_angle_beta   111.99311394
_cell_angle_gamma   87.18489298
_symmetry_Int_Tables_number   1
_chemical_formula_structural   Li2ScAlB28
_chemical_formula_sum   'Li2 Sc1 Al1 B28'
_cell_volume   252.57394776
_cell_formula_units_Z   1
loop_
 _symmetry_equiv_pos_site_id
 _symmetry_equiv_pos_as_xyz
  1  'x, y, z'
loop_
 _atom_site_type_symbol
 _atom_site_label
 _atom_site_symmetry_multiplicity
 _atom_site_fract_x
 _atom_site_fract_y
 _atom_site_fract_z
 _atom_site_occupancy
  Li  Li0  1  0.899162  0.250069  0.649231  1
  Li  Li1  1  0.100838  0.749931  0.350769  1
  Sc  Sc2  1  0.500000  0.000000  0.000000  1
  Al  Al3  1  0.500000  0.500000  0.500000  1
  B  B4  1  0.726823  0.719419  0.322110  1
  B  B5  1  0.742714  0.366223  0.395542  1
  B  B6  1  0.880743  0.676847  0.713724  1
  B  B7  1  0.122887  0.829994  0.796076  1
  B  B8  1  0.533918  0.826810  0.203924  1
  B  B9  1  0.463122  0.667019  0.286276  1
  B  B10  1  0.119257  0.323153  0.286276  1
  B  B11  1  0.877113  0.170006  0.203924  1
  B  B12  1  0.466082  0.173190  0.796076  1
  B  B13  1  0.536878  0.332981  0.713724  1
  B  B14  1  0.102612  0.780191  0.008300  1
  B  B15  1  0.897309  0.904713  0.677890  1
  B  B16  1  0.897388  0.219809  0.991700  1
  B  B17  1  0.271891  0.594313  0.991700  1
  B  B18  1  0.102691  0.095287  0.322110  1
  B  B19  1  0.529319  0.152828  0.395542  1
  B  B20  1  0.273177  0.280581  0.677890  1
  B  B21  1  0.728109  0.405687  0.008300  1
  B  B22  1  0.745756  0.915093  0.826219  1
  B  B23  1  0.254244  0.084907  0.173781  1
  B  B24  1  0.411126  0.580463  0.826219  1
  B  B25  1  0.588874  0.419537  0.173781  1
  B  B26  1  0.863442  0.836202  0.032117  1
  B  B27  1  0.136558  0.163798  0.967883  1
  B  B28  1  0.695915  0.668676  0.032117  1
  B  B29  1  0.304085  0.331324  0.967883  1
  B  B30  1  0.470681  0.847172  0.604458  1
  B  B31  1  0.257286  0.633777  0.604458  1
