# generated using pymatgen
data_Tb2Dy2VRe3B16
_symmetry_space_group_name_H-M   'P 1'
_cell_length_a   3.59053800
_cell_length_b   5.98349208
_cell_length_c   11.57867140
_cell_angle_alpha   89.83093634
_cell_angle_beta   90.00000000
_cell_angle_gamma   90.00000000
_symmetry_Int_Tables_number   1
_chemical_formula_structural   Tb2Dy2VRe3B16
_chemical_formula_sum   'Tb2 Dy2 V1 Re3 B16'
_cell_volume   248.75458047
_cell_formula_units_Z   1
loop_
 _symmetry_equiv_pos_site_id
 _symmetry_equiv_pos_as_xyz
  1  'x, y, z'
loop_
 _atom_site_type_symbol
 _atom_site_label
 _atom_site_symmetry_multiplicity
 _atom_site_fract_x
 _atom_site_fract_y
 _atom_site_fract_z
 _atom_site_occupancy
  Tb  Tb0  1  0.000000  0.625561  0.350939  1
  Tb  Tb1  1  0.000000  0.375261  0.649396  1
  Dy  Dy2  1  0.000000  0.127144  0.150645  1
  Dy  Dy3  1  0.000000  0.872445  0.847884  1
  V  V4  1  0.000000  0.872279  0.582792  1
  Re  Re5  1  0.000000  0.633871  0.087725  1
  Re  Re6  1  0.000000  0.366148  0.913487  1
  Re  Re7  1  0.000000  0.126562  0.416134  1
  B  B8  1  0.500000  0.785314  0.185453  1
  B  B9  1  0.500000  0.214695  0.814716  1
  B  B10  1  0.500000  0.285567  0.315513  1
  B  B11  1  0.500000  0.714737  0.684725  1
  B  B12  1  0.500000  0.863824  0.031150  1
  B  B13  1  0.500000  0.136299  0.968721  1
  B  B14  1  0.500000  0.364132  0.467807  1
  B  B15  1  0.500000  0.635754  0.532649  1
  B  B16  1  0.500000  0.886218  0.453277  1
  B  B17  1  0.500000  0.113752  0.547180  1
  B  B18  1  0.500000  0.386456  0.047220  1
  B  B19  1  0.500000  0.614186  0.952613  1
  B  B20  1  0.500000  0.976599  0.307957  1
  B  B21  1  0.500000  0.023030  0.692170  1
  B  B22  1  0.500000  0.475355  0.192034  1
  B  B23  1  0.500000  0.524810  0.807815  1
