# generated using pymatgen
data_Pr2Co2Si(P3Ru5)2
_symmetry_space_group_name_H-M   'P 1'
_cell_length_a   9.46244115
_cell_length_b   9.40686677
_cell_length_c   3.90771800
_cell_angle_alpha   90.00000000
_cell_angle_beta   90.00000000
_cell_angle_gamma   119.69672532
_symmetry_Int_Tables_number   1
_chemical_formula_structural   Pr2Co2Si(P3Ru5)2
_chemical_formula_sum   'Pr2 Co2 Si1 P6 Ru10'
_cell_volume   302.14898455
_cell_formula_units_Z   1
loop_
 _symmetry_equiv_pos_site_id
 _symmetry_equiv_pos_as_xyz
  1  'x, y, z'
loop_
 _atom_site_type_symbol
 _atom_site_label
 _atom_site_symmetry_multiplicity
 _atom_site_fract_x
 _atom_site_fract_y
 _atom_site_fract_z
 _atom_site_occupancy
  Pr  Pr0  1  0.333000  0.665275  0.000000  1
  Pr  Pr1  1  0.668790  0.334172  0.500000  1
  Co  Co2  1  0.724655  0.887096  0.000000  1
  Co  Co3  1  0.113580  0.838245  0.000000  1
  Si  Si4  1  0.993928  0.991998  0.000000  1
  P  P5  1  0.108739  0.394106  0.500000  1
  P  P6  1  0.607764  0.717267  0.500000  1
  P  P7  1  0.283836  0.888566  0.500000  1
  P  P8  1  0.419128  0.310252  0.000000  1
  P  P9  1  0.693336  0.105135  0.000000  1
  P  P10  1  0.896102  0.592667  0.000000  1
  Ru  Ru11  1  0.420779  0.060412  0.000000  1
  Ru  Ru12  1  0.935110  0.362645  0.000000  1
  Ru  Ru13  1  0.642927  0.582784  0.000000  1
  Ru  Ru14  1  0.391667  0.438124  0.500000  1
  Ru  Ru15  1  0.562818  0.947688  0.500000  1
  Ru  Ru16  1  0.052332  0.616435  0.500000  1
  Ru  Ru17  1  0.158978  0.272001  0.000000  1
  Ru  Ru18  1  0.200936  0.082170  0.500000  1
  Ru  Ru19  1  0.907605  0.116130  0.500000  1
  Ru  Ru20  1  0.883989  0.796837  0.500000  1
