# generated using pymatgen
data_Nb12Al7Si(RuC)4
_symmetry_space_group_name_H-M   'P 1'
_cell_length_a   8.32262363
_cell_length_b   8.32262451
_cell_length_c   8.32262400
_cell_angle_alpha   59.94506071
_cell_angle_beta   59.94506752
_cell_angle_gamma   59.94505152
_symmetry_Int_Tables_number   1
_chemical_formula_structural   Nb12Al7Si(RuC)4
_chemical_formula_sum   'Nb12 Al7 Si1 Ru4 C4'
_cell_volume   407.12178196
_cell_formula_units_Z   1
loop_
 _symmetry_equiv_pos_site_id
 _symmetry_equiv_pos_as_xyz
  1  'x, y, z'
loop_
 _atom_site_type_symbol
 _atom_site_label
 _atom_site_symmetry_multiplicity
 _atom_site_fract_x
 _atom_site_fract_y
 _atom_site_fract_z
 _atom_site_occupancy
  Nb  Nb0  1  0.692207  0.308229  0.692207  1
  Nb  Nb1  1  0.941996  0.557624  0.557624  1
  Nb  Nb2  1  0.559401  0.941783  0.941783  1
  Nb  Nb3  1  0.941783  0.559401  0.941783  1
  Nb  Nb4  1  0.557624  0.557624  0.941996  1
  Nb  Nb5  1  0.941783  0.941783  0.559401  1
  Nb  Nb6  1  0.692207  0.692207  0.308229  1
  Nb  Nb7  1  0.308229  0.692207  0.692207  1
  Nb  Nb8  1  0.685512  0.310069  0.310069  1
  Nb  Nb9  1  0.310069  0.310069  0.685512  1
  Nb  Nb10  1  0.557624  0.941996  0.557624  1
  Nb  Nb11  1  0.310069  0.685512  0.310069  1
  Al  Al12  1  0.249865  0.916688  0.916688  1
  Al  Al13  1  0.916688  0.249865  0.916688  1
  Al  Al14  1  0.916688  0.916688  0.249865  1
  Al  Al15  1  0.332330  0.999055  0.332330  1
  Al  Al16  1  0.332330  0.332330  0.999055  1
  Al  Al17  1  0.999055  0.332330  0.332330  1
  Al  Al18  1  0.917368  0.917368  0.917368  1
  Si  Si19  1  0.333982  0.333982  0.333982  1
  Ru  Ru20  1  0.124640  0.124640  0.124640  1
  Ru  Ru21  1  0.620122  0.128937  0.128937  1
  Ru  Ru22  1  0.128937  0.620122  0.128937  1
  Ru  Ru23  1  0.128937  0.128937  0.620122  1
  C  C24  1  0.625297  0.625297  0.625297  1
  C  C25  1  0.124437  0.625410  0.625410  1
  C  C26  1  0.625410  0.124437  0.625410  1
  C  C27  1  0.625410  0.625410  0.124437  1
