# generated using pymatgen
data_YbHo2Al3Ge2Pt
_symmetry_space_group_name_H-M   'P 1'
_cell_length_a   7.02309500
_cell_length_b   6.96422352
_cell_length_c   4.23309900
_cell_angle_alpha   90.00000000
_cell_angle_beta   90.00000000
_cell_angle_gamma   120.28002820
_symmetry_Int_Tables_number   1
_chemical_formula_structural   YbHo2Al3Ge2Pt
_chemical_formula_sum   'Yb1 Ho2 Al3 Ge2 Pt1'
_cell_volume   178.79604278
_cell_formula_units_Z   1
loop_
 _symmetry_equiv_pos_site_id
 _symmetry_equiv_pos_as_xyz
  1  'x, y, z'
loop_
 _atom_site_type_symbol
 _atom_site_label
 _atom_site_symmetry_multiplicity
 _atom_site_fract_x
 _atom_site_fract_y
 _atom_site_fract_z
 _atom_site_occupancy
  Yb  Yb0  1  0.417062  0.000000  0.000000  1
  Ho  Ho1  1  0.001645  0.417572  0.000000  1
  Ho  Ho2  1  0.584072  0.582427  0.000000  1
  Al  Al3  1  0.768131  0.000000  0.500001  1
  Al  Al4  1  0.229964  0.236016  0.500001  1
  Al  Al5  1  0.993948  0.763983  0.500001  1
  Ge  Ge6  1  0.671710  0.337116  0.500001  1
  Ge  Ge7  1  0.334594  0.662883  0.500001  1
  Pt  Pt8  1  0.998872  0.000000  0.000000  1
