# generated using pymatgen
data_Dy3YMnCo13B6
_symmetry_space_group_name_H-M   'P 1'
_cell_length_a   5.05702600
_cell_length_b   5.05702662
_cell_length_c   12.72599400
_cell_angle_alpha   90.00000000
_cell_angle_beta   90.00000000
_cell_angle_gamma   120.00495160
_symmetry_Int_Tables_number   1
_chemical_formula_structural   Dy3YMnCo13B6
_chemical_formula_sum   'Dy3 Y1 Mn1 Co13 B6'
_cell_volume   281.83251821
_cell_formula_units_Z   1
loop_
 _symmetry_equiv_pos_site_id
 _symmetry_equiv_pos_as_xyz
  1  'x, y, z'
loop_
 _atom_site_type_symbol
 _atom_site_label
 _atom_site_symmetry_multiplicity
 _atom_site_fract_x
 _atom_site_fract_y
 _atom_site_fract_z
 _atom_site_occupancy
  Dy  Dy0  1  0.999997  0.000003  0.260984  1
  Dy  Dy1  1  0.999997  0.000003  0.500000  1
  Dy  Dy2  1  0.999997  0.000003  0.739016  1
  Y  Y3  1  0.999999  0.000001  0.000000  1
  Mn  Mn4  1  0.333405  0.666595  0.000000  1
  Co  Co5  1  0.499879  0.999767  0.614859  1
  Co  Co6  1  0.501035  0.002083  0.843207  1
  Co  Co7  1  0.501031  0.498969  0.843200  1
  Co  Co8  1  0.499879  0.500121  0.385141  1
  Co  Co9  1  0.000233  0.500121  0.614859  1
  Co  Co10  1  0.997917  0.498965  0.156793  1
  Co  Co11  1  0.997917  0.498965  0.843207  1
  Co  Co12  1  0.501031  0.498969  0.156800  1
  Co  Co13  1  0.499879  0.999767  0.385141  1
  Co  Co14  1  0.501035  0.002083  0.156793  1
  Co  Co15  1  0.499879  0.500121  0.614859  1
  Co  Co16  1  0.666674  0.333326  0.000000  1
  Co  Co17  1  0.000233  0.500121  0.385141  1
  B  B18  1  0.666664  0.333336  0.730546  1
  B  B19  1  0.333330  0.666670  0.731184  1
  B  B20  1  0.333330  0.666670  0.268816  1
  B  B21  1  0.666666  0.333334  0.500000  1
  B  B22  1  0.666664  0.333336  0.269454  1
  B  B23  1  0.333328  0.666672  0.500000  1
