# generated using pymatgen
data_Ta2Ti4P4Rh
_symmetry_space_group_name_H-M   'P 1'
_cell_length_a   7.32682287
_cell_length_b   7.32682409
_cell_length_c   13.79121979
_cell_angle_alpha   76.07218509
_cell_angle_beta   76.07218241
_cell_angle_gamma   27.28769491
_symmetry_Int_Tables_number   1
_chemical_formula_structural   Ta2Ti4P4Rh
_chemical_formula_sum   'Ta4 Ti8 P8 Rh2'
_cell_volume   328.84121897
_cell_formula_units_Z   2
loop_
 _symmetry_equiv_pos_site_id
 _symmetry_equiv_pos_as_xyz
  1  'x, y, z'
loop_
 _atom_site_type_symbol
 _atom_site_label
 _atom_site_symmetry_multiplicity
 _atom_site_fract_x
 _atom_site_fract_y
 _atom_site_fract_z
 _atom_site_occupancy
  Ta  Ta0  1  0.000000  0.000000  0.000000  1
  Ta  Ta1  1  0.500000  0.500000  0.500000  1
  Ta  Ta2  1  0.425836  0.425836  0.172671  1
  Ta  Ta3  1  0.574164  0.574164  0.827329  1
  Ti  Ti4  1  0.211916  0.211916  0.209219  1
  Ti  Ti5  1  0.788084  0.788084  0.790781  1
  Ti  Ti6  1  0.339869  0.339869  0.966515  1
  Ti  Ti7  1  0.660131  0.660131  0.033485  1
  Ti  Ti8  1  0.002888  0.002888  0.335866  1
  Ti  Ti9  1  0.997112  0.997112  0.664134  1
  Ti  Ti10  1  0.174251  0.174251  0.464766  1
  Ti  Ti11  1  0.825749  0.825749  0.535234  1
  P  P12  1  0.182784  0.182784  0.896481  1
  P  P13  1  0.817216  0.817216  0.103519  1
  P  P14  1  0.371088  0.371088  0.396335  1
  P  P15  1  0.628912  0.628912  0.603665  1
  P  P16  1  0.364767  0.364767  0.659695  1
  P  P17  1  0.635233  0.635233  0.340305  1
  P  P18  1  0.063089  0.063089  0.155129  1
  P  P19  1  0.936911  0.936911  0.844871  1
  Rh  Rh20  1  0.193815  0.193815  0.677357  1
  Rh  Rh21  1  0.806185  0.806185  0.322643  1
