# generated using pymatgen
data_BaCr3Sb12Os
_symmetry_space_group_name_H-M   'P 1'
_cell_length_a   8.32989353
_cell_length_b   8.26191411
_cell_length_c   8.26191499
_cell_angle_alpha   109.30394862
_cell_angle_beta   109.63797684
_cell_angle_gamma   109.63798058
_symmetry_Int_Tables_number   1
_chemical_formula_structural   BaCr3Sb12Os
_chemical_formula_sum   'Ba1 Cr3 Sb12 Os1'
_cell_volume   436.79839338
_cell_formula_units_Z   1
loop_
 _symmetry_equiv_pos_site_id
 _symmetry_equiv_pos_as_xyz
  1  'x, y, z'
loop_
 _atom_site_type_symbol
 _atom_site_label
 _atom_site_symmetry_multiplicity
 _atom_site_fract_x
 _atom_site_fract_y
 _atom_site_fract_z
 _atom_site_occupancy
  Ba  Ba0  1  0.000000  0.000000  0.000000  1
  Cr  Cr1  1  0.000000  0.000000  0.500000  1
  Cr  Cr2  1  0.000000  0.500000  0.000000  1
  Cr  Cr3  1  0.500000  0.500000  0.500000  1
  Sb  Sb4  1  0.345592  0.185112  0.847598  1
  Sb  Sb5  1  0.654408  0.814888  0.152402  1
  Sb  Sb6  1  0.655985  0.500733  0.846044  1
  Sb  Sb7  1  0.344015  0.499267  0.153956  1
  Sb  Sb8  1  0.190059  0.846044  0.345310  1
  Sb  Sb9  1  0.809941  0.153956  0.654690  1
  Sb  Sb10  1  0.502005  0.847598  0.662487  1
  Sb  Sb11  1  0.497995  0.152402  0.337513  1
  Sb  Sb12  1  0.839520  0.337513  0.185112  1
  Sb  Sb13  1  0.160480  0.662487  0.814888  1
  Sb  Sb14  1  0.844749  0.654690  0.500733  1
  Sb  Sb15  1  0.155251  0.345310  0.499267  1
  Os  Os16  1  0.500000  0.000000  0.000000  1
