# generated using pymatgen
data_Nd11In4Ni4Ag5
_symmetry_space_group_name_H-M   'P 1'
_cell_length_a   13.29811469
_cell_length_b   13.16612223
_cell_length_c   3.74479200
_cell_angle_alpha   90.00000000
_cell_angle_beta   90.00000000
_cell_angle_gamma   112.53654334
_symmetry_Int_Tables_number   1
_chemical_formula_structural   Nd11In4Ni4Ag5
_chemical_formula_sum   'Nd11 In4 Ni4 Ag5'
_cell_volume   605.58647207
_cell_formula_units_Z   1
loop_
 _symmetry_equiv_pos_site_id
 _symmetry_equiv_pos_as_xyz
  1  'x, y, z'
loop_
 _atom_site_type_symbol
 _atom_site_label
 _atom_site_symmetry_multiplicity
 _atom_site_fract_x
 _atom_site_fract_y
 _atom_site_fract_z
 _atom_site_occupancy
  Nd  Nd0  1  0.079767  0.414574  0.000000  1
  Nd  Nd1  1  0.919585  0.576705  0.000000  1
  Nd  Nd2  1  0.424537  0.081605  0.000000  1
  Nd  Nd3  1  0.577812  0.920574  0.000000  1
  Nd  Nd4  1  0.629539  0.368064  0.000000  1
  Nd  Nd5  1  0.369908  0.629738  0.000000  1
  Nd  Nd6  1  0.833799  0.168090  0.000000  1
  Nd  Nd7  1  0.163129  0.834572  0.000000  1
  Nd  Nd8  1  0.003221  0.008397  0.000000  1
  Nd  Nd9  1  0.304899  0.308019  0.000000  1
  Nd  Nd10  1  0.687552  0.685796  0.000000  1
  In  In11  1  0.923589  0.782436  0.500000  1
  In  In12  1  0.221600  0.075026  0.500000  1
  In  In13  1  0.781728  0.925176  0.500000  1
  In  In14  1  0.499355  0.495938  0.500000  1
  Ni  Ni15  1  0.253379  0.453956  0.500000  1
  Ni  Ni16  1  0.752229  0.554463  0.500000  1
  Ni  Ni17  1  0.445363  0.249698  0.500000  1
  Ni  Ni18  1  0.552134  0.750958  0.500000  1
  Ag  Ag19  1  0.839319  0.367673  0.500000  1
  Ag  Ag20  1  0.160030  0.630708  0.500000  1
  Ag  Ag21  1  0.364725  0.836885  0.500000  1
  Ag  Ag22  1  0.634179  0.160270  0.500000  1
  Ag  Ag23  1  0.078621  0.220683  0.500000  1
