# generated using pymatgen
data_YbDySiN3
_symmetry_space_group_name_H-M   'P 1'
_cell_length_a   5.82270609
_cell_length_b   5.82270523
_cell_length_c   11.26955600
_cell_angle_alpha   90.00000000
_cell_angle_beta   90.00000000
_cell_angle_gamma   125.51719250
_symmetry_Int_Tables_number   1
_chemical_formula_structural   YbDySiN3
_chemical_formula_sum   'Yb4 Dy4 Si4 N12'
_cell_volume   310.99222325
_cell_formula_units_Z   4
loop_
 _symmetry_equiv_pos_site_id
 _symmetry_equiv_pos_as_xyz
  1  'x, y, z'
loop_
 _atom_site_type_symbol
 _atom_site_label
 _atom_site_symmetry_multiplicity
 _atom_site_fract_x
 _atom_site_fract_y
 _atom_site_fract_z
 _atom_site_occupancy
  Yb  Yb0  1  0.046267  0.953733  0.855604  1
  Yb  Yb1  1  0.953733  0.046267  0.144396  1
  Yb  Yb2  1  0.453733  0.546267  0.355604  1
  Yb  Yb3  1  0.546267  0.453733  0.644396  1
  Dy  Dy4  1  0.641154  0.358846  0.078311  1
  Dy  Dy5  1  0.358846  0.641154  0.921689  1
  Dy  Dy6  1  0.858846  0.141154  0.578311  1
  Dy  Dy7  1  0.141154  0.858846  0.421689  1
  Si  Si8  1  0.738593  0.261407  0.838401  1
  Si  Si9  1  0.261407  0.738593  0.161599  1
  Si  Si10  1  0.761407  0.238593  0.338401  1
  Si  Si11  1  0.238593  0.761407  0.661599  1
  N  N12  1  0.572962  0.427038  0.870522  1
  N  N13  1  0.427038  0.572962  0.129478  1
  N  N14  1  0.927038  0.072962  0.370522  1
  N  N15  1  0.072962  0.927038  0.629478  1
  N  N16  1  0.532418  0.967582  0.750000  1
  N  N17  1  0.967582  0.532418  0.250000  1
  N  N18  1  0.467582  0.032418  0.250000  1
  N  N19  1  0.032418  0.467582  0.750000  1
  N  N20  1  0.839724  0.160276  0.961882  1
  N  N21  1  0.160276  0.839724  0.038118  1
  N  N22  1  0.660276  0.339724  0.461882  1
  N  N23  1  0.339724  0.660276  0.538118  1
