# generated using pymatgen
data_LaPrCu10
_symmetry_space_group_name_H-M   'P 1'
_cell_length_a   4.11523500
_cell_length_b   5.10545800
_cell_length_c   8.94224900
_cell_angle_alpha   90.00000000
_cell_angle_beta   90.00000000
_cell_angle_gamma   90.00000000
_symmetry_Int_Tables_number   1
_chemical_formula_structural   LaPrCu10
_chemical_formula_sum   'La1 Pr1 Cu10'
_cell_volume   187.87807736
_cell_formula_units_Z   1
loop_
 _symmetry_equiv_pos_site_id
 _symmetry_equiv_pos_as_xyz
  1  'x, y, z'
loop_
 _atom_site_type_symbol
 _atom_site_label
 _atom_site_symmetry_multiplicity
 _atom_site_fract_x
 _atom_site_fract_y
 _atom_site_fract_z
 _atom_site_occupancy
  La  La0  1  0.000000  0.999962  0.000000  1
  Pr  Pr1  1  0.000000  0.499972  0.500000  1
  Cu  Cu2  1  0.000000  0.999987  0.334343  1
  Cu  Cu3  1  0.000000  0.499988  0.834119  1
  Cu  Cu4  1  0.000000  0.499988  0.165881  1
  Cu  Cu5  1  0.000000  0.999987  0.665657  1
  Cu  Cu6  1  0.500000  0.999983  0.500000  1
  Cu  Cu7  1  0.500000  0.499997  0.000000  1
  Cu  Cu8  1  0.500000  0.251659  0.252193  1
  Cu  Cu9  1  0.500000  0.748310  0.747809  1
  Cu  Cu10  1  0.500000  0.748310  0.252191  1
  Cu  Cu11  1  0.500000  0.251659  0.747807  1
