# generated using pymatgen
data_Ba4LaU3F24
_symmetry_space_group_name_H-M   'P 1'
_cell_length_a   7.64974193
_cell_length_b   8.94267948
_cell_length_c   8.99845921
_cell_angle_alpha   102.13346716
_cell_angle_beta   96.30638110
_cell_angle_gamma   114.80767109
_symmetry_Int_Tables_number   1
_chemical_formula_structural   Ba4LaU3F24
_chemical_formula_sum   'Ba4 La1 U3 F24'
_cell_volume   532.51453836
_cell_formula_units_Z   1
loop_
 _symmetry_equiv_pos_site_id
 _symmetry_equiv_pos_as_xyz
  1  'x, y, z'
loop_
 _atom_site_type_symbol
 _atom_site_label
 _atom_site_symmetry_multiplicity
 _atom_site_fract_x
 _atom_site_fract_y
 _atom_site_fract_z
 _atom_site_occupancy
  Ba  Ba0  1  0.295142  0.761984  0.543570  1
  Ba  Ba1  1  0.294067  0.311874  0.766152  1
  Ba  Ba2  1  0.706471  0.238244  0.462565  1
  Ba  Ba3  1  0.703118  0.678938  0.229291  1
  La  La4  1  0.758580  0.220650  0.930713  1
  U  U5  1  0.177907  0.262087  0.278740  1
  U  U6  1  0.238009  0.785571  0.066400  1
  U  U7  1  0.817418  0.739890  0.720790  1
  F  F8  1  0.076998  0.955495  0.700414  1
  F  F9  1  0.405435  0.640071  0.006826  1
  F  F10  1  0.922203  0.038035  0.295302  1
  F  F11  1  0.231513  0.038134  0.150683  1
  F  F12  1  0.764767  0.947918  0.852355  1
  F  F13  1  0.090131  0.760065  0.271567  1
  F  F14  1  0.883545  0.613225  0.502810  1
  F  F15  1  0.132620  0.717552  0.800972  1
  F  F16  1  0.489677  0.620475  0.699022  1
  F  F17  1  0.311045  0.192265  0.471389  1
  F  F18  1  0.112933  0.241312  0.026909  1
  F  F19  1  0.304659  0.542109  0.290946  1
  F  F20  1  0.699324  0.460077  0.711279  1
  F  F21  1  0.585598  0.379610  0.996971  1
  F  F22  1  0.881780  0.288758  0.213533  1
  F  F23  1  0.506714  0.094213  0.695622  1
  F  F24  1  0.486482  0.985484  0.999770  1
  F  F25  1  0.901748  0.759229  0.978967  1
  F  F26  1  0.918711  0.243186  0.721622  1
  F  F27  1  0.477328  0.900788  0.288426  1
  F  F28  1  0.506371  0.373545  0.299782  1
  F  F29  1  0.015109  0.513441  0.002783  1
  F  F30  1  0.120574  0.389166  0.499668  1
  F  F31  1  0.684021  0.806609  0.524161  1
