# generated using pymatgen
data_La3Pa5(AlRh)8
_symmetry_space_group_name_H-M   'P 1'
_cell_length_a   4.24746000
_cell_length_b   7.05154083
_cell_length_c   15.98655644
_cell_angle_alpha   89.88141651
_cell_angle_beta   90.00000000
_cell_angle_gamma   90.00000000
_symmetry_Int_Tables_number   1
_chemical_formula_structural   La3Pa5(AlRh)8
_chemical_formula_sum   'La3 Pa5 Al8 Rh8'
_cell_volume   478.81452632
_cell_formula_units_Z   1
loop_
 _symmetry_equiv_pos_site_id
 _symmetry_equiv_pos_as_xyz
  1  'x, y, z'
loop_
 _atom_site_type_symbol
 _atom_site_label
 _atom_site_symmetry_multiplicity
 _atom_site_fract_x
 _atom_site_fract_y
 _atom_site_fract_z
 _atom_site_occupancy
  La  La0  1  0.750000  0.355249  0.441939  1
  La  La1  1  0.750000  0.849872  0.059112  1
  La  La2  1  0.250000  0.147865  0.940104  1
  Pa  Pa3  1  0.250000  0.516381  0.775542  1
  Pa  Pa4  1  0.750000  0.480705  0.223381  1
  Pa  Pa5  1  0.750000  0.979605  0.280459  1
  Pa  Pa6  1  0.250000  0.018929  0.719963  1
  Pa  Pa7  1  0.250000  0.649854  0.562968  1
  Al  Al8  1  0.250000  0.653446  0.352810  1
  Al  Al9  1  0.750000  0.352466  0.649224  1
  Al  Al10  1  0.750000  0.845654  0.845363  1
  Al  Al11  1  0.250000  0.151469  0.151789  1
  Al  Al12  1  0.250000  0.510440  0.062027  1
  Al  Al13  1  0.750000  0.489761  0.936344  1
  Al  Al14  1  0.750000  0.992264  0.563363  1
  Al  Al15  1  0.250000  0.008935  0.440754  1
  Rh  Rh16  1  0.250000  0.761066  0.192303  1
  Rh  Rh17  1  0.750000  0.235657  0.808630  1
  Rh  Rh18  1  0.750000  0.731651  0.679391  1
  Rh  Rh19  1  0.250000  0.257680  0.310119  1
  Rh  Rh20  1  0.250000  0.699778  0.914633  1
  Rh  Rh21  1  0.750000  0.301216  0.083205  1
  Rh  Rh22  1  0.750000  0.794917  0.425348  1
  Rh  Rh23  1  0.250000  0.215139  0.581229  1
