# generated using pymatgen
data_Sc2Ga2Si2Tc3
_symmetry_space_group_name_H-M   'P 1'
_cell_length_a   6.63893500
_cell_length_b   6.83551000
_cell_length_c   12.46347900
_cell_angle_alpha   90.00000000
_cell_angle_beta   90.00000000
_cell_angle_gamma   90.00000000
_symmetry_Int_Tables_number   1
_chemical_formula_structural   Sc2Ga2Si2Tc3
_chemical_formula_sum   'Sc8 Ga8 Si8 Tc12'
_cell_volume   565.59899079
_cell_formula_units_Z   4
loop_
 _symmetry_equiv_pos_site_id
 _symmetry_equiv_pos_as_xyz
  1  'x, y, z'
loop_
 _atom_site_type_symbol
 _atom_site_label
 _atom_site_symmetry_multiplicity
 _atom_site_fract_x
 _atom_site_fract_y
 _atom_site_fract_z
 _atom_site_occupancy
  Sc  Sc0  1  0.491396  0.330903  0.089325  1
  Sc  Sc1  1  0.991396  0.169097  0.410675  1
  Sc  Sc2  1  0.508604  0.669097  0.589325  1
  Sc  Sc3  1  0.008604  0.830903  0.910675  1
  Sc  Sc4  1  0.508604  0.669097  0.910675  1
  Sc  Sc5  1  0.008604  0.830903  0.589325  1
  Sc  Sc6  1  0.491396  0.330903  0.410675  1
  Sc  Sc7  1  0.991396  0.169097  0.089325  1
  Ga  Ga8  1  0.525287  0.368219  0.750000  1
  Ga  Ga9  1  0.025287  0.131781  0.750000  1
  Ga  Ga10  1  0.474713  0.631781  0.250000  1
  Ga  Ga11  1  0.974713  0.868219  0.250000  1
  Ga  Ga12  1  0.806345  0.647577  0.750000  1
  Ga  Ga13  1  0.306345  0.852423  0.750000  1
  Ga  Ga14  1  0.193655  0.352423  0.250000  1
  Ga  Ga15  1  0.693655  0.147577  0.250000  1
  Si  Si16  1  0.661547  0.044274  0.549509  1
  Si  Si17  1  0.161547  0.455726  0.950491  1
  Si  Si18  1  0.338453  0.955726  0.049509  1
  Si  Si19  1  0.838453  0.544274  0.450491  1
  Si  Si20  1  0.338453  0.955726  0.450491  1
  Si  Si21  1  0.838453  0.544274  0.049509  1
  Si  Si22  1  0.661547  0.044274  0.950491  1
  Si  Si23  1  0.161547  0.455726  0.549509  1
  Tc  Tc24  1  0.825221  0.345516  0.615754  1
  Tc  Tc25  1  0.325221  0.154484  0.884246  1
  Tc  Tc26  1  0.174779  0.654484  0.115754  1
  Tc  Tc27  1  0.674779  0.845516  0.384246  1
  Tc  Tc28  1  0.174779  0.654484  0.384246  1
  Tc  Tc29  1  0.674779  0.845516  0.115754  1
  Tc  Tc30  1  0.825221  0.345516  0.884246  1
  Tc  Tc31  1  0.325221  0.154484  0.615754  1
  Tc  Tc32  1  0.663736  0.997040  0.750000  1
  Tc  Tc33  1  0.163736  0.502960  0.750000  1
  Tc  Tc34  1  0.336264  0.002960  0.250000  1
  Tc  Tc35  1  0.836264  0.497040  0.250000  1
