# generated using pymatgen
data_Ho3AlHg2Au3
_symmetry_space_group_name_H-M   'P 1'
_cell_length_a   7.79058404
_cell_length_b   7.60642823
_cell_length_c   3.87658000
_cell_angle_alpha   90.00000000
_cell_angle_beta   90.00000000
_cell_angle_gamma   119.22107448
_symmetry_Int_Tables_number   1
_chemical_formula_structural   Ho3AlHg2Au3
_chemical_formula_sum   'Ho3 Al1 Hg2 Au3'
_cell_volume   200.48676200
_cell_formula_units_Z   1
loop_
 _symmetry_equiv_pos_site_id
 _symmetry_equiv_pos_as_xyz
  1  'x, y, z'
loop_
 _atom_site_type_symbol
 _atom_site_label
 _atom_site_symmetry_multiplicity
 _atom_site_fract_x
 _atom_site_fract_y
 _atom_site_fract_z
 _atom_site_occupancy
  Ho  Ho0  1  0.410344  0.400915  0.500000  1
  Ho  Ho1  1  0.589656  0.990571  0.500000  1
  Ho  Ho2  1  0.000000  0.606733  0.500000  1
  Al  Al3  1  0.000000  0.262302  0.000000  1
  Hg  Hg4  1  0.730722  0.734194  0.000000  1
  Hg  Hg5  1  0.269278  0.003472  0.000000  1
  Au  Au6  1  0.688548  0.326933  0.000000  1
  Au  Au7  1  0.311452  0.638386  0.000000  1
  Au  Au8  1  0.000000  0.036492  0.500000  1
