# generated using pymatgen
data_Tb5LuTe3
_symmetry_space_group_name_H-M   'P 1'
_cell_length_a   4.09449900
_cell_length_b   11.57379300
_cell_length_c   22.15007400
_cell_angle_alpha   90.00000000
_cell_angle_beta   90.00000000
_cell_angle_gamma   90.00000000
_symmetry_Int_Tables_number   1
_chemical_formula_structural   Tb5LuTe3
_chemical_formula_sum   'Tb20 Lu4 Te12'
_cell_volume   1049.66728438
_cell_formula_units_Z   4
loop_
 _symmetry_equiv_pos_site_id
 _symmetry_equiv_pos_as_xyz
  1  'x, y, z'
loop_
 _atom_site_type_symbol
 _atom_site_label
 _atom_site_symmetry_multiplicity
 _atom_site_fract_x
 _atom_site_fract_y
 _atom_site_fract_z
 _atom_site_occupancy
  Tb  Tb0  1  0.250000  0.151370  0.392427  1
  Tb  Tb1  1  0.750000  0.848630  0.607573  1
  Tb  Tb2  1  0.750000  0.651370  0.107573  1
  Tb  Tb3  1  0.250000  0.348630  0.892427  1
  Tb  Tb4  1  0.250000  0.455655  0.340351  1
  Tb  Tb5  1  0.750000  0.544345  0.659649  1
  Tb  Tb6  1  0.750000  0.955655  0.159649  1
  Tb  Tb7  1  0.250000  0.044345  0.840351  1
  Tb  Tb8  1  0.250000  0.734861  0.233571  1
  Tb  Tb9  1  0.750000  0.265139  0.766429  1
  Tb  Tb10  1  0.750000  0.234861  0.266429  1
  Tb  Tb11  1  0.250000  0.765139  0.733571  1
  Tb  Tb12  1  0.250000  0.115803  0.034472  1
  Tb  Tb13  1  0.750000  0.884197  0.965528  1
  Tb  Tb14  1  0.750000  0.615803  0.465528  1
  Tb  Tb15  1  0.250000  0.384197  0.534472  1
  Tb  Tb16  1  0.250000  0.414352  0.146242  1
  Tb  Tb17  1  0.750000  0.585648  0.853758  1
  Tb  Tb18  1  0.750000  0.914352  0.353758  1
  Tb  Tb19  1  0.250000  0.085648  0.646242  1
  Lu  Lu20  1  0.250000  0.611177  0.982633  1
  Lu  Lu21  1  0.750000  0.388823  0.017367  1
  Lu  Lu22  1  0.750000  0.111177  0.517367  1
  Lu  Lu23  1  0.250000  0.888823  0.482633  1
  Te  Te24  1  0.250000  0.849576  0.068750  1
  Te  Te25  1  0.750000  0.150424  0.931250  1
  Te  Te26  1  0.750000  0.349576  0.431250  1
  Te  Te27  1  0.250000  0.650424  0.568750  1
  Te  Te28  1  0.250000  0.712752  0.373187  1
  Te  Te29  1  0.750000  0.287248  0.626813  1
  Te  Te30  1  0.750000  0.212752  0.126813  1
  Te  Te31  1  0.250000  0.787248  0.873187  1
  Te  Te32  1  0.250000  0.020610  0.261253  1
  Te  Te33  1  0.750000  0.979390  0.738747  1
  Te  Te34  1  0.750000  0.520610  0.238747  1
  Te  Te35  1  0.250000  0.479390  0.761253  1
