# generated using pymatgen
data_ZrPa7Zn8Ir7Rh
_symmetry_space_group_name_H-M   'P 1'
_cell_length_a   3.85107000
_cell_length_b   7.40392451
_cell_length_c   16.37729100
_cell_angle_alpha   90.45212284
_cell_angle_beta   90.00000000
_cell_angle_gamma   90.00000000
_symmetry_Int_Tables_number   1
_chemical_formula_structural   ZrPa7Zn8Ir7Rh
_chemical_formula_sum   'Zr1 Pa7 Zn8 Ir7 Rh1'
_cell_volume   466.95167691
_cell_formula_units_Z   1
loop_
 _symmetry_equiv_pos_site_id
 _symmetry_equiv_pos_as_xyz
  1  'x, y, z'
loop_
 _atom_site_type_symbol
 _atom_site_label
 _atom_site_symmetry_multiplicity
 _atom_site_fract_x
 _atom_site_fract_y
 _atom_site_fract_z
 _atom_site_occupancy
  Zr  Zr0  1  0.250000  0.563582  0.787905  1
  Pa  Pa1  1  0.250000  0.170838  0.937424  1
  Pa  Pa2  1  0.250000  0.675207  0.562831  1
  Pa  Pa3  1  0.750000  0.335913  0.441002  1
  Pa  Pa4  1  0.750000  0.939224  0.285216  1
  Pa  Pa5  1  0.750000  0.828647  0.059530  1
  Pa  Pa6  1  0.750000  0.437439  0.214309  1
  Pa  Pa7  1  0.250000  0.057598  0.716621  1
  Zn  Zn8  1  0.750000  0.011857  0.559923  1
  Zn  Zn9  1  0.250000  0.609987  0.344340  1
  Zn  Zn10  1  0.750000  0.400155  0.662884  1
  Zn  Zn11  1  0.250000  0.491816  0.059571  1
  Zn  Zn12  1  0.750000  0.506295  0.932098  1
  Zn  Zn13  1  0.250000  0.998241  0.439622  1
  Zn  Zn14  1  0.250000  0.109334  0.154259  1
  Zn  Zn15  1  0.750000  0.869167  0.843741  1
  Ir  Ir16  1  0.750000  0.738707  0.440369  1
  Ir  Ir17  1  0.250000  0.238779  0.312919  1
  Ir  Ir18  1  0.750000  0.236736  0.815177  1
  Ir  Ir19  1  0.750000  0.770340  0.682905  1
  Ir  Ir20  1  0.250000  0.271796  0.560710  1
  Ir  Ir21  1  0.250000  0.739119  0.185171  1
  Ir  Ir22  1  0.750000  0.236570  0.057269  1
  Rh  Rh23  1  0.250000  0.762653  0.944206  1
