# generated using pymatgen
data_Er6Al24IrRu4Pt3
_symmetry_space_group_name_H-M   'P 1'
_cell_length_a   8.82832398
_cell_length_b   8.82790043
_cell_length_c   9.48109037
_cell_angle_alpha   90.00000352
_cell_angle_beta   90.30292072
_cell_angle_gamma   119.99841597
_symmetry_Int_Tables_number   1
_chemical_formula_structural   Er6Al24IrRu4Pt3
_chemical_formula_sum   'Er6 Al24 Ir1 Ru4 Pt3'
_cell_volume   639.91670233
_cell_formula_units_Z   1
loop_
 _symmetry_equiv_pos_site_id
 _symmetry_equiv_pos_as_xyz
  1  'x, y, z'
loop_
 _atom_site_type_symbol
 _atom_site_label
 _atom_site_symmetry_multiplicity
 _atom_site_fract_x
 _atom_site_fract_y
 _atom_site_fract_z
 _atom_site_occupancy
  Er  Er0  1  0.192375  0.384639  0.251549  1
  Er  Er1  1  0.807625  0.615361  0.748451  1
  Er  Er2  1  0.614513  0.807256  0.250453  1
  Er  Er3  1  0.385487  0.192744  0.749547  1
  Er  Er4  1  0.192375  0.807736  0.251549  1
  Er  Er5  1  0.807625  0.192264  0.748451  1
  Al  Al6  1  0.330202  0.665101  0.030984  1
  Al  Al7  1  0.669798  0.334899  0.969016  1
  Al  Al8  1  0.661015  0.330507  0.527792  1
  Al  Al9  1  0.338985  0.669493  0.472208  1
  Al  Al10  1  0.167398  0.325230  0.576545  1
  Al  Al11  1  0.832602  0.674770  0.423455  1
  Al  Al12  1  0.673748  0.836874  0.576331  1
  Al  Al13  1  0.841155  0.675828  0.077880  1
  Al  Al14  1  0.326252  0.163126  0.423669  1
  Al  Al15  1  0.158845  0.324172  0.922120  1
  Al  Al16  1  0.167398  0.842167  0.576545  1
  Al  Al17  1  0.323117  0.161558  0.079022  1
  Al  Al18  1  0.832602  0.157833  0.423455  1
  Al  Al19  1  0.676883  0.838442  0.920978  1
  Al  Al20  1  0.841155  0.165326  0.077880  1
  Al  Al21  1  0.158845  0.834674  0.922120  1
  Al  Al22  1  0.562040  0.124204  0.253440  1
  Al  Al23  1  0.437960  0.875796  0.746560  1
  Al  Al24  1  0.873856  0.436929  0.247270  1
  Al  Al25  1  0.126144  0.563071  0.752730  1
  Al  Al26  1  0.562040  0.437836  0.253440  1
  Al  Al27  1  0.437960  0.562164  0.746560  1
  Al  Al28  1  0.000458  0.000229  0.250274  1
  Al  Al29  1  0.999542  0.999771  0.749726  1
  Ir  Ir30  1  0.000000  0.500000  0.000000  1
  Ru  Ru31  1  0.500000  0.000000  0.500000  1
  Ru  Ru32  1  0.500000  0.500000  0.500000  1
  Ru  Ru33  1  0.000000  0.000000  0.000000  1
  Ru  Ru34  1  0.000000  0.000000  0.500000  1
  Pt  Pt35  1  0.500000  0.000000  0.000000  1
  Pt  Pt36  1  0.500000  0.500000  0.000000  1
  Pt  Pt37  1  0.000000  0.500000  0.500000  1
