# generated using pymatgen
data_Sr3CaPdO6
_symmetry_space_group_name_H-M   'P 1'
_cell_length_a   6.85172405
_cell_length_b   6.85172381
_cell_length_c   6.85172467
_cell_angle_alpha   91.42012005
_cell_angle_beta   91.42011532
_cell_angle_gamma   91.42011122
_symmetry_Int_Tables_number   1
_chemical_formula_structural   Sr3CaPdO6
_chemical_formula_sum   'Sr6 Ca2 Pd2 O12'
_cell_volume   321.36050741
_cell_formula_units_Z   2
loop_
 _symmetry_equiv_pos_site_id
 _symmetry_equiv_pos_as_xyz
  1  'x, y, z'
loop_
 _atom_site_type_symbol
 _atom_site_label
 _atom_site_symmetry_multiplicity
 _atom_site_fract_x
 _atom_site_fract_y
 _atom_site_fract_z
 _atom_site_occupancy
  Sr  Sr0  1  0.884582  0.250000  0.615418  1
  Sr  Sr1  1  0.384582  0.115418  0.750000  1
  Sr  Sr2  1  0.750000  0.384582  0.115418  1
  Sr  Sr3  1  0.250000  0.615418  0.884582  1
  Sr  Sr4  1  0.615418  0.884582  0.250000  1
  Sr  Sr5  1  0.115418  0.750000  0.384582  1
  Ca  Ca6  1  0.750000  0.750000  0.750000  1
  Ca  Ca7  1  0.250000  0.250000  0.250000  1
  Pd  Pd8  1  0.500000  0.500000  0.500000  1
  Pd  Pd9  1  0.000000  0.000000  0.000000  1
  O  O10  1  0.918228  0.713212  0.049772  1
  O  O11  1  0.450228  0.786788  0.581772  1
  O  O12  1  0.049772  0.918228  0.713212  1
  O  O13  1  0.286788  0.950228  0.081772  1
  O  O14  1  0.950228  0.081772  0.286788  1
  O  O15  1  0.713212  0.049772  0.918228  1
  O  O16  1  0.581772  0.450228  0.786788  1
  O  O17  1  0.786788  0.581772  0.450228  1
  O  O18  1  0.418228  0.549772  0.213212  1
  O  O19  1  0.213212  0.418228  0.549772  1
  O  O20  1  0.549772  0.213212  0.418228  1
  O  O21  1  0.081772  0.286788  0.950228  1
