# generated using pymatgen
data_Y4TcOsC4
_symmetry_space_group_name_H-M   'P 1'
_cell_length_a   5.12449500
_cell_length_b   6.54073370
_cell_length_c   9.84473491
_cell_angle_alpha   89.70996218
_cell_angle_beta   90.00000000
_cell_angle_gamma   90.00000000
_symmetry_Int_Tables_number   1
_chemical_formula_structural   Y4TcOsC4
_chemical_formula_sum   'Y8 Tc2 Os2 C8'
_cell_volume   329.97117511
_cell_formula_units_Z   2
loop_
 _symmetry_equiv_pos_site_id
 _symmetry_equiv_pos_as_xyz
  1  'x, y, z'
loop_
 _atom_site_type_symbol
 _atom_site_label
 _atom_site_symmetry_multiplicity
 _atom_site_fract_x
 _atom_site_fract_y
 _atom_site_fract_z
 _atom_site_occupancy
  Y  Y0  1  0.250000  0.680414  0.555130  1
  Y  Y1  1  0.750000  0.319586  0.444870  1
  Y  Y2  1  0.750000  0.820796  0.055285  1
  Y  Y3  1  0.250000  0.179204  0.944715  1
  Y  Y4  1  0.250000  0.530966  0.216298  1
  Y  Y5  1  0.750000  0.469034  0.783702  1
  Y  Y6  1  0.750000  0.970726  0.714668  1
  Y  Y7  1  0.250000  0.029274  0.285332  1
  Tc  Tc8  1  0.250000  0.722851  0.864553  1
  Tc  Tc9  1  0.750000  0.277149  0.135447  1
  Os  Os10  1  0.750000  0.775904  0.364423  1
  Os  Os11  1  0.250000  0.224096  0.635577  1
  C  C12  1  0.250000  0.456523  0.758507  1
  C  C13  1  0.750000  0.543477  0.241493  1
  C  C14  1  0.750000  0.042031  0.259408  1
  C  C15  1  0.250000  0.957969  0.740592  1
  C  C16  1  0.250000  0.821575  0.049268  1
  C  C17  1  0.750000  0.178425  0.950732  1
  C  C18  1  0.750000  0.677397  0.549688  1
  C  C19  1  0.250000  0.322603  0.450312  1
