# generated using pymatgen
data_Er5Mg3Ir4
_symmetry_space_group_name_H-M   'P 1'
_cell_length_a   4.15847100
_cell_length_b   7.09133057
_cell_length_c   8.62738320
_cell_angle_alpha   89.16858793
_cell_angle_beta   90.00000000
_cell_angle_gamma   90.00000000
_symmetry_Int_Tables_number   1
_chemical_formula_structural   Er5Mg3Ir4
_chemical_formula_sum   'Er5 Mg3 Ir4'
_cell_volume   254.38691661
_cell_formula_units_Z   1
loop_
 _symmetry_equiv_pos_site_id
 _symmetry_equiv_pos_as_xyz
  1  'x, y, z'
loop_
 _atom_site_type_symbol
 _atom_site_label
 _atom_site_symmetry_multiplicity
 _atom_site_fract_x
 _atom_site_fract_y
 _atom_site_fract_z
 _atom_site_occupancy
  Er  Er0  1  0.250000  0.956610  0.337114  1
  Er  Er1  1  0.250000  0.477809  0.180753  1
  Er  Er2  1  0.750000  0.030676  0.668604  1
  Er  Er3  1  0.750000  0.545941  0.821646  1
  Er  Er4  1  0.750000  0.136009  0.059350  1
  Mg  Mg5  1  0.250000  0.363599  0.558472  1
  Mg  Mg6  1  0.250000  0.851212  0.932905  1
  Mg  Mg7  1  0.750000  0.635143  0.441552  1
  Ir  Ir8  1  0.250000  0.257997  0.871510  1
  Ir  Ir9  1  0.250000  0.746676  0.626527  1
  Ir  Ir10  1  0.750000  0.749340  0.128443  1
  Ir  Ir11  1  0.750000  0.248988  0.373124  1
