# generated using pymatgen
data_Nd10In8IrPt3
_symmetry_space_group_name_H-M   'P 1'
_cell_length_a   3.79542900
_cell_length_b   8.31030073
_cell_length_c   18.73016391
_cell_angle_alpha   89.86810975
_cell_angle_beta   90.00000000
_cell_angle_gamma   90.00000000
_symmetry_Int_Tables_number   1
_chemical_formula_structural   Nd10In8IrPt3
_chemical_formula_sum   'Nd10 In8 Ir1 Pt3'
_cell_volume   590.76946381
_cell_formula_units_Z   1
loop_
 _symmetry_equiv_pos_site_id
 _symmetry_equiv_pos_as_xyz
  1  'x, y, z'
loop_
 _atom_site_type_symbol
 _atom_site_label
 _atom_site_symmetry_multiplicity
 _atom_site_fract_x
 _atom_site_fract_y
 _atom_site_fract_z
 _atom_site_occupancy
  Nd  Nd0  1  0.000000  0.115403  0.412039  1
  Nd  Nd1  1  0.000000  0.882430  0.584789  1
  Nd  Nd2  1  0.000000  0.381953  0.915325  1
  Nd  Nd3  1  0.000000  0.618370  0.086183  1
  Nd  Nd4  1  0.000000  0.237176  0.221078  1
  Nd  Nd5  1  0.000000  0.757697  0.780544  1
  Nd  Nd6  1  0.000000  0.257408  0.719722  1
  Nd  Nd7  1  0.000000  0.750621  0.280212  1
  Nd  Nd8  1  0.000000  0.999620  0.000409  1
  Nd  Nd9  1  0.000000  0.500183  0.499346  1
  In  In10  1  0.500000  0.427254  0.349921  1
  In  In11  1  0.500000  0.574213  0.649467  1
  In  In12  1  0.500000  0.074083  0.850298  1
  In  In13  1  0.500000  0.929715  0.150968  1
  In  In14  1  0.500000  0.291646  0.068316  1
  In  In15  1  0.500000  0.707942  0.931973  1
  In  In16  1  0.500000  0.208174  0.568064  1
  In  In17  1  0.500000  0.792898  0.430387  1
  Ir  Ir18  1  0.500000  0.017027  0.303854  1
  Pt  Pt19  1  0.500000  0.978238  0.696529  1
  Pt  Pt20  1  0.500000  0.478535  0.803374  1
  Pt  Pt21  1  0.500000  0.519416  0.197203  1
