# generated using pymatgen
data_Li6Al16Cu3Rh4
_symmetry_space_group_name_H-M   'P 1'
_cell_length_a   8.64465324
_cell_length_b   8.67732889
_cell_length_c   8.67189100
_cell_angle_alpha   59.75495672
_cell_angle_beta   59.74423266
_cell_angle_gamma   60.10036782
_symmetry_Int_Tables_number   1
_chemical_formula_structural   Li6Al16Cu3Rh4
_chemical_formula_sum   'Li6 Al16 Cu3 Rh4'
_cell_volume   458.56837249
_cell_formula_units_Z   1
loop_
 _symmetry_equiv_pos_site_id
 _symmetry_equiv_pos_as_xyz
  1  'x, y, z'
loop_
 _atom_site_type_symbol
 _atom_site_label
 _atom_site_symmetry_multiplicity
 _atom_site_fract_x
 _atom_site_fract_y
 _atom_site_fract_z
 _atom_site_occupancy
  Li  Li0  1  0.720430  0.274408  0.279377  1
  Li  Li1  1  0.279458  0.725699  0.720458  1
  Li  Li2  1  0.283851  0.716201  0.283753  1
  Li  Li3  1  0.293707  0.288419  0.706246  1
  Li  Li4  1  0.716151  0.283862  0.716015  1
  Li  Li5  1  0.706113  0.711681  0.293730  1
  Al  Al6  1  0.341622  0.340639  0.338111  1
  Al  Al7  1  0.341119  0.343387  0.976264  1
  Al  Al8  1  0.976210  0.339330  0.341084  1
  Al  Al9  1  0.337965  0.979592  0.341651  1
  Al  Al10  1  0.658327  0.659239  0.661913  1
  Al  Al11  1  0.659020  0.656667  0.023662  1
  Al  Al12  1  0.661861  0.020495  0.658342  1
  Al  Al13  1  0.023759  0.660762  0.658868  1
  Al  Al14  1  0.125879  0.116581  0.117141  1
  Al  Al15  1  0.123592  0.124208  0.638569  1
  Al  Al16  1  0.638572  0.113676  0.123499  1
  Al  Al17  1  0.117080  0.640377  0.126027  1
  Al  Al18  1  0.874008  0.883481  0.882950  1
  Al  Al19  1  0.876341  0.875770  0.361492  1
  Al  Al20  1  0.883045  0.359562  0.873934  1
  Al  Al21  1  0.361459  0.886259  0.876441  1
  Cu  Cu22  1  0.000176  0.499904  0.999995  1
  Cu  Cu23  1  0.999746  0.000047  0.500532  1
  Cu  Cu24  1  0.500514  0.499819  0.999955  1
  Rh  Rh25  1  0.000060  0.999959  0.000037  1
  Rh  Rh26  1  0.499907  0.000047  0.999953  1
  Rh  Rh27  1  0.999932  0.500018  0.500046  1
  Rh  Rh28  1  0.500094  0.999908  0.499950  1
