# generated using pymatgen
data_Zr16Ta3Si16Ru
_symmetry_space_group_name_H-M   'P 1'
_cell_length_a   7.05615568
_cell_length_b   7.05615568
_cell_length_c   12.89135300
_cell_angle_alpha   89.74924767
_cell_angle_beta   90.25075233
_cell_angle_gamma   89.85309156
_symmetry_Int_Tables_number   1
_chemical_formula_structural   Zr16Ta3Si16Ru
_chemical_formula_sum   'Zr16 Ta3 Si16 Ru1'
_cell_volume   641.83743261
_cell_formula_units_Z   1
loop_
 _symmetry_equiv_pos_site_id
 _symmetry_equiv_pos_as_xyz
  1  'x, y, z'
loop_
 _atom_site_type_symbol
 _atom_site_label
 _atom_site_symmetry_multiplicity
 _atom_site_fract_x
 _atom_site_fract_y
 _atom_site_fract_z
 _atom_site_occupancy
  Zr  Zr0  1  0.353291  0.502383  0.377286  1
  Zr  Zr1  1  0.857296  0.998506  0.374836  1
  Zr  Zr2  1  0.002811  0.143736  0.125633  1
  Zr  Zr3  1  0.998506  0.857296  0.625164  1
  Zr  Zr4  1  0.644745  0.499522  0.874364  1
  Zr  Zr5  1  0.502383  0.353291  0.622714  1
  Zr  Zr6  1  0.499522  0.644745  0.125636  1
  Zr  Zr7  1  0.143736  0.002811  0.874367  1
  Zr  Zr8  1  0.998584  0.650065  0.034338  1
  Zr  Zr9  1  0.003508  0.348428  0.533266  1
  Zr  Zr10  1  0.650065  0.998584  0.965662  1
  Zr  Zr11  1  0.149753  0.501332  0.782893  1
  Zr  Zr12  1  0.851424  0.498342  0.284312  1
  Zr  Zr13  1  0.501332  0.149753  0.217107  1
  Zr  Zr14  1  0.498342  0.851424  0.715688  1
  Zr  Zr15  1  0.348428  0.003508  0.466734  1
  Ta  Ta16  1  0.823529  0.175929  0.748354  1
  Ta  Ta17  1  0.175929  0.823529  0.251646  1
  Ta  Ta18  1  0.326100  0.326100  0.000000  1
  Si  Si19  1  0.045147  0.699469  0.437568  1
  Si  Si20  1  0.950742  0.301296  0.934601  1
  Si  Si21  1  0.699469  0.045147  0.562432  1
  Si  Si22  1  0.200201  0.451338  0.185510  1
  Si  Si23  1  0.796049  0.554827  0.681156  1
  Si  Si24  1  0.451338  0.200201  0.814490  1
  Si  Si25  1  0.554827  0.796049  0.318844  1
  Si  Si26  1  0.301296  0.950742  0.065399  1
  Si  Si27  1  0.852848  0.797438  0.820433  1
  Si  Si28  1  0.148249  0.201652  0.320831  1
  Si  Si29  1  0.797438  0.852848  0.179567  1
  Si  Si30  1  0.298536  0.648143  0.570889  1
  Si  Si31  1  0.701927  0.351333  0.070949  1
  Si  Si32  1  0.648143  0.298536  0.429111  1
  Si  Si33  1  0.351333  0.701927  0.929051  1
  Si  Si34  1  0.201652  0.148249  0.679169  1
  Ru  Ru35  1  0.671521  0.671521  0.500000  1
