# generated using pymatgen
data_Y4Sc4Pt3Rh
_symmetry_space_group_name_H-M   'P 1'
_cell_length_a   4.55929400
_cell_length_b   7.02093642
_cell_length_c   8.48801465
_cell_angle_alpha   89.91822389
_cell_angle_beta   90.00000000
_cell_angle_gamma   90.00000000
_symmetry_Int_Tables_number   1
_chemical_formula_structural   Y4Sc4Pt3Rh
_chemical_formula_sum   'Y4 Sc4 Pt3 Rh1'
_cell_volume   271.70542926
_cell_formula_units_Z   1
loop_
 _symmetry_equiv_pos_site_id
 _symmetry_equiv_pos_as_xyz
  1  'x, y, z'
loop_
 _atom_site_type_symbol
 _atom_site_label
 _atom_site_symmetry_multiplicity
 _atom_site_fract_x
 _atom_site_fract_y
 _atom_site_fract_z
 _atom_site_occupancy
  Y  Y0  1  0.250000  0.017113  0.674142  1
  Y  Y1  1  0.250000  0.517360  0.823151  1
  Y  Y2  1  0.750000  0.983480  0.324267  1
  Y  Y3  1  0.750000  0.484104  0.175453  1
  Sc  Sc4  1  0.250000  0.141165  0.071139  1
  Sc  Sc5  1  0.250000  0.638210  0.426933  1
  Sc  Sc6  1  0.750000  0.860269  0.927967  1
  Sc  Sc7  1  0.750000  0.358683  0.571213  1
  Pt  Pt8  1  0.250000  0.756879  0.100039  1
  Pt  Pt9  1  0.750000  0.742277  0.600283  1
  Pt  Pt10  1  0.750000  0.244183  0.899785  1
  Rh  Rh11  1  0.250000  0.256275  0.405629  1
