# generated using pymatgen
data_Yb2SiB2O7
_symmetry_space_group_name_H-M   'P 1'
_cell_length_a   7.11657100
_cell_length_b   7.11657100
_cell_length_c   4.77185900
_cell_angle_alpha   90.00000000
_cell_angle_beta   90.00000000
_cell_angle_gamma   90.00000000
_symmetry_Int_Tables_number   1
_chemical_formula_structural   Yb2SiB2O7
_chemical_formula_sum   'Yb4 Si2 B4 O14'
_cell_volume   241.67358009
_cell_formula_units_Z   2
loop_
 _symmetry_equiv_pos_site_id
 _symmetry_equiv_pos_as_xyz
  1  'x, y, z'
loop_
 _atom_site_type_symbol
 _atom_site_label
 _atom_site_symmetry_multiplicity
 _atom_site_fract_x
 _atom_site_fract_y
 _atom_site_fract_z
 _atom_site_occupancy
  Yb  Yb0  1  0.659424  0.159424  0.489588  1
  Yb  Yb1  1  0.159424  0.340576  0.510412  1
  Yb  Yb2  1  0.840576  0.659424  0.510412  1
  Yb  Yb3  1  0.340576  0.840576  0.489588  1
  Si  Si4  1  0.000000  0.000000  0.000000  1
  Si  Si5  1  0.500000  0.500000  0.000000  1
  B  B6  1  0.366935  0.133065  0.961547  1
  B  B7  1  0.866935  0.366935  0.038453  1
  B  B8  1  0.133065  0.633065  0.038453  1
  B  B9  1  0.633065  0.866935  0.961547  1
  O  O10  1  0.500000  0.000000  0.838676  1
  O  O11  1  0.176638  0.078849  0.807733  1
  O  O12  1  0.355986  0.144014  0.252040  1
  O  O13  1  0.921151  0.176638  0.192267  1
  O  O14  1  0.421151  0.323362  0.807733  1
  O  O15  1  0.855986  0.355986  0.747960  1
  O  O16  1  0.676638  0.421151  0.192267  1
  O  O17  1  0.000000  0.500000  0.161324  1
  O  O18  1  0.323362  0.578849  0.192267  1
  O  O19  1  0.144014  0.644014  0.747960  1
  O  O20  1  0.578849  0.676638  0.807733  1
  O  O21  1  0.078849  0.823362  0.192267  1
  O  O22  1  0.644014  0.855986  0.252040  1
  O  O23  1  0.823362  0.921151  0.807733  1
