# generated using pymatgen
data_Yb6Sc2CrRhO12
_symmetry_space_group_name_H-M   'P 1'
_cell_length_a   6.38127665
_cell_length_b   6.38127642
_cell_length_c   6.38127590
_cell_angle_alpha   91.41537029
_cell_angle_beta   91.41536071
_cell_angle_gamma   91.41536374
_symmetry_Int_Tables_number   1
_chemical_formula_structural   Yb6Sc2CrRhO12
_chemical_formula_sum   'Yb6 Sc2 Cr1 Rh1 O12'
_cell_volume   259.60812795
_cell_formula_units_Z   1
loop_
 _symmetry_equiv_pos_site_id
 _symmetry_equiv_pos_as_xyz
  1  'x, y, z'
loop_
 _atom_site_type_symbol
 _atom_site_label
 _atom_site_symmetry_multiplicity
 _atom_site_fract_x
 _atom_site_fract_y
 _atom_site_fract_z
 _atom_site_occupancy
  Yb  Yb0  1  0.749382  0.117822  0.379557  1
  Yb  Yb1  1  0.379557  0.749382  0.117822  1
  Yb  Yb2  1  0.117822  0.379557  0.749382  1
  Yb  Yb3  1  0.250618  0.882178  0.620443  1
  Yb  Yb4  1  0.620443  0.250618  0.882178  1
  Yb  Yb5  1  0.882178  0.620443  0.250618  1
  Sc  Sc6  1  0.749928  0.749928  0.749928  1
  Sc  Sc7  1  0.250072  0.250072  0.250072  1
  Cr  Cr8  1  0.500000  0.500000  0.500000  1
  Rh  Rh9  1  0.000000  0.000000  0.000000  1
  O  O10  1  0.592782  0.796901  0.454416  1
  O  O11  1  0.454416  0.592782  0.796901  1
  O  O12  1  0.796901  0.454416  0.592782  1
  O  O13  1  0.905064  0.044487  0.695478  1
  O  O14  1  0.695478  0.905064  0.044487  1
  O  O15  1  0.044487  0.695478  0.905064  1
  O  O16  1  0.407218  0.203099  0.545584  1
  O  O17  1  0.545584  0.407218  0.203099  1
  O  O18  1  0.203099  0.545584  0.407218  1
  O  O19  1  0.094936  0.955513  0.304522  1
  O  O20  1  0.955513  0.304522  0.094936  1
  O  O21  1  0.304522  0.094936  0.955513  1
