# generated using pymatgen
data_Ce2MnIrRh2
_symmetry_space_group_name_H-M   'P 1'
_cell_length_a   5.19184747
_cell_length_b   5.19027262
_cell_length_c   5.19027109
_cell_angle_alpha   64.43175768
_cell_angle_beta   64.45157498
_cell_angle_gamma   64.45156683
_symmetry_Int_Tables_number   1
_chemical_formula_structural   Ce2MnIrRh2
_chemical_formula_sum   'Ce2 Mn1 Ir1 Rh2'
_cell_volume   108.54350274
_cell_formula_units_Z   1
loop_
 _symmetry_equiv_pos_site_id
 _symmetry_equiv_pos_as_xyz
  1  'x, y, z'
loop_
 _atom_site_type_symbol
 _atom_site_label
 _atom_site_symmetry_multiplicity
 _atom_site_fract_x
 _atom_site_fract_y
 _atom_site_fract_z
 _atom_site_occupancy
  Ce  Ce0  1  0.624034  0.624362  0.624362  1
  Ce  Ce1  1  0.375966  0.375638  0.375638  1
  Mn  Mn2  1  0.000000  0.000000  0.000000  1
  Ir  Ir3  1  0.500000  0.000000  0.000000  1
  Rh  Rh4  1  0.000000  0.500000  0.000000  1
  Rh  Rh5  1  0.000000  0.000000  0.500000  1
