# generated using pymatgen
data_Er4Tm8Tc3Ru
_symmetry_space_group_name_H-M   'P 1'
_cell_length_a   6.21393223
_cell_length_b   7.34843101
_cell_length_c   9.00424500
_cell_angle_alpha   90.00000000
_cell_angle_beta   90.00000000
_cell_angle_gamma   90.01345059
_symmetry_Int_Tables_number   1
_chemical_formula_structural   Er4Tm8Tc3Ru
_chemical_formula_sum   'Er4 Tm8 Tc3 Ru1'
_cell_volume   411.15769704
_cell_formula_units_Z   1
loop_
 _symmetry_equiv_pos_site_id
 _symmetry_equiv_pos_as_xyz
  1  'x, y, z'
loop_
 _atom_site_type_symbol
 _atom_site_label
 _atom_site_symmetry_multiplicity
 _atom_site_fract_x
 _atom_site_fract_y
 _atom_site_fract_z
 _atom_site_occupancy
  Er  Er0  1  0.629732  0.041101  0.250000  1
  Er  Er1  1  0.375074  0.959992  0.750000  1
  Er  Er2  1  0.124477  0.461111  0.750000  1
  Er  Er3  1  0.875216  0.541488  0.250000  1
  Tm  Tm4  1  0.161125  0.175400  0.062454  1
  Tm  Tm5  1  0.836756  0.823520  0.937269  1
  Tm  Tm6  1  0.660440  0.324303  0.937849  1
  Tm  Tm7  1  0.836756  0.823520  0.562731  1
  Tm  Tm8  1  0.338241  0.676031  0.061993  1
  Tm  Tm9  1  0.161125  0.175400  0.437546  1
  Tm  Tm10  1  0.338241  0.676031  0.438007  1
  Tm  Tm11  1  0.660440  0.324303  0.562151  1
  Tc  Tc12  1  0.460465  0.384872  0.250000  1
  Tc  Tc13  1  0.541201  0.615378  0.750000  1
  Tc  Tc14  1  0.960914  0.113497  0.750000  1
  Ru  Ru15  1  0.039797  0.884053  0.250000  1
