# generated using pymatgen
data_Ho9Mg(Sn3S)2
_symmetry_space_group_name_H-M   'P 1'
_cell_length_a   8.96556200
_cell_length_b   8.96556161
_cell_length_c   6.57956600
_cell_angle_alpha   90.00000000
_cell_angle_beta   90.00000000
_cell_angle_gamma   120.00000144
_symmetry_Int_Tables_number   1
_chemical_formula_structural   Ho9Mg(Sn3S)2
_chemical_formula_sum   'Ho9 Mg1 Sn6 S2'
_cell_volume   458.01836338
_cell_formula_units_Z   1
loop_
 _symmetry_equiv_pos_site_id
 _symmetry_equiv_pos_as_xyz
  1  'x, y, z'
loop_
 _atom_site_type_symbol
 _atom_site_label
 _atom_site_symmetry_multiplicity
 _atom_site_fract_x
 _atom_site_fract_y
 _atom_site_fract_z
 _atom_site_occupancy
  Ho  Ho0  1  0.333333  0.666667  0.000000  1
  Ho  Ho1  1  0.333333  0.666667  0.500000  1
  Ho  Ho2  1  0.666667  0.333333  0.500000  1
  Ho  Ho3  1  0.754436  0.752608  0.752758  1
  Ho  Ho4  1  0.247392  0.001827  0.752758  1
  Ho  Ho5  1  0.998173  0.245564  0.752758  1
  Ho  Ho6  1  0.247392  0.245564  0.247242  1
  Ho  Ho7  1  0.754436  0.001827  0.247242  1
  Ho  Ho8  1  0.998173  0.752608  0.247242  1
  Mg  Mg9  1  0.666667  0.333333  0.000000  1
  Sn  Sn10  1  0.398395  0.397791  0.752653  1
  Sn  Sn11  1  0.602209  0.000604  0.752653  1
  Sn  Sn12  1  0.999396  0.601605  0.752653  1
  Sn  Sn13  1  0.602209  0.601605  0.247347  1
  Sn  Sn14  1  0.398395  0.000604  0.247347  1
  Sn  Sn15  1  0.999396  0.397791  0.247347  1
  S  S16  1  0.000000  0.000000  0.000000  1
  S  S17  1  0.000000  0.000000  0.500000  1
