# generated using pymatgen
data_Er15Tm5(Bi2Rh)4
_symmetry_space_group_name_H-M   'P 1'
_cell_length_a   7.93303823
_cell_length_b   8.96737515
_cell_length_c   12.37087932
_cell_angle_alpha   89.98642141
_cell_angle_beta   90.02218760
_cell_angle_gamma   90.01602408
_symmetry_Int_Tables_number   1
_chemical_formula_structural   Er15Tm5(Bi2Rh)4
_chemical_formula_sum   'Er15 Tm5 Bi8 Rh4'
_cell_volume   880.04604270
_cell_formula_units_Z   1
loop_
 _symmetry_equiv_pos_site_id
 _symmetry_equiv_pos_as_xyz
  1  'x, y, z'
loop_
 _atom_site_type_symbol
 _atom_site_label
 _atom_site_symmetry_multiplicity
 _atom_site_fract_x
 _atom_site_fract_y
 _atom_site_fract_z
 _atom_site_occupancy
  Er  Er0  1  0.662782  0.749847  0.707512  1
  Er  Er1  1  0.337177  0.250116  0.292483  1
  Er  Er2  1  0.162771  0.250160  0.792520  1
  Er  Er3  1  0.837391  0.749905  0.207425  1
  Er  Er4  1  0.125232  0.749931  0.809158  1
  Er  Er5  1  0.874929  0.250110  0.190918  1
  Er  Er6  1  0.625225  0.250183  0.690919  1
  Er  Er7  1  0.374776  0.749786  0.309040  1
  Er  Er8  1  0.549125  0.749852  0.998645  1
  Er  Er9  1  0.450639  0.250140  0.001402  1
  Er  Er10  1  0.049228  0.250294  0.501326  1
  Er  Er11  1  0.950864  0.749770  0.498672  1
  Er  Er12  1  0.824454  0.043706  0.933608  1
  Er  Er13  1  0.675687  0.043869  0.433499  1
  Er  Er14  1  0.324229  0.956261  0.566494  1
  Tm  Tm15  1  0.825138  0.456107  0.933657  1
  Tm  Tm16  1  0.174810  0.543979  0.066330  1
  Tm  Tm17  1  0.325143  0.543970  0.566332  1
  Tm  Tm18  1  0.174881  0.956122  0.066355  1
  Tm  Tm19  1  0.674858  0.456054  0.433628  1
  Bi  Bi20  1  0.933907  0.008838  0.673311  1
  Bi  Bi21  1  0.066132  0.991137  0.326633  1
  Bi  Bi22  1  0.434012  0.991146  0.826667  1
  Bi  Bi23  1  0.065873  0.508861  0.326657  1
  Bi  Bi24  1  0.565858  0.008783  0.173238  1
  Bi  Bi25  1  0.934194  0.491138  0.673359  1
  Bi  Bi26  1  0.565829  0.491161  0.173331  1
  Bi  Bi27  1  0.434156  0.508872  0.826687  1
  Rh  Rh28  1  0.925607  0.749602  0.990381  1
  Rh  Rh29  1  0.075055  0.250287  0.009843  1
  Rh  Rh30  1  0.425141  0.250680  0.509766  1
  Rh  Rh31  1  0.574897  0.749338  0.490205  1
