# generated using pymatgen
data_HoEr11Tc3Ir
_symmetry_space_group_name_H-M   'P 1'
_cell_length_a   6.25412203
_cell_length_b   7.35649800
_cell_length_c   9.07175600
_cell_angle_alpha   90.00000000
_cell_angle_beta   90.00000000
_cell_angle_gamma   90.00687446
_symmetry_Int_Tables_number   1
_chemical_formula_structural   HoEr11Tc3Ir
_chemical_formula_sum   'Ho1 Er11 Tc3 Ir1'
_cell_volume   417.37730410
_cell_formula_units_Z   1
loop_
 _symmetry_equiv_pos_site_id
 _symmetry_equiv_pos_as_xyz
  1  'x, y, z'
loop_
 _atom_site_type_symbol
 _atom_site_label
 _atom_site_symmetry_multiplicity
 _atom_site_fract_x
 _atom_site_fract_y
 _atom_site_fract_z
 _atom_site_occupancy
  Ho  Ho0  1  0.625660  0.038633  0.250000  1
  Er  Er1  1  0.332897  0.675926  0.064150  1
  Er  Er2  1  0.163334  0.175548  0.436959  1
  Er  Er3  1  0.665071  0.323142  0.561773  1
  Er  Er4  1  0.835284  0.825172  0.937935  1
  Er  Er5  1  0.665071  0.323142  0.938227  1
  Er  Er6  1  0.835284  0.825172  0.562065  1
  Er  Er7  1  0.332897  0.675926  0.435850  1
  Er  Er8  1  0.163334  0.175548  0.063041  1
  Er  Er9  1  0.873796  0.540535  0.250000  1
  Er  Er10  1  0.131543  0.458325  0.750000  1
  Er  Er11  1  0.371002  0.959818  0.750000  1
  Tc  Tc12  1  0.040158  0.883745  0.250000  1
  Tc  Tc13  1  0.462116  0.386316  0.250000  1
  Tc  Tc14  1  0.960051  0.116490  0.750000  1
  Ir  Ir15  1  0.542501  0.616563  0.750000  1
