# generated using pymatgen
data_Na3NdPd8
_symmetry_space_group_name_H-M   'P 1'
_cell_length_a   9.30416649
_cell_length_b   9.30416588
_cell_length_c   9.30416600
_cell_angle_alpha   33.50747477
_cell_angle_beta   33.50746928
_cell_angle_gamma   33.50746871
_symmetry_Int_Tables_number   1
_chemical_formula_structural   Na3NdPd8
_chemical_formula_sum   'Na3 Nd1 Pd8'
_cell_volume   218.61996081
_cell_formula_units_Z   1
loop_
 _symmetry_equiv_pos_site_id
 _symmetry_equiv_pos_as_xyz
  1  'x, y, z'
loop_
 _atom_site_type_symbol
 _atom_site_label
 _atom_site_symmetry_multiplicity
 _atom_site_fract_x
 _atom_site_fract_y
 _atom_site_fract_z
 _atom_site_occupancy
  Na  Na0  1  0.562706  0.562706  0.562706  1
  Na  Na1  1  0.443032  0.443032  0.443032  1
  Na  Na2  1  0.932982  0.932982  0.932982  1
  Nd  Nd3  1  0.062419  0.062419  0.062419  1
  Pd  Pd4  1  0.750077  0.750077  0.750077  1
  Pd  Pd5  1  0.249827  0.249827  0.249827  1
  Pd  Pd6  1  0.001470  0.499821  0.499821  1
  Pd  Pd7  1  0.498101  0.999873  0.999873  1
  Pd  Pd8  1  0.499821  0.001470  0.499821  1
  Pd  Pd9  1  0.999873  0.498101  0.999873  1
  Pd  Pd10  1  0.499821  0.499821  0.001470  1
  Pd  Pd11  1  0.999873  0.999873  0.498101  1
