# generated using pymatgen
data_La12Tc(AuI4)3
_symmetry_space_group_name_H-M   'P 1'
_cell_length_a   11.03433969
_cell_length_b   11.03433917
_cell_length_c   11.03433900
_cell_angle_alpha   109.02349819
_cell_angle_beta   109.02349726
_cell_angle_gamma   109.02349123
_symmetry_Int_Tables_number   1
_chemical_formula_structural   La12Tc(AuI4)3
_chemical_formula_sum   'La12 Tc1 Au3 I12'
_cell_volume   1051.02432671
_cell_formula_units_Z   1
loop_
 _symmetry_equiv_pos_site_id
 _symmetry_equiv_pos_as_xyz
  1  'x, y, z'
loop_
 _atom_site_type_symbol
 _atom_site_label
 _atom_site_symmetry_multiplicity
 _atom_site_fract_x
 _atom_site_fract_y
 _atom_site_fract_z
 _atom_site_occupancy
  La  La0  1  0.460722  0.470526  0.239119  1
  La  La1  1  0.750000  0.234465  0.265535  1
  La  La2  1  0.750000  0.014968  0.485032  1
  La  La3  1  0.239119  0.460722  0.470526  1
  La  La4  1  0.265535  0.750000  0.234465  1
  La  La5  1  0.039278  0.260881  0.029474  1
  La  La6  1  0.029474  0.039278  0.260881  1
  La  La7  1  0.485032  0.750000  0.014968  1
  La  La8  1  0.470526  0.239119  0.460722  1
  La  La9  1  0.014968  0.485032  0.750000  1
  La  La10  1  0.260881  0.029474  0.039278  1
  La  La11  1  0.234465  0.265535  0.750000  1
  Tc  Tc12  1  0.250000  0.250000  0.250000  1
  Au  Au13  1  0.499723  0.000277  0.250000  1
  Au  Au14  1  0.000277  0.250000  0.499723  1
  Au  Au15  1  0.250000  0.499723  0.000277  1
  I  I16  1  0.250000  0.756415  0.743585  1
  I  I17  1  0.517196  0.508682  0.759346  1
  I  I18  1  0.982804  0.740654  0.991318  1
  I  I19  1  0.743585  0.250000  0.756415  1
  I  I20  1  0.991318  0.982804  0.740654  1
  I  I21  1  0.250000  0.991122  0.508878  1
  I  I22  1  0.759346  0.517196  0.508682  1
  I  I23  1  0.508878  0.250000  0.991122  1
  I  I24  1  0.756415  0.743585  0.250000  1
  I  I25  1  0.740654  0.991318  0.982804  1
  I  I26  1  0.991122  0.508878  0.250000  1
  I  I27  1  0.508682  0.759346  0.517196  1
