# generated using pymatgen
data_Y6Ga(Ni5P3)4
_symmetry_space_group_name_H-M   'P 1'
_cell_length_a   12.68066507
_cell_length_b   12.68320840
_cell_length_c   3.77250300
_cell_angle_alpha   90.00000000
_cell_angle_beta   90.00000000
_cell_angle_gamma   120.00322815
_symmetry_Int_Tables_number   1
_chemical_formula_structural   Y6Ga(Ni5P3)4
_chemical_formula_sum   'Y6 Ga1 Ni20 P12'
_cell_volume   525.43289407
_cell_formula_units_Z   1
loop_
 _symmetry_equiv_pos_site_id
 _symmetry_equiv_pos_as_xyz
  1  'x, y, z'
loop_
 _atom_site_type_symbol
 _atom_site_label
 _atom_site_symmetry_multiplicity
 _atom_site_fract_x
 _atom_site_fract_y
 _atom_site_fract_z
 _atom_site_occupancy
  Y  Y0  1  0.472350  0.188283  0.000000  1
  Y  Y1  1  0.811590  0.283716  0.000000  1
  Y  Y2  1  0.715861  0.527609  0.000000  1
  Y  Y3  1  0.281715  0.469270  0.500001  1
  Y  Y4  1  0.187323  0.718272  0.500001  1
  Y  Y5  1  0.530994  0.812807  0.500001  1
  Ga  Ga6  1  0.000258  0.999989  0.000000  1
  Ni  Ni7  1  0.584397  0.020457  0.000000  1
  Ni  Ni8  1  0.209396  0.095980  0.000000  1
  Ni  Ni9  1  0.904176  0.113137  0.000000  1
  Ni  Ni10  1  0.079083  0.322086  0.000000  1
  Ni  Ni11  1  0.436136  0.415912  0.000000  1
  Ni  Ni12  1  0.979702  0.563937  0.000000  1
  Ni  Ni13  1  0.333234  0.666573  0.000000  1
  Ni  Ni14  1  0.678031  0.757033  0.000000  1
  Ni  Ni15  1  0.886457  0.790728  0.000000  1
  Ni  Ni16  1  0.242728  0.921025  0.000000  1
  Ni  Ni17  1  0.751751  0.072036  0.500001  1
  Ni  Ni18  1  0.088398  0.165329  0.500001  1
  Ni  Ni19  1  0.320726  0.248671  0.500001  1
  Ni  Ni20  1  0.666562  0.333201  0.500001  1
  Ni  Ni21  1  0.020897  0.435471  0.500001  1
  Ni  Ni22  1  0.564307  0.585540  0.500001  1
  Ni  Ni23  1  0.927750  0.679371  0.500001  1
  Ni  Ni24  1  0.077234  0.911682  0.500001  1
  Ni  Ni25  1  0.835156  0.923006  0.500001  1
  Ni  Ni26  1  0.414361  0.978856  0.500001  1
  P  P27  1  0.231536  0.279145  0.000000  1
  P  P28  1  0.137693  0.523293  0.000000  1
  P  P29  1  0.476801  0.614764  0.000000  1
  P  P30  1  0.047306  0.768364  0.000000  1
  P  P31  1  0.385329  0.862410  0.000000  1
  P  P32  1  0.720985  0.952543  0.000000  1
  P  P33  1  0.278535  0.045119  0.500001  1
  P  P34  1  0.613895  0.136820  0.500001  1
  P  P35  1  0.954904  0.233302  0.500001  1
  P  P36  1  0.522979  0.386050  0.500001  1
  P  P37  1  0.863024  0.476839  0.500001  1
  P  P38  1  0.766442  0.721382  0.500001  1
