# generated using pymatgen
data_Pr2AlCu18Si7
_symmetry_space_group_name_H-M   'P 1'
_cell_length_a   8.16530135
_cell_length_b   8.16530106
_cell_length_c   8.19792466
_cell_angle_alpha   120.43591726
_cell_angle_beta   120.43592029
_cell_angle_gamma   89.28549639
_symmetry_Int_Tables_number   1
_chemical_formula_structural   Pr2AlCu18Si7
_chemical_formula_sum   'Pr2 Al1 Cu18 Si7'
_cell_volume   383.77434970
_cell_formula_units_Z   1
loop_
 _symmetry_equiv_pos_site_id
 _symmetry_equiv_pos_as_xyz
  1  'x, y, z'
loop_
 _atom_site_type_symbol
 _atom_site_label
 _atom_site_symmetry_multiplicity
 _atom_site_fract_x
 _atom_site_fract_y
 _atom_site_fract_z
 _atom_site_occupancy
  Pr  Pr0  1  0.752728  0.749688  0.000218  1
  Pr  Pr1  1  0.249688  0.252728  0.000218  1
  Al  Al2  1  0.295700  0.795700  0.853681  1
  Cu  Cu3  1  0.436245  0.701074  0.139766  1
  Cu  Cu4  1  0.701967  0.563388  0.265747  1
  Cu  Cu5  1  0.297217  0.432550  0.732325  1
  Cu  Cu6  1  0.932550  0.797217  0.732325  1
  Cu  Cu7  1  0.566663  0.298763  0.863456  1
  Cu  Cu8  1  0.306279  0.556385  0.497998  1
  Cu  Cu9  1  0.056385  0.806279  0.497998  1
  Cu  Cu10  1  0.692072  0.443399  0.500742  1
  Cu  Cu11  1  0.943399  0.192072  0.500742  1
  Cu  Cu12  1  0.442210  0.942210  0.742779  1
  Cu  Cu13  1  0.192831  0.692831  0.251224  1
  Cu  Cu14  1  0.563577  0.063577  0.262499  1
  Cu  Cu15  1  0.201074  0.936245  0.139766  1
  Cu  Cu16  1  0.063388  0.201967  0.265747  1
  Cu  Cu17  1  0.995825  0.495825  0.495089  1
  Cu  Cu18  1  0.500531  0.000531  0.499626  1
  Cu  Cu19  1  0.808790  0.308790  0.749939  1
  Cu  Cu20  1  0.798763  0.066663  0.863456  1
  Si  Si21  1  0.060556  0.560556  0.851277  1
  Si  Si22  1  0.557678  0.707653  0.501142  1
  Si  Si23  1  0.792434  0.940917  0.498636  1
  Si  Si24  1  0.440917  0.292434  0.498636  1
  Si  Si25  1  0.942047  0.442047  0.148916  1
  Si  Si26  1  0.700836  0.200836  0.144906  1
  Si  Si27  1  0.207653  0.057678  0.501142  1
