# generated using pymatgen
data_Yb4MnSiN6
_symmetry_space_group_name_H-M   'P 1'
_cell_length_a   5.81528127
_cell_length_b   5.81528050
_cell_length_c   11.44460535
_cell_angle_alpha   89.69230712
_cell_angle_beta   90.30769283
_cell_angle_gamma   125.82216763
_symmetry_Int_Tables_number   1
_chemical_formula_structural   Yb4MnSiN6
_chemical_formula_sum   'Yb8 Mn2 Si2 N12'
_cell_volume   313.81095935
_cell_formula_units_Z   2
loop_
 _symmetry_equiv_pos_site_id
 _symmetry_equiv_pos_as_xyz
  1  'x, y, z'
loop_
 _atom_site_type_symbol
 _atom_site_label
 _atom_site_symmetry_multiplicity
 _atom_site_fract_x
 _atom_site_fract_y
 _atom_site_fract_z
 _atom_site_occupancy
  Yb  Yb0  1  0.449408  0.550592  0.349116  1
  Yb  Yb1  1  0.550592  0.449408  0.650884  1
  Yb  Yb2  1  0.047948  0.952052  0.861777  1
  Yb  Yb3  1  0.952052  0.047948  0.138223  1
  Yb  Yb4  1  0.140137  0.859863  0.421904  1
  Yb  Yb5  1  0.859863  0.140137  0.578096  1
  Yb  Yb6  1  0.361615  0.638385  0.924103  1
  Yb  Yb7  1  0.638385  0.361615  0.075897  1
  Mn  Mn8  1  0.247360  0.752640  0.662323  1
  Mn  Mn9  1  0.752640  0.247360  0.337677  1
  Si  Si10  1  0.258068  0.741932  0.156075  1
  Si  Si11  1  0.741932  0.258068  0.843925  1
  N  N12  1  0.154566  0.845434  0.040269  1
  N  N13  1  0.845434  0.154566  0.959731  1
  N  N14  1  0.340884  0.659116  0.537568  1
  N  N15  1  0.659116  0.340884  0.462432  1
  N  N16  1  0.421730  0.578270  0.138584  1
  N  N17  1  0.578270  0.421730  0.861416  1
  N  N18  1  0.083669  0.916331  0.632400  1
  N  N19  1  0.916331  0.083669  0.367600  1
  N  N20  1  0.964835  0.547823  0.252408  1
  N  N21  1  0.547823  0.964835  0.747592  1
  N  N22  1  0.035165  0.452177  0.747592  1
  N  N23  1  0.452177  0.035165  0.252408  1
