# generated using pymatgen
data_KDy3(SbAu)4
_symmetry_space_group_name_H-M   'P 1'
_cell_length_a   4.62990000
_cell_length_b   4.62989999
_cell_length_c   17.25913100
_cell_angle_alpha   90.00000000
_cell_angle_beta   90.00000000
_cell_angle_gamma   120.00000011
_symmetry_Int_Tables_number   1
_chemical_formula_structural   KDy3(SbAu)4
_chemical_formula_sum   'K1 Dy3 Sb4 Au4'
_cell_volume   320.40019874
_cell_formula_units_Z   1
loop_
 _symmetry_equiv_pos_site_id
 _symmetry_equiv_pos_as_xyz
  1  'x, y, z'
loop_
 _atom_site_type_symbol
 _atom_site_label
 _atom_site_symmetry_multiplicity
 _atom_site_fract_x
 _atom_site_fract_y
 _atom_site_fract_z
 _atom_site_occupancy
  K  K0  1  0.000000  0.000000  0.250000  1
  Dy  Dy1  1  0.000000  0.000000  0.513415  1
  Dy  Dy2  1  0.000000  0.000000  0.986585  1
  Dy  Dy3  1  0.000000  0.000000  0.750000  1
  Sb  Sb4  1  0.333333  0.666667  0.391739  1
  Sb  Sb5  1  0.666667  0.333333  0.616951  1
  Sb  Sb6  1  0.666667  0.333333  0.883049  1
  Sb  Sb7  1  0.333333  0.666667  0.108261  1
  Au  Au8  1  0.666667  0.333333  0.432597  1
  Au  Au9  1  0.333333  0.666667  0.666794  1
  Au  Au10  1  0.333333  0.666667  0.833206  1
  Au  Au11  1  0.666667  0.333333  0.067403  1
