# generated using pymatgen
data_Ho4Tm4MgSc(SiB4)4
_symmetry_space_group_name_H-M   'P 1'
_cell_length_a   7.12692508
_cell_length_b   7.12687001
_cell_length_c   7.82672108
_cell_angle_alpha   89.99804517
_cell_angle_beta   90.01659081
_cell_angle_gamma   90.00538652
_symmetry_Int_Tables_number   1
_chemical_formula_structural   Ho4Tm4MgSc(SiB4)4
_chemical_formula_sum   'Ho4 Tm4 Mg1 Sc1 Si4 B16'
_cell_volume   397.54003176
_cell_formula_units_Z   1
loop_
 _symmetry_equiv_pos_site_id
 _symmetry_equiv_pos_as_xyz
  1  'x, y, z'
loop_
 _atom_site_type_symbol
 _atom_site_label
 _atom_site_symmetry_multiplicity
 _atom_site_fract_x
 _atom_site_fract_y
 _atom_site_fract_z
 _atom_site_occupancy
  Ho  Ho0  1  0.818366  0.680810  0.768885  1
  Ho  Ho1  1  0.680504  0.181241  0.769171  1
  Ho  Ho2  1  0.181577  0.319303  0.768778  1
  Ho  Ho3  1  0.181640  0.319268  0.231129  1
  Tm  Tm4  1  0.680662  0.181080  0.229251  1
  Tm  Tm5  1  0.319382  0.818774  0.770795  1
  Tm  Tm6  1  0.319358  0.818758  0.229162  1
  Tm  Tm7  1  0.818614  0.680931  0.229577  1
  Mg  Mg8  1  0.500130  0.500375  0.499577  1
  Sc  Sc9  1  0.000050  0.999573  0.499511  1
  Si  Si10  1  0.112367  0.622413  0.499239  1
  Si  Si11  1  0.887395  0.379142  0.498676  1
  Si  Si12  1  0.378620  0.110859  0.499381  1
  Si  Si13  1  0.621290  0.887271  0.498517  1
  B  B14  1  0.173267  0.038965  0.000377  1
  B  B15  1  0.826734  0.960281  0.000522  1
  B  B16  1  0.960373  0.172832  0.000420  1
  B  B17  1  0.325734  0.539238  0.000407  1
  B  B18  1  0.039606  0.826660  0.000474  1
  B  B19  1  0.674314  0.461612  0.000631  1
  B  B20  1  0.538430  0.674752  0.000547  1
  B  B21  1  0.461606  0.325789  0.000491  1
  B  B22  1  0.088359  0.589271  0.000623  1
  B  B23  1  0.911479  0.411007  0.000640  1
  B  B24  1  0.411004  0.088110  0.000674  1
  B  B25  1  0.588804  0.911665  0.000605  1
  B  B26  1  0.999709  0.999374  0.168393  1
  B  B27  1  0.000443  0.999655  0.832476  1
  B  B28  1  0.499738  0.500642  0.837318  1
  B  B29  1  0.500443  0.500348  0.163750  1
