# generated using pymatgen
data_U8Ta7Nb5Si15P
_symmetry_space_group_name_H-M   'P 1'
_cell_length_a   7.02201844
_cell_length_b   7.02739358
_cell_length_c   12.95655546
_cell_angle_alpha   89.97349656
_cell_angle_beta   90.03583318
_cell_angle_gamma   89.94474059
_symmetry_Int_Tables_number   1
_chemical_formula_structural   U8Ta7Nb5Si15P
_chemical_formula_sum   'U8 Ta7 Nb5 Si15 P1'
_cell_volume   639.36000846
_cell_formula_units_Z   1
loop_
 _symmetry_equiv_pos_site_id
 _symmetry_equiv_pos_as_xyz
  1  'x, y, z'
loop_
 _atom_site_type_symbol
 _atom_site_label
 _atom_site_symmetry_multiplicity
 _atom_site_fract_x
 _atom_site_fract_y
 _atom_site_fract_z
 _atom_site_occupancy
  U  U0  1  0.998738  0.330600  0.218720  1
  U  U1  1  0.006664  0.669295  0.718605  1
  U  U2  1  0.166702  0.495660  0.468989  1
  U  U3  1  0.502040  0.834915  0.033183  1
  U  U4  1  0.832038  0.504799  0.969429  1
  U  U5  1  0.495200  0.168467  0.530768  1
  U  U6  1  0.330349  0.993221  0.781437  1
  U  U7  1  0.663578  0.004762  0.279464  1
  Ta  Ta8  1  0.169164  0.166770  0.001130  1
  Ta  Ta9  1  0.831774  0.831823  0.499698  1
  Ta  Ta10  1  0.331531  0.670011  0.249343  1
  Ta  Ta11  1  0.668602  0.331550  0.750107  1
  Ta  Ta12  1  0.157757  0.000960  0.371376  1
  Ta  Ta13  1  0.844529  0.001378  0.874097  1
  Ta  Ta14  1  0.500408  0.656284  0.624459  1
  Nb  Nb15  1  0.344475  0.499238  0.875721  1
  Nb  Nb16  1  0.496835  0.338822  0.125898  1
  Nb  Nb17  1  0.657792  0.502154  0.375831  1
  Nb  Nb18  1  0.998993  0.155598  0.625487  1
  Nb  Nb19  1  0.002946  0.845096  0.126386  1
  Si  Si20  1  0.702369  0.959792  0.684774  1
  Si  Si21  1  0.459653  0.797114  0.434851  1
  Si  Si22  1  0.203601  0.539651  0.065013  1
  Si  Si23  1  0.540410  0.202515  0.934721  1
  Si  Si24  1  0.796818  0.460461  0.565694  1
  Si  Si25  1  0.040056  0.297369  0.815674  1
  Si  Si26  1  0.959921  0.703116  0.314873  1
  Si  Si27  1  0.372627  0.298818  0.318466  1
  Si  Si28  1  0.629766  0.706903  0.816516  1
  Si  Si29  1  0.206358  0.871445  0.564740  1
  Si  Si30  1  0.128194  0.792247  0.934134  1
  Si  Si31  1  0.794116  0.129033  0.065713  1
  Si  Si32  1  0.870713  0.205065  0.432790  1
  Si  Si33  1  0.293509  0.370443  0.683912  1
  Si  Si34  1  0.707389  0.626830  0.183138  1
  P  P35  1  0.294381  0.037792  0.184866  1
