# generated using pymatgen
data_Hf3Be2SiIr3
_symmetry_space_group_name_H-M   'P 1'
_cell_length_a   6.57793000
_cell_length_b   6.57792908
_cell_length_c   3.55675700
_cell_angle_alpha   90.00000000
_cell_angle_beta   90.00000000
_cell_angle_gamma   119.99999457
_symmetry_Int_Tables_number   1
_chemical_formula_structural   Hf3Be2SiIr3
_chemical_formula_sum   'Hf3 Be2 Si1 Ir3'
_cell_volume   133.27947852
_cell_formula_units_Z   1
loop_
 _symmetry_equiv_pos_site_id
 _symmetry_equiv_pos_as_xyz
  1  'x, y, z'
loop_
 _atom_site_type_symbol
 _atom_site_label
 _atom_site_symmetry_multiplicity
 _atom_site_fract_x
 _atom_site_fract_y
 _atom_site_fract_z
 _atom_site_occupancy
  Hf  Hf0  1  0.416050  0.401204  0.500000  1
  Hf  Hf1  1  0.598796  0.014846  0.500000  1
  Hf  Hf2  1  0.985154  0.583950  0.500000  1
  Be  Be3  1  0.666667  0.333333  0.000000  1
  Be  Be4  1  0.000000  0.000000  0.500000  1
  Si  Si5  1  0.333333  0.666667  0.000000  1
  Ir  Ir6  1  0.753522  0.754057  0.000000  1
  Ir  Ir7  1  0.245943  0.999467  0.000000  1
  Ir  Ir8  1  0.000533  0.246478  0.000000  1
