# generated using pymatgen
data_HoEr7(Si4W3)4
_symmetry_space_group_name_H-M   'P 1'
_cell_length_a   6.74806282
_cell_length_b   6.91928188
_cell_length_c   12.87249995
_cell_angle_alpha   89.99288766
_cell_angle_beta   90.00139108
_cell_angle_gamma   89.99620968
_symmetry_Int_Tables_number   1
_chemical_formula_structural   HoEr7(Si4W3)4
_chemical_formula_sum   'Ho1 Er7 Si16 W12'
_cell_volume   601.03952801
_cell_formula_units_Z   1
loop_
 _symmetry_equiv_pos_site_id
 _symmetry_equiv_pos_as_xyz
  1  'x, y, z'
loop_
 _atom_site_type_symbol
 _atom_site_label
 _atom_site_symmetry_multiplicity
 _atom_site_fract_x
 _atom_site_fract_y
 _atom_site_fract_z
 _atom_site_occupancy
  Ho  Ho0  1  0.995518  0.832061  0.593137  1
  Er  Er1  1  0.495327  0.668010  0.593213  1
  Er  Er2  1  0.995261  0.831926  0.906734  1
  Er  Er3  1  0.504594  0.332042  0.093312  1
  Er  Er4  1  0.004711  0.168088  0.406521  1
  Er  Er5  1  0.504645  0.332070  0.406622  1
  Er  Er6  1  0.004590  0.167951  0.093300  1
  Er  Er7  1  0.495345  0.667996  0.906828  1
  Si  Si8  1  0.662218  0.958623  0.453204  1
  Si  Si9  1  0.162205  0.541474  0.046757  1
  Si  Si10  1  0.337731  0.041528  0.953267  1
  Si  Si11  1  0.837486  0.458057  0.546705  1
  Si  Si12  1  0.338123  0.041854  0.546628  1
  Si  Si13  1  0.837650  0.458527  0.953335  1
  Si  Si14  1  0.662190  0.958435  0.046779  1
  Si  Si15  1  0.162322  0.541437  0.453077  1
  Si  Si16  1  0.464336  0.371601  0.750122  1
  Si  Si17  1  0.964358  0.128582  0.750101  1
  Si  Si18  1  0.535663  0.628483  0.249950  1
  Si  Si19  1  0.035715  0.871466  0.250030  1
  Si  Si20  1  0.697124  0.865100  0.750119  1
  Si  Si21  1  0.197567  0.634586  0.750157  1
  Si  Si22  1  0.302641  0.134763  0.249949  1
  Si  Si23  1  0.802610  0.365259  0.249947  1
  W  W24  1  0.668109  0.163439  0.625497  1
  W  W25  1  0.168291  0.336596  0.874699  1
  W  W26  1  0.331592  0.836431  0.125258  1
  W  W27  1  0.831305  0.663520  0.374635  1
  W  W28  1  0.331844  0.836722  0.374603  1
  W  W29  1  0.831513  0.663490  0.125259  1
  W  W30  1  0.668580  0.163418  0.874735  1
  W  W31  1  0.168572  0.336406  0.625310  1
  W  W32  1  0.833520  0.500575  0.750183  1
  W  W33  1  0.333882  0.999450  0.749977  1
  W  W34  1  0.166412  0.499365  0.249931  1
  W  W35  1  0.666448  0.000674  0.250119  1
