# generated using pymatgen
data_PaSi2OsPt
_symmetry_space_group_name_H-M   'P 1'
_cell_length_a   4.22365200
_cell_length_b   4.22365200
_cell_length_c   9.62138600
_cell_angle_alpha   90.00000000
_cell_angle_beta   90.00000000
_cell_angle_gamma   90.00000000
_symmetry_Int_Tables_number   1
_chemical_formula_structural   PaSi2OsPt
_chemical_formula_sum   'Pa2 Si4 Os2 Pt2'
_cell_volume   171.63817759
_cell_formula_units_Z   2
loop_
 _symmetry_equiv_pos_site_id
 _symmetry_equiv_pos_as_xyz
  1  'x, y, z'
loop_
 _atom_site_type_symbol
 _atom_site_label
 _atom_site_symmetry_multiplicity
 _atom_site_fract_x
 _atom_site_fract_y
 _atom_site_fract_z
 _atom_site_occupancy
  Pa  Pa0  1  0.500000  0.000000  0.764103  1
  Pa  Pa1  1  0.000000  0.500000  0.235897  1
  Si  Si2  1  0.500000  0.000000  0.127817  1
  Si  Si3  1  0.000000  0.500000  0.872183  1
  Si  Si4  1  0.500000  0.500000  0.500000  1
  Si  Si5  1  0.000000  0.000000  0.500000  1
  Os  Os6  1  0.500000  0.500000  0.000000  1
  Os  Os7  1  0.000000  0.000000  0.000000  1
  Pt  Pt8  1  0.500000  0.000000  0.377199  1
  Pt  Pt9  1  0.000000  0.500000  0.622801  1
