# generated using pymatgen
data_ErTm(Co5As3)2
_symmetry_space_group_name_H-M   'P 1'
_cell_length_a   3.76949800
_cell_length_b   10.65668500
_cell_length_c   12.15857700
_cell_angle_alpha   90.00000000
_cell_angle_beta   90.00000000
_cell_angle_gamma   90.00000000
_symmetry_Int_Tables_number   1
_chemical_formula_structural   ErTm(Co5As3)2
_chemical_formula_sum   'Er2 Tm2 Co20 As12'
_cell_volume   488.41432756
_cell_formula_units_Z   2
loop_
 _symmetry_equiv_pos_site_id
 _symmetry_equiv_pos_as_xyz
  1  'x, y, z'
loop_
 _atom_site_type_symbol
 _atom_site_label
 _atom_site_symmetry_multiplicity
 _atom_site_fract_x
 _atom_site_fract_y
 _atom_site_fract_z
 _atom_site_occupancy
  Er  Er0  1  0.250000  0.579451  0.701826  1
  Er  Er1  1  0.250000  0.920549  0.201826  1
  Tm  Tm2  1  0.750000  0.420749  0.298425  1
  Tm  Tm3  1  0.750000  0.079251  0.798425  1
  Co  Co4  1  0.250000  0.710673  0.990215  1
  Co  Co5  1  0.250000  0.789327  0.490215  1
  Co  Co6  1  0.750000  0.289301  0.009647  1
  Co  Co7  1  0.750000  0.210699  0.509647  1
  Co  Co8  1  0.250000  0.407639  0.487258  1
  Co  Co9  1  0.250000  0.092361  0.987258  1
  Co  Co10  1  0.750000  0.592389  0.512171  1
  Co  Co11  1  0.750000  0.907611  0.012171  1
  Co  Co12  1  0.250000  0.218074  0.177112  1
  Co  Co13  1  0.250000  0.281926  0.677112  1
  Co  Co14  1  0.750000  0.781955  0.822817  1
  Co  Co15  1  0.750000  0.718045  0.322817  1
  Co  Co16  1  0.250000  0.882064  0.697605  1
  Co  Co17  1  0.250000  0.617936  0.197605  1
  Co  Co18  1  0.750000  0.118363  0.302502  1
  Co  Co19  1  0.750000  0.381637  0.802502  1
  Co  Co20  1  0.250000  0.467004  0.932216  1
  Co  Co21  1  0.250000  0.032996  0.432216  1
  Co  Co22  1  0.750000  0.532516  0.068218  1
  Co  Co23  1  0.750000  0.967484  0.568218  1
  As  As24  1  0.250000  0.417395  0.115374  1
  As  As25  1  0.250000  0.082605  0.615374  1
  As  As26  1  0.750000  0.582458  0.885124  1
  As  As27  1  0.750000  0.917542  0.385124  1
  As  As28  1  0.250000  0.266454  0.869539  1
  As  As29  1  0.250000  0.233546  0.369539  1
  As  As30  1  0.750000  0.733156  0.130165  1
  As  As31  1  0.750000  0.766844  0.630165  1
  As  As32  1  0.250000  0.601302  0.390530  1
  As  As33  1  0.250000  0.898698  0.890530  1
  As  As34  1  0.750000  0.398626  0.609254  1
  As  As35  1  0.750000  0.101374  0.109254  1
