# generated using pymatgen
data_TbTm2Th11Ru6
_symmetry_space_group_name_H-M   'P 1'
_cell_length_a   9.81760475
_cell_length_b   9.87913154
_cell_length_c   6.39374547
_cell_angle_alpha   90.27501460
_cell_angle_beta   89.90455978
_cell_angle_gamma   120.44527714
_symmetry_Int_Tables_number   1
_chemical_formula_structural   TbTm2Th11Ru6
_chemical_formula_sum   'Tb1 Tm2 Th11 Ru6'
_cell_volume   534.61228438
_cell_formula_units_Z   1
loop_
 _symmetry_equiv_pos_site_id
 _symmetry_equiv_pos_as_xyz
  1  'x, y, z'
loop_
 _atom_site_type_symbol
 _atom_site_label
 _atom_site_symmetry_multiplicity
 _atom_site_fract_x
 _atom_site_fract_y
 _atom_site_fract_z
 _atom_site_occupancy
  Tb  Tb0  1  0.926658  0.463118  0.799650  1
  Tm  Tm1  1  0.459735  0.537107  0.297142  1
  Tm  Tm2  1  0.075656  0.536719  0.301642  1
  Th  Th3  1  0.249624  0.126728  0.509464  1
  Th  Th4  1  0.541884  0.082437  0.796410  1
  Th  Th5  1  0.747567  0.873489  0.013149  1
  Th  Th6  1  0.666091  0.333526  0.278522  1
  Th  Th7  1  0.125559  0.870357  0.009589  1
  Th  Th8  1  0.459095  0.915608  0.295732  1
  Th  Th9  1  0.539086  0.464140  0.799322  1
  Th  Th10  1  0.876730  0.129081  0.510871  1
  Th  Th11  1  0.124720  0.253256  0.015014  1
  Th  Th12  1  0.874184  0.748225  0.508105  1
  Th  Th13  1  0.333719  0.665523  0.773834  1
  Ru  Ru14  1  0.811096  0.630824  0.048521  1
  Ru  Ru15  1  0.814203  0.181595  0.046876  1
  Ru  Ru16  1  0.630961  0.814429  0.545367  1
  Ru  Ru17  1  0.370128  0.188054  0.041911  1
  Ru  Ru18  1  0.185344  0.367341  0.550679  1
  Ru  Ru19  1  0.187961  0.818446  0.542194  1
