# generated using pymatgen
data_Li4Ca7TbTl4
_symmetry_space_group_name_H-M   'P 1'
_cell_length_a   7.55673404
_cell_length_b   5.49196000
_cell_length_c   10.99014600
_cell_angle_alpha   90.00000000
_cell_angle_beta   90.00624764
_cell_angle_gamma   90.00000000
_symmetry_Int_Tables_number   1
_chemical_formula_structural   Li4Ca7TbTl4
_chemical_formula_sum   'Li4 Ca7 Tb1 Tl4'
_cell_volume   456.10513582
_cell_formula_units_Z   1
loop_
 _symmetry_equiv_pos_site_id
 _symmetry_equiv_pos_as_xyz
  1  'x, y, z'
loop_
 _atom_site_type_symbol
 _atom_site_label
 _atom_site_symmetry_multiplicity
 _atom_site_fract_x
 _atom_site_fract_y
 _atom_site_fract_z
 _atom_site_occupancy
  Li  Li0  1  0.243107  0.250001  0.121428  1
  Li  Li1  1  0.754006  0.750001  0.379585  1
  Li  Li2  1  0.250304  0.250001  0.621241  1
  Li  Li3  1  0.753448  0.750001  0.877025  1
  Ca  Ca4  1  0.502114  0.750001  0.126227  1
  Ca  Ca5  1  0.999585  0.250001  0.373716  1
  Ca  Ca6  1  0.500072  0.250001  0.373215  1
  Ca  Ca7  1  0.498780  0.750001  0.625994  1
  Ca  Ca8  1  0.999229  0.750001  0.626190  1
  Ca  Ca9  1  0.500098  0.250001  0.874293  1
  Ca  Ca10  1  0.999696  0.250001  0.873642  1
  Tb  Tb11  1  0.000651  0.750001  0.126061  1
  Tl  Tl12  1  0.763192  0.250001  0.123848  1
  Tl  Tl13  1  0.243292  0.750001  0.370474  1
  Tl  Tl14  1  0.748747  0.250001  0.623412  1
  Tl  Tl15  1  0.243678  0.750001  0.883649  1
