# generated using pymatgen
data_GdPu(HCl2)2
_symmetry_space_group_name_H-M   'P 1'
_cell_length_a   3.89803700
_cell_length_b   3.89803806
_cell_length_c   14.17196300
_cell_angle_alpha   90.00000000
_cell_angle_beta   90.00000000
_cell_angle_gamma   119.99999951
_symmetry_Int_Tables_number   1
_chemical_formula_structural   GdPu(HCl2)2
_chemical_formula_sum   'Gd1 Pu1 H2 Cl4'
_cell_volume   186.48876623
_cell_formula_units_Z   1
loop_
 _symmetry_equiv_pos_site_id
 _symmetry_equiv_pos_as_xyz
  1  'x, y, z'
loop_
 _atom_site_type_symbol
 _atom_site_label
 _atom_site_symmetry_multiplicity
 _atom_site_fract_x
 _atom_site_fract_y
 _atom_site_fract_z
 _atom_site_occupancy
  Gd  Gd0  1  0.000000  0.000000  0.750000  1
  Pu  Pu1  1  0.000000  0.000000  0.250000  1
  H  H2  1  0.333334  0.666667  0.250000  1
  H  H3  1  0.666667  0.333332  0.750000  1
  Cl  Cl4  1  0.666667  0.333332  0.125330  1
  Cl  Cl5  1  0.666667  0.333332  0.374670  1
  Cl  Cl6  1  0.333334  0.666667  0.627675  1
  Cl  Cl7  1  0.333334  0.666667  0.872325  1
