# generated using pymatgen
data_Y5Sc5(Si5Pt2)4
_symmetry_space_group_name_H-M   'P 1'
_cell_length_a   12.54398500
_cell_length_b   12.54398500
_cell_length_c   4.21876100
_cell_angle_alpha   90.00000000
_cell_angle_beta   90.00000000
_cell_angle_gamma   90.00000000
_symmetry_Int_Tables_number   1
_chemical_formula_structural   Y5Sc5(Si5Pt2)4
_chemical_formula_sum   'Y5 Sc5 Si20 Pt8'
_cell_volume   663.82862327
_cell_formula_units_Z   1
loop_
 _symmetry_equiv_pos_site_id
 _symmetry_equiv_pos_as_xyz
  1  'x, y, z'
loop_
 _atom_site_type_symbol
 _atom_site_label
 _atom_site_symmetry_multiplicity
 _atom_site_fract_x
 _atom_site_fract_y
 _atom_site_fract_z
 _atom_site_occupancy
  Y  Y0  1  0.000000  0.000000  0.000000  1
  Y  Y1  1  0.886114  0.387285  0.500000  1
  Y  Y2  1  0.113886  0.612715  0.500000  1
  Y  Y3  1  0.387285  0.113886  0.500000  1
  Y  Y4  1  0.612715  0.886114  0.500000  1
  Sc  Sc5  1  0.500000  0.500000  0.000000  1
  Sc  Sc6  1  0.673828  0.175658  0.500000  1
  Sc  Sc7  1  0.326172  0.824342  0.500000  1
  Sc  Sc8  1  0.175658  0.326172  0.500000  1
  Sc  Sc9  1  0.824342  0.673828  0.500000  1
  Si  Si10  1  0.565305  0.067382  0.000000  1
  Si  Si11  1  0.434695  0.932618  0.000000  1
  Si  Si12  1  0.067382  0.434695  0.000000  1
  Si  Si13  1  0.932618  0.565305  0.000000  1
  Si  Si14  1  0.666693  0.701801  0.000000  1
  Si  Si15  1  0.333307  0.298199  0.000000  1
  Si  Si16  1  0.166811  0.798024  0.000000  1
  Si  Si17  1  0.833189  0.201976  0.000000  1
  Si  Si18  1  0.298199  0.666693  0.000000  1
  Si  Si19  1  0.701801  0.333307  0.000000  1
  Si  Si20  1  0.201976  0.166811  0.000000  1
  Si  Si21  1  0.798024  0.833189  0.000000  1
  Si  Si22  1  0.647487  0.507094  0.500000  1
  Si  Si23  1  0.352513  0.492906  0.500000  1
  Si  Si24  1  0.154216  0.994140  0.500000  1
  Si  Si25  1  0.845784  0.005860  0.500000  1
  Si  Si26  1  0.492906  0.647487  0.500000  1
  Si  Si27  1  0.507094  0.352513  0.500000  1
  Si  Si28  1  0.005860  0.154216  0.500000  1
  Si  Si29  1  0.994140  0.845784  0.500000  1
  Pt  Pt30  1  0.740434  0.521029  0.000000  1
  Pt  Pt31  1  0.259566  0.478971  0.000000  1
  Pt  Pt32  1  0.244715  0.978519  0.000000  1
  Pt  Pt33  1  0.755285  0.021481  0.000000  1
  Pt  Pt34  1  0.478971  0.740434  0.000000  1
  Pt  Pt35  1  0.521029  0.259566  0.000000  1
  Pt  Pt36  1  0.021481  0.244715  0.000000  1
  Pt  Pt37  1  0.978519  0.755285  0.000000  1
