# generated using pymatgen
data_CaY3TmZn5
_symmetry_space_group_name_H-M   'P 1'
_cell_length_a   3.60406100
_cell_length_b   3.60406100
_cell_length_c   17.72018800
_cell_angle_alpha   90.00000000
_cell_angle_beta   90.00000000
_cell_angle_gamma   90.00000000
_symmetry_Int_Tables_number   1
_chemical_formula_structural   CaY3TmZn5
_chemical_formula_sum   'Ca1 Y3 Tm1 Zn5'
_cell_volume   230.17205284
_cell_formula_units_Z   1
loop_
 _symmetry_equiv_pos_site_id
 _symmetry_equiv_pos_as_xyz
  1  'x, y, z'
loop_
 _atom_site_type_symbol
 _atom_site_label
 _atom_site_symmetry_multiplicity
 _atom_site_fract_x
 _atom_site_fract_y
 _atom_site_fract_z
 _atom_site_occupancy
  Ca  Ca0  1  0.000000  0.000000  0.001522  1
  Y  Y1  1  0.000000  0.000000  0.399213  1
  Y  Y2  1  0.000000  0.000000  0.598830  1
  Y  Y3  1  0.000000  0.000000  0.798211  1
  Tm  Tm4  1  0.000000  0.000000  0.202281  1
  Zn  Zn5  1  0.500000  0.500000  0.111964  1
  Zn  Zn6  1  0.500000  0.500000  0.298077  1
  Zn  Zn7  1  0.500000  0.500000  0.499636  1
  Zn  Zn8  1  0.500000  0.500000  0.697474  1
  Zn  Zn9  1  0.500000  0.500000  0.892793  1
