# generated using pymatgen
data_TiP2(S4Br)2
_symmetry_space_group_name_H-M   'P 1'
_cell_length_a   13.04109700
_cell_length_b   7.17837946
_cell_length_c   17.56307200
_cell_angle_alpha   66.58659950
_cell_angle_beta   90.00000000
_cell_angle_gamma   90.00000000
_symmetry_Int_Tables_number   1
_chemical_formula_structural   TiP2(S4Br)2
_chemical_formula_sum   'Ti4 P8 S32 Br8'
_cell_volume   1508.77205585
_cell_formula_units_Z   4
loop_
 _symmetry_equiv_pos_site_id
 _symmetry_equiv_pos_as_xyz
  1  'x, y, z'
loop_
 _atom_site_type_symbol
 _atom_site_label
 _atom_site_symmetry_multiplicity
 _atom_site_fract_x
 _atom_site_fract_y
 _atom_site_fract_z
 _atom_site_occupancy
  Ti  Ti0  1  0.252095  0.178369  0.532755  1
  Ti  Ti1  1  0.247905  0.178369  0.032755  1
  Ti  Ti2  1  0.747905  0.821631  0.467245  1
  Ti  Ti3  1  0.752095  0.821631  0.967245  1
  P  P4  1  0.089151  0.940965  0.663086  1
  P  P5  1  0.410849  0.940965  0.163086  1
  P  P6  1  0.910849  0.059035  0.336914  1
  P  P7  1  0.589151  0.059035  0.836914  1
  P  P8  1  0.854830  0.765691  0.632619  1
  P  P9  1  0.645170  0.765691  0.132619  1
  P  P10  1  0.145170  0.234309  0.367381  1
  P  P11  1  0.354830  0.234309  0.867381  1
  S  S12  1  0.933672  0.028445  0.630430  1
  S  S13  1  0.566328  0.028445  0.130430  1
  S  S14  1  0.066328  0.971555  0.369570  1
  S  S15  1  0.433672  0.971555  0.869570  1
  S  S16  1  0.159896  0.833832  0.588318  1
  S  S17  1  0.340104  0.833832  0.088318  1
  S  S18  1  0.840104  0.166168  0.411682  1
  S  S19  1  0.659896  0.166168  0.911682  1
  S  S20  1  0.158496  0.200211  0.653115  1
  S  S21  1  0.341504  0.200211  0.153115  1
  S  S22  1  0.841504  0.799789  0.346885  1
  S  S23  1  0.658496  0.799789  0.846885  1
  S  S24  1  0.083973  0.732635  0.789284  1
  S  S25  1  0.416027  0.732635  0.289284  1
  S  S26  1  0.916027  0.267365  0.210716  1
  S  S27  1  0.583973  0.267365  0.710716  1
  S  S28  1  0.011684  0.501323  0.768731  1
  S  S29  1  0.488316  0.501323  0.268731  1
  S  S30  1  0.988316  0.498677  0.231269  1
  S  S31  1  0.511684  0.498677  0.731269  1
  S  S32  1  0.856044  0.557980  0.758849  1
  S  S33  1  0.643956  0.557980  0.258849  1
  S  S34  1  0.143956  0.442020  0.241151  1
  S  S35  1  0.356044  0.442020  0.741151  1
  S  S36  1  0.712349  0.874052  0.597097  1
  S  S37  1  0.787651  0.874052  0.097097  1
  S  S38  1  0.287651  0.125948  0.402903  1
  S  S39  1  0.212349  0.125948  0.902903  1
  S  S40  1  0.906549  0.649397  0.554114  1
  S  S41  1  0.593451  0.649397  0.054114  1
  S  S42  1  0.093451  0.350603  0.445886  1
  S  S43  1  0.406549  0.350603  0.945886  1
  Br  Br44  1  0.411776  0.004442  0.580137  1
  Br  Br45  1  0.088224  0.004442  0.080137  1
  Br  Br46  1  0.588224  0.995558  0.419863  1
  Br  Br47  1  0.911776  0.995558  0.919863  1
  Br  Br48  1  0.320049  0.506377  0.514800  1
  Br  Br49  1  0.179951  0.506377  0.014800  1
  Br  Br50  1  0.679951  0.493623  0.485200  1
  Br  Br51  1  0.820049  0.493623  0.985200  1
