# generated using pymatgen
data_YHo3Fe5Si10Rh
_symmetry_space_group_name_H-M   'P 1'
_cell_length_a   8.00671214
_cell_length_b   8.00588977
_cell_length_c   8.00645800
_cell_angle_alpha   140.41789005
_cell_angle_beta   108.19989623
_cell_angle_gamma   85.23607316
_symmetry_Int_Tables_number   1
_chemical_formula_structural   YHo3Fe5Si10Rh
_chemical_formula_sum   'Y1 Ho3 Fe5 Si10 Rh1'
_cell_volume   299.93217734
_cell_formula_units_Z   1
loop_
 _symmetry_equiv_pos_site_id
 _symmetry_equiv_pos_as_xyz
  1  'x, y, z'
loop_
 _atom_site_type_symbol
 _atom_site_label
 _atom_site_symmetry_multiplicity
 _atom_site_fract_x
 _atom_site_fract_y
 _atom_site_fract_z
 _atom_site_occupancy
  Y  Y0  1  0.631654  0.867962  0.776361  1
  Ho  Ho1  1  0.368382  0.144887  0.236325  1
  Ho  Ho2  1  0.091215  0.355028  0.723350  1
  Ho  Ho3  1  0.908672  0.632136  0.263650  1
  Fe  Fe4  1  0.233550  0.643597  0.589366  1
  Fe  Fe5  1  0.766486  0.355812  0.410355  1
  Fe  Fe6  1  0.053969  0.144252  0.910362  1
  Fe  Fe7  1  0.946168  0.856266  0.090470  1
  Fe  Fe8  1  0.499974  0.750242  0.249991  1
  Si  Si9  1  0.285063  0.035665  0.749849  1
  Si  Si10  1  0.711512  0.961316  0.250170  1
  Si  Si11  1  0.714649  0.464346  0.750214  1
  Si  Si12  1  0.288108  0.538251  0.249370  1
  Si  Si13  1  0.422489  0.609852  0.838614  1
  Si  Si14  1  0.577095  0.415754  0.186831  1
  Si  Si15  1  0.771512  0.084544  0.661296  1
  Si  Si16  1  0.228862  0.890055  0.312964  1
  Si  Si17  1  0.000387  0.749945  0.750288  1
  Si  Si18  1  0.000380  0.250125  0.250495  1
  Rh  Rh19  1  0.499872  0.249966  0.749679  1
