# generated using pymatgen
data_Li4In3Au
_symmetry_space_group_name_H-M   'P 1'
_cell_length_a   8.28798859
_cell_length_b   8.28798757
_cell_length_c   8.28798689
_cell_angle_alpha   32.93762227
_cell_angle_beta   32.93761792
_cell_angle_gamma   32.93761918
_symmetry_Int_Tables_number   1
_chemical_formula_structural   Li4In3Au
_chemical_formula_sum   'Li4 In3 Au1'
_cell_volume   149.76522322
_cell_formula_units_Z   1
loop_
 _symmetry_equiv_pos_site_id
 _symmetry_equiv_pos_as_xyz
  1  'x, y, z'
loop_
 _atom_site_type_symbol
 _atom_site_label
 _atom_site_symmetry_multiplicity
 _atom_site_fract_x
 _atom_site_fract_y
 _atom_site_fract_z
 _atom_site_occupancy
  Li  Li0  1  0.124965  0.124965  0.124965  1
  Li  Li1  1  0.623998  0.623998  0.623998  1
  Li  Li2  1  0.004694  0.004694  0.004694  1
  Li  Li3  1  0.493803  0.493803  0.493803  1
  In  In4  1  0.872724  0.872724  0.872724  1
  In  In5  1  0.744537  0.744537  0.744537  1
  In  In6  1  0.257237  0.257237  0.257237  1
  Au  Au7  1  0.378043  0.378043  0.378043  1
