# generated using pymatgen
data_Tm4Co17Re3Si7P5
_symmetry_space_group_name_H-M   'P 1'
_cell_length_a   3.70880400
_cell_length_b   10.35554970
_cell_length_c   11.87722821
_cell_angle_alpha   90.24895944
_cell_angle_beta   90.00000000
_cell_angle_gamma   90.00000000
_symmetry_Int_Tables_number   1
_chemical_formula_structural   Tm4Co17Re3Si7P5
_chemical_formula_sum   'Tm4 Co17 Re3 Si7 P5'
_cell_volume   456.16088351
_cell_formula_units_Z   1
loop_
 _symmetry_equiv_pos_site_id
 _symmetry_equiv_pos_as_xyz
  1  'x, y, z'
loop_
 _atom_site_type_symbol
 _atom_site_label
 _atom_site_symmetry_multiplicity
 _atom_site_fract_x
 _atom_site_fract_y
 _atom_site_fract_z
 _atom_site_occupancy
  Tm  Tm0  1  0.250000  0.581752  0.703093  1
  Tm  Tm1  1  0.250000  0.919487  0.202967  1
  Tm  Tm2  1  0.750000  0.417996  0.298027  1
  Tm  Tm3  1  0.750000  0.080188  0.796703  1
  Co  Co4  1  0.750000  0.207618  0.509460  1
  Co  Co5  1  0.250000  0.402082  0.485880  1
  Co  Co6  1  0.250000  0.094504  0.987605  1
  Co  Co7  1  0.750000  0.591059  0.508937  1
  Co  Co8  1  0.750000  0.911208  0.012855  1
  Co  Co9  1  0.250000  0.213993  0.176814  1
  Co  Co10  1  0.250000  0.284185  0.676988  1
  Co  Co11  1  0.750000  0.787867  0.826946  1
  Co  Co12  1  0.750000  0.714700  0.326042  1
  Co  Co13  1  0.250000  0.887261  0.701922  1
  Co  Co14  1  0.250000  0.613680  0.201797  1
  Co  Co15  1  0.750000  0.119844  0.301120  1
  Co  Co16  1  0.750000  0.379193  0.801340  1
  Co  Co17  1  0.250000  0.462527  0.931124  1
  Co  Co18  1  0.250000  0.037717  0.429598  1
  Co  Co19  1  0.750000  0.531066  0.065976  1
  Co  Co20  1  0.750000  0.971765  0.566843  1
  Re  Re21  1  0.250000  0.707596  0.989098  1
  Re  Re22  1  0.250000  0.792882  0.488770  1
  Re  Re23  1  0.750000  0.290157  0.012477  1
  Si  Si24  1  0.250000  0.417050  0.115534  1
  Si  Si25  1  0.250000  0.084851  0.611641  1
  Si  Si26  1  0.750000  0.582568  0.883962  1
  Si  Si27  1  0.750000  0.918653  0.385562  1
  Si  Si28  1  0.750000  0.730796  0.135343  1
  Si  Si29  1  0.750000  0.771816  0.634786  1
  Si  Si30  1  0.750000  0.398675  0.607244  1
  P  P31  1  0.250000  0.267008  0.864919  1
  P  P32  1  0.250000  0.230923  0.365188  1
  P  P33  1  0.250000  0.596562  0.390615  1
  P  P34  1  0.250000  0.903227  0.891369  1
  P  P35  1  0.750000  0.097542  0.111457  1
