# generated using pymatgen
data_Rb2YPuO6
_symmetry_space_group_name_H-M   'P 1'
_cell_length_a   6.13200993
_cell_length_b   6.13199492
_cell_length_c   6.13201700
_cell_angle_alpha   60.00003948
_cell_angle_beta   59.99979683
_cell_angle_gamma   60.00016012
_symmetry_Int_Tables_number   1
_chemical_formula_structural   Rb2YPuO6
_chemical_formula_sum   'Rb2 Y1 Pu1 O6'
_cell_volume   163.03955303
_cell_formula_units_Z   1
loop_
 _symmetry_equiv_pos_site_id
 _symmetry_equiv_pos_as_xyz
  1  'x, y, z'
loop_
 _atom_site_type_symbol
 _atom_site_label
 _atom_site_symmetry_multiplicity
 _atom_site_fract_x
 _atom_site_fract_y
 _atom_site_fract_z
 _atom_site_occupancy
  Rb  Rb0  1  0.750000  0.750000  0.750000  1
  Rb  Rb1  1  0.250000  0.250000  0.250000  1
  Y  Y2  1  0.000000  0.000000  0.000000  1
  Pu  Pu3  1  0.500000  0.500000  0.500000  1
  O  O4  1  0.734614  0.265386  0.265386  1
  O  O5  1  0.265385  0.265385  0.734615  1
  O  O6  1  0.265386  0.734614  0.734614  1
  O  O7  1  0.265384  0.734616  0.265384  1
  O  O8  1  0.734616  0.265384  0.734616  1
  O  O9  1  0.734615  0.734615  0.265385  1
