# generated using pymatgen
data_YbDy(CoIr)2
_symmetry_space_group_name_H-M   'P 1'
_cell_length_a   5.06279071
_cell_length_b   5.18703288
_cell_length_c   5.18703152
_cell_angle_alpha   62.55860635
_cell_angle_beta   60.78920163
_cell_angle_gamma   60.78922291
_symmetry_Int_Tables_number   1
_chemical_formula_structural   YbDy(CoIr)2
_chemical_formula_sum   'Yb1 Dy1 Co2 Ir2'
_cell_volume   99.24199676
_cell_formula_units_Z   1
loop_
 _symmetry_equiv_pos_site_id
 _symmetry_equiv_pos_as_xyz
  1  'x, y, z'
loop_
 _atom_site_type_symbol
 _atom_site_label
 _atom_site_symmetry_multiplicity
 _atom_site_fract_x
 _atom_site_fract_y
 _atom_site_fract_z
 _atom_site_occupancy
  Yb  Yb0  1  0.247923  0.252077  0.252077  1
  Dy  Dy1  1  0.000952  0.999048  0.999048  1
  Co  Co2  1  0.123895  0.624564  0.624564  1
  Co  Co3  1  0.626975  0.624564  0.624564  1
  Ir  Ir4  1  0.625127  0.623989  0.125756  1
  Ir  Ir5  1  0.625127  0.125756  0.623989  1
