# generated using pymatgen
data_YThMn6Co6P7
_symmetry_space_group_name_H-M   'P 1'
_cell_length_a   9.14348300
_cell_length_b   9.14348450
_cell_length_c   3.66607800
_cell_angle_alpha   90.00000000
_cell_angle_beta   90.00000000
_cell_angle_gamma   119.99999819
_symmetry_Int_Tables_number   1
_chemical_formula_structural   YThMn6Co6P7
_chemical_formula_sum   'Y1 Th1 Mn6 Co6 P7'
_cell_volume   265.43350092
_cell_formula_units_Z   1
loop_
 _symmetry_equiv_pos_site_id
 _symmetry_equiv_pos_as_xyz
  1  'x, y, z'
loop_
 _atom_site_type_symbol
 _atom_site_label
 _atom_site_symmetry_multiplicity
 _atom_site_fract_x
 _atom_site_fract_y
 _atom_site_fract_z
 _atom_site_occupancy
  Y  Y0  1  0.333333  0.666667  0.000000  1
  Th  Th1  1  0.000000  0.000000  0.500000  1
  Mn  Mn2  1  0.543696  0.057316  0.000000  1
  Mn  Mn3  1  0.942684  0.486380  0.000000  1
  Mn  Mn4  1  0.513620  0.456304  0.000000  1
  Mn  Mn5  1  0.786503  0.227934  0.500000  1
  Mn  Mn6  1  0.772066  0.558568  0.500000  1
  Mn  Mn7  1  0.441432  0.213497  0.500000  1
  Co  Co8  1  0.036451  0.272256  0.000000  1
  Co  Co9  1  0.727744  0.764195  0.000000  1
  Co  Co10  1  0.235805  0.963549  0.000000  1
  Co  Co11  1  0.614992  0.895260  0.500000  1
  Co  Co12  1  0.104740  0.719732  0.500000  1
  Co  Co13  1  0.280268  0.385008  0.500000  1
  P  P14  1  0.769962  0.032194  0.000000  1
  P  P15  1  0.967806  0.737768  0.000000  1
  P  P16  1  0.262232  0.230038  0.000000  1
  P  P17  1  0.377589  0.926980  0.500000  1
  P  P18  1  0.073020  0.450609  0.500000  1
  P  P19  1  0.549391  0.622411  0.500000  1
  P  P20  1  0.666667  0.333333  0.000000  1
