# generated using pymatgen
data_Nd4SiNi13
_symmetry_space_group_name_H-M   'P 1'
_cell_length_a   5.09037199
_cell_length_b   4.94978225
_cell_length_c   12.56440229
_cell_angle_alpha   78.65747522
_cell_angle_beta   78.31264433
_cell_angle_gamma   59.05590257
_symmetry_Int_Tables_number   1
_chemical_formula_structural   Nd4SiNi13
_chemical_formula_sum   'Nd4 Si1 Ni13'
_cell_volume   264.27013303
_cell_formula_units_Z   1
loop_
 _symmetry_equiv_pos_site_id
 _symmetry_equiv_pos_as_xyz
  1  'x, y, z'
loop_
 _atom_site_type_symbol
 _atom_site_label
 _atom_site_symmetry_multiplicity
 _atom_site_fract_x
 _atom_site_fract_y
 _atom_site_fract_z
 _atom_site_occupancy
  Nd  Nd0  1  0.948189  0.948007  0.155615  1
  Nd  Nd1  1  0.051811  0.051993  0.844385  1
  Nd  Nd2  1  0.852196  0.854226  0.441383  1
  Nd  Nd3  1  0.147804  0.145774  0.558617  1
  Si  Si4  1  0.500000  0.000000  0.000000  1
  Ni  Ni5  1  0.500000  0.500000  0.500000  1
  Ni  Ni6  1  0.714206  0.734833  0.836756  1
  Ni  Ni7  1  0.285794  0.265167  0.163244  1
  Ni  Ni8  1  0.605398  0.626989  0.162215  1
  Ni  Ni9  1  0.394602  0.373011  0.837785  1
  Ni  Ni10  1  0.000000  0.500000  0.000000  1
  Ni  Ni11  1  0.500000  0.500000  0.000000  1
  Ni  Ni12  1  0.392508  0.393820  0.323945  1
  Ni  Ni13  1  0.889725  0.393820  0.323945  1
  Ni  Ni14  1  0.389712  0.891936  0.328638  1
  Ni  Ni15  1  0.607492  0.606180  0.676055  1
  Ni  Ni16  1  0.110275  0.606180  0.676055  1
  Ni  Ni17  1  0.610288  0.108064  0.671362  1
