# generated using pymatgen
data_Ce4Er6Tc3Ru
_symmetry_space_group_name_H-M   'P 1'
_cell_length_a   6.30775414
_cell_length_b   7.08340296
_cell_length_c   8.79166087
_cell_angle_alpha   95.94728022
_cell_angle_beta   111.09583709
_cell_angle_gamma   89.97175613
_symmetry_Int_Tables_number   1
_chemical_formula_structural   Ce4Er6Tc3Ru
_chemical_formula_sum   'Ce4 Er6 Tc3 Ru1'
_cell_volume   364.22873532
_cell_formula_units_Z   1
loop_
 _symmetry_equiv_pos_site_id
 _symmetry_equiv_pos_as_xyz
  1  'x, y, z'
loop_
 _atom_site_type_symbol
 _atom_site_label
 _atom_site_symmetry_multiplicity
 _atom_site_fract_x
 _atom_site_fract_y
 _atom_site_fract_z
 _atom_site_occupancy
  Ce  Ce0  1  0.791261  0.597883  0.809251  1
  Ce  Ce1  1  0.983945  0.904108  0.193425  1
  Ce  Ce2  1  0.206599  0.403079  0.193026  1
  Ce  Ce3  1  0.010794  0.094902  0.808361  1
  Er  Er4  1  0.208039  0.686742  0.570004  1
  Er  Er5  1  0.639916  0.810573  0.429431  1
  Er  Er6  1  0.790097  0.312542  0.430911  1
  Er  Er7  1  0.359675  0.189073  0.570973  1
  Er  Er8  1  0.421221  0.748856  0.999865  1
  Er  Er9  1  0.574937  0.250055  0.999540  1
  Tc  Tc10  1  0.644225  0.906133  0.781486  1
  Tc  Tc11  1  0.862559  0.594128  0.218081  1
  Tc  Tc12  1  0.357498  0.095319  0.218842  1
  Ru  Ru13  1  0.149234  0.406607  0.776804  1
