# generated using pymatgen
data_La8In3Os
_symmetry_space_group_name_H-M   'P 1'
_cell_length_a   11.03546500
_cell_length_b   11.03546472
_cell_length_c   7.34040900
_cell_angle_alpha   90.00000000
_cell_angle_beta   90.00000000
_cell_angle_gamma   119.99999784
_symmetry_Int_Tables_number   1
_chemical_formula_structural   La8In3Os
_chemical_formula_sum   'La16 In6 Os2'
_cell_volume   774.16256083
_cell_formula_units_Z   2
loop_
 _symmetry_equiv_pos_site_id
 _symmetry_equiv_pos_as_xyz
  1  'x, y, z'
loop_
 _atom_site_type_symbol
 _atom_site_label
 _atom_site_symmetry_multiplicity
 _atom_site_fract_x
 _atom_site_fract_y
 _atom_site_fract_z
 _atom_site_occupancy
  La  La0  1  0.537384  0.074766  0.515998  1
  La  La1  1  0.925234  0.462616  0.515998  1
  La  La2  1  0.537384  0.462616  0.515998  1
  La  La3  1  0.462616  0.925234  0.015998  1
  La  La4  1  0.074766  0.537384  0.015998  1
  La  La5  1  0.462616  0.537384  0.015998  1
  La  La6  1  0.175906  0.351811  0.732235  1
  La  La7  1  0.648189  0.824094  0.732235  1
  La  La8  1  0.175906  0.824094  0.732235  1
  La  La9  1  0.824094  0.648189  0.232235  1
  La  La10  1  0.351811  0.175906  0.232235  1
  La  La11  1  0.824094  0.175906  0.232235  1
  La  La12  1  0.666667  0.333333  0.908389  1
  La  La13  1  0.333333  0.666667  0.408389  1
  La  La14  1  0.000000  0.000000  0.517035  1
  La  La15  1  0.000000  0.000000  0.017035  1
  In  In16  1  0.836212  0.672424  0.769247  1
  In  In17  1  0.327576  0.163788  0.769247  1
  In  In18  1  0.836212  0.163788  0.769247  1
  In  In19  1  0.163788  0.327576  0.269247  1
  In  In20  1  0.672424  0.836212  0.269247  1
  In  In21  1  0.163788  0.836212  0.269247  1
  Os  Os22  1  0.666667  0.333333  0.299973  1
  Os  Os23  1  0.333333  0.666667  0.799973  1
