# generated using pymatgen
data_Lu8MgAlPt2
_symmetry_space_group_name_H-M   'P 1'
_cell_length_a   9.47756738
_cell_length_b   9.47756753
_cell_length_c   9.41395300
_cell_angle_alpha   60.22179121
_cell_angle_beta   60.22179068
_cell_angle_gamma   60.66006519
_symmetry_Int_Tables_number   1
_chemical_formula_structural   Lu8MgAlPt2
_chemical_formula_sum   'Lu16 Mg2 Al2 Pt4'
_cell_volume   602.88282266
_cell_formula_units_Z   2
loop_
 _symmetry_equiv_pos_site_id
 _symmetry_equiv_pos_as_xyz
  1  'x, y, z'
loop_
 _atom_site_type_symbol
 _atom_site_label
 _atom_site_symmetry_multiplicity
 _atom_site_fract_x
 _atom_site_fract_y
 _atom_site_fract_z
 _atom_site_occupancy
  Lu  Lu0  1  0.600474  0.600474  0.598602  1
  Lu  Lu1  1  0.600474  0.600474  0.200452  1
  Lu  Lu2  1  0.609059  0.187155  0.601894  1
  Lu  Lu3  1  0.187155  0.609059  0.601894  1
  Lu  Lu4  1  0.057717  0.444262  0.439899  1
  Lu  Lu5  1  0.444262  0.057717  0.058121  1
  Lu  Lu6  1  0.444262  0.057717  0.439899  1
  Lu  Lu7  1  0.057717  0.444262  0.058121  1
  Lu  Lu8  1  0.437444  0.437444  0.062556  1
  Lu  Lu9  1  0.055812  0.055812  0.444188  1
  Lu  Lu10  1  0.180738  0.815585  0.815340  1
  Lu  Lu11  1  0.815585  0.180738  0.188337  1
  Lu  Lu12  1  0.815585  0.180738  0.815340  1
  Lu  Lu13  1  0.180738  0.815585  0.188337  1
  Lu  Lu14  1  0.816696  0.816696  0.183304  1
  Lu  Lu15  1  0.187212  0.187212  0.812788  1
  Mg  Mg16  1  0.829560  0.517421  0.826510  1
  Mg  Mg17  1  0.517421  0.829560  0.826510  1
  Al  Al18  1  0.833475  0.833475  0.828347  1
  Al  Al19  1  0.833475  0.833475  0.504704  1
  Pt  Pt20  1  0.391083  0.391083  0.398383  1
  Pt  Pt21  1  0.391083  0.391083  0.819450  1
  Pt  Pt22  1  0.389097  0.823879  0.393512  1
  Pt  Pt23  1  0.823879  0.389097  0.393512  1
