# generated using pymatgen
data_ErTm4Tl2Sb
_symmetry_space_group_name_H-M   'P 1'
_cell_length_a   8.78974200
_cell_length_b   8.81083999
_cell_length_c   6.60955200
_cell_angle_alpha   90.00000000
_cell_angle_beta   90.00000000
_cell_angle_gamma   120.07943817
_symmetry_Int_Tables_number   1
_chemical_formula_structural   ErTm4Tl2Sb
_chemical_formula_sum   'Er2 Tm8 Tl4 Sb2'
_cell_volume   442.94305845
_cell_formula_units_Z   2
loop_
 _symmetry_equiv_pos_site_id
 _symmetry_equiv_pos_as_xyz
  1  'x, y, z'
loop_
 _atom_site_type_symbol
 _atom_site_label
 _atom_site_symmetry_multiplicity
 _atom_site_fract_x
 _atom_site_fract_y
 _atom_site_fract_z
 _atom_site_occupancy
  Er  Er0  1  0.236882  0.241710  0.750000  1
  Er  Er1  1  0.236882  0.995172  0.250000  1
  Tm  Tm2  1  0.994528  0.760701  0.750000  1
  Tm  Tm3  1  0.994528  0.233827  0.250000  1
  Tm  Tm4  1  0.765467  0.765278  0.250000  1
  Tm  Tm5  1  0.765467  0.000189  0.750000  1
  Tm  Tm6  1  0.334596  0.667298  0.500000  1
  Tm  Tm7  1  0.674643  0.337322  0.000000  1
  Tm  Tm8  1  0.674643  0.337322  0.500000  1
  Tm  Tm9  1  0.334596  0.667298  0.000000  1
  Tl  Tl10  1  0.001232  0.601727  0.250000  1
  Tl  Tl11  1  0.001232  0.399505  0.750000  1
  Tl  Tl12  1  0.598899  0.601407  0.750000  1
  Tl  Tl13  1  0.598899  0.997491  0.250000  1
  Sb  Sb14  1  0.393753  0.002488  0.750000  1
  Sb  Sb15  1  0.393753  0.391265  0.250000  1
