# generated using pymatgen
data_Yb3Sm2Er(Si3Ru)8
_symmetry_space_group_name_H-M   'P 1'
_cell_length_a   10.14871340
_cell_length_b   10.14871252
_cell_length_c   8.15344900
_cell_angle_alpha   89.99262283
_cell_angle_beta   89.99261313
_cell_angle_gamma   132.61527109
_symmetry_Int_Tables_number   1
_chemical_formula_structural   Yb3Sm2Er(Si3Ru)8
_chemical_formula_sum   'Yb3 Sm2 Er1 Si24 Ru8'
_cell_volume   618.00488231
_cell_formula_units_Z   1
loop_
 _symmetry_equiv_pos_site_id
 _symmetry_equiv_pos_as_xyz
  1  'x, y, z'
loop_
 _atom_site_type_symbol
 _atom_site_label
 _atom_site_symmetry_multiplicity
 _atom_site_fract_x
 _atom_site_fract_y
 _atom_site_fract_z
 _atom_site_occupancy
  Yb  Yb0  1  0.498556  0.998699  0.250174  1
  Yb  Yb1  1  0.001301  0.501444  0.749826  1
  Yb  Yb2  1  0.499981  0.500019  0.500000  1
  Sm  Sm3  1  0.501885  0.001787  0.749892  1
  Sm  Sm4  1  0.998213  0.498115  0.250108  1
  Er  Er5  1  0.000067  0.999933  0.000000  1
  Si  Si6  1  0.388535  0.155091  0.005135  1
  Si  Si7  1  0.653561  0.886483  0.493669  1
  Si  Si8  1  0.113517  0.346439  0.506331  1
  Si  Si9  1  0.844909  0.611465  0.994865  1
  Si  Si10  1  0.611663  0.844443  0.994595  1
  Si  Si11  1  0.345859  0.113765  0.506186  1
  Si  Si12  1  0.886235  0.654141  0.493814  1
  Si  Si13  1  0.155557  0.388337  0.005405  1
  Si  Si14  1  0.609080  0.376341  0.229927  1
  Si  Si15  1  0.875881  0.109055  0.271266  1
  Si  Si16  1  0.890945  0.124119  0.728734  1
  Si  Si17  1  0.623659  0.390920  0.770073  1
  Si  Si18  1  0.390240  0.622577  0.770603  1
  Si  Si19  1  0.123311  0.890376  0.728294  1
  Si  Si20  1  0.705340  0.294660  0.000000  1
  Si  Si21  1  0.794853  0.205147  0.500000  1
  Si  Si22  1  0.295111  0.704889  0.000000  1
  Si  Si23  1  0.204659  0.795341  0.500000  1
  Si  Si24  1  0.164512  0.171043  0.334235  1
  Si  Si25  1  0.668978  0.662382  0.168013  1
  Si  Si26  1  0.337618  0.331022  0.831987  1
  Si  Si27  1  0.828957  0.835488  0.665765  1
  Si  Si28  1  0.377423  0.609760  0.229397  1
  Si  Si29  1  0.109624  0.876689  0.271706  1
  Ru  Ru30  1  0.627314  0.628127  0.875229  1
  Ru  Ru31  1  0.125149  0.124369  0.627410  1
  Ru  Ru32  1  0.875631  0.874851  0.372590  1
  Ru  Ru33  1  0.371873  0.372686  0.124771  1
  Ru  Ru34  1  0.329568  0.670432  0.500000  1
  Ru  Ru35  1  0.169294  0.830706  0.000000  1
  Ru  Ru36  1  0.669644  0.330356  0.500000  1
  Ru  Ru37  1  0.831495  0.168505  0.000000  1
