# generated using pymatgen
data_YLu4Tl3InPt2
_symmetry_space_group_name_H-M   'P 1'
_cell_length_a   3.60644700
_cell_length_b   8.11262361
_cell_length_c   18.13936422
_cell_angle_alpha   89.83309697
_cell_angle_beta   90.00000000
_cell_angle_gamma   90.00000000
_symmetry_Int_Tables_number   1
_chemical_formula_structural   YLu4Tl3InPt2
_chemical_formula_sum   'Y2 Lu8 Tl6 In2 Pt4'
_cell_volume   530.71467910
_cell_formula_units_Z   2
loop_
 _symmetry_equiv_pos_site_id
 _symmetry_equiv_pos_as_xyz
  1  'x, y, z'
loop_
 _atom_site_type_symbol
 _atom_site_label
 _atom_site_symmetry_multiplicity
 _atom_site_fract_x
 _atom_site_fract_y
 _atom_site_fract_z
 _atom_site_occupancy
  Y  Y0  1  0.000000  0.000000  0.000000  1
  Y  Y1  1  0.000000  0.500000  0.500000  1
  Lu  Lu2  1  0.000000  0.116048  0.413496  1
  Lu  Lu3  1  0.000000  0.883952  0.586504  1
  Lu  Lu4  1  0.000000  0.386074  0.910575  1
  Lu  Lu5  1  0.000000  0.613926  0.089425  1
  Lu  Lu6  1  0.000000  0.245683  0.223086  1
  Lu  Lu7  1  0.000000  0.754317  0.776914  1
  Lu  Lu8  1  0.000000  0.254949  0.720421  1
  Lu  Lu9  1  0.000000  0.745051  0.279579  1
  Tl  Tl10  1  0.500000  0.424694  0.354227  1
  Tl  Tl11  1  0.500000  0.575306  0.645773  1
  Tl  Tl12  1  0.500000  0.076754  0.852203  1
  Tl  Tl13  1  0.500000  0.923246  0.147797  1
  Tl  Tl14  1  0.500000  0.296508  0.063953  1
  Tl  Tl15  1  0.500000  0.703492  0.936047  1
  In  In16  1  0.500000  0.201377  0.564684  1
  In  In17  1  0.500000  0.798623  0.435316  1
  Pt  Pt18  1  0.500000  0.023012  0.305457  1
  Pt  Pt19  1  0.500000  0.976988  0.694543  1
  Pt  Pt20  1  0.500000  0.473689  0.802453  1
  Pt  Pt21  1  0.500000  0.526311  0.197547  1
