# generated using pymatgen
data_Y2Lu2ReB12Ir
_symmetry_space_group_name_H-M   'P 1'
_cell_length_a   3.63785300
_cell_length_b   9.09371723
_cell_length_c   11.49844158
_cell_angle_alpha   90.25619588
_cell_angle_beta   90.00000000
_cell_angle_gamma   90.00000000
_symmetry_Int_Tables_number   1
_chemical_formula_structural   Y2Lu2ReB12Ir
_chemical_formula_sum   'Y4 Lu4 Re2 B24 Ir2'
_cell_volume   380.38311708
_cell_formula_units_Z   2
loop_
 _symmetry_equiv_pos_site_id
 _symmetry_equiv_pos_as_xyz
  1  'x, y, z'
loop_
 _atom_site_type_symbol
 _atom_site_label
 _atom_site_symmetry_multiplicity
 _atom_site_fract_x
 _atom_site_fract_y
 _atom_site_fract_z
 _atom_site_occupancy
  Y  Y0  1  0.000000  0.316683  0.410452  1
  Y  Y1  1  0.000000  0.683317  0.589548  1
  Y  Y2  1  0.000000  0.825401  0.082638  1
  Y  Y3  1  0.000000  0.174599  0.917362  1
  Lu  Lu4  1  0.000000  0.946701  0.372423  1
  Lu  Lu5  1  0.000000  0.053299  0.627577  1
  Lu  Lu6  1  0.000000  0.441609  0.125825  1
  Lu  Lu7  1  0.000000  0.558391  0.874175  1
  Re  Re8  1  0.000000  0.138836  0.180915  1
  Re  Re9  1  0.000000  0.861164  0.819085  1
  B  B10  1  0.500000  0.554773  0.433649  1
  B  B11  1  0.500000  0.445227  0.566351  1
  B  B12  1  0.500000  0.053751  0.067578  1
  B  B13  1  0.500000  0.946249  0.932422  1
  B  B14  1  0.500000  0.751208  0.420589  1
  B  B15  1  0.500000  0.248792  0.579411  1
  B  B16  1  0.500000  0.249751  0.081156  1
  B  B17  1  0.500000  0.750249  0.918844  1
  B  B18  1  0.500000  0.791926  0.265833  1
  B  B19  1  0.500000  0.208074  0.734167  1
  B  B20  1  0.500000  0.293173  0.234530  1
  B  B21  1  0.500000  0.706827  0.765470  1
  B  B22  1  0.500000  0.630587  0.183175  1
  B  B23  1  0.500000  0.369413  0.816825  1
  B  B24  1  0.500000  0.130750  0.315630  1
  B  B25  1  0.500000  0.869250  0.684370  1
  B  B26  1  0.500000  0.982272  0.213977  1
  B  B27  1  0.500000  0.017728  0.786023  1
  B  B28  1  0.500000  0.482202  0.286563  1
  B  B29  1  0.500000  0.517798  0.713437  1
  B  B30  1  0.500000  0.602844  0.028759  1
  B  B31  1  0.500000  0.397156  0.971241  1
  B  B32  1  0.500000  0.103774  0.472144  1
  B  B33  1  0.500000  0.896226  0.527856  1
  Ir  Ir34  1  0.000000  0.637798  0.320790  1
  Ir  Ir35  1  0.000000  0.362202  0.679210  1
