# generated using pymatgen
data_Dy5Tm11(InRh)4
_symmetry_space_group_name_H-M   'P 1'
_cell_length_a   9.58035817
_cell_length_b   9.57674198
_cell_length_c   9.57674206
_cell_angle_alpha   60.02979175
_cell_angle_beta   59.98018347
_cell_angle_gamma   59.98018634
_symmetry_Int_Tables_number   1
_chemical_formula_structural   Dy5Tm11(InRh)4
_chemical_formula_sum   'Dy5 Tm11 In4 Rh4'
_cell_volume   621.25488176
_cell_formula_units_Z   1
loop_
 _symmetry_equiv_pos_site_id
 _symmetry_equiv_pos_as_xyz
  1  'x, y, z'
loop_
 _atom_site_type_symbol
 _atom_site_label
 _atom_site_symmetry_multiplicity
 _atom_site_fract_x
 _atom_site_fract_y
 _atom_site_fract_z
 _atom_site_occupancy
  Dy  Dy0  1  0.061730  0.062129  0.438061  1
  Dy  Dy1  1  0.438267  0.061701  0.438307  1
  Dy  Dy2  1  0.061730  0.438061  0.062129  1
  Dy  Dy3  1  0.049596  0.650061  0.650061  1
  Dy  Dy4  1  0.438267  0.438307  0.061701  1
  Tm  Tm5  1  0.650224  0.048931  0.650536  1
  Tm  Tm6  1  0.188795  0.811447  0.188288  1
  Tm  Tm7  1  0.188795  0.188288  0.811447  1
  Tm  Tm8  1  0.811160  0.811236  0.188801  1
  Tm  Tm9  1  0.439079  0.060892  0.060892  1
  Tm  Tm10  1  0.811325  0.188624  0.188624  1
  Tm  Tm11  1  0.060906  0.438874  0.438874  1
  Tm  Tm12  1  0.811160  0.188801  0.811236  1
  Tm  Tm13  1  0.188624  0.811617  0.811617  1
  Tm  Tm14  1  0.650224  0.650536  0.048931  1
  Tm  Tm15  1  0.650464  0.650302  0.650302  1
  In  In16  1  0.417046  0.417305  0.417305  1
  In  In17  1  0.748458  0.417563  0.417563  1
  In  In18  1  0.418008  0.748472  0.416277  1
  In  In19  1  0.418008  0.416277  0.748472  1
  Rh  Rh20  1  0.857178  0.857867  0.426424  1
  Rh  Rh21  1  0.856517  0.858502  0.858502  1
  Rh  Rh22  1  0.427262  0.857782  0.857782  1
  Rh  Rh23  1  0.857178  0.426424  0.857867  1
