# generated using pymatgen
data_Gd9Ho(SiAs)4
_symmetry_space_group_name_H-M   'P 1'
_cell_length_a   8.25140802
_cell_length_b   8.25140778
_cell_length_c   7.67766400
_cell_angle_alpha   90.00393017
_cell_angle_beta   90.00393017
_cell_angle_gamma   124.94797666
_symmetry_Int_Tables_number   1
_chemical_formula_structural   Gd9Ho(SiAs)4
_chemical_formula_sum   'Gd9 Ho1 Si4 As4'
_cell_volume   428.47508741
_cell_formula_units_Z   1
loop_
 _symmetry_equiv_pos_site_id
 _symmetry_equiv_pos_as_xyz
  1  'x, y, z'
loop_
 _atom_site_type_symbol
 _atom_site_label
 _atom_site_symmetry_multiplicity
 _atom_site_fract_x
 _atom_site_fract_y
 _atom_site_fract_z
 _atom_site_occupancy
  Gd  Gd0  1  0.035212  0.307924  0.331786  1
  Gd  Gd1  1  0.964788  0.692076  0.668214  1
  Gd  Gd2  1  0.464512  0.191752  0.832139  1
  Gd  Gd3  1  0.808248  0.535488  0.167861  1
  Gd  Gd4  1  0.535488  0.808248  0.167861  1
  Gd  Gd5  1  0.191752  0.464512  0.832139  1
  Gd  Gd6  1  0.692076  0.964788  0.668214  1
  Gd  Gd7  1  0.307924  0.035212  0.331786  1
  Gd  Gd8  1  0.500000  0.500000  0.500000  1
  Ho  Ho9  1  0.000000  0.000000  0.000000  1
  Si  Si10  1  0.378635  0.378635  0.121046  1
  Si  Si11  1  0.621365  0.621365  0.878954  1
  Si  Si12  1  0.120624  0.120624  0.621840  1
  Si  Si13  1  0.879376  0.879376  0.378160  1
  As  As14  1  0.798704  0.201296  0.000000  1
  As  As15  1  0.201296  0.798704  0.000000  1
  As  As16  1  0.702096  0.297904  0.500000  1
  As  As17  1  0.297904  0.702096  0.500000  1
