# generated using pymatgen
data_Zr4ReTc3Os4
_symmetry_space_group_name_H-M   'P 1'
_cell_length_a   5.25432134
_cell_length_b   5.14732241
_cell_length_c   8.72663800
_cell_angle_alpha   90.00000000
_cell_angle_beta   90.00000000
_cell_angle_gamma   119.03503035
_symmetry_Int_Tables_number   1
_chemical_formula_structural   Zr4ReTc3Os4
_chemical_formula_sum   'Zr4 Re1 Tc3 Os4'
_cell_volume   206.35591934
_cell_formula_units_Z   1
loop_
 _symmetry_equiv_pos_site_id
 _symmetry_equiv_pos_as_xyz
  1  'x, y, z'
loop_
 _atom_site_type_symbol
 _atom_site_label
 _atom_site_symmetry_multiplicity
 _atom_site_fract_x
 _atom_site_fract_y
 _atom_site_fract_z
 _atom_site_occupancy
  Zr  Zr0  1  0.331958  0.667060  0.434933  1
  Zr  Zr1  1  0.666789  0.333777  0.564701  1
  Zr  Zr2  1  0.666789  0.333777  0.935299  1
  Zr  Zr3  1  0.331958  0.667060  0.065067  1
  Re  Re4  1  0.831084  0.169498  0.250000  1
  Tc  Tc5  1  0.829503  0.653870  0.250000  1
  Tc  Tc6  1  0.172341  0.825867  0.750000  1
  Tc  Tc7  1  0.171582  0.344443  0.750000  1
  Os  Os8  1  0.997268  0.003095  0.500570  1
  Os  Os9  1  0.997268  0.003095  0.999430  1
  Os  Os10  1  0.347221  0.170722  0.250000  1
  Os  Os11  1  0.656239  0.827735  0.750000  1
