# generated using pymatgen
data_Zr13Mn3(Ir2N)4
_symmetry_space_group_name_H-M   'P 1'
_cell_length_a   8.65027260
_cell_length_b   8.61215423
_cell_length_c   8.65027200
_cell_angle_alpha   59.85347935
_cell_angle_beta   60.00000231
_cell_angle_gamma   59.85347635
_symmetry_Int_Tables_number   1
_chemical_formula_structural   Zr13Mn3(Ir2N)4
_chemical_formula_sum   'Zr13 Mn3 Ir8 N4'
_cell_volume   454.66443482
_cell_formula_units_Z   1
loop_
 _symmetry_equiv_pos_site_id
 _symmetry_equiv_pos_as_xyz
  1  'x, y, z'
loop_
 _atom_site_type_symbol
 _atom_site_label
 _atom_site_symmetry_multiplicity
 _atom_site_fract_x
 _atom_site_fract_y
 _atom_site_fract_z
 _atom_site_occupancy
  Zr  Zr0  1  0.625000  0.125000  0.625000  1
  Zr  Zr1  1  0.808145  0.808236  0.191810  1
  Zr  Zr2  1  0.184223  0.192588  0.811595  1
  Zr  Zr3  1  0.811595  0.192588  0.811595  1
  Zr  Zr4  1  0.191810  0.808236  0.191810  1
  Zr  Zr5  1  0.191810  0.808236  0.808145  1
  Zr  Zr6  1  0.811595  0.192588  0.184223  1
  Zr  Zr7  1  0.441855  0.441764  0.058190  1
  Zr  Zr8  1  0.065777  0.057412  0.438405  1
  Zr  Zr9  1  0.438405  0.057412  0.438405  1
  Zr  Zr10  1  0.058190  0.441764  0.058190  1
  Zr  Zr11  1  0.058190  0.441764  0.441855  1
  Zr  Zr12  1  0.438405  0.057412  0.065777  1
  Mn  Mn13  1  0.125000  0.625000  0.625000  1
  Mn  Mn14  1  0.625000  0.625000  0.125000  1
  Mn  Mn15  1  0.625000  0.625000  0.625000  1
  Ir  Ir16  1  0.751184  0.426381  0.411218  1
  Ir  Ir17  1  0.417315  0.748056  0.417315  1
  Ir  Ir18  1  0.411218  0.426381  0.751184  1
  Ir  Ir19  1  0.411218  0.426381  0.411218  1
  Ir  Ir20  1  0.498816  0.823619  0.838782  1
  Ir  Ir21  1  0.832685  0.501944  0.832685  1
  Ir  Ir22  1  0.838782  0.823619  0.498816  1
  Ir  Ir23  1  0.838782  0.823619  0.838782  1
  N  N24  1  0.625000  0.125000  0.125000  1
  N  N25  1  0.125000  0.625000  0.125000  1
  N  N26  1  0.125000  0.125000  0.625000  1
  N  N27  1  0.125000  0.125000  0.125000  1
