# generated using pymatgen
data_Te8OsI2
_symmetry_space_group_name_H-M   'P 1'
_cell_length_a   9.46225227
_cell_length_b   9.46225338
_cell_length_c   10.87638433
_cell_angle_alpha   78.02532371
_cell_angle_beta   78.02533225
_cell_angle_gamma   117.05033482
_symmetry_Int_Tables_number   1
_chemical_formula_structural   Te8OsI2
_chemical_formula_sum   'Te16 Os2 I4'
_cell_volume   795.86585312
_cell_formula_units_Z   2
loop_
 _symmetry_equiv_pos_site_id
 _symmetry_equiv_pos_as_xyz
  1  'x, y, z'
loop_
 _atom_site_type_symbol
 _atom_site_label
 _atom_site_symmetry_multiplicity
 _atom_site_fract_x
 _atom_site_fract_y
 _atom_site_fract_z
 _atom_site_occupancy
  Te  Te0  1  0.800997  0.077490  0.145920  1
  Te  Te1  1  0.922510  0.199003  0.354080  1
  Te  Te2  1  0.199003  0.922510  0.854080  1
  Te  Te3  1  0.077490  0.800997  0.645920  1
  Te  Te4  1  0.980835  0.776644  0.207782  1
  Te  Te5  1  0.223356  0.019165  0.292218  1
  Te  Te6  1  0.019165  0.223356  0.792218  1
  Te  Te7  1  0.776644  0.980835  0.707782  1
  Te  Te8  1  0.760931  0.728561  0.469900  1
  Te  Te9  1  0.271439  0.239069  0.030100  1
  Te  Te10  1  0.239069  0.271439  0.530100  1
  Te  Te11  1  0.728561  0.760931  0.969900  1
  Te  Te12  1  0.542080  0.798534  0.365837  1
  Te  Te13  1  0.201466  0.457920  0.134163  1
  Te  Te14  1  0.457920  0.201466  0.634163  1
  Te  Te15  1  0.798534  0.542080  0.865837  1
  Os  Os16  1  0.000000  0.000000  0.000000  1
  Os  Os17  1  0.000000  0.000000  0.500000  1
  I  I18  1  0.595040  0.404960  0.250000  1
  I  I19  1  0.404960  0.595040  0.750000  1
  I  I20  1  0.000000  0.500000  0.500000  1
  I  I21  1  0.500000  0.000000  0.000000  1
