# generated using pymatgen
data_ScTa4(Re7Tc)3
_symmetry_space_group_name_H-M   'P 1'
_cell_length_a   8.41334579
_cell_length_b   8.41612192
_cell_length_c   8.41088492
_cell_angle_alpha   109.51592955
_cell_angle_beta   109.43610295
_cell_angle_gamma   109.46319237
_symmetry_Int_Tables_number   1
_chemical_formula_structural   ScTa4(Re7Tc)3
_chemical_formula_sum   'Sc1 Ta4 Re21 Tc3'
_cell_volume   458.45004165
_cell_formula_units_Z   1
loop_
 _symmetry_equiv_pos_site_id
 _symmetry_equiv_pos_as_xyz
  1  'x, y, z'
loop_
 _atom_site_type_symbol
 _atom_site_label
 _atom_site_symmetry_multiplicity
 _atom_site_fract_x
 _atom_site_fract_y
 _atom_site_fract_z
 _atom_site_occupancy
  Sc  Sc0  1  0.000005  0.999920  0.000086  1
  Ta  Ta1  1  0.368643  0.368945  0.369431  1
  Ta  Ta2  1  0.999999  0.630684  0.999048  1
  Ta  Ta3  1  0.631355  0.000301  0.000791  1
  Ta  Ta4  1  0.000006  0.000284  0.631648  1
  Re  Re5  1  0.317974  0.717620  0.318442  1
  Re  Re6  1  0.681627  0.001107  0.399665  1
  Re  Re7  1  0.999992  0.682515  0.400091  1
  Re  Re8  1  0.600141  0.600162  0.281594  1
  Re  Re9  1  0.805771  0.805956  0.181737  1
  Re  Re10  1  0.375841  0.194177  0.000176  1
  Re  Re11  1  0.194277  0.375559  0.999859  1
  Re  Re12  1  0.624164  0.818335  0.624330  1
  Re  Re13  1  0.375555  0.000047  0.194081  1
  Re  Re14  1  0.000006  0.376066  0.194951  1
  Re  Re15  1  0.818102  0.623072  0.622685  1
  Re  Re16  1  0.181906  0.804983  0.804596  1
  Re  Re17  1  0.805720  0.181282  0.805583  1
  Re  Re18  1  0.194224  0.000184  0.375966  1
  Re  Re19  1  0.999996  0.194467  0.377534  1
  Re  Re20  1  0.624444  0.624501  0.818526  1
  Re  Re21  1  0.399852  0.000028  0.681443  1
  Re  Re22  1  0.601206  0.282114  0.600165  1
  Re  Re23  1  0.682023  0.399651  0.000481  1
  Re  Re24  1  0.398796  0.680895  0.998949  1
  Re  Re25  1  0.318364  0.319468  0.718034  1
  Tc  Tc26  1  0.999994  0.400361  0.683264  1
  Tc  Tc27  1  0.282727  0.600019  0.599785  1
  Tc  Tc28  1  0.717293  0.317302  0.317063  1
