# generated using pymatgen
data_TbHoPa2Ge6Ir7
_symmetry_space_group_name_H-M   'P 1'
_cell_length_a   7.29160211
_cell_length_b   7.29887985
_cell_length_c   7.32539760
_cell_angle_alpha   109.42751309
_cell_angle_beta   109.38730002
_cell_angle_gamma   109.43194657
_symmetry_Int_Tables_number   1
_chemical_formula_structural   TbHoPa2Ge6Ir7
_chemical_formula_sum   'Tb1 Ho1 Pa2 Ge6 Ir7'
_cell_volume   300.73208969
_cell_formula_units_Z   1
loop_
 _symmetry_equiv_pos_site_id
 _symmetry_equiv_pos_as_xyz
  1  'x, y, z'
loop_
 _atom_site_type_symbol
 _atom_site_label
 _atom_site_symmetry_multiplicity
 _atom_site_fract_x
 _atom_site_fract_y
 _atom_site_fract_z
 _atom_site_occupancy
  Tb  Tb0  1  0.500000  0.000000  0.000000  1
  Ho  Ho1  1  0.000000  0.500000  0.000000  1
  Pa  Pa2  1  0.000000  0.000000  0.500000  1
  Pa  Pa3  1  0.500000  0.500000  0.500000  1
  Ge  Ge4  1  0.683542  0.683350  0.000000  1
  Ge  Ge5  1  0.317178  0.994881  0.312319  1
  Ge  Ge6  1  0.995141  0.317438  0.312319  1
  Ge  Ge7  1  0.316458  0.316650  0.000000  1
  Ge  Ge8  1  0.682822  0.005119  0.687681  1
  Ge  Ge9  1  0.004859  0.682562  0.687681  1
  Ir  Ir10  1  0.750528  0.250528  0.501057  1
  Ir  Ir11  1  0.750285  0.505451  0.254649  1
  Ir  Ir12  1  0.495636  0.250802  0.745351  1
  Ir  Ir13  1  0.249715  0.494549  0.745351  1
  Ir  Ir14  1  0.249472  0.749472  0.498943  1
  Ir  Ir15  1  0.504364  0.749198  0.254649  1
  Ir  Ir16  1  0.000000  0.000000  0.000000  1
