# generated using pymatgen
data_Tb6Mn2Fe11Co5P12
_symmetry_space_group_name_H-M   'P 1'
_cell_length_a   3.72521900
_cell_length_b   10.53745792
_cell_length_c   12.18799003
_cell_angle_alpha   89.93517720
_cell_angle_beta   90.00000000
_cell_angle_gamma   90.00000000
_symmetry_Int_Tables_number   1
_chemical_formula_structural   Tb6Mn2Fe11Co5P12
_chemical_formula_sum   'Tb6 Mn2 Fe11 Co5 P12'
_cell_volume   478.43117945
_cell_formula_units_Z   1
loop_
 _symmetry_equiv_pos_site_id
 _symmetry_equiv_pos_as_xyz
  1  'x, y, z'
loop_
 _atom_site_type_symbol
 _atom_site_label
 _atom_site_symmetry_multiplicity
 _atom_site_fract_x
 _atom_site_fract_y
 _atom_site_fract_z
 _atom_site_occupancy
  Tb  Tb0  1  0.000000  0.499474  0.523826  1
  Tb  Tb1  1  0.500000  0.000889  0.475469  1
  Tb  Tb2  1  0.500000  0.820968  0.207911  1
  Tb  Tb3  1  0.500000  0.179858  0.205661  1
  Tb  Tb4  1  0.000000  0.678899  0.792281  1
  Tb  Tb5  1  0.000000  0.320349  0.794685  1
  Mn  Mn6  1  0.500000  0.501252  0.152959  1
  Mn  Mn7  1  0.000000  0.999161  0.848528  1
  Fe  Fe8  1  0.000000  0.502721  0.988950  1
  Fe  Fe9  1  0.500000  0.997174  0.011384  1
  Fe  Fe10  1  0.500000  0.331745  0.997479  1
  Fe  Fe11  1  0.500000  0.673759  0.997160  1
  Fe  Fe12  1  0.000000  0.169096  0.003475  1
  Fe  Fe13  1  0.000000  0.826825  0.002714  1
  Fe  Fe14  1  0.500000  0.298096  0.429280  1
  Fe  Fe15  1  0.500000  0.701092  0.429080  1
  Fe  Fe16  1  0.000000  0.201265  0.570669  1
  Fe  Fe17  1  0.000000  0.798186  0.569516  1
  Fe  Fe18  1  0.500000  0.882685  0.707639  1
  Co  Co19  1  0.500000  0.499657  0.700337  1
  Co  Co20  1  0.000000  0.999788  0.299646  1
  Co  Co21  1  0.500000  0.119039  0.711804  1
  Co  Co22  1  0.000000  0.618124  0.290767  1
  Co  Co23  1  0.000000  0.380889  0.288707  1
  P  P24  1  0.500000  0.500610  0.885936  1
  P  P25  1  0.000000  0.999715  0.114049  1
  P  P26  1  0.500000  0.499041  0.343834  1
  P  P27  1  0.000000  0.998541  0.656433  1
  P  P28  1  0.500000  0.305864  0.614125  1
  P  P29  1  0.500000  0.694239  0.613629  1
  P  P30  1  0.000000  0.193953  0.386131  1
  P  P31  1  0.000000  0.805927  0.386676  1
  P  P32  1  0.500000  0.848697  0.888201  1
  P  P33  1  0.500000  0.153647  0.895417  1
  P  P34  1  0.000000  0.651658  0.110272  1
  P  P35  1  0.000000  0.347114  0.105371  1
