# generated using pymatgen
data_Tm9ScSi2(NiBi)2
_symmetry_space_group_name_H-M   'P 1'
_cell_length_a   8.35826729
_cell_length_b   8.35826729
_cell_length_c   8.62737906
_cell_angle_alpha   125.22948331
_cell_angle_beta   125.73107946
_cell_angle_gamma   78.56770190
_symmetry_Int_Tables_number   1
_chemical_formula_structural   Tm9ScSi2(NiBi)2
_chemical_formula_sum   'Tm9 Sc1 Si2 Ni2 Bi2'
_cell_volume   390.81805427
_cell_formula_units_Z   1
loop_
 _symmetry_equiv_pos_site_id
 _symmetry_equiv_pos_as_xyz
  1  'x, y, z'
loop_
 _atom_site_type_symbol
 _atom_site_label
 _atom_site_symmetry_multiplicity
 _atom_site_fract_x
 _atom_site_fract_y
 _atom_site_fract_z
 _atom_site_occupancy
  Tm  Tm0  1  0.000000  0.000000  0.000000  1
  Tm  Tm1  1  0.775896  0.280912  0.790236  1
  Tm  Tm2  1  0.224104  0.719088  0.209764  1
  Tm  Tm3  1  0.490676  0.985660  0.209764  1
  Tm  Tm4  1  0.297550  0.467161  0.502524  1
  Tm  Tm5  1  0.035363  0.204974  0.502524  1
  Tm  Tm6  1  0.509324  0.014340  0.790236  1
  Tm  Tm7  1  0.702450  0.532839  0.497476  1
  Tm  Tm8  1  0.964637  0.795026  0.497476  1
  Sc  Sc9  1  0.500000  0.500000  0.000000  1
  Si  Si10  1  0.154812  0.647774  0.802587  1
  Si  Si11  1  0.845188  0.352226  0.197413  1
  Ni  Ni12  1  0.634855  0.866843  0.501699  1
  Ni  Ni13  1  0.365145  0.133157  0.498301  1
  Bi  Bi14  1  0.251751  0.251751  0.000000  1
  Bi  Bi15  1  0.748249  0.748249  0.000000  1
