# generated using pymatgen
data_Tb16In4OsRu3
_symmetry_space_group_name_H-M   'P 1'
_cell_length_a   9.64620338
_cell_length_b   9.69253608
_cell_length_c   9.64620300
_cell_angle_alpha   60.15800156
_cell_angle_beta   59.99999788
_cell_angle_gamma   60.15800226
_symmetry_Int_Tables_number   1
_chemical_formula_structural   Tb16In4OsRu3
_chemical_formula_sum   'Tb16 In4 Os1 Ru3'
_cell_volume   639.24640852
_cell_formula_units_Z   1
loop_
 _symmetry_equiv_pos_site_id
 _symmetry_equiv_pos_as_xyz
  1  'x, y, z'
loop_
 _atom_site_type_symbol
 _atom_site_label
 _atom_site_symmetry_multiplicity
 _atom_site_fract_x
 _atom_site_fract_y
 _atom_site_fract_z
 _atom_site_occupancy
  Tb  Tb0  1  0.098774  0.703678  0.098774  1
  Tb  Tb1  1  0.940232  0.942528  0.558620  1
  Tb  Tb2  1  0.941060  0.559077  0.941060  1
  Tb  Tb3  1  0.310261  0.690013  0.310261  1
  Tb  Tb4  1  0.941060  0.559077  0.558804  1
  Tb  Tb5  1  0.308642  0.310050  0.690654  1
  Tb  Tb6  1  0.098444  0.098211  0.098444  1
  Tb  Tb7  1  0.558804  0.559077  0.941060  1
  Tb  Tb8  1  0.098444  0.098211  0.704900  1
  Tb  Tb9  1  0.690654  0.310050  0.690654  1
  Tb  Tb10  1  0.689465  0.690013  0.310261  1
  Tb  Tb11  1  0.690654  0.310050  0.308642  1
  Tb  Tb12  1  0.310261  0.690013  0.689465  1
  Tb  Tb13  1  0.558620  0.942528  0.558620  1
  Tb  Tb14  1  0.704900  0.098211  0.098444  1
  Tb  Tb15  1  0.558620  0.942528  0.940232  1
  In  In16  1  0.331683  0.331936  0.331683  1
  In  In17  1  0.004696  0.331936  0.331683  1
  In  In18  1  0.331694  0.004919  0.331694  1
  In  In19  1  0.331683  0.331936  0.004696  1
  Os  Os20  1  0.889952  0.330143  0.889952  1
  Ru  Ru21  1  0.889705  0.888604  0.889705  1
  Ru  Ru22  1  0.889705  0.888604  0.331985  1
  Ru  Ru23  1  0.331985  0.888604  0.889705  1
