# generated using pymatgen
data_Mn27RuW
_symmetry_space_group_name_H-M   'P 1'
_cell_length_a   7.50723711
_cell_length_b   7.51679295
_cell_length_c   7.51679400
_cell_angle_alpha   109.49695924
_cell_angle_beta   109.44546939
_cell_angle_gamma   109.44547478
_symmetry_Int_Tables_number   1
_chemical_formula_structural   Mn27RuW
_chemical_formula_sum   'Mn27 Ru1 W1'
_cell_volume   326.63398823
_cell_formula_units_Z   1
loop_
 _symmetry_equiv_pos_site_id
 _symmetry_equiv_pos_as_xyz
  1  'x, y, z'
loop_
 _atom_site_type_symbol
 _atom_site_label
 _atom_site_symmetry_multiplicity
 _atom_site_fract_x
 _atom_site_fract_y
 _atom_site_fract_z
 _atom_site_occupancy
  Mn  Mn0  1  0.001712  0.637292  0.000000  1
  Mn  Mn1  1  0.001712  0.000000  0.637292  1
  Mn  Mn2  1  0.364420  0.362708  0.362708  1
  Mn  Mn3  1  0.387043  0.674486  0.000000  1
  Mn  Mn4  1  0.712557  0.325514  0.325514  1
  Mn  Mn5  1  0.387043  0.000000  0.674486  1
  Mn  Mn6  1  0.682303  0.395508  0.000000  1
  Mn  Mn7  1  0.999461  0.393859  0.681132  1
  Mn  Mn8  1  0.318329  0.712727  0.318868  1
  Mn  Mn9  1  0.318329  0.318868  0.712727  1
  Mn  Mn10  1  0.999461  0.681132  0.393859  1
  Mn  Mn11  1  0.682303  0.000000  0.395508  1
  Mn  Mn12  1  0.605602  0.606141  0.287273  1
  Mn  Mn13  1  0.286796  0.604492  0.604492  1
  Mn  Mn14  1  0.605602  0.287273  0.606141  1
  Mn  Mn15  1  0.372447  0.193721  0.000000  1
  Mn  Mn16  1  0.178727  0.806279  0.806279  1
  Mn  Mn17  1  0.372447  0.000000  0.193721  1
  Mn  Mn18  1  0.191366  0.369936  0.000000  1
  Mn  Mn19  1  0.005629  0.378088  0.197316  1
  Mn  Mn20  1  0.808313  0.180773  0.802684  1
  Mn  Mn21  1  0.808313  0.802684  0.180773  1
  Mn  Mn22  1  0.005629  0.197316  0.378088  1
  Mn  Mn23  1  0.191366  0.000000  0.369936  1
  Mn  Mn24  1  0.627541  0.621912  0.819227  1
  Mn  Mn25  1  0.821429  0.630064  0.630064  1
  Mn  Mn26  1  0.627541  0.819227  0.621912  1
  Ru  Ru27  1  0.002999  0.000000  0.000000  1
  W  W28  1  0.633581  0.000000  0.000000  1
