# generated using pymatgen
data_Sr2Ge3Pd
_symmetry_space_group_name_H-M   'P 1'
_cell_length_a   8.70671600
_cell_length_b   8.70671616
_cell_length_c   9.10093600
_cell_angle_alpha   90.00000000
_cell_angle_beta   90.00000000
_cell_angle_gamma   119.99999180
_symmetry_Int_Tables_number   1
_chemical_formula_structural   Sr2Ge3Pd
_chemical_formula_sum   'Sr8 Ge12 Pd4'
_cell_volume   597.48291769
_cell_formula_units_Z   4
loop_
 _symmetry_equiv_pos_site_id
 _symmetry_equiv_pos_as_xyz
  1  'x, y, z'
loop_
 _atom_site_type_symbol
 _atom_site_label
 _atom_site_symmetry_multiplicity
 _atom_site_fract_x
 _atom_site_fract_y
 _atom_site_fract_z
 _atom_site_occupancy
  Sr  Sr0  1  0.499952  0.500048  0.750000  1
  Sr  Sr1  1  0.500048  0.499952  0.250000  1
  Sr  Sr2  1  0.000096  0.500048  0.750000  1
  Sr  Sr3  1  0.999904  0.499952  0.250000  1
  Sr  Sr4  1  0.499952  0.999904  0.750000  1
  Sr  Sr5  1  0.500048  0.000096  0.250000  1
  Sr  Sr6  1  0.000000  0.000000  0.750000  1
  Sr  Sr7  1  0.000000  0.000000  0.250000  1
  Ge  Ge8  1  0.833353  0.166647  0.000792  1
  Ge  Ge9  1  0.166647  0.833353  0.999208  1
  Ge  Ge10  1  0.333294  0.166647  0.000792  1
  Ge  Ge11  1  0.166647  0.833353  0.500792  1
  Ge  Ge12  1  0.666706  0.833353  0.999208  1
  Ge  Ge13  1  0.833353  0.166647  0.499208  1
  Ge  Ge14  1  0.833353  0.666706  0.000792  1
  Ge  Ge15  1  0.666706  0.833353  0.500792  1
  Ge  Ge16  1  0.166647  0.333294  0.999208  1
  Ge  Ge17  1  0.333294  0.166647  0.499208  1
  Ge  Ge18  1  0.166647  0.333294  0.500792  1
  Ge  Ge19  1  0.833353  0.666706  0.499208  1
  Pd  Pd20  1  0.666667  0.333333  0.998831  1
  Pd  Pd21  1  0.333333  0.666667  0.001169  1
  Pd  Pd22  1  0.333333  0.666667  0.498831  1
  Pd  Pd23  1  0.666667  0.333333  0.501169  1
