# generated using pymatgen
data_Pr6MgCo2(P4Rh5)3
_symmetry_space_group_name_H-M   'P 1'
_cell_length_a   3.94450700
_cell_length_b   11.28877900
_cell_length_c   13.02466100
_cell_angle_alpha   90.00000000
_cell_angle_beta   90.00000000
_cell_angle_gamma   90.00000000
_symmetry_Int_Tables_number   1
_chemical_formula_structural   Pr6MgCo2(P4Rh5)3
_chemical_formula_sum   'Pr6 Mg1 Co2 P12 Rh15'
_cell_volume   579.97080271
_cell_formula_units_Z   1
loop_
 _symmetry_equiv_pos_site_id
 _symmetry_equiv_pos_as_xyz
  1  'x, y, z'
loop_
 _atom_site_type_symbol
 _atom_site_label
 _atom_site_symmetry_multiplicity
 _atom_site_fract_x
 _atom_site_fract_y
 _atom_site_fract_z
 _atom_site_occupancy
  Pr  Pr0  1  0.000000  0.500000  0.519624  1
  Pr  Pr1  1  0.500000  0.000000  0.478289  1
  Pr  Pr2  1  0.500000  0.818995  0.202939  1
  Pr  Pr3  1  0.500000  0.181005  0.202939  1
  Pr  Pr4  1  0.000000  0.682311  0.799121  1
  Pr  Pr5  1  0.000000  0.317689  0.799121  1
  Mg  Mg6  1  0.500000  0.500000  0.154769  1
  Co  Co7  1  0.000000  0.500000  0.987815  1
  Co  Co8  1  0.500000  0.000000  0.017396  1
  P  P9  1  0.500000  0.500000  0.886636  1
  P  P10  1  0.000000  0.000000  0.114456  1
  P  P11  1  0.500000  0.500000  0.349068  1
  P  P12  1  0.000000  0.000000  0.652034  1
  P  P13  1  0.500000  0.312340  0.618156  1
  P  P14  1  0.500000  0.687660  0.618156  1
  P  P15  1  0.000000  0.189563  0.383628  1
  P  P16  1  0.000000  0.810437  0.383628  1
  P  P17  1  0.500000  0.858034  0.894770  1
  P  P18  1  0.500000  0.141966  0.894770  1
  P  P19  1  0.000000  0.654998  0.100872  1
  P  P20  1  0.000000  0.345002  0.100872  1
  Rh  Rh21  1  0.000000  0.000000  0.829857  1
  Rh  Rh22  1  0.500000  0.500000  0.705432  1
  Rh  Rh23  1  0.000000  0.000000  0.295847  1
  Rh  Rh24  1  0.500000  0.333773  0.996270  1
  Rh  Rh25  1  0.500000  0.666227  0.996270  1
  Rh  Rh26  1  0.000000  0.160949  0.002072  1
  Rh  Rh27  1  0.000000  0.839051  0.002072  1
  Rh  Rh28  1  0.500000  0.289573  0.433169  1
  Rh  Rh29  1  0.500000  0.710427  0.433169  1
  Rh  Rh30  1  0.000000  0.204921  0.572572  1
  Rh  Rh31  1  0.000000  0.795079  0.572572  1
  Rh  Rh32  1  0.500000  0.876382  0.711643  1
  Rh  Rh33  1  0.500000  0.123618  0.711643  1
  Rh  Rh34  1  0.000000  0.624576  0.289176  1
  Rh  Rh35  1  0.000000  0.375424  0.289176  1
