# generated using pymatgen
data_CeRe4GeP
_symmetry_space_group_name_H-M   'P 1'
_cell_length_a   7.37594118
_cell_length_b   7.37594288
_cell_length_c   4.05884700
_cell_angle_alpha   90.00000000
_cell_angle_beta   90.00000000
_cell_angle_gamma   147.53620388
_symmetry_Int_Tables_number   1
_chemical_formula_structural   CeRe4GeP
_chemical_formula_sum   'Ce1 Re4 Ge1 P1'
_cell_volume   118.52859597
_cell_formula_units_Z   1
loop_
 _symmetry_equiv_pos_site_id
 _symmetry_equiv_pos_as_xyz
  1  'x, y, z'
loop_
 _atom_site_type_symbol
 _atom_site_label
 _atom_site_symmetry_multiplicity
 _atom_site_fract_x
 _atom_site_fract_y
 _atom_site_fract_z
 _atom_site_occupancy
  Ce  Ce0  1  0.002384  0.997616  0.000000  1
  Re  Re1  1  0.182398  0.817602  0.500000  1
  Re  Re2  1  0.302746  0.697254  0.000000  1
  Re  Re3  1  0.812706  0.187294  0.500000  1
  Re  Re4  1  0.690491  0.309509  0.000000  1
  Ge  Ge5  1  0.417486  0.582514  0.500000  1
  P  P6  1  0.591790  0.408210  0.500000  1
