# generated using pymatgen
data_LaPr2Sn5Pd6
_symmetry_space_group_name_H-M   'P 1'
_cell_length_a   4.53520100
_cell_length_b   9.75505300
_cell_length_c   14.16459400
_cell_angle_alpha   90.00000000
_cell_angle_beta   90.00000000
_cell_angle_gamma   90.00000000
_symmetry_Int_Tables_number   1
_chemical_formula_structural   LaPr2Sn5Pd6
_chemical_formula_sum   'La2 Pr4 Sn10 Pd12'
_cell_volume   626.65758960
_cell_formula_units_Z   2
loop_
 _symmetry_equiv_pos_site_id
 _symmetry_equiv_pos_as_xyz
  1  'x, y, z'
loop_
 _atom_site_type_symbol
 _atom_site_label
 _atom_site_symmetry_multiplicity
 _atom_site_fract_x
 _atom_site_fract_y
 _atom_site_fract_z
 _atom_site_occupancy
  La  La0  1  0.000000  0.229820  0.000000  1
  La  La1  1  0.500000  0.770180  0.500000  1
  Pr  Pr2  1  0.000000  0.245312  0.323018  1
  Pr  Pr3  1  0.500000  0.754688  0.176982  1
  Pr  Pr4  1  0.000000  0.245312  0.676982  1
  Pr  Pr5  1  0.500000  0.754688  0.823018  1
  Sn  Sn6  1  0.000000  0.523808  0.118502  1
  Sn  Sn7  1  0.500000  0.476192  0.381498  1
  Sn  Sn8  1  0.000000  0.523808  0.881498  1
  Sn  Sn9  1  0.500000  0.476192  0.618502  1
  Sn  Sn10  1  0.000000  0.871593  0.326785  1
  Sn  Sn11  1  0.500000  0.128407  0.173215  1
  Sn  Sn12  1  0.000000  0.871593  0.673215  1
  Sn  Sn13  1  0.500000  0.128407  0.826785  1
  Sn  Sn14  1  0.000000  0.806467  0.000000  1
  Sn  Sn15  1  0.500000  0.193533  0.500000  1
  Pd  Pd16  1  0.000000  0.990840  0.144733  1
  Pd  Pd17  1  0.500000  0.009160  0.355267  1
  Pd  Pd18  1  0.000000  0.990840  0.855267  1
  Pd  Pd19  1  0.500000  0.009160  0.644733  1
  Pd  Pd20  1  0.500000  0.984385  0.000000  1
  Pd  Pd21  1  0.000000  0.015615  0.500000  1
  Pd  Pd22  1  0.000000  0.594611  0.307552  1
  Pd  Pd23  1  0.500000  0.405389  0.192448  1
  Pd  Pd24  1  0.000000  0.594611  0.692448  1
  Pd  Pd25  1  0.500000  0.405389  0.807552  1
  Pd  Pd26  1  0.500000  0.498410  0.000000  1
  Pd  Pd27  1  0.000000  0.501590  0.500000  1
