# generated using pymatgen
data_Dy5Y14HoSn16
_symmetry_space_group_name_H-M   'P 1'
_cell_length_a   8.05833741
_cell_length_b   8.19067626
_cell_length_c   15.49600339
_cell_angle_alpha   89.99769695
_cell_angle_beta   90.00589413
_cell_angle_gamma   89.95980056
_symmetry_Int_Tables_number   1
_chemical_formula_structural   Dy5Y14HoSn16
_chemical_formula_sum   'Dy5 Y14 Ho1 Sn16'
_cell_volume   1022.78606275
_cell_formula_units_Z   1
loop_
 _symmetry_equiv_pos_site_id
 _symmetry_equiv_pos_as_xyz
  1  'x, y, z'
loop_
 _atom_site_type_symbol
 _atom_site_label
 _atom_site_symmetry_multiplicity
 _atom_site_fract_x
 _atom_site_fract_y
 _atom_site_fract_z
 _atom_site_occupancy
  Dy  Dy0  1  0.367222  0.837020  0.877582  1
  Dy  Dy1  1  0.867318  0.662617  0.622588  1
  Dy  Dy2  1  0.632992  0.162993  0.377450  1
  Dy  Dy3  1  0.132982  0.337559  0.121970  1
  Dy  Dy4  1  0.632230  0.162535  0.122498  1
  Y  Y5  1  0.132975  0.337352  0.377667  1
  Y  Y6  1  0.367023  0.837101  0.622462  1
  Y  Y7  1  0.867296  0.662452  0.878004  1
  Y  Y8  1  0.520700  0.321304  0.902918  1
  Y  Y9  1  0.020883  0.178631  0.597288  1
  Y  Y10  1  0.479168  0.678509  0.402754  1
  Y  Y11  1  0.978978  0.821565  0.097281  1
  Y  Y12  1  0.479612  0.678838  0.097034  1
  Y  Y13  1  0.979742  0.821108  0.402865  1
  Y  Y14  1  0.520246  0.321112  0.597205  1
  Y  Y15  1  0.020727  0.179137  0.902881  1
  Y  Y16  1  0.698939  0.997284  0.750155  1
  Y  Y17  1  0.801037  0.497308  0.249896  1
  Y  Y18  1  0.301043  0.002911  0.249792  1
  Ho  Ho19  1  0.198902  0.503130  0.750040  1
  Sn  Sn20  1  0.293661  0.037326  0.041319  1
  Sn  Sn21  1  0.793142  0.462633  0.458610  1
  Sn  Sn22  1  0.706830  0.962384  0.541297  1
  Sn  Sn23  1  0.206980  0.537442  0.958267  1
  Sn  Sn24  1  0.706071  0.963223  0.958738  1
  Sn  Sn25  1  0.205983  0.536823  0.541982  1
  Sn  Sn26  1  0.294244  0.036933  0.458241  1
  Sn  Sn27  1  0.793256  0.461588  0.041687  1
  Sn  Sn28  1  0.564562  0.618428  0.750365  1
  Sn  Sn29  1  0.065259  0.880960  0.750163  1
  Sn  Sn30  1  0.435070  0.381181  0.249702  1
  Sn  Sn31  1  0.934722  0.119278  0.249308  1
  Sn  Sn32  1  0.329987  0.148411  0.750313  1
  Sn  Sn33  1  0.830910  0.352715  0.749847  1
  Sn  Sn34  1  0.669607  0.852664  0.250079  1
  Sn  Sn35  1  0.169701  0.647546  0.249753  1
