# generated using pymatgen
data_Co4GeAs3
_symmetry_space_group_name_H-M   'P 1'
_cell_length_a   3.47895700
_cell_length_b   5.26058953
_cell_length_c   5.85505428
_cell_angle_alpha   89.81847346
_cell_angle_beta   90.00000000
_cell_angle_gamma   90.00000000
_symmetry_Int_Tables_number   1
_chemical_formula_structural   Co4GeAs3
_chemical_formula_sum   'Co4 Ge1 As3'
_cell_volume   107.15494631
_cell_formula_units_Z   1
loop_
 _symmetry_equiv_pos_site_id
 _symmetry_equiv_pos_as_xyz
  1  'x, y, z'
loop_
 _atom_site_type_symbol
 _atom_site_label
 _atom_site_symmetry_multiplicity
 _atom_site_fract_x
 _atom_site_fract_y
 _atom_site_fract_z
 _atom_site_occupancy
  Co  Co0  1  0.750000  0.497126  0.297119  1
  Co  Co1  1  0.750000  0.000493  0.196259  1
  Co  Co2  1  0.250000  0.498743  0.699992  1
  Co  Co3  1  0.250000  0.004978  0.803537  1
  Ge  Ge4  1  0.750000  0.801651  0.588959  1
  As  As5  1  0.250000  0.701375  0.088460  1
  As  As6  1  0.250000  0.194083  0.415735  1
  As  As7  1  0.750000  0.301549  0.909938  1
