# generated using pymatgen
data_Hf4Zr2Sn6Ir5Au
_symmetry_space_group_name_H-M   'P 1'
_cell_length_a   7.35104691
_cell_length_b   7.34727212
_cell_length_c   7.55263556
_cell_angle_alpha   89.95864083
_cell_angle_beta   90.00694352
_cell_angle_gamma   119.85985392
_symmetry_Int_Tables_number   1
_chemical_formula_structural   Hf4Zr2Sn6Ir5Au
_chemical_formula_sum   'Hf4 Zr2 Sn6 Ir5 Au1'
_cell_volume   353.76587148
_cell_formula_units_Z   1
loop_
 _symmetry_equiv_pos_site_id
 _symmetry_equiv_pos_as_xyz
  1  'x, y, z'
loop_
 _atom_site_type_symbol
 _atom_site_label
 _atom_site_symmetry_multiplicity
 _atom_site_fract_x
 _atom_site_fract_y
 _atom_site_fract_z
 _atom_site_occupancy
  Hf  Hf0  1  0.398481  0.011299  0.241733  1
  Hf  Hf1  1  0.587217  0.622844  0.756860  1
  Hf  Hf2  1  0.613652  0.601578  0.241056  1
  Hf  Hf3  1  0.988793  0.387019  0.241749  1
  Zr  Zr4  1  0.035435  0.412765  0.755509  1
  Zr  Zr5  1  0.377598  0.963773  0.755366  1
  Sn  Sn6  1  0.264618  0.266275  0.495507  1
  Sn  Sn7  1  0.268729  0.264612  0.996783  1
  Sn  Sn8  1  0.734454  0.005325  0.997770  1
  Sn  Sn9  1  0.002581  0.734269  0.494593  1
  Sn  Sn10  1  0.732623  0.999009  0.494743  1
  Sn  Sn11  1  0.996508  0.730185  0.997765  1
  Ir  Ir12  1  0.666242  0.335816  0.976786  1
  Ir  Ir13  1  0.335011  0.666689  0.046004  1
  Ir  Ir14  1  0.335483  0.666474  0.461888  1
  Ir  Ir15  1  0.996675  0.996519  0.746539  1
  Ir  Ir16  1  0.999805  0.999773  0.245412  1
  Au  Au17  1  0.666096  0.335774  0.553938  1
