# generated using pymatgen
data_Cs2Ba(SiSe3)2
_symmetry_space_group_name_H-M   'P 1'
_cell_length_a   9.39785272
_cell_length_b   9.39785262
_cell_length_c   10.10568430
_cell_angle_alpha   89.85670589
_cell_angle_beta   89.85669918
_cell_angle_gamma   113.23160013
_symmetry_Int_Tables_number   1
_chemical_formula_structural   Cs2Ba(SiSe3)2
_chemical_formula_sum   'Cs4 Ba2 Si4 Se12'
_cell_volume   820.15366754
_cell_formula_units_Z   2
loop_
 _symmetry_equiv_pos_site_id
 _symmetry_equiv_pos_as_xyz
  1  'x, y, z'
loop_
 _atom_site_type_symbol
 _atom_site_label
 _atom_site_symmetry_multiplicity
 _atom_site_fract_x
 _atom_site_fract_y
 _atom_site_fract_z
 _atom_site_occupancy
  Cs  Cs0  1  0.260548  0.535117  0.521969  1
  Cs  Cs1  1  0.739452  0.464883  0.478031  1
  Cs  Cs2  1  0.464883  0.739452  0.978031  1
  Cs  Cs3  1  0.535117  0.260548  0.021969  1
  Ba  Ba4  1  0.983511  0.016489  0.250000  1
  Ba  Ba5  1  0.016489  0.983511  0.750000  1
  Si  Si6  1  0.980282  0.651062  0.051577  1
  Si  Si7  1  0.019718  0.348938  0.948423  1
  Si  Si8  1  0.348938  0.019718  0.448423  1
  Si  Si9  1  0.651062  0.980282  0.551577  1
  Se  Se10  1  0.654147  0.769323  0.655013  1
  Se  Se11  1  0.916672  0.515684  0.849466  1
  Se  Se12  1  0.230677  0.345853  0.844987  1
  Se  Se13  1  0.515684  0.916672  0.349466  1
  Se  Se14  1  0.345853  0.230677  0.344987  1
  Se  Se15  1  0.891300  0.166312  0.523681  1
  Se  Se16  1  0.833688  0.108700  0.976319  1
  Se  Se17  1  0.166312  0.891300  0.023681  1
  Se  Se18  1  0.083328  0.484316  0.150534  1
  Se  Se19  1  0.484316  0.083328  0.650534  1
  Se  Se20  1  0.108700  0.833688  0.476319  1
  Se  Se21  1  0.769323  0.654147  0.155013  1
