# generated using pymatgen
data_RbAcSiS4
_symmetry_space_group_name_H-M   'P 1'
_cell_length_a   6.80651487
_cell_length_b   6.83218200
_cell_length_c   18.52789498
_cell_angle_alpha   89.99989670
_cell_angle_beta   106.99319160
_cell_angle_gamma   89.99990046
_symmetry_Int_Tables_number   1
_chemical_formula_structural   RbAcSiS4
_chemical_formula_sum   'Rb4 Ac4 Si4 S16'
_cell_volume   823.99086101
_cell_formula_units_Z   4
loop_
 _symmetry_equiv_pos_site_id
 _symmetry_equiv_pos_as_xyz
  1  'x, y, z'
loop_
 _atom_site_type_symbol
 _atom_site_label
 _atom_site_symmetry_multiplicity
 _atom_site_fract_x
 _atom_site_fract_y
 _atom_site_fract_z
 _atom_site_occupancy
  Rb  Rb0  1  0.274492  0.752452  0.034112  1
  Rb  Rb1  1  0.725506  0.252440  0.465888  1
  Rb  Rb2  1  0.274501  0.747558  0.534114  1
  Rb  Rb3  1  0.725498  0.247551  0.965887  1
  Ac  Ac4  1  0.764537  0.233332  0.224734  1
  Ac  Ac5  1  0.235464  0.733328  0.275266  1
  Ac  Ac6  1  0.764535  0.266670  0.724734  1
  Ac  Ac7  1  0.235465  0.766674  0.775266  1
  Si  Si8  1  0.209279  0.260954  0.158980  1
  Si  Si9  1  0.790719  0.760956  0.341019  1
  Si  Si10  1  0.209280  0.239048  0.658980  1
  Si  Si11  1  0.790722  0.739042  0.841020  1
  S  S12  1  0.400368  0.260751  0.087033  1
  S  S13  1  0.991459  0.495231  0.137507  1
  S  S14  1  0.024337  0.001735  0.143877  1
  S  S15  1  0.616223  0.789367  0.223856  1
  S  S16  1  0.383770  0.289362  0.276144  1
  S  S17  1  0.975656  0.501736  0.356122  1
  S  S18  1  0.008545  0.995228  0.362492  1
  S  S19  1  0.599632  0.760755  0.412966  1
  S  S20  1  0.400366  0.239241  0.587032  1
  S  S21  1  0.991459  0.004772  0.637509  1
  S  S22  1  0.024340  0.498268  0.643877  1
  S  S23  1  0.616231  0.710637  0.723857  1
  S  S24  1  0.383777  0.210639  0.776143  1
  S  S25  1  0.975660  0.998263  0.856124  1
  S  S26  1  0.008545  0.504769  0.862493  1
  S  S27  1  0.599632  0.739248  0.912966  1
