# generated using pymatgen
data_Pr3Nd2Si2Sn
_symmetry_space_group_name_H-M   'P 1'
_cell_length_a   7.95346000
_cell_length_b   9.21409698
_cell_length_c   7.95376113
_cell_angle_alpha   115.51615896
_cell_angle_beta   90.00000000
_cell_angle_gamma   115.56863122
_symmetry_Int_Tables_number   1
_chemical_formula_structural   Pr3Nd2Si2Sn
_chemical_formula_sum   'Pr6 Nd4 Si4 Sn2'
_cell_volume   461.97641082
_cell_formula_units_Z   2
loop_
 _symmetry_equiv_pos_site_id
 _symmetry_equiv_pos_as_xyz
  1  'x, y, z'
loop_
 _atom_site_type_symbol
 _atom_site_label
 _atom_site_symmetry_multiplicity
 _atom_site_fract_x
 _atom_site_fract_y
 _atom_site_fract_z
 _atom_site_occupancy
  Pr  Pr0  1  0.185232  0.720587  0.035728  1
  Pr  Pr1  1  0.035357  0.720587  0.535728  1
  Pr  Pr2  1  0.464869  0.279597  0.314351  1
  Pr  Pr3  1  0.814559  0.279225  0.964321  1
  Pr  Pr4  1  0.314726  0.279597  0.814351  1
  Pr  Pr5  1  0.964664  0.279225  0.464321  1
  Nd  Nd6  1  0.999626  0.999607  0.999875  1
  Nd  Nd7  1  0.499981  0.999607  0.499875  1
  Nd  Nd8  1  0.535954  0.722027  0.686377  1
  Nd  Nd9  1  0.686075  0.722027  0.186377  1
  Si  Si10  1  0.881627  0.998388  0.615796  1
  Si  Si11  1  0.115771  0.999387  0.382685  1
  Si  Si12  1  0.616761  0.998388  0.115796  1
  Si  Si13  1  0.383616  0.999387  0.882685  1
  Sn  Sn14  1  0.749042  0.501182  0.750866  1
  Sn  Sn15  1  0.252140  0.501182  0.250866  1
