# generated using pymatgen
data_Tb4Ta(ReN4)3
_symmetry_space_group_name_H-M   'P 1'
_cell_length_a   7.41055981
_cell_length_b   7.47124217
_cell_length_c   6.34131625
_cell_angle_alpha   72.54766270
_cell_angle_beta   73.32270585
_cell_angle_gamma   81.77737623
_symmetry_Int_Tables_number   1
_chemical_formula_structural   Tb4Ta(ReN4)3
_chemical_formula_sum   'Tb4 Ta1 Re3 N12'
_cell_volume   320.21975427
_cell_formula_units_Z   1
loop_
 _symmetry_equiv_pos_site_id
 _symmetry_equiv_pos_as_xyz
  1  'x, y, z'
loop_
 _atom_site_type_symbol
 _atom_site_label
 _atom_site_symmetry_multiplicity
 _atom_site_fract_x
 _atom_site_fract_y
 _atom_site_fract_z
 _atom_site_occupancy
  Tb  Tb0  1  0.907997  0.092635  0.751036  1
  Tb  Tb1  1  0.098735  0.907595  0.247025  1
  Tb  Tb2  1  0.703484  0.276126  0.253793  1
  Tb  Tb3  1  0.287560  0.710368  0.751211  1
  Ta  Ta4  1  0.625002  0.795341  0.279870  1
  Re  Re5  1  0.200282  0.378122  0.219070  1
  Re  Re6  1  0.376575  0.206113  0.720543  1
  Re  Re7  1  0.796253  0.619313  0.784694  1
  N  N8  1  0.664258  0.619298  0.079179  1
  N  N9  1  0.371611  0.876818  0.352322  1
  N  N10  1  0.355566  0.331740  0.422540  1
  N  N11  1  0.128168  0.626455  0.157418  1
  N  N12  1  0.003032  0.224628  0.333728  1
  N  N13  1  0.790705  0.001298  0.147000  1
  N  N14  1  0.226838  0.005342  0.837593  1
  N  N15  1  0.628604  0.139175  0.655692  1
  N  N16  1  0.331145  0.360343  0.921268  1
  N  N17  1  0.886478  0.382659  0.824567  1
  N  N18  1  0.630351  0.663805  0.599059  1
  N  N19  1  0.987356  0.782824  0.662391  1
