# generated using pymatgen
data_Er5Cr3(Ni4P3)4
_symmetry_space_group_name_H-M   'P 1'
_cell_length_a   12.09944200
_cell_length_b   12.09944101
_cell_length_c   3.70785600
_cell_angle_alpha   90.00000000
_cell_angle_beta   90.00000000
_cell_angle_gamma   120.00000271
_symmetry_Int_Tables_number   1
_chemical_formula_structural   Er5Cr3(Ni4P3)4
_chemical_formula_sum   'Er5 Cr3 Ni16 P12'
_cell_volume   470.09337177
_cell_formula_units_Z   1
loop_
 _symmetry_equiv_pos_site_id
 _symmetry_equiv_pos_as_xyz
  1  'x, y, z'
loop_
 _atom_site_type_symbol
 _atom_site_label
 _atom_site_symmetry_multiplicity
 _atom_site_fract_x
 _atom_site_fract_y
 _atom_site_fract_z
 _atom_site_occupancy
  Er  Er0  1  0.666667  0.333333  0.000000  1
  Er  Er1  1  0.333333  0.666667  0.000000  1
  Er  Er2  1  0.813491  0.813491  0.500000  1
  Er  Er3  1  0.186509  0.000000  0.500000  1
  Er  Er4  1  0.000000  0.186509  0.500000  1
  Cr  Cr5  1  0.444347  0.444347  0.000000  1
  Cr  Cr6  1  0.555653  0.000000  0.000000  1
  Cr  Cr7  1  0.000000  0.555653  0.000000  1
  Ni  Ni8  1  0.874526  0.358335  0.500000  1
  Ni  Ni9  1  0.641665  0.516190  0.500000  1
  Ni  Ni10  1  0.483810  0.125474  0.500000  1
  Ni  Ni11  1  0.358335  0.874526  0.500000  1
  Ni  Ni12  1  0.516190  0.641665  0.500000  1
  Ni  Ni13  1  0.125474  0.483810  0.500000  1
  Ni  Ni14  1  0.804432  0.182717  0.000000  1
  Ni  Ni15  1  0.817283  0.621714  0.000000  1
  Ni  Ni16  1  0.378286  0.195568  0.000000  1
  Ni  Ni17  1  0.182717  0.804432  0.000000  1
  Ni  Ni18  1  0.621714  0.817283  0.000000  1
  Ni  Ni19  1  0.195568  0.378286  0.000000  1
  Ni  Ni20  1  0.281130  0.281130  0.500000  1
  Ni  Ni21  1  0.718870  0.000000  0.500000  1
  Ni  Ni22  1  0.000000  0.718870  0.500000  1
  Ni  Ni23  1  0.000000  0.000000  0.000000  1
  P  P24  1  0.683947  0.163073  0.500000  1
  P  P25  1  0.836927  0.520874  0.500000  1
  P  P26  1  0.479126  0.316053  0.500000  1
  P  P27  1  0.163073  0.683947  0.500000  1
  P  P28  1  0.520874  0.836927  0.500000  1
  P  P29  1  0.316053  0.479126  0.500000  1
  P  P30  1  0.178317  0.178317  0.000000  1
  P  P31  1  0.821683  0.000000  0.000000  1
  P  P32  1  0.000000  0.821683  0.000000  1
  P  P33  1  0.635229  0.635229  0.000000  1
  P  P34  1  0.364771  0.000000  0.000000  1
  P  P35  1  0.000000  0.364771  0.000000  1
