# generated using pymatgen
data_Th3AlNi3Pd2
_symmetry_space_group_name_H-M   'P 1'
_cell_length_a   6.98187400
_cell_length_b   7.21664395
_cell_length_c   3.88378000
_cell_angle_alpha   90.00000000
_cell_angle_beta   90.00000000
_cell_angle_gamma   118.92956948
_symmetry_Int_Tables_number   1
_chemical_formula_structural   Th3AlNi3Pd2
_chemical_formula_sum   'Th3 Al1 Ni3 Pd2'
_cell_volume   171.26816975
_cell_formula_units_Z   1
loop_
 _symmetry_equiv_pos_site_id
 _symmetry_equiv_pos_as_xyz
  1  'x, y, z'
loop_
 _atom_site_type_symbol
 _atom_site_label
 _atom_site_symmetry_multiplicity
 _atom_site_fract_x
 _atom_site_fract_y
 _atom_site_fract_z
 _atom_site_occupancy
  Th  Th0  1  0.008166  0.405342  0.500000  1
  Th  Th1  1  0.602824  0.594658  0.500000  1
  Th  Th2  1  0.390946  0.000000  0.500000  1
  Al  Al3  1  0.760416  0.000000  0.000000  1
  Ni  Ni4  1  0.359049  0.683573  0.000000  1
  Ni  Ni5  1  0.675476  0.316427  0.000000  1
  Ni  Ni6  1  0.962122  0.000000  0.500000  1
  Pd  Pd7  1  0.000155  0.759308  0.000000  1
  Pd  Pd8  1  0.240846  0.240692  0.000000  1
