# generated using pymatgen
data_Tm12Co4PtPb
_symmetry_space_group_name_H-M   'P 1'
_cell_length_a   8.20636701
_cell_length_b   8.20636729
_cell_length_c   8.20636752
_cell_angle_alpha   111.10624564
_cell_angle_beta   110.80922177
_cell_angle_gamma   106.53758527
_symmetry_Int_Tables_number   1
_chemical_formula_structural   Tm12Co4PtPb
_chemical_formula_sum   'Tm12 Co4 Pt1 Pb1'
_cell_volume   424.59866182
_cell_formula_units_Z   1
loop_
 _symmetry_equiv_pos_site_id
 _symmetry_equiv_pos_as_xyz
  1  'x, y, z'
loop_
 _atom_site_type_symbol
 _atom_site_label
 _atom_site_symmetry_multiplicity
 _atom_site_fract_x
 _atom_site_fract_y
 _atom_site_fract_z
 _atom_site_occupancy
  Tm  Tm0  1  0.417076  0.216834  0.200243  1
  Tm  Tm1  1  0.582924  0.783166  0.799757  1
  Tm  Tm2  1  0.016591  0.216834  0.799757  1
  Tm  Tm3  1  0.983409  0.783166  0.200243  1
  Tm  Tm4  1  0.184473  0.287387  0.471860  1
  Tm  Tm5  1  0.815527  0.712613  0.528140  1
  Tm  Tm6  1  0.184473  0.712613  0.897087  1
  Tm  Tm7  1  0.815527  0.287387  0.102913  1
  Tm  Tm8  1  0.313822  0.620427  0.306605  1
  Tm  Tm9  1  0.686178  0.379573  0.693395  1
  Tm  Tm10  1  0.313822  0.007216  0.693395  1
  Tm  Tm11  1  0.686178  0.992784  0.306605  1
  Co  Co12  1  0.376189  0.000000  0.376189  1
  Co  Co13  1  0.623811  0.000000  0.623811  1
  Co  Co14  1  0.111887  0.611887  0.500000  1
  Co  Co15  1  0.888113  0.388113  0.500000  1
  Pt  Pt16  1  0.000000  0.000000  0.000000  1
  Pb  Pb17  1  0.500000  0.500000  0.000000  1
