# generated using pymatgen
data_Sm(FeB)4
_symmetry_space_group_name_H-M   'P 1'
_cell_length_a   7.01211633
_cell_length_b   7.01462440
_cell_length_c   3.81034904
_cell_angle_alpha   90.01659302
_cell_angle_beta   90.00518593
_cell_angle_gamma   89.96512400
_symmetry_Int_Tables_number   1
_chemical_formula_structural   Sm(FeB)4
_chemical_formula_sum   'Sm2 Fe8 B8'
_cell_volume   187.42097559
_cell_formula_units_Z   2
loop_
 _symmetry_equiv_pos_site_id
 _symmetry_equiv_pos_as_xyz
  1  'x, y, z'
loop_
 _atom_site_type_symbol
 _atom_site_label
 _atom_site_symmetry_multiplicity
 _atom_site_fract_x
 _atom_site_fract_y
 _atom_site_fract_z
 _atom_site_occupancy
  Sm  Sm0  1  0.999894  0.999862  0.999741  1
  Sm  Sm1  1  0.500145  0.500149  0.500164  1
  Fe  Fe2  1  0.387053  0.132176  0.892438  1
  Fe  Fe3  1  0.612965  0.867556  0.892424  1
  Fe  Fe4  1  0.367826  0.887011  0.392444  1
  Fe  Fe5  1  0.632230  0.112792  0.392499  1
  Fe  Fe6  1  0.112960  0.367886  0.607523  1
  Fe  Fe7  1  0.886987  0.632439  0.607570  1
  Fe  Fe8  1  0.132123  0.613042  0.107603  1
  Fe  Fe9  1  0.867789  0.387147  0.107537  1
  B  B10  1  0.798744  0.665952  0.105625  1
  B  B11  1  0.201323  0.334101  0.105629  1
  B  B12  1  0.834166  0.298667  0.605688  1
  B  B13  1  0.165793  0.701180  0.605750  1
  B  B14  1  0.701241  0.834061  0.394432  1
  B  B15  1  0.298684  0.165832  0.394392  1
  B  B16  1  0.665843  0.201339  0.894286  1
  B  B17  1  0.334233  0.798807  0.894254  1
