# generated using pymatgen
data_Dy4Ga18Co5Pt
_symmetry_space_group_name_H-M   'P 1'
_cell_length_a   7.42323573
_cell_length_b   7.42323683
_cell_length_c   9.41834700
_cell_angle_alpha   90.11816374
_cell_angle_beta   90.11816374
_cell_angle_gamma   119.67676125
_symmetry_Int_Tables_number   1
_chemical_formula_structural   Dy4Ga18Co5Pt
_chemical_formula_sum   'Dy4 Ga18 Co5 Pt1'
_cell_volume   450.91388019
_cell_formula_units_Z   1
loop_
 _symmetry_equiv_pos_site_id
 _symmetry_equiv_pos_as_xyz
  1  'x, y, z'
loop_
 _atom_site_type_symbol
 _atom_site_label
 _atom_site_symmetry_multiplicity
 _atom_site_fract_x
 _atom_site_fract_y
 _atom_site_fract_z
 _atom_site_occupancy
  Dy  Dy0  1  0.327115  0.003090  0.251190  1
  Dy  Dy1  1  0.996910  0.672885  0.748810  1
  Dy  Dy2  1  0.672885  0.996910  0.748810  1
  Dy  Dy3  1  0.003090  0.327115  0.251190  1
  Ga  Ga4  1  0.344828  0.999343  0.923318  1
  Ga  Ga5  1  0.000657  0.655172  0.076682  1
  Ga  Ga6  1  0.335687  0.997772  0.571726  1
  Ga  Ga7  1  0.002228  0.664313  0.428274  1
  Ga  Ga8  1  0.655172  0.000657  0.076682  1
  Ga  Ga9  1  0.999343  0.344828  0.923318  1
  Ga  Ga10  1  0.664313  0.002228  0.428274  1
  Ga  Ga11  1  0.997772  0.335687  0.571726  1
  Ga  Ga12  1  0.656178  0.656178  0.936291  1
  Ga  Ga13  1  0.343822  0.343822  0.063709  1
  Ga  Ga14  1  0.666744  0.666744  0.557568  1
  Ga  Ga15  1  0.333256  0.333256  0.442432  1
  Ga  Ga16  1  0.131128  0.131128  0.740826  1
  Ga  Ga17  1  0.868872  0.868872  0.259174  1
  Ga  Ga18  1  0.446730  0.664602  0.251875  1
  Ga  Ga19  1  0.335398  0.553270  0.748125  1
  Ga  Ga20  1  0.553270  0.335398  0.748125  1
  Ga  Ga21  1  0.664602  0.446730  0.251875  1
  Co  Co22  1  0.000000  0.000000  0.500000  1
  Co  Co23  1  0.329745  0.670255  0.000000  1
  Co  Co24  1  0.329300  0.670700  0.500000  1
  Co  Co25  1  0.670255  0.329745  0.000000  1
  Co  Co26  1  0.670700  0.329300  0.500000  1
  Pt  Pt27  1  0.000000  0.000000  0.000000  1
