# generated using pymatgen
data_Cs4CePr3(SiSe4)4
_symmetry_space_group_name_H-M   'P 1'
_cell_length_a   6.83889173
_cell_length_b   7.18791164
_cell_length_c   18.85318681
_cell_angle_alpha   90.10669014
_cell_angle_beta   90.03043883
_cell_angle_gamma   90.04348648
_symmetry_Int_Tables_number   1
_chemical_formula_structural   Cs4CePr3(SiSe4)4
_chemical_formula_sum   'Cs4 Ce1 Pr3 Si4 Se16'
_cell_volume   926.77068867
_cell_formula_units_Z   1
loop_
 _symmetry_equiv_pos_site_id
 _symmetry_equiv_pos_as_xyz
  1  'x, y, z'
loop_
 _atom_site_type_symbol
 _atom_site_label
 _atom_site_symmetry_multiplicity
 _atom_site_fract_x
 _atom_site_fract_y
 _atom_site_fract_z
 _atom_site_occupancy
  Cs  Cs0  1  0.502283  0.494307  0.966459  1
  Cs  Cs1  1  0.997574  0.505680  0.466327  1
  Cs  Cs2  1  0.497864  0.994441  0.533603  1
  Cs  Cs3  1  0.002229  0.005731  0.033520  1
  Ce  Ce4  1  0.208398  0.522927  0.726792  1
  Pr  Pr5  1  0.706318  0.979923  0.272477  1
  Pr  Pr6  1  0.293664  0.479790  0.227468  1
  Pr  Pr7  1  0.793953  0.020818  0.772727  1
  Si  Si8  1  0.287581  0.985789  0.835458  1
  Si  Si9  1  0.788008  0.514252  0.164753  1
  Si  Si10  1  0.211919  0.014266  0.335223  1
  Si  Si11  1  0.712108  0.485039  0.664912  1
  Se  Se12  1  0.551710  0.989248  0.908150  1
  Se  Se13  1  0.066389  0.751129  0.857241  1
  Se  Se14  1  0.382405  0.933478  0.720431  1
  Se  Se15  1  0.117942  0.065744  0.220428  1
  Se  Se16  1  0.051973  0.510741  0.091798  1
  Se  Se17  1  0.948097  0.010953  0.408258  1
  Se  Se18  1  0.393825  0.746885  0.349161  1
  Se  Se19  1  0.617149  0.433661  0.779610  1
  Se  Se20  1  0.606333  0.246366  0.150808  1
  Se  Se21  1  0.105828  0.253165  0.849488  1
  Se  Se22  1  0.893585  0.752830  0.650953  1
  Se  Se23  1  0.448440  0.489077  0.591834  1
  Se  Se24  1  0.932628  0.250595  0.642404  1
  Se  Se25  1  0.566843  0.748290  0.142575  1
  Se  Se26  1  0.433021  0.248760  0.357525  1
  Se  Se27  1  0.881935  0.566114  0.279616  1
