# generated using pymatgen
data_LiScPa2Ge6Rh7
_symmetry_space_group_name_H-M   'P 1'
_cell_length_a   7.22360132
_cell_length_b   7.18064612
_cell_length_c   7.16104187
_cell_angle_alpha   109.24691141
_cell_angle_beta   109.63216319
_cell_angle_gamma   109.60048013
_symmetry_Int_Tables_number   1
_chemical_formula_structural   LiScPa2Ge6Rh7
_chemical_formula_sum   'Li1 Sc1 Pa2 Ge6 Rh7'
_cell_volume   285.70208413
_cell_formula_units_Z   1
loop_
 _symmetry_equiv_pos_site_id
 _symmetry_equiv_pos_as_xyz
  1  'x, y, z'
loop_
 _atom_site_type_symbol
 _atom_site_label
 _atom_site_symmetry_multiplicity
 _atom_site_fract_x
 _atom_site_fract_y
 _atom_site_fract_z
 _atom_site_occupancy
  Li  Li0  1  0.500000  0.000000  0.000000  1
  Sc  Sc1  1  0.000000  0.000000  0.500000  1
  Pa  Pa2  1  0.500000  0.500000  0.500000  1
  Pa  Pa3  1  0.000000  0.500000  0.000000  1
  Ge  Ge4  1  0.318140  0.298433  0.990418  1
  Ge  Ge5  1  0.980293  0.298433  0.308015  1
  Ge  Ge6  1  0.019707  0.701567  0.691985  1
  Ge  Ge7  1  0.683390  0.000000  0.692683  1
  Ge  Ge8  1  0.316610  0.000000  0.307317  1
  Ge  Ge9  1  0.681860  0.701567  0.009582  1
  Rh  Rh10  1  0.749545  0.250414  0.502543  1
  Rh  Rh11  1  0.500868  0.250414  0.747870  1
  Rh  Rh12  1  0.499132  0.749586  0.252130  1
  Rh  Rh13  1  0.249077  0.498155  0.749077  1
  Rh  Rh14  1  0.750923  0.501845  0.250923  1
  Rh  Rh15  1  0.250455  0.749586  0.497457  1
  Rh  Rh16  1  0.000000  0.000000  0.000000  1
