# generated using pymatgen
data_Tb2Er10InNi5
_symmetry_space_group_name_H-M   'P 1'
_cell_length_a   8.24517301
_cell_length_b   8.24519356
_cell_length_c   8.23997200
_cell_angle_alpha   110.70749184
_cell_angle_beta   110.83334774
_cell_angle_gamma   106.93012360
_symmetry_Int_Tables_number   1
_chemical_formula_structural   Tb2Er10InNi5
_chemical_formula_sum   'Tb2 Er10 In1 Ni5'
_cell_volume   430.44112317
_cell_formula_units_Z   1
loop_
 _symmetry_equiv_pos_site_id
 _symmetry_equiv_pos_as_xyz
  1  'x, y, z'
loop_
 _atom_site_type_symbol
 _atom_site_label
 _atom_site_symmetry_multiplicity
 _atom_site_fract_x
 _atom_site_fract_y
 _atom_site_fract_z
 _atom_site_occupancy
  Tb  Tb0  1  0.817635  0.706394  0.524057  1
  Tb  Tb1  1  0.182365  0.293606  0.475943  1
  Er  Er2  1  0.184141  0.706131  0.890355  1
  Er  Er3  1  0.815859  0.293869  0.109645  1
  Er  Er4  1  0.679298  0.373318  0.694776  1
  Er  Er5  1  0.320702  0.626682  0.305224  1
  Er  Er6  1  0.678483  0.984661  0.305272  1
  Er  Er7  1  0.321517  0.015339  0.694728  1
  Er  Er8  1  0.596420  0.787463  0.811264  1
  Er  Er9  1  0.403580  0.212537  0.188736  1
  Er  Er10  1  0.976336  0.785260  0.188791  1
  Er  Er11  1  0.023664  0.214740  0.811209  1
  In  In12  1  0.500000  0.500000  0.000000  1
  Ni  Ni13  1  0.635041  0.001129  0.636440  1
  Ni  Ni14  1  0.364959  0.998871  0.363560  1
  Ni  Ni15  1  0.125133  0.625202  0.500010  1
  Ni  Ni16  1  0.874867  0.374798  0.499990  1
  Ni  Ni17  1  0.000000  0.000000  0.000000  1
