# generated using pymatgen
data_Er17Lu3(Ir3Rh)3
_symmetry_space_group_name_H-M   'P 1'
_cell_length_a   10.76802000
_cell_length_b   10.76723200
_cell_length_c   6.33348900
_cell_angle_alpha   90.00000000
_cell_angle_beta   90.00000000
_cell_angle_gamma   90.00000000
_symmetry_Int_Tables_number   1
_chemical_formula_structural   Er17Lu3(Ir3Rh)3
_chemical_formula_sum   'Er17 Lu3 Ir9 Rh3'
_cell_volume   734.31592190
_cell_formula_units_Z   1
loop_
 _symmetry_equiv_pos_site_id
 _symmetry_equiv_pos_as_xyz
  1  'x, y, z'
loop_
 _atom_site_type_symbol
 _atom_site_label
 _atom_site_symmetry_multiplicity
 _atom_site_fract_x
 _atom_site_fract_y
 _atom_site_fract_z
 _atom_site_occupancy
  Er  Er0  1  0.290550  0.088129  0.378454  1
  Er  Er1  1  0.290177  0.911682  0.878297  1
  Er  Er2  1  0.709823  0.088318  0.878297  1
  Er  Er3  1  0.709450  0.911871  0.378454  1
  Er  Er4  1  0.588222  0.789834  0.878273  1
  Er  Er5  1  0.587859  0.210149  0.378625  1
  Er  Er6  1  0.412141  0.789851  0.378625  1
  Er  Er7  1  0.411778  0.210166  0.878273  1
  Er  Er8  1  0.209402  0.412089  0.620175  1
  Er  Er9  1  0.209808  0.588251  0.122705  1
  Er  Er10  1  0.790192  0.411749  0.122705  1
  Er  Er11  1  0.790598  0.587911  0.620175  1
  Er  Er12  1  0.911692  0.709461  0.122679  1
  Er  Er13  1  0.911806  0.291263  0.620367  1
  Er  Er14  1  0.088194  0.708737  0.620367  1
  Er  Er15  1  0.088308  0.290539  0.122679  1
  Er  Er16  1  0.000000  0.000000  0.500557  1
  Lu  Lu17  1  0.000000  0.000000  0.000269  1
  Lu  Lu18  1  0.500000  0.500000  0.000240  1
  Lu  Lu19  1  0.500000  0.500000  0.500430  1
  Ir  Ir20  1  0.846236  0.152614  0.248743  1
  Ir  Ir21  1  0.846402  0.847001  0.751141  1
  Ir  Ir22  1  0.153598  0.152999  0.751141  1
  Ir  Ir23  1  0.153764  0.847386  0.248743  1
  Ir  Ir24  1  0.652229  0.347266  0.750015  1
  Ir  Ir25  1  0.651765  0.653038  0.249889  1
  Ir  Ir26  1  0.348235  0.346962  0.249889  1
  Ir  Ir27  1  0.347771  0.652734  0.750015  1
  Ir  Ir28  1  0.000000  0.500000  0.375833  1
  Rh  Rh29  1  0.500000  0.000000  0.123884  1
  Rh  Rh30  1  0.500000  0.000000  0.622656  1
  Rh  Rh31  1  0.000000  0.500000  0.877409  1
