# generated using pymatgen
data_Dy4Al18Os2Pt3Rh
_symmetry_space_group_name_H-M   'P 1'
_cell_length_a   7.57725096
_cell_length_b   7.57725235
_cell_length_c   9.46327904
_cell_angle_alpha   90.00544278
_cell_angle_beta   90.00544005
_cell_angle_gamma   119.16514641
_symmetry_Int_Tables_number   1
_chemical_formula_structural   Dy4Al18Os2Pt3Rh
_chemical_formula_sum   'Dy4 Al18 Os2 Pt3 Rh1'
_cell_volume   474.44741128
_cell_formula_units_Z   1
loop_
 _symmetry_equiv_pos_site_id
 _symmetry_equiv_pos_as_xyz
  1  'x, y, z'
loop_
 _atom_site_type_symbol
 _atom_site_label
 _atom_site_symmetry_multiplicity
 _atom_site_fract_x
 _atom_site_fract_y
 _atom_site_fract_z
 _atom_site_occupancy
  Dy  Dy0  1  0.994583  0.677408  0.750421  1
  Dy  Dy1  1  0.007797  0.324535  0.249913  1
  Dy  Dy2  1  0.675465  0.992203  0.750087  1
  Dy  Dy3  1  0.322592  0.005417  0.249579  1
  Al  Al4  1  0.129970  0.131125  0.750497  1
  Al  Al5  1  0.868875  0.870030  0.249503  1
  Al  Al6  1  0.999707  0.332619  0.577690  1
  Al  Al7  1  0.998770  0.667689  0.422038  1
  Al  Al8  1  0.996620  0.663805  0.076625  1
  Al  Al9  1  0.336195  0.003380  0.923375  1
  Al  Al10  1  0.995613  0.331979  0.923600  1
  Al  Al11  1  0.668021  0.004387  0.076400  1
  Al  Al12  1  0.667381  0.000293  0.422310  1
  Al  Al13  1  0.332311  0.001230  0.577962  1
  Al  Al14  1  0.331156  0.327871  0.047970  1
  Al  Al15  1  0.672129  0.668844  0.952030  1
  Al  Al16  1  0.671517  0.671527  0.551247  1
  Al  Al17  1  0.328473  0.328483  0.448753  1
  Al  Al18  1  0.344712  0.548864  0.750437  1
  Al  Al19  1  0.655254  0.446534  0.246539  1
  Al  Al20  1  0.553466  0.344746  0.753461  1
  Al  Al21  1  0.451136  0.655288  0.249563  1
  Os  Os22  1  0.999664  0.000336  0.500000  1
  Os  Os23  1  0.000041  0.999959  0.000000  1
  Pt  Pt24  1  0.671435  0.328565  0.500000  1
  Pt  Pt25  1  0.327778  0.672222  0.500000  1
  Pt  Pt26  1  0.327933  0.672067  0.000000  1
  Rh  Rh27  1  0.671405  0.328595  0.000000  1
