# generated using pymatgen
data_Ti(PdPt)4
_symmetry_space_group_name_H-M   'P 1'
_cell_length_a   6.24354408
_cell_length_b   6.24354425
_cell_length_c   6.24488130
_cell_angle_alpha   95.60799218
_cell_angle_beta   95.86594666
_cell_angle_gamma   143.13335740
_symmetry_Int_Tables_number   1
_chemical_formula_structural   Ti(PdPt)4
_chemical_formula_sum   'Ti1 Pd4 Pt4'
_cell_volume   138.56044796
_cell_formula_units_Z   1
loop_
 _symmetry_equiv_pos_site_id
 _symmetry_equiv_pos_as_xyz
  1  'x, y, z'
loop_
 _atom_site_type_symbol
 _atom_site_label
 _atom_site_symmetry_multiplicity
 _atom_site_fract_x
 _atom_site_fract_y
 _atom_site_fract_z
 _atom_site_occupancy
  Ti  Ti0  1  0.005496  0.002212  0.007708  1
  Pd  Pd1  1  0.335072  0.662770  0.997842  1
  Pd  Pd2  1  0.663113  0.335331  0.998444  1
  Pd  Pd3  1  0.336976  0.338151  0.675127  1
  Pd  Pd4  1  0.670118  0.999552  0.669671  1
  Pt  Pt5  1  0.998599  0.672664  0.671263  1
  Pt  Pt6  1  0.999924  0.327480  0.327404  1
  Pt  Pt7  1  0.329912  0.000330  0.330241  1
  Pt  Pt8  1  0.660790  0.661511  0.322301  1
