# generated using pymatgen
data_PrSmSi2Ag2Sn
_symmetry_space_group_name_H-M   'P 1'
_cell_length_a   9.83195814
_cell_length_b   9.83195661
_cell_length_c   7.08108200
_cell_angle_alpha   90.00000000
_cell_angle_beta   90.00000000
_cell_angle_gamma   153.16183736
_symmetry_Int_Tables_number   1
_chemical_formula_structural   PrSmSi2Ag2Sn
_chemical_formula_sum   'Pr2 Sm2 Si4 Ag4 Sn2'
_cell_volume   309.03692929
_cell_formula_units_Z   2
loop_
 _symmetry_equiv_pos_site_id
 _symmetry_equiv_pos_as_xyz
  1  'x, y, z'
loop_
 _atom_site_type_symbol
 _atom_site_label
 _atom_site_symmetry_multiplicity
 _atom_site_fract_x
 _atom_site_fract_y
 _atom_site_fract_z
 _atom_site_occupancy
  Pr  Pr0  1  0.548831  0.451169  0.250000  1
  Pr  Pr1  1  0.451169  0.548831  0.750000  1
  Sm  Sm2  1  0.352550  0.647450  0.250000  1
  Sm  Sm3  1  0.647450  0.352550  0.750000  1
  Si  Si4  1  0.945003  0.054997  0.080020  1
  Si  Si5  1  0.054997  0.945003  0.919980  1
  Si  Si6  1  0.054997  0.945003  0.580020  1
  Si  Si7  1  0.945003  0.054997  0.419980  1
  Ag  Ag8  1  0.822153  0.177847  0.550386  1
  Ag  Ag9  1  0.177847  0.822153  0.449614  1
  Ag  Ag10  1  0.177847  0.822153  0.050386  1
  Ag  Ag11  1  0.822153  0.177847  0.949614  1
  Sn  Sn12  1  0.722531  0.277469  0.250000  1
  Sn  Sn13  1  0.277469  0.722531  0.750000  1
