# generated using pymatgen
data_TbY3AlRh
_symmetry_space_group_name_H-M   'P 1'
_cell_length_a   9.56891111
_cell_length_b   9.56891426
_cell_length_c   9.56896607
_cell_angle_alpha   60.02890494
_cell_angle_beta   60.02875054
_cell_angle_gamma   60.02816155
_symmetry_Int_Tables_number   1
_chemical_formula_structural   TbY3AlRh
_chemical_formula_sum   'Tb4 Y12 Al4 Rh4'
_cell_volume   619.95008684
_cell_formula_units_Z   4
loop_
 _symmetry_equiv_pos_site_id
 _symmetry_equiv_pos_as_xyz
  1  'x, y, z'
loop_
 _atom_site_type_symbol
 _atom_site_label
 _atom_site_symmetry_multiplicity
 _atom_site_fract_x
 _atom_site_fract_y
 _atom_site_fract_z
 _atom_site_occupancy
  Tb  Tb0  1  0.600901  0.600909  0.600888  1
  Tb  Tb1  1  0.605543  0.605537  0.188199  1
  Tb  Tb2  1  0.605540  0.188191  0.605535  1
  Tb  Tb3  1  0.188188  0.605547  0.605533  1
  Y  Y4  1  0.056832  0.442314  0.442312  1
  Y  Y5  1  0.441572  0.058587  0.058587  1
  Y  Y6  1  0.442300  0.056848  0.442303  1
  Y  Y7  1  0.058595  0.441571  0.058594  1
  Y  Y8  1  0.442315  0.442308  0.056837  1
  Y  Y9  1  0.058593  0.058585  0.441574  1
  Y  Y10  1  0.187860  0.813185  0.813196  1
  Y  Y11  1  0.813295  0.188237  0.188250  1
  Y  Y12  1  0.813186  0.187856  0.813202  1
  Y  Y13  1  0.188235  0.813300  0.188237  1
  Y  Y14  1  0.813190  0.813197  0.187858  1
  Y  Y15  1  0.188234  0.188242  0.813308  1
  Al  Al16  1  0.828352  0.828351  0.828364  1
  Al  Al17  1  0.826592  0.826591  0.516414  1
  Al  Al18  1  0.826588  0.516415  0.826598  1
  Al  Al19  1  0.516416  0.826586  0.826599  1
  Rh  Rh20  1  0.394425  0.394418  0.394416  1
  Rh  Rh21  1  0.392252  0.392254  0.818716  1
  Rh  Rh22  1  0.392257  0.818736  0.392234  1
  Rh  Rh23  1  0.818741  0.392238  0.392244  1
