# generated using pymatgen
data_YLu4(In2Ir)2
_symmetry_space_group_name_H-M   'P 1'
_cell_length_a   3.54214500
_cell_length_b   7.98066200
_cell_length_c   18.13759700
_cell_angle_alpha   90.00000000
_cell_angle_beta   90.00000000
_cell_angle_gamma   90.00000000
_symmetry_Int_Tables_number   1
_chemical_formula_structural   YLu4(In2Ir)2
_chemical_formula_sum   'Y2 Lu8 In8 Ir4'
_cell_volume   512.72559909
_cell_formula_units_Z   2
loop_
 _symmetry_equiv_pos_site_id
 _symmetry_equiv_pos_as_xyz
  1  'x, y, z'
loop_
 _atom_site_type_symbol
 _atom_site_label
 _atom_site_symmetry_multiplicity
 _atom_site_fract_x
 _atom_site_fract_y
 _atom_site_fract_z
 _atom_site_occupancy
  Y  Y0  1  0.000000  0.500000  0.500000  1
  Y  Y1  1  0.000000  0.000000  0.000000  1
  Lu  Lu2  1  0.000000  0.741268  0.279250  1
  Lu  Lu3  1  0.000000  0.258732  0.720750  1
  Lu  Lu4  1  0.000000  0.758732  0.779250  1
  Lu  Lu5  1  0.000000  0.241268  0.220750  1
  Lu  Lu6  1  0.000000  0.615698  0.087090  1
  Lu  Lu7  1  0.000000  0.384302  0.912910  1
  Lu  Lu8  1  0.000000  0.884302  0.587090  1
  Lu  Lu9  1  0.000000  0.115698  0.412910  1
  In  In10  1  0.500000  0.705238  0.932822  1
  In  In11  1  0.500000  0.294762  0.067178  1
  In  In12  1  0.500000  0.794762  0.432822  1
  In  In13  1  0.500000  0.205238  0.567178  1
  In  In14  1  0.500000  0.578045  0.650104  1
  In  In15  1  0.500000  0.421955  0.349896  1
  In  In16  1  0.500000  0.921955  0.150104  1
  In  In17  1  0.500000  0.078045  0.849896  1
  Ir  Ir18  1  0.500000  0.522504  0.195887  1
  Ir  Ir19  1  0.500000  0.477496  0.804113  1
  Ir  Ir20  1  0.500000  0.977496  0.695887  1
  Ir  Ir21  1  0.500000  0.022504  0.304113  1
