# generated using pymatgen
data_La3Pr(Ho3Pt4)2
_symmetry_space_group_name_H-M   'P 1'
_cell_length_a   7.62464400
_cell_length_b   7.78494898
_cell_length_c   14.80950200
_cell_angle_alpha   89.74191252
_cell_angle_beta   90.00000000
_cell_angle_gamma   90.00000000
_symmetry_Int_Tables_number   1
_chemical_formula_structural   La3Pr(Ho3Pt4)2
_chemical_formula_sum   'La6 Pr2 Ho12 Pt16'
_cell_volume   879.04557148
_cell_formula_units_Z   2
loop_
 _symmetry_equiv_pos_site_id
 _symmetry_equiv_pos_as_xyz
  1  'x, y, z'
loop_
 _atom_site_type_symbol
 _atom_site_label
 _atom_site_symmetry_multiplicity
 _atom_site_fract_x
 _atom_site_fract_y
 _atom_site_fract_z
 _atom_site_occupancy
  La  La0  1  0.503564  0.675884  0.402598  1
  La  La1  1  0.003564  0.824116  0.097402  1
  La  La2  1  0.503470  0.675752  0.096767  1
  La  La3  1  0.003470  0.824248  0.403233  1
  La  La4  1  0.496936  0.322856  0.597561  1
  La  La5  1  0.996936  0.177144  0.902439  1
  Pr  Pr6  1  0.497360  0.324857  0.901662  1
  Pr  Pr7  1  0.997360  0.175143  0.598338  1
  Ho  Ho8  1  0.338480  0.832010  0.876808  1
  Ho  Ho9  1  0.838480  0.667990  0.623192  1
  Ho  Ho10  1  0.661179  0.166653  0.377430  1
  Ho  Ho11  1  0.161179  0.333347  0.122570  1
  Ho  Ho12  1  0.659958  0.168883  0.122053  1
  Ho  Ho13  1  0.159958  0.331117  0.377947  1
  Ho  Ho14  1  0.338854  0.831995  0.623051  1
  Ho  Ho15  1  0.838854  0.668005  0.876949  1
  Ho  Ho16  1  0.174486  0.494633  0.749898  1
  Ho  Ho17  1  0.674486  0.005367  0.750102  1
  Ho  Ho18  1  0.825354  0.504557  0.250143  1
  Ho  Ho19  1  0.325354  0.995443  0.249857  1
  Pt  Pt20  1  0.325360  0.037669  0.043584  1
  Pt  Pt21  1  0.825360  0.462331  0.456416  1
  Pt  Pt22  1  0.675321  0.965731  0.545353  1
  Pt  Pt23  1  0.175321  0.534269  0.954647  1
  Pt  Pt24  1  0.673349  0.966402  0.954259  1
  Pt  Pt25  1  0.173349  0.533598  0.545741  1
  Pt  Pt26  1  0.325211  0.036154  0.456756  1
  Pt  Pt27  1  0.825211  0.463846  0.043244  1
  Pt  Pt28  1  0.542793  0.628102  0.750545  1
  Pt  Pt29  1  0.042793  0.871898  0.749455  1
  Pt  Pt30  1  0.457709  0.370347  0.250226  1
  Pt  Pt31  1  0.957709  0.129653  0.249774  1
  Pt  Pt32  1  0.306650  0.135610  0.749816  1
  Pt  Pt33  1  0.806650  0.364390  0.750184  1
  Pt  Pt34  1  0.693964  0.863985  0.249901  1
  Pt  Pt35  1  0.193964  0.636015  0.250099  1
