# generated using pymatgen
data_Sc4MnFeB12
_symmetry_space_group_name_H-M   'P 1'
_cell_length_a   3.34408700
_cell_length_b   8.78747493
_cell_length_c   11.09291225
_cell_angle_alpha   89.87032422
_cell_angle_beta   90.00000000
_cell_angle_gamma   90.00000000
_symmetry_Int_Tables_number   1
_chemical_formula_structural   Sc4MnFeB12
_chemical_formula_sum   'Sc8 Mn2 Fe2 B24'
_cell_volume   325.97637924
_cell_formula_units_Z   2
loop_
 _symmetry_equiv_pos_site_id
 _symmetry_equiv_pos_as_xyz
  1  'x, y, z'
loop_
 _atom_site_type_symbol
 _atom_site_label
 _atom_site_symmetry_multiplicity
 _atom_site_fract_x
 _atom_site_fract_y
 _atom_site_fract_z
 _atom_site_occupancy
  Sc  Sc0  1  0.000000  0.820327  0.086317  1
  Sc  Sc1  1  0.000000  0.179673  0.913683  1
  Sc  Sc2  1  0.000000  0.323465  0.415622  1
  Sc  Sc3  1  0.000000  0.676535  0.584378  1
  Sc  Sc4  1  0.000000  0.443653  0.130335  1
  Sc  Sc5  1  0.000000  0.556347  0.869665  1
  Sc  Sc6  1  0.000000  0.942604  0.369824  1
  Sc  Sc7  1  0.000000  0.057396  0.630176  1
  Mn  Mn8  1  0.000000  0.639616  0.319088  1
  Mn  Mn9  1  0.000000  0.360384  0.680912  1
  Fe  Fe10  1  0.000000  0.139639  0.179769  1
  Fe  Fe11  1  0.000000  0.860361  0.820231  1
  B  B12  1  0.500000  0.054307  0.065929  1
  B  B13  1  0.500000  0.945693  0.934071  1
  B  B14  1  0.500000  0.553650  0.433713  1
  B  B15  1  0.500000  0.446350  0.566287  1
  B  B16  1  0.500000  0.250131  0.080593  1
  B  B17  1  0.500000  0.749869  0.919407  1
  B  B18  1  0.500000  0.750186  0.419263  1
  B  B19  1  0.500000  0.249814  0.580737  1
  B  B20  1  0.500000  0.292764  0.235702  1
  B  B21  1  0.500000  0.707236  0.764298  1
  B  B22  1  0.500000  0.793801  0.263564  1
  B  B23  1  0.500000  0.206199  0.736436  1
  B  B24  1  0.500000  0.130686  0.315958  1
  B  B25  1  0.500000  0.869314  0.684042  1
  B  B26  1  0.500000  0.631124  0.183492  1
  B  B27  1  0.500000  0.368876  0.816508  1
  B  B28  1  0.500000  0.481790  0.288103  1
  B  B29  1  0.500000  0.518210  0.711897  1
  B  B30  1  0.500000  0.982555  0.211335  1
  B  B31  1  0.500000  0.017445  0.788665  1
  B  B32  1  0.500000  0.100976  0.472339  1
  B  B33  1  0.500000  0.899024  0.527661  1
  B  B34  1  0.500000  0.601214  0.027341  1
  B  B35  1  0.500000  0.398786  0.972659  1
