# generated using pymatgen
data_YbBiAsO5
_symmetry_space_group_name_H-M   'P 1'
_cell_length_a   7.06381468
_cell_length_b   8.00535446
_cell_length_c   9.44539234
_cell_angle_alpha   74.37083792
_cell_angle_beta   88.30677148
_cell_angle_gamma   69.29004107
_symmetry_Int_Tables_number   1
_chemical_formula_structural   YbBiAsO5
_chemical_formula_sum   'Yb4 Bi4 As4 O20'
_cell_volume   479.85259755
_cell_formula_units_Z   4
loop_
 _symmetry_equiv_pos_site_id
 _symmetry_equiv_pos_as_xyz
  1  'x, y, z'
loop_
 _atom_site_type_symbol
 _atom_site_label
 _atom_site_symmetry_multiplicity
 _atom_site_fract_x
 _atom_site_fract_y
 _atom_site_fract_z
 _atom_site_occupancy
  Yb  Yb0  1  0.349403  0.838278  0.534852  1
  Yb  Yb1  1  0.650597  0.161722  0.465148  1
  Yb  Yb2  1  0.849403  0.338278  0.034852  1
  Yb  Yb3  1  0.150597  0.661722  0.965148  1
  Bi  Bi4  1  0.105176  0.408636  0.338788  1
  Bi  Bi5  1  0.605176  0.908636  0.838788  1
  Bi  Bi6  1  0.894824  0.591364  0.661212  1
  Bi  Bi7  1  0.394824  0.091364  0.161212  1
  As  As8  1  0.467863  0.406430  0.755374  1
  As  As9  1  0.967863  0.906430  0.255374  1
  As  As10  1  0.532137  0.593570  0.244626  1
  As  As11  1  0.032137  0.093570  0.744626  1
  O  O12  1  0.156010  0.380565  0.120410  1
  O  O13  1  0.656010  0.880565  0.620410  1
  O  O14  1  0.843990  0.619435  0.879590  1
  O  O15  1  0.343990  0.119435  0.379590  1
  O  O16  1  0.018989  0.269482  0.821400  1
  O  O17  1  0.518989  0.769482  0.321400  1
  O  O18  1  0.981011  0.730518  0.178600  1
  O  O19  1  0.481011  0.230518  0.678600  1
  O  O20  1  0.226173  0.572442  0.743553  1
  O  O21  1  0.726173  0.072442  0.243553  1
  O  O22  1  0.773827  0.427558  0.256447  1
  O  O23  1  0.273827  0.927558  0.756447  1
  O  O24  1  0.442982  0.679458  0.063672  1
  O  O25  1  0.942982  0.179458  0.563672  1
  O  O26  1  0.557018  0.320542  0.936328  1
  O  O27  1  0.057018  0.820542  0.436328  1
  O  O28  1  0.591663  0.541747  0.647673  1
  O  O29  1  0.091663  0.041747  0.147673  1
  O  O30  1  0.408337  0.458253  0.352327  1
  O  O31  1  0.908337  0.958253  0.852327  1
