# generated using pymatgen
data_Sr(NbSe2)5
_symmetry_space_group_name_H-M   'P 1'
_cell_length_a   6.09883454
_cell_length_b   8.90407795
_cell_length_c   9.60554168
_cell_angle_alpha   119.85904774
_cell_angle_beta   96.22505164
_cell_angle_gamma   103.01756304
_symmetry_Int_Tables_number   1
_chemical_formula_structural   Sr(NbSe2)5
_chemical_formula_sum   'Sr1 Nb5 Se10'
_cell_volume   425.47121189
_cell_formula_units_Z   1
loop_
 _symmetry_equiv_pos_site_id
 _symmetry_equiv_pos_as_xyz
  1  'x, y, z'
loop_
 _atom_site_type_symbol
 _atom_site_label
 _atom_site_symmetry_multiplicity
 _atom_site_fract_x
 _atom_site_fract_y
 _atom_site_fract_z
 _atom_site_occupancy
  Sr  Sr0  1  0.666243  0.502605  0.999271  1
  Nb  Nb1  1  0.001749  0.997697  0.999420  1
  Nb  Nb2  1  0.597751  0.203484  0.201826  1
  Nb  Nb3  1  0.198489  0.400150  0.400021  1
  Nb  Nb4  1  0.800035  0.600726  0.601905  1
  Nb  Nb5  1  0.401241  0.796554  0.797744  1
  Se  Se6  1  0.238814  0.074490  0.283075  1
  Se  Se7  1  0.045355  0.670766  0.883813  1
  Se  Se8  1  0.837554  0.273509  0.481548  1
  Se  Se9  1  0.639064  0.878809  0.087337  1
  Se  Se10  1  0.435127  0.466778  0.679060  1
  Se  Se11  1  0.896699  0.531726  0.320471  1
  Se  Se12  1  0.695370  0.122986  0.915152  1
  Se  Se13  1  0.494850  0.725479  0.517298  1
  Se  Se14  1  0.287937  0.327139  0.115548  1
  Se  Se15  1  0.096524  0.924700  0.718111  1
