# generated using pymatgen
data_Pm4ZnPt3
_symmetry_space_group_name_H-M   'P 1'
_cell_length_a   7.37681398
_cell_length_b   5.75244344
_cell_length_c   4.59669700
_cell_angle_alpha   90.00000000
_cell_angle_beta   90.00000000
_cell_angle_gamma   90.03704639
_symmetry_Int_Tables_number   1
_chemical_formula_structural   Pm4ZnPt3
_chemical_formula_sum   'Pm4 Zn1 Pt3'
_cell_volume   195.05944125
_cell_formula_units_Z   1
loop_
 _symmetry_equiv_pos_site_id
 _symmetry_equiv_pos_as_xyz
  1  'x, y, z'
loop_
 _atom_site_type_symbol
 _atom_site_label
 _atom_site_symmetry_multiplicity
 _atom_site_fract_x
 _atom_site_fract_y
 _atom_site_fract_z
 _atom_site_occupancy
  Pm  Pm0  1  0.109585  0.500899  0.000000  1
  Pm  Pm1  1  0.587342  0.740731  0.000000  1
  Pm  Pm2  1  0.238550  0.021126  0.499999  1
  Pm  Pm3  1  0.728620  0.238609  0.499999  1
  Zn  Zn4  1  0.883221  0.744823  0.499999  1
  Pt  Pt5  1  0.463192  0.225574  0.000000  1
  Pt  Pt6  1  0.950102  0.990092  0.000000  1
  Pt  Pt7  1  0.372720  0.538147  0.499999  1
