# generated using pymatgen
data_Sm7Y(OsI4)2
_symmetry_space_group_name_H-M   'P 1'
_cell_length_a   11.57360979
_cell_length_b   11.54395429
_cell_length_c   6.30641943
_cell_angle_alpha   89.88239392
_cell_angle_beta   89.90023181
_cell_angle_gamma   88.23472108
_symmetry_Int_Tables_number   1
_chemical_formula_structural   Sm7Y(OsI4)2
_chemical_formula_sum   'Sm7 Y1 Os2 I8'
_cell_volume   842.16773597
_cell_formula_units_Z   1
loop_
 _symmetry_equiv_pos_site_id
 _symmetry_equiv_pos_as_xyz
  1  'x, y, z'
loop_
 _atom_site_type_symbol
 _atom_site_label
 _atom_site_symmetry_multiplicity
 _atom_site_fract_x
 _atom_site_fract_y
 _atom_site_fract_z
 _atom_site_occupancy
  Sm  Sm0  1  0.799866  0.084719  0.999859  1
  Sm  Sm1  1  0.085098  0.799435  0.499927  1
  Sm  Sm2  1  0.078490  0.198454  0.999102  1
  Sm  Sm3  1  0.197836  0.079062  0.499186  1
  Sm  Sm4  1  0.920807  0.802147  0.000711  1
  Sm  Sm5  1  0.915136  0.200565  0.499910  1
  Sm  Sm6  1  0.200100  0.914389  0.000006  1
  Y  Y7  1  0.808091  0.923184  0.500406  1
  Os  Os8  1  0.000530  0.000255  0.249663  1
  Os  Os9  1  0.000563  0.000197  0.750199  1
  I  I10  1  0.645026  0.145779  0.505991  1
  I  I11  1  0.853361  0.653931  0.504359  1
  I  I12  1  0.350337  0.142361  0.995718  1
  I  I13  1  0.141705  0.351755  0.495785  1
  I  I14  1  0.649489  0.857634  0.005705  1
  I  I15  1  0.355376  0.846658  0.493482  1
  I  I16  1  0.151898  0.642845  0.006474  1
  I  I17  1  0.846290  0.356629  0.993516  1
