# generated using pymatgen
data_TbDyZn5Sn
_symmetry_space_group_name_H-M   'P 1'
_cell_length_a   8.39833909
_cell_length_b   8.39834008
_cell_length_c   8.98752500
_cell_angle_alpha   90.00000000
_cell_angle_beta   90.00000000
_cell_angle_gamma   149.76555977
_symmetry_Int_Tables_number   1
_chemical_formula_structural   TbDyZn5Sn
_chemical_formula_sum   'Tb2 Dy2 Zn10 Sn2'
_cell_volume   319.19817831
_cell_formula_units_Z   2
loop_
 _symmetry_equiv_pos_site_id
 _symmetry_equiv_pos_as_xyz
  1  'x, y, z'
loop_
 _atom_site_type_symbol
 _atom_site_label
 _atom_site_symmetry_multiplicity
 _atom_site_fract_x
 _atom_site_fract_y
 _atom_site_fract_z
 _atom_site_occupancy
  Tb  Tb0  1  0.000000  0.000000  0.500000  1
  Tb  Tb1  1  0.000000  0.000000  0.000000  1
  Dy  Dy2  1  0.202939  0.797061  0.250000  1
  Dy  Dy3  1  0.797061  0.202939  0.750000  1
  Zn  Zn4  1  0.813023  0.186977  0.390980  1
  Zn  Zn5  1  0.186977  0.813023  0.609020  1
  Zn  Zn6  1  0.813023  0.186977  0.109020  1
  Zn  Zn7  1  0.186977  0.813023  0.890980  1
  Zn  Zn8  1  0.656194  0.343806  0.481546  1
  Zn  Zn9  1  0.343806  0.656194  0.518454  1
  Zn  Zn10  1  0.656194  0.343806  0.018454  1
  Zn  Zn11  1  0.343806  0.656194  0.981546  1
  Zn  Zn12  1  0.391882  0.608118  0.250000  1
  Zn  Zn13  1  0.608118  0.391882  0.750000  1
  Sn  Sn14  1  0.553272  0.446728  0.250000  1
  Sn  Sn15  1  0.446728  0.553272  0.750000  1
