# generated using pymatgen
data_Mn7Ni5(W6C)2
_symmetry_space_group_name_H-M   'P 1'
_cell_length_a   7.76320772
_cell_length_b   7.76320913
_cell_length_c   7.76320843
_cell_angle_alpha   60.07048318
_cell_angle_beta   60.07048685
_cell_angle_gamma   60.07047723
_symmetry_Int_Tables_number   1
_chemical_formula_structural   Mn7Ni5(W6C)2
_chemical_formula_sum   'Mn7 Ni5 W12 C2'
_cell_volume   331.36137733
_cell_formula_units_Z   1
loop_
 _symmetry_equiv_pos_site_id
 _symmetry_equiv_pos_as_xyz
  1  'x, y, z'
loop_
 _atom_site_type_symbol
 _atom_site_label
 _atom_site_symmetry_multiplicity
 _atom_site_fract_x
 _atom_site_fract_y
 _atom_site_fract_z
 _atom_site_occupancy
  Mn  Mn0  1  0.419957  0.419957  0.730925  1
  Mn  Mn1  1  0.419957  0.730925  0.419957  1
  Mn  Mn2  1  0.730925  0.419957  0.419957  1
  Mn  Mn3  1  0.628478  0.628478  0.128309  1
  Mn  Mn4  1  0.628478  0.128309  0.628478  1
  Mn  Mn5  1  0.128309  0.628478  0.628478  1
  Mn  Mn6  1  0.621457  0.621457  0.621457  1
  Ni  Ni7  1  0.416214  0.416214  0.416214  1
  Ni  Ni8  1  0.832360  0.832360  0.503106  1
  Ni  Ni9  1  0.832360  0.503106  0.832360  1
  Ni  Ni10  1  0.503106  0.832360  0.832360  1
  Ni  Ni11  1  0.833696  0.833696  0.833696  1
  W  W12  1  0.054214  0.054214  0.446572  1
  W  W13  1  0.447574  0.051501  0.447574  1
  W  W14  1  0.051501  0.447574  0.447574  1
  W  W15  1  0.447574  0.447574  0.051501  1
  W  W16  1  0.054214  0.446572  0.054214  1
  W  W17  1  0.446572  0.054214  0.054214  1
  W  W18  1  0.196024  0.196024  0.802527  1
  W  W19  1  0.804933  0.196663  0.804933  1
  W  W20  1  0.196663  0.804933  0.804933  1
  W  W21  1  0.804933  0.804933  0.196663  1
  W  W22  1  0.196024  0.802527  0.196024  1
  W  W23  1  0.802527  0.196024  0.196024  1
  C  C24  1  0.250947  0.250947  0.250947  1
  C  C25  1  0.001007  0.001007  0.001007  1
