# generated using pymatgen
data_La5Nd5(Zn2Ir3)2
_symmetry_space_group_name_H-M   'P 1'
_cell_length_a   8.54013860
_cell_length_b   8.54013947
_cell_length_c   8.62234500
_cell_angle_alpha   109.32419902
_cell_angle_beta   109.46185723
_cell_angle_gamma   109.23936587
_symmetry_Int_Tables_number   1
_chemical_formula_structural   La5Nd5(Zn2Ir3)2
_chemical_formula_sum   'La5 Nd5 Zn4 Ir6'
_cell_volume   486.40238693
_cell_formula_units_Z   1
loop_
 _symmetry_equiv_pos_site_id
 _symmetry_equiv_pos_as_xyz
  1  'x, y, z'
loop_
 _atom_site_type_symbol
 _atom_site_label
 _atom_site_symmetry_multiplicity
 _atom_site_fract_x
 _atom_site_fract_y
 _atom_site_fract_z
 _atom_site_occupancy
  La  La0  1  0.252467  0.685739  0.435155  1
  La  La1  1  0.750583  0.817312  0.064845  1
  La  La2  1  0.434416  0.249266  0.682988  1
  La  La3  1  0.684047  0.434047  0.250000  1
  La  La4  1  0.066281  0.751428  0.817012  1
  Nd  Nd5  1  0.820342  0.070342  0.750000  1
  Nd  Nd6  1  0.226498  0.228173  0.226691  1
  Nd  Nd7  1  0.501483  0.999806  0.273309  1
  Nd  Nd8  1  0.271801  0.500003  0.998765  1
  Nd  Nd9  1  0.001237  0.273037  0.501235  1
  Zn  Zn10  1  0.595954  0.595129  0.594319  1
  Zn  Zn11  1  0.500810  0.001636  0.905681  1
  Zn  Zn12  1  0.906830  0.498018  0.001204  1
  Zn  Zn13  1  0.996814  0.905626  0.498796  1
  Ir  Ir14  1  0.244534  0.127072  0.874930  1
  Ir  Ir15  1  0.752141  0.369602  0.625070  1
  Ir  Ir16  1  0.876835  0.248800  0.131065  1
  Ir  Ir17  1  0.127449  0.877448  0.250000  1
  Ir  Ir18  1  0.617734  0.745771  0.368935  1
  Ir  Ir19  1  0.371747  0.621747  0.750000  1
