# generated using pymatgen
data_Mg4TiV(SbPt)6
_symmetry_space_group_name_H-M   'P 1'
_cell_length_a   7.70072133
_cell_length_b   7.70548154
_cell_length_c   7.71862991
_cell_angle_alpha   99.64411369
_cell_angle_beta   99.67212217
_cell_angle_gamma   119.99122345
_symmetry_Int_Tables_number   1
_chemical_formula_structural   Mg4TiV(SbPt)6
_chemical_formula_sum   'Mg4 Ti1 V1 Sb6 Pt6'
_cell_volume   373.68958765
_cell_formula_units_Z   1
loop_
 _symmetry_equiv_pos_site_id
 _symmetry_equiv_pos_as_xyz
  1  'x, y, z'
loop_
 _atom_site_type_symbol
 _atom_site_label
 _atom_site_symmetry_multiplicity
 _atom_site_fract_x
 _atom_site_fract_y
 _atom_site_fract_z
 _atom_site_occupancy
  Mg  Mg0  1  0.329611  0.163067  0.498831  1
  Mg  Mg1  1  0.000033  0.502569  0.499259  1
  Mg  Mg2  1  0.163179  0.329620  0.999259  1
  Mg  Mg3  1  0.502690  0.999966  0.999531  1
  Ti  Ti4  1  0.833330  0.669719  0.001180  1
  V  V5  1  0.669318  0.833470  0.500656  1
  Sb  Sb6  1  0.917230  0.091973  0.247246  1
  Sb  Sb7  1  0.258476  0.749975  0.249265  1
  Sb  Sb8  1  0.577241  0.410338  0.255018  1
  Sb  Sb9  1  0.093475  0.917343  0.746491  1
  Sb  Sb10  1  0.749227  0.258316  0.748289  1
  Sb  Sb11  1  0.407434  0.575375  0.755165  1
  Pt  Pt12  1  0.194506  0.026102  0.120250  1
  Pt  Pt13  1  0.872874  0.389061  0.121242  1
  Pt  Pt14  1  0.558347  0.710337  0.136311  1
  Pt  Pt15  1  0.021766  0.189865  0.619403  1
  Pt  Pt16  1  0.392509  0.872097  0.620153  1
  Pt  Pt17  1  0.708752  0.560806  0.632449  1
