# generated using pymatgen
data_Y8Ta11Si16Mo
_symmetry_space_group_name_H-M   'P 1'
_cell_length_a   6.85058503
_cell_length_b   7.04554213
_cell_length_c   13.38075500
_cell_angle_alpha   90.00000000
_cell_angle_beta   90.00000000
_cell_angle_gamma   89.98408536
_symmetry_Int_Tables_number   1
_chemical_formula_structural   Y8Ta11Si16Mo
_chemical_formula_sum   'Y8 Ta11 Si16 Mo1'
_cell_volume   645.83663866
_cell_formula_units_Z   1
loop_
 _symmetry_equiv_pos_site_id
 _symmetry_equiv_pos_as_xyz
  1  'x, y, z'
loop_
 _atom_site_type_symbol
 _atom_site_label
 _atom_site_symmetry_multiplicity
 _atom_site_fract_x
 _atom_site_fract_y
 _atom_site_fract_z
 _atom_site_occupancy
  Y  Y0  1  0.501052  0.329131  0.095750  1
  Y  Y1  1  0.000297  0.171278  0.404337  1
  Y  Y2  1  0.498678  0.671412  0.595560  1
  Y  Y3  1  0.998565  0.829255  0.904115  1
  Y  Y4  1  0.498678  0.671412  0.904440  1
  Y  Y5  1  0.998565  0.829255  0.595885  1
  Y  Y6  1  0.501052  0.329131  0.404250  1
  Y  Y7  1  0.000297  0.171278  0.095663  1
  Ta  Ta8  1  0.663999  0.008759  0.750000  1
  Ta  Ta9  1  0.163602  0.490217  0.750000  1
  Ta  Ta10  1  0.335417  0.990234  0.250000  1
  Ta  Ta11  1  0.838979  0.325473  0.625379  1
  Ta  Ta12  1  0.338463  0.174766  0.874358  1
  Ta  Ta13  1  0.162134  0.673096  0.126217  1
  Ta  Ta14  1  0.661644  0.825543  0.373997  1
  Ta  Ta15  1  0.162134  0.673096  0.373783  1
  Ta  Ta16  1  0.661644  0.825543  0.126003  1
  Ta  Ta17  1  0.838979  0.325473  0.874621  1
  Ta  Ta18  1  0.338463  0.174766  0.625642  1
  Si  Si19  1  0.797668  0.627385  0.750000  1
  Si  Si20  1  0.297935  0.872018  0.750000  1
  Si  Si21  1  0.198847  0.372899  0.250000  1
  Si  Si22  1  0.701205  0.128951  0.250000  1
  Si  Si23  1  0.543376  0.376729  0.750000  1
  Si  Si24  1  0.042290  0.121960  0.750000  1
  Si  Si25  1  0.460585  0.621710  0.250000  1
  Si  Si26  1  0.956580  0.875858  0.250000  1
  Si  Si27  1  0.664395  0.037897  0.540882  1
  Si  Si28  1  0.164876  0.462441  0.959378  1
  Si  Si29  1  0.335487  0.962633  0.041201  1
  Si  Si30  1  0.835921  0.538801  0.458536  1
  Si  Si31  1  0.335487  0.962633  0.458799  1
  Si  Si32  1  0.835921  0.538801  0.041464  1
  Si  Si33  1  0.664395  0.037897  0.959118  1
  Si  Si34  1  0.164876  0.462441  0.540622  1
  Mo  Mo35  1  0.837513  0.509822  0.250000  1
