# generated using pymatgen
data_NpScAlB6
_symmetry_space_group_name_H-M   'P 1'
_cell_length_a   3.52785700
_cell_length_b   9.01217800
_cell_length_c   11.37477100
_cell_angle_alpha   90.00000000
_cell_angle_beta   90.00000000
_cell_angle_gamma   90.00000000
_symmetry_Int_Tables_number   1
_chemical_formula_structural   NpScAlB6
_chemical_formula_sum   'Np4 Sc4 Al4 B24'
_cell_volume   361.64577513
_cell_formula_units_Z   4
loop_
 _symmetry_equiv_pos_site_id
 _symmetry_equiv_pos_as_xyz
  1  'x, y, z'
loop_
 _atom_site_type_symbol
 _atom_site_label
 _atom_site_symmetry_multiplicity
 _atom_site_fract_x
 _atom_site_fract_y
 _atom_site_fract_z
 _atom_site_occupancy
  Np  Np0  1  0.000000  0.822624  0.085481  1
  Np  Np1  1  0.000000  0.177376  0.914519  1
  Np  Np2  1  0.000000  0.322624  0.414519  1
  Np  Np3  1  0.000000  0.677376  0.585481  1
  Sc  Sc4  1  0.000000  0.444663  0.127352  1
  Sc  Sc5  1  0.000000  0.555337  0.872648  1
  Sc  Sc6  1  0.000000  0.944663  0.372648  1
  Sc  Sc7  1  0.000000  0.055337  0.627352  1
  Al  Al8  1  0.000000  0.140924  0.180356  1
  Al  Al9  1  0.000000  0.859076  0.819644  1
  Al  Al10  1  0.000000  0.640924  0.319644  1
  Al  Al11  1  0.000000  0.359076  0.680356  1
  B  B12  1  0.500000  0.051298  0.065208  1
  B  B13  1  0.500000  0.948702  0.934792  1
  B  B14  1  0.500000  0.551298  0.434792  1
  B  B15  1  0.500000  0.448702  0.565208  1
  B  B16  1  0.500000  0.255473  0.079477  1
  B  B17  1  0.500000  0.744527  0.920523  1
  B  B18  1  0.500000  0.755473  0.420523  1
  B  B19  1  0.500000  0.244527  0.579477  1
  B  B20  1  0.500000  0.297869  0.237108  1
  B  B21  1  0.500000  0.702131  0.762892  1
  B  B22  1  0.500000  0.797869  0.262892  1
  B  B23  1  0.500000  0.202131  0.737108  1
  B  B24  1  0.500000  0.130520  0.319394  1
  B  B25  1  0.500000  0.869480  0.680606  1
  B  B26  1  0.500000  0.630520  0.180606  1
  B  B27  1  0.500000  0.369480  0.819394  1
  B  B28  1  0.500000  0.478342  0.285965  1
  B  B29  1  0.500000  0.521658  0.714035  1
  B  B30  1  0.500000  0.978342  0.214035  1
  B  B31  1  0.500000  0.021658  0.785965  1
  B  B32  1  0.500000  0.099828  0.472907  1
  B  B33  1  0.500000  0.900172  0.527093  1
  B  B34  1  0.500000  0.599828  0.027093  1
  B  B35  1  0.500000  0.400172  0.972907  1
