# generated using pymatgen
data_Tb2Lu10In2Tc3
_symmetry_space_group_name_H-M   'P 1'
_cell_length_a   8.32720561
_cell_length_b   8.32720632
_cell_length_c   8.35732067
_cell_angle_alpha   108.79615813
_cell_angle_beta   108.79616400
_cell_angle_gamma   110.68715288
_symmetry_Int_Tables_number   1
_chemical_formula_structural   Tb2Lu10In2Tc3
_chemical_formula_sum   'Tb2 Lu10 In2 Tc3'
_cell_volume   446.72674977
_cell_formula_units_Z   1
loop_
 _symmetry_equiv_pos_site_id
 _symmetry_equiv_pos_as_xyz
  1  'x, y, z'
loop_
 _atom_site_type_symbol
 _atom_site_label
 _atom_site_symmetry_multiplicity
 _atom_site_fract_x
 _atom_site_fract_y
 _atom_site_fract_z
 _atom_site_occupancy
  Tb  Tb0  1  0.304118  0.304118  0.608237  1
  Tb  Tb1  1  0.695882  0.695882  0.391763  1
  Lu  Lu2  1  0.695031  0.304969  0.000000  1
  Lu  Lu3  1  0.304969  0.695031  0.000000  1
  Lu  Lu4  1  0.188037  0.428020  0.237628  1
  Lu  Lu5  1  0.811963  0.571980  0.762372  1
  Lu  Lu6  1  0.190392  0.950408  0.762372  1
  Lu  Lu7  1  0.950408  0.190392  0.762372  1
  Lu  Lu8  1  0.809608  0.049592  0.237628  1
  Lu  Lu9  1  0.049592  0.809608  0.237628  1
  Lu  Lu10  1  0.428020  0.188037  0.237628  1
  Lu  Lu11  1  0.571980  0.811963  0.762372  1
  In  In12  1  0.000000  0.500000  0.500000  1
  In  In13  1  0.500000  0.000000  0.500000  1
  Tc  Tc14  1  0.370249  0.370249  0.000000  1
  Tc  Tc15  1  0.629751  0.629751  0.000000  1
  Tc  Tc16  1  0.000000  0.000000  0.000000  1
