# generated using pymatgen
data_NaDyGeO4
_symmetry_space_group_name_H-M   'P 1'
_cell_length_a   5.33265300
_cell_length_b   6.52050100
_cell_length_c   11.52302900
_cell_angle_alpha   90.00000000
_cell_angle_beta   90.00000000
_cell_angle_gamma   90.00000000
_symmetry_Int_Tables_number   1
_chemical_formula_structural   NaDyGeO4
_chemical_formula_sum   'Na4 Dy4 Ge4 O16'
_cell_volume   400.67380049
_cell_formula_units_Z   4
loop_
 _symmetry_equiv_pos_site_id
 _symmetry_equiv_pos_as_xyz
  1  'x, y, z'
loop_
 _atom_site_type_symbol
 _atom_site_label
 _atom_site_symmetry_multiplicity
 _atom_site_fract_x
 _atom_site_fract_y
 _atom_site_fract_z
 _atom_site_occupancy
  Na  Na0  1  0.000000  0.000000  0.000000  1
  Na  Na1  1  0.000000  0.500000  0.000000  1
  Na  Na2  1  0.500000  0.000000  0.500000  1
  Na  Na3  1  0.500000  0.500000  0.500000  1
  Dy  Dy4  1  0.004033  0.750000  0.277623  1
  Dy  Dy5  1  0.995967  0.250000  0.722377  1
  Dy  Dy6  1  0.495967  0.750000  0.777623  1
  Dy  Dy7  1  0.504033  0.250000  0.222377  1
  Ge  Ge8  1  0.945562  0.250000  0.402691  1
  Ge  Ge9  1  0.554438  0.250000  0.902691  1
  Ge  Ge10  1  0.054438  0.750000  0.597309  1
  Ge  Ge11  1  0.445562  0.750000  0.097309  1
  O  O12  1  0.792287  0.457348  0.325935  1
  O  O13  1  0.292287  0.542652  0.174065  1
  O  O14  1  0.207713  0.957348  0.674065  1
  O  O15  1  0.707713  0.042652  0.825935  1
  O  O16  1  0.207713  0.542652  0.674065  1
  O  O17  1  0.707713  0.457348  0.825935  1
  O  O18  1  0.792287  0.042652  0.325935  1
  O  O19  1  0.292287  0.957348  0.174065  1
  O  O20  1  0.174115  0.750000  0.454521  1
  O  O21  1  0.674115  0.250000  0.045479  1
  O  O22  1  0.825885  0.250000  0.545479  1
  O  O23  1  0.325885  0.750000  0.954521  1
  O  O24  1  0.727672  0.750000  0.610654  1
  O  O25  1  0.227672  0.250000  0.889346  1
  O  O26  1  0.272328  0.250000  0.389346  1
  O  O27  1  0.772328  0.750000  0.110654  1
