# generated using pymatgen
data_La4Sn8IrPd2Rh
_symmetry_space_group_name_H-M   'P 1'
_cell_length_a   9.08103713
_cell_length_b   9.08103577
_cell_length_c   9.70811145
_cell_angle_alpha   89.90691259
_cell_angle_beta   90.09308876
_cell_angle_gamma   149.98819897
_symmetry_Int_Tables_number   1
_chemical_formula_structural   La4Sn8IrPd2Rh
_chemical_formula_sum   'La4 Sn8 Ir1 Pd2 Rh1'
_cell_volume   400.43301429
_cell_formula_units_Z   1
loop_
 _symmetry_equiv_pos_site_id
 _symmetry_equiv_pos_as_xyz
  1  'x, y, z'
loop_
 _atom_site_type_symbol
 _atom_site_label
 _atom_site_symmetry_multiplicity
 _atom_site_fract_x
 _atom_site_fract_y
 _atom_site_fract_z
 _atom_site_occupancy
  La  La0  1  0.498147  0.501853  0.498557  1
  La  La1  1  0.502933  0.497067  0.999146  1
  La  La2  1  0.296509  0.703491  0.249228  1
  La  La3  1  0.703085  0.296915  0.749946  1
  Sn  Sn4  1  0.909660  0.090340  0.746931  1
  Sn  Sn5  1  0.927514  0.072486  0.254675  1
  Sn  Sn6  1  0.089584  0.910416  0.247439  1
  Sn  Sn7  1  0.072198  0.927802  0.753478  1
  Sn  Sn8  1  0.698760  0.301240  0.408398  1
  Sn  Sn9  1  0.304131  0.695869  0.590464  1
  Sn  Sn10  1  0.301117  0.698883  0.908336  1
  Sn  Sn11  1  0.696712  0.303288  0.090247  1
  Ir  Ir12  1  0.148144  0.851856  0.993509  1
  Pd  Pd13  1  0.146250  0.853750  0.507759  1
  Pd  Pd14  1  0.853795  0.146205  0.007254  1
  Rh  Rh15  1  0.851463  0.148537  0.494633  1
