# generated using pymatgen
data_DyCdCuNi3
_symmetry_space_group_name_H-M   'P 1'
_cell_length_a   5.02556529
_cell_length_b   5.02556564
_cell_length_c   4.98853298
_cell_angle_alpha   59.75413287
_cell_angle_beta   59.75412805
_cell_angle_gamma   59.99999543
_symmetry_Int_Tables_number   1
_chemical_formula_structural   DyCdCuNi3
_chemical_formula_sum   'Dy1 Cd1 Cu1 Ni3'
_cell_volume   88.75722018
_cell_formula_units_Z   1
loop_
 _symmetry_equiv_pos_site_id
 _symmetry_equiv_pos_as_xyz
  1  'x, y, z'
loop_
 _atom_site_type_symbol
 _atom_site_label
 _atom_site_symmetry_multiplicity
 _atom_site_fract_x
 _atom_site_fract_y
 _atom_site_fract_z
 _atom_site_occupancy
  Dy  Dy0  1  0.249058  0.249058  0.252825  1
  Cd  Cd1  1  0.000512  0.000512  0.998463  1
  Cu  Cu2  1  0.625667  0.625667  0.123001  1
  Ni  Ni3  1  0.626135  0.122494  0.625237  1
  Ni  Ni4  1  0.122494  0.626135  0.625237  1
  Ni  Ni5  1  0.626135  0.626135  0.625237  1
