# generated using pymatgen
data_Tb2Al7Ni2Au
_symmetry_space_group_name_H-M   'P 1'
_cell_length_a   7.98515659
_cell_length_b   7.98515753
_cell_length_c   6.52255960
_cell_angle_alpha   88.68561719
_cell_angle_beta   91.31438392
_cell_angle_gamma   150.24878196
_symmetry_Int_Tables_number   1
_chemical_formula_structural   Tb2Al7Ni2Au
_chemical_formula_sum   'Tb2 Al7 Ni2 Au1'
_cell_volume   206.32411356
_cell_formula_units_Z   1
loop_
 _symmetry_equiv_pos_site_id
 _symmetry_equiv_pos_as_xyz
  1  'x, y, z'
loop_
 _atom_site_type_symbol
 _atom_site_label
 _atom_site_symmetry_multiplicity
 _atom_site_fract_x
 _atom_site_fract_y
 _atom_site_fract_z
 _atom_site_occupancy
  Tb  Tb0  1  0.878488  0.121512  0.265030  1
  Tb  Tb1  1  0.121512  0.878488  0.734970  1
  Al  Al2  1  0.311902  0.688098  0.556151  1
  Al  Al3  1  0.688098  0.311902  0.443849  1
  Al  Al4  1  0.687206  0.312794  0.046760  1
  Al  Al5  1  0.312794  0.687206  0.953240  1
  Al  Al6  1  0.500000  0.500000  0.500000  1
  Al  Al7  1  0.927383  0.072617  0.773277  1
  Al  Al8  1  0.072617  0.927383  0.226723  1
  Ni  Ni9  1  0.222909  0.777091  0.248989  1
  Ni  Ni10  1  0.777091  0.222909  0.751011  1
  Au  Au11  1  0.500000  0.500000  0.000000  1
