# generated using pymatgen
data_Pr3TiFeC6
_symmetry_space_group_name_H-M   'P 1'
_cell_length_a   8.40159000
_cell_length_b   8.40158954
_cell_length_c   5.25913200
_cell_angle_alpha   90.00000000
_cell_angle_beta   90.00000000
_cell_angle_gamma   119.99998605
_symmetry_Int_Tables_number   1
_chemical_formula_structural   Pr3TiFeC6
_chemical_formula_sum   'Pr6 Ti2 Fe2 C12'
_cell_volume   321.49017762
_cell_formula_units_Z   2
loop_
 _symmetry_equiv_pos_site_id
 _symmetry_equiv_pos_as_xyz
  1  'x, y, z'
loop_
 _atom_site_type_symbol
 _atom_site_label
 _atom_site_symmetry_multiplicity
 _atom_site_fract_x
 _atom_site_fract_y
 _atom_site_fract_z
 _atom_site_occupancy
  Pr  Pr0  1  0.612555  0.677907  0.750000  1
  Pr  Pr1  1  0.934649  0.612555  0.250000  1
  Pr  Pr2  1  0.677907  0.065351  0.250000  1
  Pr  Pr3  1  0.322093  0.934649  0.750000  1
  Pr  Pr4  1  0.065351  0.387445  0.750000  1
  Pr  Pr5  1  0.387445  0.322093  0.250000  1
  Ti  Ti6  1  0.000000  0.000000  0.500000  1
  Ti  Ti7  1  0.000000  0.000000  0.000000  1
  Fe  Fe8  1  0.666667  0.333333  0.750000  1
  Fe  Fe9  1  0.333333  0.666667  0.250000  1
  C  C10  1  0.952304  0.757651  0.750000  1
  C  C11  1  0.194652  0.952304  0.250000  1
  C  C12  1  0.757651  0.805348  0.250000  1
  C  C13  1  0.242349  0.194652  0.750000  1
  C  C14  1  0.805348  0.047696  0.750000  1
  C  C15  1  0.047696  0.242349  0.250000  1
  C  C16  1  0.857587  0.570171  0.750000  1
  C  C17  1  0.287415  0.857587  0.250000  1
  C  C18  1  0.570171  0.712585  0.250000  1
  C  C19  1  0.429829  0.287415  0.750000  1
  C  C20  1  0.142413  0.429829  0.250000  1
  C  C21  1  0.712585  0.142413  0.750000  1
