# generated using pymatgen
data_Dy10(BiPb)3
_symmetry_space_group_name_H-M   'P 1'
_cell_length_a   9.15197201
_cell_length_b   9.15197158
_cell_length_c   6.49199500
_cell_angle_alpha   89.99958596
_cell_angle_beta   89.99958157
_cell_angle_gamma   120.00079974
_symmetry_Int_Tables_number   1
_chemical_formula_structural   Dy10(BiPb)3
_chemical_formula_sum   'Dy10 Bi3 Pb3'
_cell_volume   470.90646703
_cell_formula_units_Z   1
loop_
 _symmetry_equiv_pos_site_id
 _symmetry_equiv_pos_as_xyz
  1  'x, y, z'
loop_
 _atom_site_type_symbol
 _atom_site_label
 _atom_site_symmetry_multiplicity
 _atom_site_fract_x
 _atom_site_fract_y
 _atom_site_fract_z
 _atom_site_occupancy
  Dy  Dy0  1  0.666659  0.333338  0.997236  1
  Dy  Dy1  1  0.333337  0.666658  0.997236  1
  Dy  Dy2  1  0.762641  0.762640  0.250013  1
  Dy  Dy3  1  0.237373  0.999999  0.249999  1
  Dy  Dy4  1  0.999999  0.237373  0.249999  1
  Dy  Dy5  1  0.666662  0.333343  0.502765  1
  Dy  Dy6  1  0.333342  0.666662  0.502765  1
  Dy  Dy7  1  0.237880  0.237879  0.750011  1
  Dy  Dy8  1  0.762110  0.000000  0.749996  1
  Dy  Dy9  1  0.000000  0.762110  0.749996  1
  Bi  Bi10  1  0.606270  0.000007  0.249991  1
  Bi  Bi11  1  0.000007  0.606269  0.249991  1
  Bi  Bi12  1  0.393732  0.393731  0.250008  1
  Pb  Pb13  1  0.393763  0.999991  0.749986  1
  Pb  Pb14  1  0.999990  0.393762  0.749986  1
  Pb  Pb15  1  0.606239  0.606238  0.750020  1
