# generated using pymatgen
data_Dy2Tm6B24Rh3W
_symmetry_space_group_name_H-M   'P 1'
_cell_length_a   3.63300200
_cell_length_b   9.13861137
_cell_length_c   11.51260701
_cell_angle_alpha   90.25429672
_cell_angle_beta   90.00000000
_cell_angle_gamma   90.00000000
_symmetry_Int_Tables_number   1
_chemical_formula_structural   Dy2Tm6B24Rh3W
_chemical_formula_sum   'Dy2 Tm6 B24 Rh3 W1'
_cell_volume   382.22161966
_cell_formula_units_Z   1
loop_
 _symmetry_equiv_pos_site_id
 _symmetry_equiv_pos_as_xyz
  1  'x, y, z'
loop_
 _atom_site_type_symbol
 _atom_site_label
 _atom_site_symmetry_multiplicity
 _atom_site_fract_x
 _atom_site_fract_y
 _atom_site_fract_z
 _atom_site_occupancy
  Dy  Dy0  1  0.500000  0.318985  0.410842  1
  Dy  Dy1  1  0.500000  0.676923  0.585186  1
  Tm  Tm2  1  0.500000  0.179197  0.916730  1
  Tm  Tm3  1  0.500000  0.823188  0.086566  1
  Tm  Tm4  1  0.500000  0.445591  0.125164  1
  Tm  Tm5  1  0.500000  0.557344  0.871961  1
  Tm  Tm6  1  0.500000  0.055926  0.629342  1
  Tm  Tm7  1  0.500000  0.944341  0.374352  1
  B  B8  1  0.000000  0.104968  0.473317  1
  B  B9  1  0.000000  0.893478  0.530320  1
  B  B10  1  0.000000  0.395683  0.969056  1
  B  B11  1  0.000000  0.608707  0.028350  1
  B  B12  1  0.000000  0.131318  0.317246  1
  B  B13  1  0.000000  0.867284  0.684149  1
  B  B14  1  0.000000  0.368669  0.816558  1
  B  B15  1  0.000000  0.633175  0.183209  1
  B  B16  1  0.000000  0.051277  0.063869  1
  B  B17  1  0.000000  0.946698  0.933239  1
  B  B18  1  0.000000  0.444650  0.565876  1
  B  B19  1  0.000000  0.552950  0.433377  1
  B  B20  1  0.000000  0.483444  0.286644  1
  B  B21  1  0.000000  0.517088  0.712528  1
  B  B22  1  0.000000  0.018108  0.787911  1
  B  B23  1  0.000000  0.978757  0.213890  1
  B  B24  1  0.000000  0.251794  0.077686  1
  B  B25  1  0.000000  0.751309  0.919924  1
  B  B26  1  0.000000  0.249407  0.580129  1
  B  B27  1  0.000000  0.748995  0.420600  1
  B  B28  1  0.000000  0.295757  0.235371  1
  B  B29  1  0.000000  0.706443  0.764062  1
  B  B30  1  0.000000  0.207524  0.736611  1
  B  B31  1  0.000000  0.792113  0.265753  1
  Rh  Rh32  1  0.500000  0.861409  0.821073  1
  Rh  Rh33  1  0.500000  0.360375  0.679946  1
  Rh  Rh34  1  0.500000  0.639282  0.320443  1
  W  W35  1  0.500000  0.137842  0.178720  1
