# generated using pymatgen
data_Dy12In2CuTc2Ni
_symmetry_space_group_name_H-M   'P 1'
_cell_length_a   8.46234920
_cell_length_b   8.46232172
_cell_length_c   8.46234861
_cell_angle_alpha   113.95271210
_cell_angle_beta   110.62139911
_cell_angle_gamma   103.99447985
_symmetry_Int_Tables_number   1
_chemical_formula_structural   Dy12In2CuTc2Ni
_chemical_formula_sum   'Dy12 In2 Cu1 Tc2 Ni1'
_cell_volume   462.90637266
_cell_formula_units_Z   1
loop_
 _symmetry_equiv_pos_site_id
 _symmetry_equiv_pos_as_xyz
  1  'x, y, z'
loop_
 _atom_site_type_symbol
 _atom_site_label
 _atom_site_symmetry_multiplicity
 _atom_site_fract_x
 _atom_site_fract_y
 _atom_site_fract_z
 _atom_site_occupancy
  Dy  Dy0  1  0.436649  0.240424  0.196264  1
  Dy  Dy1  1  0.561516  0.759365  0.802095  1
  Dy  Dy2  1  0.044161  0.240424  0.803773  1
  Dy  Dy3  1  0.957270  0.759365  0.197851  1
  Dy  Dy4  1  0.186630  0.285630  0.467898  1
  Dy  Dy5  1  0.817796  0.718806  0.532096  1
  Dy  Dy6  1  0.186709  0.718806  0.901010  1
  Dy  Dy7  1  0.817731  0.285630  0.099000  1
  Dy  Dy8  1  0.330848  0.645925  0.315077  1
  Dy  Dy9  1  0.663843  0.350661  0.686817  1
  Dy  Dy10  1  0.330895  0.015783  0.684889  1
  Dy  Dy11  1  0.663836  0.977070  0.313233  1
  In  In12  1  0.500112  0.500119  0.000007  1
  In  In13  1  0.998799  0.998756  0.999957  1
  Cu  Cu14  1  0.883390  0.383422  0.500032  1
  Tc  Tc15  1  0.325308  0.001053  0.324251  1
  Tc  Tc16  1  0.676803  0.001053  0.675746  1
  Ni  Ni17  1  0.117702  0.617707  0.500005  1
