# generated using pymatgen
data_Pr2Si3GeRh6
_symmetry_space_group_name_H-M   'P 1'
_cell_length_a   6.73774822
_cell_length_b   6.73655018
_cell_length_c   6.73774764
_cell_angle_alpha   130.33610258
_cell_angle_beta   114.56747645
_cell_angle_gamma   86.39192955
_symmetry_Int_Tables_number   1
_chemical_formula_structural   Pr2Si3GeRh6
_chemical_formula_sum   'Pr2 Si3 Ge1 Rh6'
_cell_volume   202.41822669
_cell_formula_units_Z   1
loop_
 _symmetry_equiv_pos_site_id
 _symmetry_equiv_pos_as_xyz
  1  'x, y, z'
loop_
 _atom_site_type_symbol
 _atom_site_label
 _atom_site_symmetry_multiplicity
 _atom_site_fract_x
 _atom_site_fract_y
 _atom_site_fract_z
 _atom_site_occupancy
  Pr  Pr0  1  0.750499  0.041293  0.290793  1
  Pr  Pr1  1  0.249911  0.969833  0.719922  1
  Si  Si2  1  0.428123  0.630207  0.202084  1
  Si  Si3  1  0.072595  0.271573  0.198978  1
  Si  Si4  1  0.913682  0.710860  0.797178  1
  Ge  Ge5  1  0.586216  0.385659  0.799442  1
  Rh  Rh6  1  0.213050  0.502661  0.715766  1
  Rh  Rh7  1  0.721666  0.996832  0.721892  1
  Rh  Rh8  1  0.786895  0.502661  0.289611  1
  Rh  Rh9  1  0.274939  0.996832  0.275165  1
  Rh  Rh10  1  0.482984  0.495795  0.476354  1
  Rh  Rh11  1  0.019441  0.495795  0.012812  1
