# generated using pymatgen
data_La9Nd7Cd4(CoPt)2
_symmetry_space_group_name_H-M   'P 1'
_cell_length_a   10.01127113
_cell_length_b   10.01127106
_cell_length_c   10.02219400
_cell_angle_alpha   59.96390131
_cell_angle_beta   59.96390155
_cell_angle_gamma   60.33273592
_symmetry_Int_Tables_number   1
_chemical_formula_structural   La9Nd7Cd4(CoPt)2
_chemical_formula_sum   'La9 Nd7 Cd4 Co2 Pt2'
_cell_volume   711.65266551
_cell_formula_units_Z   1
loop_
 _symmetry_equiv_pos_site_id
 _symmetry_equiv_pos_as_xyz
  1  'x, y, z'
loop_
 _atom_site_type_symbol
 _atom_site_label
 _atom_site_symmetry_multiplicity
 _atom_site_fract_x
 _atom_site_fract_y
 _atom_site_fract_z
 _atom_site_occupancy
  La  La0  1  0.343957  0.343957  0.358302  1
  La  La1  1  0.343957  0.343957  0.953784  1
  La  La2  1  0.340095  0.958680  0.350612  1
  La  La3  1  0.958680  0.340095  0.350612  1
  La  La4  1  0.819649  0.189937  0.190146  1
  La  La5  1  0.189937  0.819649  0.800268  1
  La  La6  1  0.189937  0.819649  0.190146  1
  La  La7  1  0.819649  0.189937  0.800268  1
  La  La8  1  0.189289  0.189289  0.810711  1
  Nd  Nd9  1  0.806819  0.806819  0.193181  1
  Nd  Nd10  1  0.935442  0.563910  0.564281  1
  Nd  Nd11  1  0.563910  0.935442  0.936367  1
  Nd  Nd12  1  0.563910  0.935442  0.564281  1
  Nd  Nd13  1  0.935442  0.563910  0.936367  1
  Nd  Nd14  1  0.561366  0.561366  0.938634  1
  Nd  Nd15  1  0.933973  0.933973  0.566027  1
  Cd  Cd16  1  0.580492  0.580492  0.578828  1
  Cd  Cd17  1  0.580492  0.580492  0.260190  1
  Cd  Cd18  1  0.581534  0.258069  0.580199  1
  Cd  Cd19  1  0.258069  0.581534  0.580199  1
  Co  Co20  1  0.141772  0.141772  0.140795  1
  Co  Co21  1  0.141772  0.141772  0.575661  1
  Pt  Pt22  1  0.145230  0.574629  0.140070  1
  Pt  Pt23  1  0.574629  0.145230  0.140070  1
