# generated using pymatgen
data_Y12CuNi4Sn
_symmetry_space_group_name_H-M   'P 1'
_cell_length_a   8.39520094
_cell_length_b   8.39519890
_cell_length_c   8.41802193
_cell_angle_alpha   112.21704526
_cell_angle_beta   109.35261250
_cell_angle_gamma   106.77262248
_symmetry_Int_Tables_number   1
_chemical_formula_structural   Y12CuNi4Sn
_chemical_formula_sum   'Y12 Cu1 Ni4 Sn1'
_cell_volume   456.34630739
_cell_formula_units_Z   1
loop_
 _symmetry_equiv_pos_site_id
 _symmetry_equiv_pos_as_xyz
  1  'x, y, z'
loop_
 _atom_site_type_symbol
 _atom_site_label
 _atom_site_symmetry_multiplicity
 _atom_site_fract_x
 _atom_site_fract_y
 _atom_site_fract_z
 _atom_site_occupancy
  Y  Y0  1  0.819905  0.794503  0.614409  1
  Y  Y1  1  0.024489  0.719931  0.304028  1
  Y  Y2  1  0.977037  0.283672  0.692979  1
  Y  Y3  1  0.584099  0.279540  0.304028  1
  Y  Y4  1  0.409305  0.715941  0.692979  1
  Y  Y5  1  0.675351  0.868553  0.192626  1
  Y  Y6  1  0.324073  0.517274  0.192626  1
  Y  Y7  1  0.323361  0.129622  0.805256  1
  Y  Y8  1  0.675633  0.481896  0.805256  1
  Y  Y9  1  0.180240  0.206275  0.386517  1
  Y  Y10  1  0.819842  0.206215  0.026055  1
  Y  Y11  1  0.180378  0.793865  0.974246  1
  Cu  Cu12  1  0.994399  0.506240  0.500640  1
  Ni  Ni13  1  0.641587  0.497537  0.139124  1
  Ni  Ni14  1  0.362195  0.498867  0.861060  1
  Ni  Ni15  1  0.878869  0.875457  0.003920  1
  Ni  Ni16  1  0.128463  0.125051  0.003920  1
  Sn  Sn17  1  0.500771  0.999557  0.500329  1
