# generated using pymatgen
data_Dy4Ho6OsRu3
_symmetry_space_group_name_H-M   'P 1'
_cell_length_a   6.33227736
_cell_length_b   7.29350602
_cell_length_c   8.45139946
_cell_angle_alpha   96.80825444
_cell_angle_beta   112.09873475
_cell_angle_gamma   89.86971266
_symmetry_Int_Tables_number   1
_chemical_formula_structural   Dy4Ho6OsRu3
_chemical_formula_sum   'Dy4 Ho6 Os1 Ru3'
_cell_volume   358.71892417
_cell_formula_units_Z   1
loop_
 _symmetry_equiv_pos_site_id
 _symmetry_equiv_pos_as_xyz
  1  'x, y, z'
loop_
 _atom_site_type_symbol
 _atom_site_label
 _atom_site_symmetry_multiplicity
 _atom_site_fract_x
 _atom_site_fract_y
 _atom_site_fract_z
 _atom_site_occupancy
  Dy  Dy0  1  0.978512  0.916275  0.186340  1
  Dy  Dy1  1  0.792033  0.584425  0.814791  1
  Dy  Dy2  1  0.021753  0.084738  0.813797  1
  Dy  Dy3  1  0.208995  0.415718  0.186663  1
  Ho  Ho4  1  0.641087  0.814570  0.434307  1
  Ho  Ho5  1  0.204464  0.684338  0.564397  1
  Ho  Ho6  1  0.359690  0.185073  0.565337  1
  Ho  Ho7  1  0.793907  0.315127  0.434768  1
  Ho  Ho8  1  0.420703  0.749281  0.000339  1
  Ho  Ho9  1  0.580347  0.250744  0.000414  1
  Os  Os10  1  0.821784  0.576516  0.219656  1
  Ru  Ru11  1  0.602958  0.924713  0.778956  1
  Ru  Ru12  1  0.176664  0.423083  0.779538  1
  Ru  Ru13  1  0.397101  0.075398  0.220697  1
