# generated using pymatgen
data_Na6Hg(SO4)4
_symmetry_space_group_name_H-M   'P 1'
_cell_length_a   8.42120553
_cell_length_b   9.40018900
_cell_length_c   10.01120000
_cell_angle_alpha   90.00000000
_cell_angle_beta   113.69649409
_cell_angle_gamma   90.00000000
_symmetry_Int_Tables_number   1
_chemical_formula_structural   Na6Hg(SO4)4
_chemical_formula_sum   'Na12 Hg2 S8 O32'
_cell_volume   725.67828456
_cell_formula_units_Z   2
loop_
 _symmetry_equiv_pos_site_id
 _symmetry_equiv_pos_as_xyz
  1  'x, y, z'
loop_
 _atom_site_type_symbol
 _atom_site_label
 _atom_site_symmetry_multiplicity
 _atom_site_fract_x
 _atom_site_fract_y
 _atom_site_fract_z
 _atom_site_occupancy
  Na  Na0  1  0.947668  0.853012  0.580862  1
  Na  Na1  1  0.052332  0.146988  0.419138  1
  Na  Na2  1  0.552332  0.353012  0.419138  1
  Na  Na3  1  0.447668  0.646988  0.580862  1
  Na  Na4  1  0.536464  0.990417  0.681858  1
  Na  Na5  1  0.463536  0.009583  0.318142  1
  Na  Na6  1  0.963536  0.490417  0.318142  1
  Na  Na7  1  0.036464  0.509583  0.681858  1
  Na  Na8  1  0.814062  0.363768  0.880609  1
  Na  Na9  1  0.185938  0.636232  0.119391  1
  Na  Na10  1  0.685938  0.863768  0.119391  1
  Na  Na11  1  0.314062  0.136232  0.880609  1
  Hg  Hg12  1  0.000000  0.000000  0.000000  1
  Hg  Hg13  1  0.500000  0.500000  0.000000  1
  S  S14  1  0.800403  0.692238  0.855106  1
  S  S15  1  0.199597  0.307762  0.144894  1
  S  S16  1  0.699597  0.192238  0.144894  1
  S  S17  1  0.300403  0.807762  0.855106  1
  S  S18  1  0.681565  0.666873  0.356957  1
  S  S19  1  0.318435  0.333127  0.643043  1
  S  S20  1  0.818435  0.166873  0.643043  1
  S  S21  1  0.181565  0.833127  0.356957  1
  O  O22  1  0.851057  0.788804  0.987810  1
  O  O23  1  0.148943  0.211196  0.012190  1
  O  O24  1  0.648943  0.288804  0.012190  1
  O  O25  1  0.351057  0.711196  0.987810  1
  O  O26  1  0.956072  0.610106  0.866259  1
  O  O27  1  0.043928  0.389894  0.133741  1
  O  O28  1  0.543928  0.110106  0.133741  1
  O  O29  1  0.456072  0.889894  0.866259  1
  O  O30  1  0.034259  0.901893  0.375512  1
  O  O31  1  0.965741  0.098107  0.624488  1
  O  O32  1  0.465741  0.401893  0.624488  1
  O  O33  1  0.534259  0.598107  0.375512  1
  O  O34  1  0.728525  0.777493  0.719424  1
  O  O35  1  0.271475  0.222507  0.280576  1
  O  O36  1  0.771475  0.277493  0.280576  1
  O  O37  1  0.228525  0.722507  0.719424  1
  O  O38  1  0.666313  0.590485  0.859659  1
  O  O39  1  0.333686  0.409515  0.140341  1
  O  O40  1  0.833687  0.090485  0.140341  1
  O  O41  1  0.166314  0.909515  0.859659  1
  O  O42  1  0.849295  0.625175  0.476007  1
  O  O43  1  0.150705  0.374825  0.523993  1
  O  O44  1  0.650705  0.125175  0.523993  1
  O  O45  1  0.349295  0.874825  0.476007  1
  O  O46  1  0.306898  0.380331  0.784830  1
  O  O47  1  0.693102  0.619669  0.215170  1
  O  O48  1  0.193102  0.880331  0.215170  1
  O  O49  1  0.806898  0.119669  0.784830  1
  O  O50  1  0.835985  0.324349  0.648470  1
  O  O51  1  0.164015  0.675651  0.351530  1
  O  O52  1  0.664015  0.824349  0.351530  1
  O  O53  1  0.335985  0.175651  0.648470  1
