# generated using pymatgen
data_NdHoTm2(WO6)2
_symmetry_space_group_name_H-M   'P 1'
_cell_length_a   5.42060700
_cell_length_b   7.71751681
_cell_length_c   11.47045061
_cell_angle_alpha   75.59366219
_cell_angle_beta   90.00000000
_cell_angle_gamma   90.00000000
_symmetry_Int_Tables_number   1
_chemical_formula_structural   NdHoTm2(WO6)2
_chemical_formula_sum   'Nd2 Ho2 Tm4 W4 O24'
_cell_volume   464.76194717
_cell_formula_units_Z   2
loop_
 _symmetry_equiv_pos_site_id
 _symmetry_equiv_pos_as_xyz
  1  'x, y, z'
loop_
 _atom_site_type_symbol
 _atom_site_label
 _atom_site_symmetry_multiplicity
 _atom_site_fract_x
 _atom_site_fract_y
 _atom_site_fract_z
 _atom_site_occupancy
  Nd  Nd0  1  0.685498  0.500000  0.750000  1
  Nd  Nd1  1  0.314502  0.500000  0.250000  1
  Ho  Ho2  1  0.740961  0.000000  0.750000  1
  Ho  Ho3  1  0.259039  0.000000  0.250000  1
  Tm  Tm4  1  0.187002  0.798250  0.577343  1
  Tm  Tm5  1  0.812998  0.798250  0.077343  1
  Tm  Tm6  1  0.187002  0.201750  0.922657  1
  Tm  Tm7  1  0.812998  0.201750  0.422657  1
  W  W8  1  0.252936  0.727236  0.885133  1
  W  W9  1  0.747064  0.727236  0.385133  1
  W  W10  1  0.252936  0.272764  0.614867  1
  W  W11  1  0.747064  0.272764  0.114867  1
  O  O12  1  0.040318  0.942472  0.896513  1
  O  O13  1  0.533069  0.847187  0.931839  1
  O  O14  1  0.959682  0.942472  0.396513  1
  O  O15  1  0.455455  0.794618  0.726512  1
  O  O16  1  0.466931  0.847187  0.431839  1
  O  O17  1  0.986751  0.719240  0.768798  1
  O  O18  1  0.544545  0.794618  0.226512  1
  O  O19  1  0.859134  0.641397  0.546702  1
  O  O20  1  0.349420  0.491009  0.888815  1
  O  O21  1  0.013249  0.719240  0.268798  1
  O  O22  1  0.349420  0.508991  0.611185  1
  O  O23  1  0.859134  0.358603  0.953298  1
  O  O24  1  0.140866  0.641397  0.046702  1
  O  O25  1  0.650580  0.491009  0.388815  1
  O  O26  1  0.986751  0.280760  0.731202  1
  O  O27  1  0.650580  0.508991  0.111185  1
  O  O28  1  0.140866  0.358603  0.453298  1
  O  O29  1  0.455455  0.205382  0.773488  1
  O  O30  1  0.013249  0.280760  0.231202  1
  O  O31  1  0.533069  0.152813  0.568161  1
  O  O32  1  0.544545  0.205382  0.273488  1
  O  O33  1  0.040318  0.057528  0.603487  1
  O  O34  1  0.466931  0.152813  0.068161  1
  O  O35  1  0.959682  0.057528  0.103487  1
