# generated using pymatgen
data_Ho3Sn3Ir2Ru
_symmetry_space_group_name_H-M   'P 1'
_cell_length_a   7.58006701
_cell_length_b   7.57931806
_cell_length_c   3.83270300
_cell_angle_alpha   90.00000000
_cell_angle_beta   90.00000000
_cell_angle_gamma   119.99673436
_symmetry_Int_Tables_number   1
_chemical_formula_structural   Ho3Sn3Ir2Ru
_chemical_formula_sum   'Ho3 Sn3 Ir2 Ru1'
_cell_volume   190.70112976
_cell_formula_units_Z   1
loop_
 _symmetry_equiv_pos_site_id
 _symmetry_equiv_pos_as_xyz
  1  'x, y, z'
loop_
 _atom_site_type_symbol
 _atom_site_label
 _atom_site_symmetry_multiplicity
 _atom_site_fract_x
 _atom_site_fract_y
 _atom_site_fract_z
 _atom_site_occupancy
  Ho  Ho0  1  0.406508  0.406504  0.500000  1
  Ho  Ho1  1  0.593492  0.999997  0.500000  1
  Ho  Ho2  1  0.000000  0.593488  0.500000  1
  Sn  Sn3  1  0.739465  0.739471  0.000000  1
  Sn  Sn4  1  0.260535  0.000005  0.000000  1
  Sn  Sn5  1  0.000000  0.260539  0.000000  1
  Ir  Ir6  1  0.666675  0.333337  0.000000  1
  Ir  Ir7  1  0.333325  0.666663  0.000000  1
  Ru  Ru8  1  0.000000  0.999997  0.500000  1
