# generated using pymatgen
data_Ce2Al9Tc5
_symmetry_space_group_name_H-M   'P 1'
_cell_length_a   8.09542894
_cell_length_b   8.09542800
_cell_length_c   8.09542869
_cell_angle_alpha   134.39559586
_cell_angle_beta   134.39559215
_cell_angle_gamma   66.47076626
_symmetry_Int_Tables_number   1
_chemical_formula_structural   Ce2Al9Tc5
_chemical_formula_sum   'Ce2 Al9 Tc5'
_cell_volume   266.60288422
_cell_formula_units_Z   1
loop_
 _symmetry_equiv_pos_site_id
 _symmetry_equiv_pos_as_xyz
  1  'x, y, z'
loop_
 _atom_site_type_symbol
 _atom_site_label
 _atom_site_symmetry_multiplicity
 _atom_site_fract_x
 _atom_site_fract_y
 _atom_site_fract_z
 _atom_site_occupancy
  Ce  Ce0  1  0.000000  0.500000  0.500000  1
  Ce  Ce1  1  0.500000  0.000000  0.500000  1
  Al  Al2  1  0.443583  0.864465  0.000000  1
  Al  Al3  1  0.135535  0.135535  0.579118  1
  Al  Al4  1  0.864465  0.443583  0.000000  1
  Al  Al5  1  0.864465  0.864465  0.420882  1
  Al  Al6  1  0.556417  0.135535  0.000000  1
  Al  Al7  1  0.135535  0.556417  0.000000  1
  Al  Al8  1  0.556417  0.556417  0.420882  1
  Al  Al9  1  0.000000  0.000000  0.000000  1
  Al  Al10  1  0.443583  0.443583  0.579118  1
  Tc  Tc11  1  0.183558  0.183558  0.000000  1
  Tc  Tc12  1  0.816442  0.816442  0.000000  1
  Tc  Tc13  1  0.250000  0.750000  0.500000  1
  Tc  Tc14  1  0.750000  0.250000  0.500000  1
  Tc  Tc15  1  0.500000  0.500000  0.000000  1
