# generated using pymatgen
data_Np6Al8Si8IrOs6
_symmetry_space_group_name_H-M   'P 1'
_cell_length_a   8.71489845
_cell_length_b   8.71489969
_cell_length_c   8.71489900
_cell_angle_alpha   59.99999882
_cell_angle_beta   59.99999411
_cell_angle_gamma   60.00000297
_symmetry_Int_Tables_number   1
_chemical_formula_structural   Np6Al8Si8IrOs6
_chemical_formula_sum   'Np6 Al8 Si8 Ir1 Os6'
_cell_volume   468.02825286
_cell_formula_units_Z   1
loop_
 _symmetry_equiv_pos_site_id
 _symmetry_equiv_pos_as_xyz
  1  'x, y, z'
loop_
 _atom_site_type_symbol
 _atom_site_label
 _atom_site_symmetry_multiplicity
 _atom_site_fract_x
 _atom_site_fract_y
 _atom_site_fract_z
 _atom_site_occupancy
  Np  Np0  1  0.185123  0.814877  0.814877  1
  Np  Np1  1  0.814877  0.185123  0.185123  1
  Np  Np2  1  0.814877  0.185123  0.814877  1
  Np  Np3  1  0.814877  0.814877  0.185123  1
  Np  Np4  1  0.185123  0.814877  0.185123  1
  Np  Np5  1  0.185123  0.185123  0.814877  1
  Al  Al6  1  0.618597  0.618597  0.618597  1
  Al  Al7  1  0.618597  0.618597  0.144209  1
  Al  Al8  1  0.144209  0.618597  0.618597  1
  Al  Al9  1  0.618597  0.144209  0.618597  1
  Al  Al10  1  0.381403  0.381403  0.381403  1
  Al  Al11  1  0.381403  0.381403  0.855791  1
  Al  Al12  1  0.381403  0.855791  0.381403  1
  Al  Al13  1  0.855791  0.381403  0.381403  1
  Si  Si14  1  0.833832  0.833832  0.833832  1
  Si  Si15  1  0.833832  0.833832  0.498506  1
  Si  Si16  1  0.498506  0.833832  0.833832  1
  Si  Si17  1  0.833832  0.498506  0.833832  1
  Si  Si18  1  0.166168  0.166168  0.166168  1
  Si  Si19  1  0.166168  0.166168  0.501494  1
  Si  Si20  1  0.166168  0.501494  0.166168  1
  Si  Si21  1  0.501494  0.166168  0.166168  1
  Ir  Ir22  1  0.500000  0.500000  0.500000  1
  Os  Os23  1  0.000000  0.500000  0.500000  1
  Os  Os24  1  0.500000  0.000000  0.000000  1
  Os  Os25  1  0.500000  0.000000  0.500000  1
  Os  Os26  1  0.500000  0.500000  0.000000  1
  Os  Os27  1  0.000000  0.500000  0.000000  1
  Os  Os28  1  0.000000  0.000000  0.500000  1
