# generated using pymatgen
data_CeEr(GaRh)2
_symmetry_space_group_name_H-M   'P 1'
_cell_length_a   4.37317700
_cell_length_b   6.79332100
_cell_length_c   7.78820000
_cell_angle_alpha   90.00000000
_cell_angle_beta   90.00000000
_cell_angle_gamma   90.00000000
_symmetry_Int_Tables_number   1
_chemical_formula_structural   CeEr(GaRh)2
_chemical_formula_sum   'Ce2 Er2 Ga4 Rh4'
_cell_volume   231.37492311
_cell_formula_units_Z   2
loop_
 _symmetry_equiv_pos_site_id
 _symmetry_equiv_pos_as_xyz
  1  'x, y, z'
loop_
 _atom_site_type_symbol
 _atom_site_label
 _atom_site_symmetry_multiplicity
 _atom_site_fract_x
 _atom_site_fract_y
 _atom_site_fract_z
 _atom_site_occupancy
  Ce  Ce0  1  0.250000  0.970828  0.317234  1
  Ce  Ce1  1  0.250000  0.470828  0.182766  1
  Er  Er2  1  0.750000  0.029015  0.696067  1
  Er  Er3  1  0.750000  0.529015  0.803933  1
  Ga  Ga4  1  0.250000  0.346178  0.574903  1
  Ga  Ga5  1  0.250000  0.846178  0.925097  1
  Ga  Ga6  1  0.750000  0.652764  0.434675  1
  Ga  Ga7  1  0.750000  0.152764  0.065325  1
  Rh  Rh8  1  0.250000  0.239294  0.896717  1
  Rh  Rh9  1  0.250000  0.739294  0.603283  1
  Rh  Rh10  1  0.750000  0.761922  0.109947  1
  Rh  Rh11  1  0.750000  0.261922  0.390053  1
