# generated using pymatgen
data_K2YU(CuSe3)2
_symmetry_space_group_name_H-M   'P 1'
_cell_length_a   4.09599600
_cell_length_b   7.67266127
_cell_length_c   10.64098348
_cell_angle_alpha   89.49747895
_cell_angle_beta   90.00000000
_cell_angle_gamma   74.51884201
_symmetry_Int_Tables_number   1
_chemical_formula_structural   K2YU(CuSe3)2
_chemical_formula_sum   'K2 Y1 U1 Cu2 Se6'
_cell_volume   322.26966769
_cell_formula_units_Z   1
loop_
 _symmetry_equiv_pos_site_id
 _symmetry_equiv_pos_as_xyz
  1  'x, y, z'
loop_
 _atom_site_type_symbol
 _atom_site_label
 _atom_site_symmetry_multiplicity
 _atom_site_fract_x
 _atom_site_fract_y
 _atom_site_fract_z
 _atom_site_occupancy
  K  K0  1  0.253586  0.492829  0.234267  1
  K  K1  1  0.746415  0.507172  0.765733  1
  Y  Y2  1  0.000000  0.000000  0.000000  1
  U  U3  1  0.000000  0.000000  0.500000  1
  Cu  Cu4  1  0.533729  0.932542  0.251744  1
  Cu  Cu5  1  0.466272  0.067457  0.748256  1
  Se  Se6  1  0.626204  0.747593  0.065463  1
  Se  Se7  1  0.935274  0.129453  0.258431  1
  Se  Se8  1  0.623712  0.752577  0.443847  1
  Se  Se9  1  0.376289  0.247423  0.556154  1
  Se  Se10  1  0.064727  0.870546  0.741569  1
  Se  Se11  1  0.373797  0.252407  0.934537  1
