# generated using pymatgen
data_Ba2Rh2Br
_symmetry_space_group_name_H-M   'P 1'
_cell_length_a   4.46101600
_cell_length_b   4.46101534
_cell_length_c   18.30369700
_cell_angle_alpha   90.00000000
_cell_angle_beta   90.00000000
_cell_angle_gamma   119.99999005
_symmetry_Int_Tables_number   1
_chemical_formula_structural   Ba2Rh2Br
_chemical_formula_sum   'Ba4 Rh4 Br2'
_cell_volume   315.45469157
_cell_formula_units_Z   2
loop_
 _symmetry_equiv_pos_site_id
 _symmetry_equiv_pos_as_xyz
  1  'x, y, z'
loop_
 _atom_site_type_symbol
 _atom_site_label
 _atom_site_symmetry_multiplicity
 _atom_site_fract_x
 _atom_site_fract_y
 _atom_site_fract_z
 _atom_site_occupancy
  Ba  Ba0  1  0.000000  0.000000  0.116995  1
  Ba  Ba1  1  0.000000  0.000000  0.883005  1
  Ba  Ba2  1  0.000000  0.000000  0.616995  1
  Ba  Ba3  1  0.000000  0.000000  0.383005  1
  Rh  Rh4  1  0.333333  0.666667  0.500779  1
  Rh  Rh5  1  0.666667  0.333333  0.499221  1
  Rh  Rh6  1  0.666667  0.333333  0.000779  1
  Rh  Rh7  1  0.333333  0.666667  0.999221  1
  Br  Br8  1  0.333333  0.666667  0.250000  1
  Br  Br9  1  0.666667  0.333333  0.750000  1
