# generated using pymatgen
data_Ho2Er4B14OsW
_symmetry_space_group_name_H-M   'P 1'
_cell_length_a   8.05818339
_cell_length_b   8.05818302
_cell_length_c   9.35640544
_cell_angle_alpha   89.96582400
_cell_angle_beta   90.03417687
_cell_angle_gamma   155.04556327
_symmetry_Int_Tables_number   1
_chemical_formula_structural   Ho2Er4B14OsW
_chemical_formula_sum   'Ho2 Er4 B14 Os1 W1'
_cell_volume   256.32447718
_cell_formula_units_Z   1
loop_
 _symmetry_equiv_pos_site_id
 _symmetry_equiv_pos_as_xyz
  1  'x, y, z'
loop_
 _atom_site_type_symbol
 _atom_site_label
 _atom_site_symmetry_multiplicity
 _atom_site_fract_x
 _atom_site_fract_y
 _atom_site_fract_z
 _atom_site_occupancy
  Ho  Ho0  1  0.893742  0.106258  0.437659  1
  Ho  Ho1  1  0.754451  0.245549  0.750051  1
  Er  Er2  1  0.107164  0.892836  0.558011  1
  Er  Er3  1  0.893872  0.106128  0.061905  1
  Er  Er4  1  0.107199  0.892801  0.942048  1
  Er  Er5  1  0.243376  0.756624  0.249925  1
  B  B6  1  0.726532  0.273468  0.464568  1
  B  B7  1  0.271502  0.728498  0.531741  1
  B  B8  1  0.726768  0.273232  0.035540  1
  B  B9  1  0.271670  0.728330  0.968364  1
  B  B10  1  0.631978  0.368022  0.150916  1
  B  B11  1  0.365204  0.634796  0.853115  1
  B  B12  1  0.631971  0.368029  0.349092  1
  B  B13  1  0.365167  0.634833  0.647260  1
  B  B14  1  0.520763  0.479237  0.096160  1
  B  B15  1  0.480910  0.519090  0.909506  1
  B  B16  1  0.520878  0.479122  0.403587  1
  B  B17  1  0.480997  0.519003  0.590788  1
  B  B18  1  0.456801  0.543199  0.249641  1
  B  B19  1  0.547172  0.452828  0.750056  1
  Os  Os20  1  0.053949  0.946051  0.249827  1
  W  W21  1  0.947934  0.052066  0.750242  1
