# generated using pymatgen
data_Tb2Er2Ga4Ni3Ru
_symmetry_space_group_name_H-M   'P 1'
_cell_length_a   4.29198600
_cell_length_b   6.80697730
_cell_length_c   7.47922012
_cell_angle_alpha   89.71148299
_cell_angle_beta   90.00000000
_cell_angle_gamma   90.00000000
_symmetry_Int_Tables_number   1
_chemical_formula_structural   Tb2Er2Ga4Ni3Ru
_chemical_formula_sum   'Tb2 Er2 Ga4 Ni3 Ru1'
_cell_volume   218.50602075
_cell_formula_units_Z   1
loop_
 _symmetry_equiv_pos_site_id
 _symmetry_equiv_pos_as_xyz
  1  'x, y, z'
loop_
 _atom_site_type_symbol
 _atom_site_label
 _atom_site_symmetry_multiplicity
 _atom_site_fract_x
 _atom_site_fract_y
 _atom_site_fract_z
 _atom_site_occupancy
  Tb  Tb0  1  0.250000  0.975754  0.310533  1
  Tb  Tb1  1  0.750000  0.017902  0.696115  1
  Er  Er2  1  0.250000  0.480109  0.190881  1
  Er  Er3  1  0.750000  0.517617  0.805416  1
  Ga  Ga4  1  0.250000  0.334984  0.564961  1
  Ga  Ga5  1  0.250000  0.824586  0.927028  1
  Ga  Ga6  1  0.750000  0.667725  0.426109  1
  Ga  Ga7  1  0.750000  0.170627  0.083533  1
  Ni  Ni8  1  0.250000  0.711552  0.600763  1
  Ni  Ni9  1  0.750000  0.783979  0.101065  1
  Ni  Ni10  1  0.750000  0.289491  0.397500  1
  Ru  Ru11  1  0.250000  0.225675  0.896098  1
