# generated using pymatgen
data_Dy3Hg3Rh2
_symmetry_space_group_name_H-M   'P 1'
_cell_length_a   7.60194000
_cell_length_b   7.60194023
_cell_length_c   3.62429700
_cell_angle_alpha   90.00000000
_cell_angle_beta   90.00000000
_cell_angle_gamma   119.99999030
_symmetry_Int_Tables_number   1
_chemical_formula_structural   Dy3Hg3Rh2
_chemical_formula_sum   'Dy3 Hg3 Rh2'
_cell_volume   181.38582382
_cell_formula_units_Z   1
loop_
 _symmetry_equiv_pos_site_id
 _symmetry_equiv_pos_as_xyz
  1  'x, y, z'
loop_
 _atom_site_type_symbol
 _atom_site_label
 _atom_site_symmetry_multiplicity
 _atom_site_fract_x
 _atom_site_fract_y
 _atom_site_fract_z
 _atom_site_occupancy
  Dy  Dy0  1  0.582721  0.000000  0.500001  1
  Dy  Dy1  1  0.417280  0.417280  0.500001  1
  Dy  Dy2  1  0.000000  0.582720  0.500001  1
  Hg  Hg3  1  0.236281  0.000000  0.000000  1
  Hg  Hg4  1  0.000000  0.236280  0.000000  1
  Hg  Hg5  1  0.763719  0.763719  0.000000  1
  Rh  Rh6  1  0.666667  0.333334  0.000000  1
  Rh  Rh7  1  0.333333  0.666667  0.000000  1
