# generated using pymatgen
data_Hf18Co2Mo5W3
_symmetry_space_group_name_H-M   'P 1'
_cell_length_a   8.68543000
_cell_length_b   8.70073230
_cell_length_c   8.45603900
_cell_angle_alpha   90.00000000
_cell_angle_beta   90.00000000
_cell_angle_gamma   119.94183087
_symmetry_Int_Tables_number   1
_chemical_formula_structural   Hf18Co2Mo5W3
_chemical_formula_sum   'Hf18 Co2 Mo5 W3'
_cell_volume   553.73121209
_cell_formula_units_Z   1
loop_
 _symmetry_equiv_pos_site_id
 _symmetry_equiv_pos_as_xyz
  1  'x, y, z'
loop_
 _atom_site_type_symbol
 _atom_site_label
 _atom_site_symmetry_multiplicity
 _atom_site_fract_x
 _atom_site_fract_y
 _atom_site_fract_z
 _atom_site_occupancy
  Hf  Hf0  1  0.201172  0.798366  0.059101  1
  Hf  Hf1  1  0.597194  0.798366  0.059101  1
  Hf  Hf2  1  0.798400  0.596800  0.558569  1
  Hf  Hf3  1  0.201615  0.403231  0.058795  1
  Hf  Hf4  1  0.798224  0.201418  0.558926  1
  Hf  Hf5  1  0.403194  0.201418  0.558926  1
  Hf  Hf6  1  0.798400  0.596800  0.941431  1
  Hf  Hf7  1  0.798224  0.201418  0.941074  1
  Hf  Hf8  1  0.403194  0.201418  0.941074  1
  Hf  Hf9  1  0.597194  0.798366  0.440899  1
  Hf  Hf10  1  0.201172  0.798366  0.440899  1
  Hf  Hf11  1  0.201615  0.403231  0.441205  1
  Hf  Hf12  1  0.542075  0.084150  0.250000  1
  Hf  Hf13  1  0.457774  0.915548  0.750000  1
  Hf  Hf14  1  0.915766  0.458525  0.250000  1
  Hf  Hf15  1  0.542758  0.458525  0.250000  1
  Hf  Hf16  1  0.457726  0.542303  0.750000  1
  Hf  Hf17  1  0.084578  0.542303  0.750000  1
  Co  Co18  1  0.666494  0.332988  0.750000  1
  Co  Co19  1  0.333338  0.666678  0.250000  1
  Mo  Mo20  1  0.112634  0.225267  0.750000  1
  Mo  Mo21  1  0.224720  0.112085  0.250000  1
  Mo  Mo22  1  0.887365  0.112085  0.250000  1
  Mo  Mo23  1  0.112726  0.887592  0.750000  1
  Mo  Mo24  1  0.774867  0.887592  0.750000  1
  W  W25  1  0.000021  0.000043  0.999547  1
  W  W26  1  0.000021  0.000043  0.500453  1
  W  W27  1  0.887537  0.775075  0.250000  1
