# generated using pymatgen
data_Ho3Ga4Ni9Sn2
_symmetry_space_group_name_H-M   'P 1'
_cell_length_a   4.06664700
_cell_length_b   9.00101353
_cell_length_c   9.03397694
_cell_angle_alpha   120.16616284
_cell_angle_beta   90.00000000
_cell_angle_gamma   90.00000000
_symmetry_Int_Tables_number   1
_chemical_formula_structural   Ho3Ga4Ni9Sn2
_chemical_formula_sum   'Ho3 Ga4 Ni9 Sn2'
_cell_volume   285.89587757
_cell_formula_units_Z   1
loop_
 _symmetry_equiv_pos_site_id
 _symmetry_equiv_pos_as_xyz
  1  'x, y, z'
loop_
 _atom_site_type_symbol
 _atom_site_label
 _atom_site_symmetry_multiplicity
 _atom_site_fract_x
 _atom_site_fract_y
 _atom_site_fract_z
 _atom_site_occupancy
  Ho  Ho0  1  0.500000  0.325474  0.662736  1
  Ho  Ho1  1  0.500000  0.674618  0.337303  1
  Ho  Ho2  1  0.000000  0.000098  0.012553  1
  Ga  Ga3  1  0.000000  0.999852  0.527433  1
  Ga  Ga4  1  0.500000  0.254159  0.994657  1
  Ga  Ga5  1  0.500000  0.745689  0.740292  1
  Ga  Ga6  1  0.500000  0.000046  0.271817  1
  Ni  Ni7  1  0.000000  0.162690  0.380694  1
  Ni  Ni8  1  0.000000  0.192181  0.825999  1
  Ni  Ni9  1  0.000000  0.635580  0.792099  1
  Ni  Ni10  1  0.000000  0.807813  0.633804  1
  Ni  Ni11  1  0.000000  0.364358  0.156397  1
  Ni  Ni12  1  0.000000  0.837486  0.217775  1
  Ni  Ni13  1  0.500000  0.723982  0.001989  1
  Ni  Ni14  1  0.500000  0.275852  0.278211  1
  Ni  Ni15  1  0.500000  0.000109  0.702585  1
  Sn  Sn16  1  0.000000  0.526300  0.995058  1
  Sn  Sn17  1  0.000000  0.473613  0.468598  1
