# generated using pymatgen
data_La7ThZn8Ir7Rh
_symmetry_space_group_name_H-M   'P 1'
_cell_length_a   4.07077700
_cell_length_b   7.44585990
_cell_length_c   16.72509114
_cell_angle_alpha   89.74373359
_cell_angle_beta   90.00000000
_cell_angle_gamma   90.00000000
_symmetry_Int_Tables_number   1
_chemical_formula_structural   La7ThZn8Ir7Rh
_chemical_formula_sum   'La7 Th1 Zn8 Ir7 Rh1'
_cell_volume   506.93972087
_cell_formula_units_Z   1
loop_
 _symmetry_equiv_pos_site_id
 _symmetry_equiv_pos_as_xyz
  1  'x, y, z'
loop_
 _atom_site_type_symbol
 _atom_site_label
 _atom_site_symmetry_multiplicity
 _atom_site_fract_x
 _atom_site_fract_y
 _atom_site_fract_z
 _atom_site_occupancy
  La  La0  1  0.750000  0.950446  0.283184  1
  La  La1  1  0.750000  0.827886  0.059618  1
  La  La2  1  0.250000  0.048739  0.716573  1
  La  La3  1  0.250000  0.169162  0.939591  1
  La  La4  1  0.250000  0.547617  0.783997  1
  La  La5  1  0.750000  0.331737  0.441001  1
  La  La6  1  0.250000  0.671521  0.561560  1
  Th  Th7  1  0.750000  0.448585  0.216168  1
  Zn  Zn8  1  0.250000  0.001723  0.440289  1
  Zn  Zn9  1  0.750000  0.501442  0.940559  1
  Zn  Zn10  1  0.750000  0.004921  0.560242  1
  Zn  Zn11  1  0.250000  0.627090  0.350757  1
  Zn  Zn12  1  0.750000  0.375962  0.650210  1
  Zn  Zn13  1  0.750000  0.875766  0.850311  1
  Zn  Zn14  1  0.250000  0.496643  0.058490  1
  Zn  Zn15  1  0.250000  0.122734  0.150113  1
  Ir  Ir16  1  0.250000  0.245186  0.565118  1
  Ir  Ir17  1  0.750000  0.259753  0.067856  1
  Ir  Ir18  1  0.250000  0.251183  0.307334  1
  Ir  Ir19  1  0.750000  0.255122  0.814057  1
  Ir  Ir20  1  0.250000  0.742811  0.934340  1
  Ir  Ir21  1  0.750000  0.756661  0.685610  1
  Ir  Ir22  1  0.250000  0.724637  0.188290  1
  Rh  Rh23  1  0.750000  0.762678  0.434735  1
