# generated using pymatgen
data_LaTb3Zr4F28
_symmetry_space_group_name_H-M   'P 1'
_cell_length_a   5.82305487
_cell_length_b   9.22401216
_cell_length_c   12.39739905
_cell_angle_alpha   62.29983315
_cell_angle_beta   89.96419415
_cell_angle_gamma   90.01324408
_symmetry_Int_Tables_number   1
_chemical_formula_structural   LaTb3Zr4F28
_chemical_formula_sum   'La1 Tb3 Zr4 F28'
_cell_volume   589.57206407
_cell_formula_units_Z   1
loop_
 _symmetry_equiv_pos_site_id
 _symmetry_equiv_pos_as_xyz
  1  'x, y, z'
loop_
 _atom_site_type_symbol
 _atom_site_label
 _atom_site_symmetry_multiplicity
 _atom_site_fract_x
 _atom_site_fract_y
 _atom_site_fract_z
 _atom_site_occupancy
  La  La0  1  0.757041  0.817209  0.766581  1
  Tb  Tb1  1  0.743475  0.817267  0.266160  1
  Tb  Tb2  1  0.243261  0.185092  0.233888  1
  Tb  Tb3  1  0.256985  0.191209  0.733051  1
  Zr  Zr4  1  0.743706  0.278749  0.452165  1
  Zr  Zr5  1  0.244889  0.725249  0.050363  1
  Zr  Zr6  1  0.255243  0.725802  0.539557  1
  Zr  Zr7  1  0.755175  0.268999  0.957622  1
  F  F8  1  0.457456  0.708009  0.927139  1
  F  F9  1  0.964450  0.288407  0.576570  1
  F  F10  1  0.533081  0.285520  0.078697  1
  F  F11  1  0.031502  0.711579  0.418668  1
  F  F12  1  0.457621  0.281979  0.548766  1
  F  F13  1  0.958853  0.714049  0.959369  1
  F  F14  1  0.546322  0.719301  0.447911  1
  F  F15  1  0.042364  0.277869  0.051524  1
  F  F16  1  0.768782  0.515907  0.861177  1
  F  F17  1  0.267234  0.476129  0.638923  1
  F  F18  1  0.234861  0.474913  0.143430  1
  F  F19  1  0.733006  0.527324  0.356937  1
  F  F20  1  0.759631  0.020821  0.059974  1
  F  F21  1  0.259325  0.974524  0.439827  1
  F  F22  1  0.239825  0.972788  0.943345  1
  F  F23  1  0.739593  0.030798  0.551176  1
  F  F24  1  0.988081  0.730401  0.643112  1
  F  F25  1  0.486792  0.265271  0.852439  1
  F  F26  1  0.011506  0.265780  0.349695  1
  F  F27  1  0.514814  0.734943  0.152048  1
  F  F28  1  0.032403  0.747064  0.174657  1
  F  F29  1  0.531618  0.254359  0.328058  1
  F  F30  1  0.966248  0.251064  0.830263  1
  F  F31  1  0.456051  0.742630  0.668405  1
  F  F32  1  0.431115  0.975077  0.235577  1
  F  F33  1  0.932484  0.025929  0.264408  1
  F  F34  1  0.567987  0.038554  0.765584  1
  F  F35  1  0.087220  0.979437  0.732933  1
