# generated using pymatgen
data_Nd2Gd4Tl3In3O18
_symmetry_space_group_name_H-M   'P 1'
_cell_length_a   6.56043660
_cell_length_b   6.56007028
_cell_length_c   12.49742953
_cell_angle_alpha   89.74185058
_cell_angle_beta   90.14807123
_cell_angle_gamma   120.03090360
_symmetry_Int_Tables_number   1
_chemical_formula_structural   Nd2Gd4Tl3In3O18
_chemical_formula_sum   'Nd2 Gd4 Tl3 In3 O18'
_cell_volume   465.64269919
_cell_formula_units_Z   1
loop_
 _symmetry_equiv_pos_site_id
 _symmetry_equiv_pos_as_xyz
  1  'x, y, z'
loop_
 _atom_site_type_symbol
 _atom_site_label
 _atom_site_symmetry_multiplicity
 _atom_site_fract_x
 _atom_site_fract_y
 _atom_site_fract_z
 _atom_site_occupancy
  Nd  Nd0  1  0.665494  0.329567  0.962586  1
  Nd  Nd1  1  0.335201  0.674253  0.459791  1
  Gd  Gd2  1  0.669748  0.331305  0.458891  1
  Gd  Gd3  1  0.331289  0.672935  0.961558  1
  Gd  Gd4  1  0.997294  0.994736  0.997215  1
  Gd  Gd5  1  0.000910  0.997121  0.494522  1
  Tl  Tl6  1  0.666333  0.666752  0.726227  1
  Tl  Tl7  1  0.000190  0.332444  0.726086  1
  Tl  Tl8  1  0.332627  0.333434  0.226163  1
  In  In9  1  0.999854  0.667081  0.226660  1
  In  In10  1  0.332678  0.000897  0.726508  1
  In  In11  1  0.668163  0.000251  0.226461  1
  O  O12  1  0.690336  0.697333  0.900958  1
  O  O13  1  0.007411  0.308415  0.900697  1
  O  O14  1  0.310723  0.304104  0.397633  1
  O  O15  1  0.992881  0.693124  0.397826  1
  O  O16  1  0.297391  0.994030  0.899787  1
  O  O17  1  0.701359  0.006453  0.397625  1
  O  O18  1  0.645542  0.638583  0.553376  1
  O  O19  1  0.994639  0.354128  0.553100  1
  O  O20  1  0.351920  0.358727  0.056149  1
  O  O21  1  0.005844  0.643209  0.057333  1
  O  O22  1  0.365184  0.007393  0.555371  1
  O  O23  1  0.637105  0.993469  0.057059  1
  O  O24  1  0.013748  0.999460  0.689498  1
  O  O25  1  0.983419  0.982998  0.193429  1
  O  O26  1  0.653084  0.319170  0.760735  1
  O  O27  1  0.333606  0.684440  0.257360  1
  O  O28  1  0.682803  0.332898  0.253738  1
  O  O29  1  0.333222  0.681289  0.757444  1
