# generated using pymatgen
data_TbY7SnPd24
_symmetry_space_group_name_H-M   'P 1'
_cell_length_a   8.41472500
_cell_length_b   8.41472500
_cell_length_c   8.41472500
_cell_angle_alpha   89.99899227
_cell_angle_beta   90.00100773
_cell_angle_gamma   90.00100773
_symmetry_Int_Tables_number   1
_chemical_formula_structural   TbY7SnPd24
_chemical_formula_sum   'Tb1 Y7 Sn1 Pd24'
_cell_volume   595.82645506
_cell_formula_units_Z   1
loop_
 _symmetry_equiv_pos_site_id
 _symmetry_equiv_pos_as_xyz
  1  'x, y, z'
loop_
 _atom_site_type_symbol
 _atom_site_label
 _atom_site_symmetry_multiplicity
 _atom_site_fract_x
 _atom_site_fract_y
 _atom_site_fract_z
 _atom_site_occupancy
  Tb  Tb0  1  0.747342  0.252658  0.252658  1
  Y  Y1  1  0.252549  0.252572  0.252572  1
  Y  Y2  1  0.747427  0.747401  0.747401  1
  Y  Y3  1  0.747428  0.747451  0.252572  1
  Y  Y4  1  0.747428  0.252572  0.747451  1
  Y  Y5  1  0.252599  0.252573  0.747401  1
  Y  Y6  1  0.252599  0.747401  0.252573  1
  Y  Y7  1  0.252527  0.747473  0.747473  1
  Sn  Sn8  1  0.000038  0.999962  0.999962  1
  Pd  Pd9  1  0.265448  0.499997  0.999993  1
  Pd  Pd10  1  0.734542  0.499951  0.000037  1
  Pd  Pd11  1  0.999963  0.265458  0.499951  1
  Pd  Pd12  1  0.500049  0.265458  0.000037  1
  Pd  Pd13  1  0.000007  0.734552  0.499997  1
  Pd  Pd14  1  0.500003  0.734552  0.999993  1
  Pd  Pd15  1  0.500049  0.000037  0.265458  1
  Pd  Pd16  1  0.265448  0.999993  0.499997  1
  Pd  Pd17  1  0.500003  0.999993  0.734552  1
  Pd  Pd18  1  0.734542  0.000037  0.499951  1
  Pd  Pd19  1  0.999963  0.499951  0.265458  1
  Pd  Pd20  1  0.000007  0.499997  0.734552  1
  Pd  Pd21  1  0.255117  0.500011  0.500011  1
  Pd  Pd22  1  0.744872  0.499959  0.499959  1
  Pd  Pd23  1  0.500041  0.255128  0.499959  1
  Pd  Pd24  1  0.499989  0.744883  0.500011  1
  Pd  Pd25  1  0.500041  0.499959  0.255128  1
  Pd  Pd26  1  0.499989  0.500011  0.744883  1
  Pd  Pd27  1  0.308275  0.999991  0.999991  1
  Pd  Pd28  1  0.691704  0.000005  0.000005  1
  Pd  Pd29  1  0.999995  0.308296  0.000005  1
  Pd  Pd30  1  0.000009  0.691725  0.999991  1
  Pd  Pd31  1  0.999995  0.000005  0.308296  1
  Pd  Pd32  1  0.000009  0.999991  0.691725  1
