# generated using pymatgen
data_K(Zr3Te4)2
_symmetry_space_group_name_H-M   'P 1'
_cell_length_a   4.00293400
_cell_length_b   11.12135507
_cell_length_c   11.12427004
_cell_angle_alpha   119.99209278
_cell_angle_beta   90.00250267
_cell_angle_gamma   89.99723145
_symmetry_Int_Tables_number   1
_chemical_formula_structural   K(Zr3Te4)2
_chemical_formula_sum   'K1 Zr6 Te8'
_cell_volume   428.91663316
_cell_formula_units_Z   1
loop_
 _symmetry_equiv_pos_site_id
 _symmetry_equiv_pos_as_xyz
  1  'x, y, z'
loop_
 _atom_site_type_symbol
 _atom_site_label
 _atom_site_symmetry_multiplicity
 _atom_site_fract_x
 _atom_site_fract_y
 _atom_site_fract_z
 _atom_site_occupancy
  K  K0  1  0.500000  0.000000  0.000000  1
  Zr  Zr1  1  0.749102  0.367761  0.873606  1
  Zr  Zr2  1  0.749106  0.126408  0.494104  1
  Zr  Zr3  1  0.749095  0.505892  0.632261  1
  Zr  Zr4  1  0.250898  0.632239  0.126394  1
  Zr  Zr5  1  0.250894  0.873592  0.505896  1
  Zr  Zr6  1  0.250905  0.494108  0.367739  1
  Te  Te7  1  0.750804  0.666661  0.333394  1
  Te  Te8  1  0.249196  0.333339  0.666606  1
  Te  Te9  1  0.751659  0.053899  0.710644  1
  Te  Te10  1  0.751662  0.289389  0.343249  1
  Te  Te11  1  0.751632  0.656697  0.946063  1
  Te  Te12  1  0.248341  0.946101  0.289356  1
  Te  Te13  1  0.248338  0.710611  0.656751  1
  Te  Te14  1  0.248368  0.343303  0.053937  1
