# generated using pymatgen
data_Y2Ga3Cu2Pt7
_symmetry_space_group_name_H-M   'P 1'
_cell_length_a   7.72182691
_cell_length_b   7.72182687
_cell_length_c   10.13543502
_cell_angle_alpha   67.24741251
_cell_angle_beta   67.24740528
_cell_angle_gamma   59.54089287
_symmetry_Int_Tables_number   1
_chemical_formula_structural   Y2Ga3Cu2Pt7
_chemical_formula_sum   'Y4 Ga6 Cu4 Pt14'
_cell_volume   466.37099396
_cell_formula_units_Z   2
loop_
 _symmetry_equiv_pos_site_id
 _symmetry_equiv_pos_as_xyz
  1  'x, y, z'
loop_
 _atom_site_type_symbol
 _atom_site_label
 _atom_site_symmetry_multiplicity
 _atom_site_fract_x
 _atom_site_fract_y
 _atom_site_fract_z
 _atom_site_occupancy
  Y  Y0  1  0.422561  0.247952  0.250417  1
  Y  Y1  1  0.577439  0.752048  0.749583  1
  Y  Y2  1  0.752048  0.577439  0.249583  1
  Y  Y3  1  0.247952  0.422561  0.750417  1
  Ga  Ga4  1  0.500000  0.000000  0.000000  1
  Ga  Ga5  1  0.000000  0.500000  0.500000  1
  Ga  Ga6  1  0.642033  0.179453  0.503003  1
  Ga  Ga7  1  0.357967  0.820547  0.496997  1
  Ga  Ga8  1  0.820547  0.357967  0.996997  1
  Ga  Ga9  1  0.179453  0.642033  0.003003  1
  Cu  Cu10  1  0.275209  0.914800  0.252974  1
  Cu  Cu11  1  0.724791  0.085200  0.747026  1
  Cu  Cu12  1  0.085200  0.724791  0.247026  1
  Cu  Cu13  1  0.914800  0.275209  0.752974  1
  Pt  Pt14  1  0.462539  0.650914  0.081737  1
  Pt  Pt15  1  0.537461  0.349086  0.918263  1
  Pt  Pt16  1  0.349086  0.537461  0.418263  1
  Pt  Pt17  1  0.650914  0.462539  0.581737  1
  Pt  Pt18  1  0.872990  0.127010  0.250000  1
  Pt  Pt19  1  0.127010  0.872990  0.750000  1
  Pt  Pt20  1  0.814269  0.962996  0.078148  1
  Pt  Pt21  1  0.185731  0.037004  0.921852  1
  Pt  Pt22  1  0.037004  0.185731  0.421852  1
  Pt  Pt23  1  0.962996  0.814269  0.578148  1
  Pt  Pt24  1  0.702599  0.851425  0.418332  1
  Pt  Pt25  1  0.297401  0.148575  0.581668  1
  Pt  Pt26  1  0.148575  0.297401  0.081668  1
  Pt  Pt27  1  0.851425  0.702599  0.918332  1
