# generated using pymatgen
data_Tm6Fe3Si6Ir
_symmetry_space_group_name_H-M   'P 1'
_cell_length_a   5.58982378
_cell_length_b   5.58982393
_cell_length_c   13.50418200
_cell_angle_alpha   89.84375883
_cell_angle_beta   90.15624118
_cell_angle_gamma   137.00924303
_symmetry_Int_Tables_number   1
_chemical_formula_structural   Tm6Fe3Si6Ir
_chemical_formula_sum   'Tm6 Fe3 Si6 Ir1'
_cell_volume   287.72052879
_cell_formula_units_Z   1
loop_
 _symmetry_equiv_pos_site_id
 _symmetry_equiv_pos_as_xyz
  1  'x, y, z'
loop_
 _atom_site_type_symbol
 _atom_site_label
 _atom_site_symmetry_multiplicity
 _atom_site_fract_x
 _atom_site_fract_y
 _atom_site_fract_z
 _atom_site_occupancy
  Tm  Tm0  1  0.637827  0.362173  0.248614  1
  Tm  Tm1  1  0.362001  0.637999  0.750019  1
  Tm  Tm2  1  0.918859  0.081141  0.111305  1
  Tm  Tm3  1  0.078576  0.921424  0.889992  1
  Tm  Tm4  1  0.079705  0.920295  0.614506  1
  Tm  Tm5  1  0.920905  0.079095  0.383609  1
  Fe  Fe6  1  0.213902  0.786098  0.421068  1
  Fe  Fe7  1  0.213016  0.786984  0.080623  1
  Fe  Fe8  1  0.785392  0.214608  0.919879  1
  Si  Si9  1  0.326474  0.673526  0.248713  1
  Si  Si10  1  0.669464  0.330536  0.755314  1
  Si  Si11  1  0.623397  0.376603  0.039696  1
  Si  Si12  1  0.375021  0.624979  0.960435  1
  Si  Si13  1  0.387742  0.612258  0.534176  1
  Si  Si14  1  0.618424  0.381576  0.457964  1
  Ir  Ir15  1  0.789296  0.210704  0.584088  1
