# generated using pymatgen
data_LiNd5(P2Ru3)6
_symmetry_space_group_name_H-M   'P 1'
_cell_length_a   12.71916383
_cell_length_b   12.55240299
_cell_length_c   4.01146500
_cell_angle_alpha   90.00000000
_cell_angle_beta   90.00000000
_cell_angle_gamma   119.56723458
_symmetry_Int_Tables_number   1
_chemical_formula_structural   LiNd5(P2Ru3)6
_chemical_formula_sum   'Li1 Nd5 P12 Ru18'
_cell_volume   557.05296337
_cell_formula_units_Z   1
loop_
 _symmetry_equiv_pos_site_id
 _symmetry_equiv_pos_as_xyz
  1  'x, y, z'
loop_
 _atom_site_type_symbol
 _atom_site_label
 _atom_site_symmetry_multiplicity
 _atom_site_fract_x
 _atom_site_fract_y
 _atom_site_fract_z
 _atom_site_occupancy
  Li  Li0  1  0.000000  0.561565  0.000000  1
  Nd  Nd1  1  0.000000  0.182803  0.500000  1
  Nd  Nd2  1  0.817566  0.815024  0.500000  1
  Nd  Nd3  1  0.182434  0.997458  0.500000  1
  Nd  Nd4  1  0.659015  0.328954  0.000000  1
  Nd  Nd5  1  0.340985  0.669940  0.000000  1
  P  P6  1  0.000000  0.804134  0.000000  1
  P  P7  1  0.183586  0.185716  0.000000  1
  P  P8  1  0.816414  0.002130  0.000000  1
  P  P9  1  0.692393  0.171807  0.500000  1
  P  P10  1  0.818807  0.519925  0.500000  1
  P  P11  1  0.471491  0.305209  0.500000  1
  P  P12  1  0.181193  0.701118  0.500000  1
  P  P13  1  0.528509  0.833718  0.500000  1
  P  P14  1  0.307607  0.479413  0.500000  1
  P  P15  1  0.000000  0.370350  0.000000  1
  P  P16  1  0.623301  0.623560  0.000000  1
  P  P17  1  0.376699  0.000259  0.000000  1
  Ru  Ru18  1  0.442732  0.444604  0.000000  1
  Ru  Ru19  1  0.557268  0.001872  0.000000  1
  Ru  Ru20  1  0.000000  0.708056  0.500000  1
  Ru  Ru21  1  0.281356  0.284676  0.500000  1
  Ru  Ru22  1  0.718644  0.003320  0.500000  1
  Ru  Ru23  1  0.805352  0.187002  0.000000  1
  Ru  Ru24  1  0.812578  0.617073  0.000000  1
  Ru  Ru25  1  0.373230  0.190848  0.000000  1
  Ru  Ru26  1  0.187422  0.804495  0.000000  1
  Ru  Ru27  1  0.626770  0.817618  0.000000  1
  Ru  Ru28  1  0.194648  0.381650  0.000000  1
  Ru  Ru29  1  0.877505  0.368786  0.500000  1
  Ru  Ru30  1  0.629158  0.508743  0.500000  1
  Ru  Ru31  1  0.490333  0.126335  0.500000  1
  Ru  Ru32  1  0.370842  0.879585  0.500000  1
  Ru  Ru33  1  0.509667  0.636002  0.500000  1
  Ru  Ru34  1  0.122495  0.491281  0.500000  1
  Ru  Ru35  1  0.000000  0.994974  0.000000  1
