# generated using pymatgen
data_DyY(ThH5)6
_symmetry_space_group_name_H-M   'P 1'
_cell_length_a   7.83466953
_cell_length_b   7.83367090
_cell_length_c   7.80190316
_cell_angle_alpha   109.45491282
_cell_angle_beta   109.45946323
_cell_angle_gamma   109.66677826
_symmetry_Int_Tables_number   1
_chemical_formula_structural   DyY(ThH5)6
_chemical_formula_sum   'Dy1 Y1 Th6 H30'
_cell_volume   367.84278011
_cell_formula_units_Z   1
loop_
 _symmetry_equiv_pos_site_id
 _symmetry_equiv_pos_as_xyz
  1  'x, y, z'
loop_
 _atom_site_type_symbol
 _atom_site_label
 _atom_site_symmetry_multiplicity
 _atom_site_fract_x
 _atom_site_fract_y
 _atom_site_fract_z
 _atom_site_occupancy
  Dy  Dy0  1  0.914623  0.915494  0.916159  1
  Y  Y1  1  0.498436  0.999345  0.083694  1
  Th  Th2  1  0.994279  0.079551  0.495188  1
  Th  Th3  1  0.084683  0.504287  0.000711  1
  Th  Th4  1  0.999064  0.584399  0.504841  1
  Th  Th5  1  0.584019  0.503633  0.999286  1
  Th  Th6  1  0.504040  0.998834  0.587382  1
  Th  Th7  1  0.416607  0.411465  0.412616  1
  H  H8  1  0.651078  0.965452  0.370790  1
  H  H9  1  0.218288  0.315960  0.846337  1
  H  H10  1  0.186334  0.404050  0.534091  1
  H  H11  1  0.095325  0.280075  0.126083  1
  H  H12  1  0.281485  0.123164  0.093061  1
  H  H13  1  0.125314  0.093394  0.277101  1
  H  H14  1  0.469242  0.154069  0.873803  1
  H  H15  1  0.719545  0.350011  0.814234  1
  H  H16  1  0.627802  0.380295  0.251437  1
  H  H17  1  0.250030  0.624620  0.375569  1
  H  H18  1  0.750669  0.872733  0.127127  1
  H  H19  1  0.123219  0.745541  0.872757  1
  H  H20  1  0.374464  0.249054  0.624434  1
  H  H21  1  0.876376  0.128733  0.748648  1
  H  H22  1  0.780385  0.594887  0.629424  1
  H  H23  1  0.317397  0.848393  0.221300  1
  H  H24  1  0.374019  0.657763  0.967735  1
  H  H25  1  0.965059  0.369473  0.651160  1
  H  H26  1  0.535533  0.185327  0.405948  1
  H  H27  1  0.405313  0.535784  0.185764  1
  H  H28  1  0.841284  0.217721  0.312326  1
  H  H29  1  0.906292  0.690199  0.032171  1
  H  H30  1  0.813898  0.718314  0.348831  1
  H  H31  1  0.152241  0.869955  0.465912  1
  H  H32  1  0.688620  0.030017  0.906844  1
  H  H33  1  0.348126  0.816211  0.722705  1
  H  H34  1  0.871953  0.469634  0.153658  1
  H  H35  1  0.629784  0.779476  0.594271  1
  H  H36  1  0.596318  0.627294  0.778795  1
  H  H37  1  0.028859  0.905389  0.687809  1
