# generated using pymatgen
data_HoU3Ga6Ru7
_symmetry_space_group_name_H-M   'P 1'
_cell_length_a   7.22825144
_cell_length_b   7.12153837
_cell_length_c   7.22825028
_cell_angle_alpha   109.17243098
_cell_angle_beta   109.76834490
_cell_angle_gamma   109.17243149
_symmetry_Int_Tables_number   1
_chemical_formula_structural   HoU3Ga6Ru7
_chemical_formula_sum   'Ho1 U3 Ga6 Ru7'
_cell_volume   287.47929003
_cell_formula_units_Z   1
loop_
 _symmetry_equiv_pos_site_id
 _symmetry_equiv_pos_as_xyz
  1  'x, y, z'
loop_
 _atom_site_type_symbol
 _atom_site_label
 _atom_site_symmetry_multiplicity
 _atom_site_fract_x
 _atom_site_fract_y
 _atom_site_fract_z
 _atom_site_occupancy
  Ho  Ho0  1  0.000000  0.500000  0.000000  1
  U  U1  1  0.000000  0.000000  0.500000  1
  U  U2  1  0.500000  0.000000  0.000000  1
  U  U3  1  0.500000  0.500000  0.500000  1
  Ga  Ga4  1  0.305022  0.996324  0.305022  1
  Ga  Ga5  1  0.000000  0.308698  0.305022  1
  Ga  Ga6  1  0.000000  0.691302  0.694978  1
  Ga  Ga7  1  0.305022  0.308698  0.000000  1
  Ga  Ga8  1  0.694978  0.691302  0.000000  1
  Ga  Ga9  1  0.694978  0.003676  0.694978  1
  Ru  Ru10  1  0.743780  0.500000  0.256220  1
  Ru  Ru11  1  0.512441  0.756220  0.256220  1
  Ru  Ru12  1  0.487559  0.243780  0.743780  1
  Ru  Ru13  1  0.743780  0.243780  0.487559  1
  Ru  Ru14  1  0.256220  0.756220  0.512441  1
  Ru  Ru15  1  0.256220  0.500000  0.743780  1
  Ru  Ru16  1  0.000000  0.000000  0.000000  1
