# generated using pymatgen
data_Cs2CrP2Ir
_symmetry_space_group_name_H-M   'P 1'
_cell_length_a   4.04828100
_cell_length_b   4.04828100
_cell_length_c   11.75886100
_cell_angle_alpha   90.00000000
_cell_angle_beta   90.00000000
_cell_angle_gamma   90.00000000
_symmetry_Int_Tables_number   1
_chemical_formula_structural   Cs2CrP2Ir
_chemical_formula_sum   'Cs2 Cr1 P2 Ir1'
_cell_volume   192.71102309
_cell_formula_units_Z   1
loop_
 _symmetry_equiv_pos_site_id
 _symmetry_equiv_pos_as_xyz
  1  'x, y, z'
loop_
 _atom_site_type_symbol
 _atom_site_label
 _atom_site_symmetry_multiplicity
 _atom_site_fract_x
 _atom_site_fract_y
 _atom_site_fract_z
 _atom_site_occupancy
  Cs  Cs0  1  0.000000  0.500000  0.284794  1
  Cs  Cs1  1  0.500000  0.000000  0.715206  1
  Cr  Cr2  1  0.500000  0.500000  0.000000  1
  P  P3  1  0.000000  0.500000  0.897743  1
  P  P4  1  0.500000  0.000000  0.102257  1
  Ir  Ir5  1  0.000000  0.000000  0.000000  1
