# generated using pymatgen
data_Ce10Al3ZnTc6
_symmetry_space_group_name_H-M   'P 1'
_cell_length_a   8.38610281
_cell_length_b   8.38610425
_cell_length_c   8.38610400
_cell_angle_alpha   109.57707058
_cell_angle_beta   109.57706682
_cell_angle_gamma   109.57706765
_symmetry_Int_Tables_number   1
_chemical_formula_structural   Ce10Al3ZnTc6
_chemical_formula_sum   'Ce10 Al3 Zn1 Tc6'
_cell_volume   452.21512709
_cell_formula_units_Z   1
loop_
 _symmetry_equiv_pos_site_id
 _symmetry_equiv_pos_as_xyz
  1  'x, y, z'
loop_
 _atom_site_type_symbol
 _atom_site_label
 _atom_site_symmetry_multiplicity
 _atom_site_fract_x
 _atom_site_fract_y
 _atom_site_fract_z
 _atom_site_occupancy
  Ce  Ce0  1  0.782065  0.782065  0.782065  1
  Ce  Ce1  1  0.306447  0.554042  0.749903  1
  Ce  Ce2  1  0.749903  0.306447  0.554042  1
  Ce  Ce3  1  0.554042  0.749903  0.306447  1
  Ce  Ce4  1  0.712005  0.498640  0.001206  1
  Ce  Ce5  1  0.001206  0.712005  0.498640  1
  Ce  Ce6  1  0.498640  0.001206  0.712005  1
  Ce  Ce7  1  0.249163  0.195464  0.946383  1
  Ce  Ce8  1  0.946383  0.249163  0.195464  1
  Ce  Ce9  1  0.195464  0.946383  0.249163  1
  Al  Al10  1  0.087447  0.500513  0.999270  1
  Al  Al11  1  0.999270  0.087447  0.500513  1
  Al  Al12  1  0.500513  0.999270  0.087447  1
  Zn  Zn13  1  0.412971  0.412971  0.412971  1
  Tc  Tc14  1  0.873051  0.120595  0.750886  1
  Tc  Tc15  1  0.750886  0.873051  0.120595  1
  Tc  Tc16  1  0.120595  0.750886  0.873051  1
  Tc  Tc17  1  0.248673  0.632847  0.378428  1
  Tc  Tc18  1  0.378428  0.248673  0.632847  1
  Tc  Tc19  1  0.632847  0.378428  0.248673  1
