# generated using pymatgen
data_Ac2La2SiI5
_symmetry_space_group_name_H-M   'P 1'
_cell_length_a   10.33033424
_cell_length_b   10.33033322
_cell_length_c   9.51177112
_cell_angle_alpha   78.06834657
_cell_angle_beta   78.06834659
_cell_angle_gamma   25.27136774
_symmetry_Int_Tables_number   1
_chemical_formula_structural   Ac2La2SiI5
_chemical_formula_sum   'Ac2 La2 Si1 I5'
_cell_volume   423.49541911
_cell_formula_units_Z   1
loop_
 _symmetry_equiv_pos_site_id
 _symmetry_equiv_pos_as_xyz
  1  'x, y, z'
loop_
 _atom_site_type_symbol
 _atom_site_label
 _atom_site_symmetry_multiplicity
 _atom_site_fract_x
 _atom_site_fract_y
 _atom_site_fract_z
 _atom_site_occupancy
  Ac  Ac0  1  0.501832  0.501832  0.216470  1
  Ac  Ac1  1  0.498168  0.498168  0.783530  1
  La  La2  1  0.852326  0.852326  0.075632  1
  La  La3  1  0.147674  0.147674  0.924368  1
  Si  Si4  1  0.000000  0.000000  0.000000  1
  I  I5  1  0.674748  0.674748  0.162508  1
  I  I6  1  0.325252  0.325252  0.837492  1
  I  I7  1  0.667928  0.667928  0.670160  1
  I  I8  1  0.332072  0.332072  0.329840  1
  I  I9  1  0.000000  0.000000  0.500000  1
