# generated using pymatgen
data_Ce3Er7(Ga2Ir3)2
_symmetry_space_group_name_H-M   'P 1'
_cell_length_a   8.38432056
_cell_length_b   8.38431899
_cell_length_c   8.38432100
_cell_angle_alpha   110.08127401
_cell_angle_beta   110.08128466
_cell_angle_gamma   110.08127548
_symmetry_Int_Tables_number   1
_chemical_formula_structural   Ce3Er7(Ga2Ir3)2
_chemical_formula_sum   'Ce3 Er7 Ga4 Ir6'
_cell_volume   443.16958468
_cell_formula_units_Z   1
loop_
 _symmetry_equiv_pos_site_id
 _symmetry_equiv_pos_as_xyz
  1  'x, y, z'
loop_
 _atom_site_type_symbol
 _atom_site_label
 _atom_site_symmetry_multiplicity
 _atom_site_fract_x
 _atom_site_fract_y
 _atom_site_fract_z
 _atom_site_occupancy
  Ce  Ce0  1  0.253244  0.197641  0.944514  1
  Ce  Ce1  1  0.944514  0.253244  0.197641  1
  Ce  Ce2  1  0.197641  0.944514  0.253244  1
  Er  Er3  1  0.766536  0.766536  0.766536  1
  Er  Er4  1  0.313565  0.568016  0.750056  1
  Er  Er5  1  0.750056  0.313565  0.568016  1
  Er  Er6  1  0.568016  0.750056  0.313565  1
  Er  Er7  1  0.729578  0.507540  0.000522  1
  Er  Er8  1  0.000522  0.729578  0.507540  1
  Er  Er9  1  0.507540  0.000522  0.729578  1
  Ga  Ga10  1  0.396462  0.396462  0.396462  1
  Ga  Ga11  1  0.101947  0.497187  0.999663  1
  Ga  Ga12  1  0.999663  0.101947  0.497187  1
  Ga  Ga13  1  0.497187  0.999663  0.101947  1
  Ir  Ir14  1  0.876066  0.109294  0.742281  1
  Ir  Ir15  1  0.742281  0.876066  0.109294  1
  Ir  Ir16  1  0.109294  0.742281  0.876066  1
  Ir  Ir17  1  0.241882  0.623943  0.380064  1
  Ir  Ir18  1  0.380064  0.241882  0.623943  1
  Ir  Ir19  1  0.623943  0.380064  0.241882  1
