# generated using pymatgen
data_CaTb4FeRuO12
_symmetry_space_group_name_H-M   'P 1'
_cell_length_a   6.85488703
_cell_length_b   6.83594482
_cell_length_c   7.36589204
_cell_angle_alpha   74.24770294
_cell_angle_beta   74.30099676
_cell_angle_gamma   51.45344319
_symmetry_Int_Tables_number   1
_chemical_formula_structural   CaTb4FeRuO12
_chemical_formula_sum   'Ca1 Tb4 Fe1 Ru1 O12'
_cell_volume   257.44570726
_cell_formula_units_Z   1
loop_
 _symmetry_equiv_pos_site_id
 _symmetry_equiv_pos_as_xyz
  1  'x, y, z'
loop_
 _atom_site_type_symbol
 _atom_site_label
 _atom_site_symmetry_multiplicity
 _atom_site_fract_x
 _atom_site_fract_y
 _atom_site_fract_z
 _atom_site_occupancy
  Ca  Ca0  1  0.689650  0.688972  0.673011  1
  Tb  Tb1  1  0.686521  0.704543  0.135722  1
  Tb  Tb2  1  0.997272  0.007562  0.000858  1
  Tb  Tb3  1  0.293294  0.311289  0.861852  1
  Tb  Tb4  1  0.309419  0.310969  0.325797  1
  Fe  Fe5  1  0.255087  0.746587  0.499383  1
  Ru  Ru6  1  0.762202  0.237187  0.501833  1
  O  O7  1  0.393718  0.913325  0.930879  1
  O  O8  1  0.576170  0.107609  0.577489  1
  O  O9  1  0.898772  0.418372  0.415160  1
  O  O10  1  0.094121  0.598146  0.078471  1
  O  O11  1  0.994067  0.002963  0.322382  1
  O  O12  1  0.511575  0.485704  0.682227  1
  O  O13  1  0.905877  0.398927  0.934893  1
  O  O14  1  0.111540  0.569475  0.577847  1
  O  O15  1  0.418192  0.904159  0.413115  1
  O  O16  1  0.595253  0.101123  0.074523  1
  O  O17  1  0.513168  0.487646  0.313102  1
  O  O18  1  0.994103  0.005442  0.681455  1
