# generated using pymatgen
data_CsMn2O4
_symmetry_space_group_name_H-M   'P 1'
_cell_length_a   6.15830400
_cell_length_b   5.10554437
_cell_length_c   14.06064602
_cell_angle_alpha   90.01820821
_cell_angle_beta   89.86335856
_cell_angle_gamma   88.59332877
_symmetry_Int_Tables_number   1
_chemical_formula_structural   CsMn2O4
_chemical_formula_sum   'Cs4 Mn8 O16'
_cell_volume   441.95320552
_cell_formula_units_Z   4
loop_
 _symmetry_equiv_pos_site_id
 _symmetry_equiv_pos_as_xyz
  1  'x, y, z'
loop_
 _atom_site_type_symbol
 _atom_site_label
 _atom_site_symmetry_multiplicity
 _atom_site_fract_x
 _atom_site_fract_y
 _atom_site_fract_z
 _atom_site_occupancy
  Cs  Cs0  1  0.001786  0.057793  0.251160  1
  Cs  Cs1  1  0.995503  0.378456  0.749303  1
  Cs  Cs2  1  0.504143  0.621536  0.249283  1
  Cs  Cs3  1  0.498056  0.942249  0.751208  1
  Mn  Mn4  1  0.002767  0.999487  0.995682  1
  Mn  Mn5  1  0.004754  0.002870  0.505160  1
  Mn  Mn6  1  0.246420  0.498781  0.000057  1
  Mn  Mn7  1  0.253647  0.501014  0.500373  1
  Mn  Mn8  1  0.495163  0.997027  0.005244  1
  Mn  Mn9  1  0.497381  0.000369  0.495703  1
  Mn  Mn10  1  0.746091  0.501026  0.499857  1
  Mn  Mn11  1  0.754019  0.498985  0.000150  1
  O  O12  1  0.004925  0.338238  0.436307  1
  O  O13  1  0.003572  0.334114  0.066967  1
  O  O14  1  0.030034  0.684365  0.575529  1
  O  O15  1  0.030313  0.686575  0.922297  1
  O  O16  1  0.261467  0.825809  0.426977  1
  O  O17  1  0.230580  0.823636  0.072942  1
  O  O18  1  0.270691  0.177876  0.573439  1
  O  O19  1  0.237269  0.175715  0.926399  1
  O  O20  1  0.470356  0.313560  0.422339  1
  O  O21  1  0.468714  0.315526  0.075431  1
  O  O22  1  0.495979  0.666008  0.566959  1
  O  O23  1  0.496397  0.661714  0.936350  1
  O  O24  1  0.736950  0.828926  0.427164  1
  O  O25  1  0.773444  0.831823  0.070181  1
  O  O26  1  0.728050  0.166804  0.569630  1
  O  O27  1  0.761627  0.169516  0.927908  1
