# generated using pymatgen
data_Ce3Al3Pd2Rh
_symmetry_space_group_name_H-M   'P 1'
_cell_length_a   7.17060500
_cell_length_b   7.17060640
_cell_length_c   4.14344100
_cell_angle_alpha   90.00000000
_cell_angle_beta   90.00000000
_cell_angle_gamma   119.99998891
_symmetry_Int_Tables_number   1
_chemical_formula_structural   Ce3Al3Pd2Rh
_chemical_formula_sum   'Ce3 Al3 Pd2 Rh1'
_cell_volume   184.50303886
_cell_formula_units_Z   1
loop_
 _symmetry_equiv_pos_site_id
 _symmetry_equiv_pos_as_xyz
  1  'x, y, z'
loop_
 _atom_site_type_symbol
 _atom_site_label
 _atom_site_symmetry_multiplicity
 _atom_site_fract_x
 _atom_site_fract_y
 _atom_site_fract_z
 _atom_site_occupancy
  Ce  Ce0  1  0.005609  0.579857  0.500000  1
  Ce  Ce1  1  0.420143  0.425752  0.500000  1
  Ce  Ce2  1  0.574248  0.994391  0.500000  1
  Al  Al3  1  0.002013  0.235472  0.000000  1
  Al  Al4  1  0.764528  0.766541  0.000000  1
  Al  Al5  1  0.233459  0.997987  0.000000  1
  Pd  Pd6  1  0.000000  0.000000  0.500000  1
  Pd  Pd7  1  0.666667  0.333333  0.000000  1
  Rh  Rh8  1  0.333333  0.666667  0.000000  1
