# generated using pymatgen
data_La3Pr(SeO5)2
_symmetry_space_group_name_H-M   'P 1'
_cell_length_a   8.88618900
_cell_length_b   8.88619083
_cell_length_c   11.32062800
_cell_angle_alpha   90.00000000
_cell_angle_beta   90.00000000
_cell_angle_gamma   142.41970267
_symmetry_Int_Tables_number   1
_chemical_formula_structural   La3Pr(SeO5)2
_chemical_formula_sum   'La6 Pr2 Se4 O20'
_cell_volume   545.18120937
_cell_formula_units_Z   2
loop_
 _symmetry_equiv_pos_site_id
 _symmetry_equiv_pos_as_xyz
  1  'x, y, z'
loop_
 _atom_site_type_symbol
 _atom_site_label
 _atom_site_symmetry_multiplicity
 _atom_site_fract_x
 _atom_site_fract_y
 _atom_site_fract_z
 _atom_site_occupancy
  La  La0  1  0.248685  0.748685  0.880885  1
  La  La1  1  0.748685  0.248685  0.119115  1
  La  La2  1  0.904437  0.074012  0.388249  1
  La  La3  1  0.074012  0.904437  0.611751  1
  La  La4  1  0.404437  0.574012  0.611751  1
  La  La5  1  0.574012  0.404437  0.388249  1
  Pr  Pr6  1  0.750867  0.250867  0.608549  1
  Pr  Pr7  1  0.250867  0.750867  0.391451  1
  Se  Se8  1  0.388774  0.569031  0.134436  1
  Se  Se9  1  0.569031  0.388774  0.865564  1
  Se  Se10  1  0.888774  0.069031  0.865564  1
  Se  Se11  1  0.069031  0.888774  0.134436  1
  O  O12  1  0.144659  0.453290  0.216571  1
  O  O13  1  0.453290  0.144659  0.783429  1
  O  O14  1  0.644659  0.953290  0.783429  1
  O  O15  1  0.953290  0.644659  0.216571  1
  O  O16  1  0.577527  0.906278  0.506134  1
  O  O17  1  0.906278  0.577527  0.493866  1
  O  O18  1  0.077527  0.406278  0.493866  1
  O  O19  1  0.406278  0.077527  0.506134  1
  O  O20  1  0.118455  0.618455  0.710770  1
  O  O21  1  0.618455  0.118455  0.289230  1
  O  O22  1  0.507077  0.821033  0.062467  1
  O  O23  1  0.821033  0.507077  0.937533  1
  O  O24  1  0.197692  0.098539  0.244090  1
  O  O25  1  0.098539  0.197692  0.755910  1
  O  O26  1  0.697692  0.598539  0.755910  1
  O  O27  1  0.598539  0.697692  0.244090  1
  O  O28  1  0.242164  0.242164  0.500000  1
  O  O29  1  0.742164  0.742164  0.500000  1
  O  O30  1  0.321033  0.007077  0.062467  1
  O  O31  1  0.007077  0.321033  0.937533  1
