# generated using pymatgen
data_K3RbLi2(BSe)18
_symmetry_space_group_name_H-M   'P 1'
_cell_length_a   9.71434204
_cell_length_b   11.34776529
_cell_length_c   10.53601953
_cell_angle_alpha   102.75131527
_cell_angle_beta   83.80697164
_cell_angle_gamma   118.30062835
_symmetry_Int_Tables_number   1
_chemical_formula_structural   K3RbLi2(BSe)18
_chemical_formula_sum   'K3 Rb1 Li2 B18 Se18'
_cell_volume   997.39608167
_cell_formula_units_Z   1
loop_
 _symmetry_equiv_pos_site_id
 _symmetry_equiv_pos_as_xyz
  1  'x, y, z'
loop_
 _atom_site_type_symbol
 _atom_site_label
 _atom_site_symmetry_multiplicity
 _atom_site_fract_x
 _atom_site_fract_y
 _atom_site_fract_z
 _atom_site_occupancy
  K  K0  1  0.812027  0.238644  0.009987  1
  K  K1  1  0.190364  0.764121  0.989188  1
  K  K2  1  0.204237  0.376937  0.516205  1
  Rb  Rb3  1  0.798047  0.632705  0.481211  1
  Li  Li4  1  0.338717  0.321427  0.106336  1
  Li  Li5  1  0.659001  0.676405  0.895036  1
  B  B6  1  0.503156  0.151700  0.560388  1
  B  B7  1  0.497201  0.847968  0.439347  1
  B  B8  1  0.659288  0.121134  0.590430  1
  B  B9  1  0.341045  0.878383  0.408891  1
  B  B10  1  0.470712  0.034528  0.660792  1
  B  B11  1  0.529443  0.965034  0.338809  1
  B  B12  1  0.325134  0.995539  0.547823  1
  B  B13  1  0.675060  0.004188  0.451783  1
  B  B14  1  0.421679  0.056003  0.403588  1
  B  B15  1  0.578231  0.943554  0.596168  1
  B  B16  1  0.626680  0.132231  0.430478  1
  B  B17  1  0.373109  0.867229  0.568977  1
  B  B18  1  0.738604  0.409711  0.718872  1
  B  B19  1  0.261280  0.588694  0.283092  1
  B  B20  1  0.204029  0.050070  0.809205  1
  B  B21  1  0.796952  0.950745  0.190476  1
  B  B22  1  0.577163  0.285866  0.258428  1
  B  B23  1  0.421059  0.712837  0.740895  1
  Se  Se24  1  0.530512  0.338988  0.642433  1
  Se  Se25  1  0.470099  0.660607  0.358304  1
  Se  Se26  1  0.834030  0.283998  0.696594  1
  Se  Se27  1  0.167999  0.715358  0.301167  1
  Se  Se28  1  0.406806  0.073366  0.848859  1
  Se  Se29  1  0.593672  0.926275  0.150789  1
  Se  Se30  1  0.129955  0.001944  0.631832  1
  Se  Se31  1  0.871302  0.999757  0.367921  1
  Se  Se32  1  0.360884  0.143277  0.287430  1
  Se  Se33  1  0.637394  0.856476  0.713788  1
  Se  Se34  1  0.754012  0.289555  0.340318  1
  Se  Se35  1  0.244674  0.709509  0.658501  1
  Se  Se36  1  0.851052  0.595093  0.808409  1
  Se  Se37  1  0.146984  0.401238  0.199646  1
  Se  Se38  1  0.082657  0.106336  0.956580  1
  Se  Se39  1  0.918095  0.894771  0.042719  1
  Se  Se40  1  0.621517  0.415110  0.149258  1
  Se  Se41  1  0.376136  0.582688  0.849051  1
