# generated using pymatgen
data_CaNdSiN3
_symmetry_space_group_name_H-M   'P 1'
_cell_length_a   5.91706238
_cell_length_b   5.91706096
_cell_length_c   11.53588700
_cell_angle_alpha   90.00000000
_cell_angle_beta   90.00000000
_cell_angle_gamma   125.38493126
_symmetry_Int_Tables_number   1
_chemical_formula_structural   CaNdSiN3
_chemical_formula_sum   'Ca4 Nd4 Si4 N12'
_cell_volume   329.28355039
_cell_formula_units_Z   4
loop_
 _symmetry_equiv_pos_site_id
 _symmetry_equiv_pos_as_xyz
  1  'x, y, z'
loop_
 _atom_site_type_symbol
 _atom_site_label
 _atom_site_symmetry_multiplicity
 _atom_site_fract_x
 _atom_site_fract_y
 _atom_site_fract_z
 _atom_site_occupancy
  Ca  Ca0  1  0.639404  0.360596  0.073456  1
  Ca  Ca1  1  0.360596  0.639404  0.926544  1
  Ca  Ca2  1  0.860596  0.139404  0.573456  1
  Ca  Ca3  1  0.139404  0.860596  0.426544  1
  Nd  Nd4  1  0.049604  0.950396  0.855444  1
  Nd  Nd5  1  0.950396  0.049604  0.144556  1
  Nd  Nd6  1  0.450396  0.549604  0.355444  1
  Nd  Nd7  1  0.549604  0.450396  0.644556  1
  Si  Si8  1  0.748398  0.251602  0.835612  1
  Si  Si9  1  0.251602  0.748398  0.164388  1
  Si  Si10  1  0.751602  0.248398  0.335612  1
  Si  Si11  1  0.248398  0.751602  0.664388  1
  N  N12  1  0.583030  0.416970  0.861386  1
  N  N13  1  0.416970  0.583030  0.138614  1
  N  N14  1  0.916970  0.083030  0.361386  1
  N  N15  1  0.083030  0.916970  0.638614  1
  N  N16  1  0.541035  0.958965  0.750000  1
  N  N17  1  0.958965  0.541035  0.250000  1
  N  N18  1  0.458965  0.041035  0.250000  1
  N  N19  1  0.041035  0.458965  0.750000  1
  N  N20  1  0.847270  0.152730  0.958894  1
  N  N21  1  0.152730  0.847270  0.041106  1
  N  N22  1  0.652730  0.347270  0.458894  1
  N  N23  1  0.347270  0.652730  0.541106  1
