# generated using pymatgen
data_Pr3Ho(Pd2O5)2
_symmetry_space_group_name_H-M   'P 1'
_cell_length_a   6.62764429
_cell_length_b   6.64961949
_cell_length_c   5.61502500
_cell_angle_alpha   90.00000000
_cell_angle_beta   90.00000000
_cell_angle_gamma   89.82951351
_symmetry_Int_Tables_number   1
_chemical_formula_structural   Pr3Ho(Pd2O5)2
_chemical_formula_sum   'Pr3 Ho1 Pd4 O10'
_cell_volume   247.46042673
_cell_formula_units_Z   1
loop_
 _symmetry_equiv_pos_site_id
 _symmetry_equiv_pos_as_xyz
  1  'x, y, z'
loop_
 _atom_site_type_symbol
 _atom_site_label
 _atom_site_symmetry_multiplicity
 _atom_site_fract_x
 _atom_site_fract_y
 _atom_site_fract_z
 _atom_site_occupancy
  Pr  Pr0  1  0.107207  0.261808  0.000000  1
  Pr  Pr1  1  0.889462  0.743179  0.000000  1
  Pr  Pr2  1  0.263907  0.895026  0.500000  1
  Ho  Ho3  1  0.748762  0.109518  0.500000  1
  Pd  Pd4  1  0.596465  0.301932  0.000000  1
  Pd  Pd5  1  0.404867  0.696178  0.000000  1
  Pd  Pd6  1  0.307556  0.403936  0.500000  1
  Pd  Pd7  1  0.694059  0.594901  0.500000  1
  O  O8  1  0.406978  0.193519  0.261337  1
  O  O9  1  0.598742  0.808429  0.738427  1
  O  O10  1  0.598742  0.808429  0.261573  1
  O  O11  1  0.195034  0.597953  0.758906  1
  O  O12  1  0.406978  0.193519  0.738663  1
  O  O13  1  0.802161  0.392367  0.249481  1
  O  O14  1  0.802161  0.392367  0.750519  1
  O  O15  1  0.195034  0.597953  0.241094  1
  O  O16  1  0.990943  0.004493  0.255247  1
  O  O17  1  0.990943  0.004493  0.744753  1
