# generated using pymatgen
data_Dy6Al24Fe5Pt3
_symmetry_space_group_name_H-M   'P 1'
_cell_length_a   8.74609599
_cell_length_b   8.72984906
_cell_length_c   9.37343829
_cell_angle_alpha   89.93801176
_cell_angle_beta   90.00409385
_cell_angle_gamma   119.90521979
_symmetry_Int_Tables_number   1
_chemical_formula_structural   Dy6Al24Fe5Pt3
_chemical_formula_sum   'Dy6 Al24 Fe5 Pt3'
_cell_volume   620.38916150
_cell_formula_units_Z   1
loop_
 _symmetry_equiv_pos_site_id
 _symmetry_equiv_pos_as_xyz
  1  'x, y, z'
loop_
 _atom_site_type_symbol
 _atom_site_label
 _atom_site_symmetry_multiplicity
 _atom_site_fract_x
 _atom_site_fract_y
 _atom_site_fract_z
 _atom_site_occupancy
  Dy  Dy0  1  0.191573  0.806080  0.248691  1
  Dy  Dy1  1  0.189976  0.386245  0.246783  1
  Dy  Dy2  1  0.614593  0.809191  0.248916  1
  Dy  Dy3  1  0.808427  0.193920  0.751309  1
  Dy  Dy4  1  0.810024  0.613755  0.753217  1
  Dy  Dy5  1  0.385407  0.190809  0.751084  1
  Al  Al6  1  0.565086  0.435645  0.249996  1
  Al  Al7  1  0.561340  0.122305  0.241469  1
  Al  Al8  1  0.882663  0.441456  0.249832  1
  Al  Al9  1  0.434914  0.564355  0.750004  1
  Al  Al10  1  0.438660  0.877695  0.758531  1
  Al  Al11  1  0.117337  0.558544  0.750168  1
  Al  Al12  1  0.316670  0.158438  0.421943  1
  Al  Al13  1  0.846601  0.167863  0.422109  1
  Al  Al14  1  0.847534  0.679827  0.423512  1
  Al  Al15  1  0.683330  0.841562  0.578057  1
  Al  Al16  1  0.153399  0.832137  0.577891  1
  Al  Al17  1  0.152466  0.320173  0.576488  1
  Al  Al18  1  0.679382  0.846977  0.925433  1
  Al  Al19  1  0.161385  0.837513  0.924340  1
  Al  Al20  1  0.153455  0.322037  0.924583  1
  Al  Al21  1  0.320618  0.153023  0.074567  1
  Al  Al22  1  0.838615  0.162487  0.075660  1
  Al  Al23  1  0.846545  0.677963  0.075417  1
  Al  Al24  1  0.679558  0.339632  0.522026  1
  Al  Al25  1  0.320442  0.660368  0.477974  1
  Al  Al26  1  0.327642  0.672340  0.021231  1
  Al  Al27  1  0.672358  0.327660  0.978769  1
  Al  Al28  1  0.997847  0.000417  0.249546  1
  Al  Al29  1  0.002153  0.999583  0.750454  1
  Fe  Fe30  1  0.000000  0.000000  0.500000  1
  Fe  Fe31  1  0.000000  0.000000  0.000000  1
  Fe  Fe32  1  0.000000  0.500000  0.500000  1
  Fe  Fe33  1  0.500000  0.000000  0.000000  1
  Fe  Fe34  1  0.000000  0.500000  0.000000  1
  Pt  Pt35  1  0.500000  0.500000  0.500000  1
  Pt  Pt36  1  0.500000  0.000000  0.500000  1
  Pt  Pt37  1  0.500000  0.500000  0.000000  1
