# generated using pymatgen
data_Tb3Lu(Fe2Br)2
_symmetry_space_group_name_H-M   'P 1'
_cell_length_a   3.90418700
_cell_length_b   3.90418664
_cell_length_c   16.47533900
_cell_angle_alpha   90.00000000
_cell_angle_beta   90.00000000
_cell_angle_gamma   119.99999455
_symmetry_Int_Tables_number   1
_chemical_formula_structural   Tb3Lu(Fe2Br)2
_chemical_formula_sum   'Tb3 Lu1 Fe4 Br2'
_cell_volume   217.48344184
_cell_formula_units_Z   1
loop_
 _symmetry_equiv_pos_site_id
 _symmetry_equiv_pos_as_xyz
  1  'x, y, z'
loop_
 _atom_site_type_symbol
 _atom_site_label
 _atom_site_symmetry_multiplicity
 _atom_site_fract_x
 _atom_site_fract_y
 _atom_site_fract_z
 _atom_site_occupancy
  Tb  Tb0  1  0.000000  0.000000  0.387967  1
  Tb  Tb1  1  0.000000  0.000000  0.611324  1
  Tb  Tb2  1  0.000000  0.000000  0.891760  1
  Lu  Lu3  1  0.000000  0.000000  0.106794  1
  Fe  Fe4  1  0.666666  0.333334  0.008735  1
  Fe  Fe5  1  0.666666  0.333334  0.494138  1
  Fe  Fe6  1  0.333333  0.666665  0.505462  1
  Fe  Fe7  1  0.333333  0.666665  0.995946  1
  Br  Br8  1  0.333333  0.666665  0.246827  1
  Br  Br9  1  0.666666  0.333334  0.751048  1
