# generated using pymatgen
data_TbHo2Er(CI)2
_symmetry_space_group_name_H-M   'P 1'
_cell_length_a   3.74756000
_cell_length_b   3.74755899
_cell_length_c   14.73020500
_cell_angle_alpha   90.00000000
_cell_angle_beta   90.00000000
_cell_angle_gamma   120.00000888
_symmetry_Int_Tables_number   1
_chemical_formula_structural   TbHo2Er(CI)2
_chemical_formula_sum   'Tb1 Ho2 Er1 C2 I2'
_cell_volume   179.15810360
_cell_formula_units_Z   1
loop_
 _symmetry_equiv_pos_site_id
 _symmetry_equiv_pos_as_xyz
  1  'x, y, z'
loop_
 _atom_site_type_symbol
 _atom_site_label
 _atom_site_symmetry_multiplicity
 _atom_site_fract_x
 _atom_site_fract_y
 _atom_site_fract_z
 _atom_site_occupancy
  Tb  Tb0  1  0.333333  0.666667  0.914415  1
  Ho  Ho1  1  0.333333  0.666667  0.584539  1
  Ho  Ho2  1  0.666667  0.333333  0.414657  1
  Er  Er3  1  0.666667  0.333333  0.085645  1
  C  C4  1  0.000000  0.000000  0.003431  1
  C  C5  1  0.000000  0.000000  0.499385  1
  I  I6  1  0.333333  0.666667  0.250351  1
  I  I7  1  0.666667  0.333333  0.747574  1
