# generated using pymatgen
data_Hf4Al2Re5Mo
_symmetry_space_group_name_H-M   'P 1'
_cell_length_a   5.27747200
_cell_length_b   5.27063240
_cell_length_c   8.61085000
_cell_angle_alpha   90.00000000
_cell_angle_beta   90.00000000
_cell_angle_gamma   120.04292368
_symmetry_Int_Tables_number   1
_chemical_formula_structural   Hf4Al2Re5Mo
_chemical_formula_sum   'Hf4 Al2 Re5 Mo1'
_cell_volume   207.33724049
_cell_formula_units_Z   1
loop_
 _symmetry_equiv_pos_site_id
 _symmetry_equiv_pos_as_xyz
  1  'x, y, z'
loop_
 _atom_site_type_symbol
 _atom_site_label
 _atom_site_symmetry_multiplicity
 _atom_site_fract_x
 _atom_site_fract_y
 _atom_site_fract_z
 _atom_site_occupancy
  Hf  Hf0  1  0.333640  0.667280  0.433647  1
  Hf  Hf1  1  0.666732  0.333464  0.936072  1
  Hf  Hf2  1  0.666732  0.333464  0.563928  1
  Hf  Hf3  1  0.333640  0.667280  0.066353  1
  Al  Al4  1  0.999509  0.999017  0.000560  1
  Al  Al5  1  0.999509  0.999017  0.499440  1
  Re  Re6  1  0.829880  0.170271  0.250000  1
  Re  Re7  1  0.340394  0.170271  0.250000  1
  Re  Re8  1  0.659927  0.829439  0.750000  1
  Re  Re9  1  0.829719  0.659437  0.250000  1
  Re  Re10  1  0.169510  0.829439  0.750000  1
  Mo  Mo11  1  0.170809  0.341621  0.750000  1
