# generated using pymatgen
data_TbNd6IrBr12
_symmetry_space_group_name_H-M   'P 1'
_cell_length_a   9.59269892
_cell_length_b   9.59269775
_cell_length_c   9.59269680
_cell_angle_alpha   107.20601573
_cell_angle_beta   107.20600618
_cell_angle_gamma   107.20599652
_symmetry_Int_Tables_number   1
_chemical_formula_structural   TbNd6IrBr12
_chemical_formula_sum   'Tb1 Nd6 Ir1 Br12'
_cell_volume   730.96599114
_cell_formula_units_Z   1
loop_
 _symmetry_equiv_pos_site_id
 _symmetry_equiv_pos_as_xyz
  1  'x, y, z'
loop_
 _atom_site_type_symbol
 _atom_site_label
 _atom_site_symmetry_multiplicity
 _atom_site_fract_x
 _atom_site_fract_y
 _atom_site_fract_z
 _atom_site_occupancy
  Tb  Tb0  1  0.500000  0.500000  0.500000  1
  Nd  Nd1  1  0.103299  0.314067  0.024934  1
  Nd  Nd2  1  0.314067  0.024935  0.103298  1
  Nd  Nd3  1  0.024935  0.103298  0.314068  1
  Nd  Nd4  1  0.975066  0.896702  0.685933  1
  Nd  Nd5  1  0.685933  0.975066  0.896702  1
  Nd  Nd6  1  0.896701  0.685933  0.975066  1
  Ir  Ir7  1  0.000000  0.000000  0.000000  1
  Br  Br8  1  0.222830  0.684436  0.073560  1
  Br  Br9  1  0.466442  0.390433  0.177967  1
  Br  Br10  1  0.684437  0.073560  0.222830  1
  Br  Br11  1  0.926441  0.777170  0.315564  1
  Br  Br12  1  0.177967  0.466442  0.390433  1
  Br  Br13  1  0.390433  0.177967  0.466442  1
  Br  Br14  1  0.609567  0.822033  0.533559  1
  Br  Br15  1  0.822034  0.533558  0.609567  1
  Br  Br16  1  0.073560  0.222830  0.684437  1
  Br  Br17  1  0.315564  0.926441  0.777170  1
  Br  Br18  1  0.533558  0.609567  0.822034  1
  Br  Br19  1  0.777170  0.315564  0.926440  1
