# generated using pymatgen
data_Zr10In3Ga2Sn3
_symmetry_space_group_name_H-M   'P 1'
_cell_length_a   8.76584044
_cell_length_b   8.75891002
_cell_length_c   5.90862100
_cell_angle_alpha   90.00000000
_cell_angle_beta   90.00000000
_cell_angle_gamma   119.93360778
_symmetry_Int_Tables_number   1
_chemical_formula_structural   Zr10In3Ga2Sn3
_chemical_formula_sum   'Zr10 In3 Ga2 Sn3'
_cell_volume   393.14300333
_cell_formula_units_Z   1
loop_
 _symmetry_equiv_pos_site_id
 _symmetry_equiv_pos_as_xyz
  1  'x, y, z'
loop_
 _atom_site_type_symbol
 _atom_site_label
 _atom_site_symmetry_multiplicity
 _atom_site_fract_x
 _atom_site_fract_y
 _atom_site_fract_z
 _atom_site_occupancy
  Zr  Zr0  1  0.000196  0.265937  0.250000  1
  Zr  Zr1  1  0.736291  0.000608  0.750000  1
  Zr  Zr2  1  0.737729  0.735179  0.250000  1
  Zr  Zr3  1  0.667768  0.334829  0.500563  1
  Zr  Zr4  1  0.998058  0.733588  0.750000  1
  Zr  Zr5  1  0.264224  0.266524  0.750000  1
  Zr  Zr6  1  0.332441  0.665471  0.999516  1
  Zr  Zr7  1  0.667768  0.334829  0.999437  1
  Zr  Zr8  1  0.332441  0.665471  0.500484  1
  Zr  Zr9  1  0.263108  0.997910  0.250000  1
  In  In10  1  0.613300  0.999911  0.250000  1
  In  In11  1  0.385980  0.999876  0.750000  1
  In  In12  1  0.385622  0.385096  0.250000  1
  Ga  Ga13  1  0.001378  0.001331  0.000207  1
  Ga  Ga14  1  0.001378  0.001331  0.499793  1
  Sn  Sn15  1  0.000588  0.613367  0.250000  1
  Sn  Sn16  1  0.999313  0.385615  0.750000  1
  Sn  Sn17  1  0.612418  0.613124  0.750000  1
