# generated using pymatgen
data_YbEr3(B4Os)4
_symmetry_space_group_name_H-M   'P 1'
_cell_length_a   3.54913600
_cell_length_b   5.95531616
_cell_length_c   11.50836726
_cell_angle_alpha   89.92831921
_cell_angle_beta   90.00000000
_cell_angle_gamma   90.00000000
_symmetry_Int_Tables_number   1
_chemical_formula_structural   YbEr3(B4Os)4
_chemical_formula_sum   'Yb1 Er3 B16 Os4'
_cell_volume   243.24327219
_cell_formula_units_Z   1
loop_
 _symmetry_equiv_pos_site_id
 _symmetry_equiv_pos_as_xyz
  1  'x, y, z'
loop_
 _atom_site_type_symbol
 _atom_site_label
 _atom_site_symmetry_multiplicity
 _atom_site_fract_x
 _atom_site_fract_y
 _atom_site_fract_z
 _atom_site_occupancy
  Yb  Yb0  1  0.000000  0.370079  0.149187  1
  Er  Er1  1  0.000000  0.127842  0.649865  1
  Er  Er2  1  0.000000  0.871289  0.348661  1
  Er  Er3  1  0.000000  0.628056  0.851171  1
  B  B4  1  0.500000  0.475762  0.692115  1
  B  B5  1  0.500000  0.525162  0.308360  1
  B  B6  1  0.500000  0.974917  0.808385  1
  B  B7  1  0.500000  0.024710  0.191165  1
  B  B8  1  0.500000  0.290273  0.814464  1
  B  B9  1  0.500000  0.710583  0.185427  1
  B  B10  1  0.500000  0.789887  0.686389  1
  B  B11  1  0.500000  0.211508  0.313746  1
  B  B12  1  0.500000  0.363977  0.969937  1
  B  B13  1  0.500000  0.635752  0.030099  1
  B  B14  1  0.500000  0.863992  0.530212  1
  B  B15  1  0.500000  0.135577  0.470240  1
  B  B16  1  0.500000  0.386841  0.547437  1
  B  B17  1  0.500000  0.612390  0.452894  1
  B  B18  1  0.500000  0.887458  0.953513  1
  B  B19  1  0.500000  0.114064  0.047059  1
  Os  Os20  1  0.000000  0.140920  0.906167  1
  Os  Os21  1  0.000000  0.859611  0.091812  1
  Os  Os22  1  0.000000  0.641729  0.593536  1
  Os  Os23  1  0.000000  0.357620  0.408161  1
