# generated using pymatgen
data_Ho2Fe2P7(Ir2Ru3)2
_symmetry_space_group_name_H-M   'P 1'
_cell_length_a   9.39803467
_cell_length_b   9.38861650
_cell_length_c   3.88354100
_cell_angle_alpha   90.00000000
_cell_angle_beta   90.00000000
_cell_angle_gamma   120.03086929
_symmetry_Int_Tables_number   1
_chemical_formula_structural   Ho2Fe2P7(Ir2Ru3)2
_chemical_formula_sum   'Ho2 Fe2 P7 Ir4 Ru6'
_cell_volume   296.66204981
_cell_formula_units_Z   1
loop_
 _symmetry_equiv_pos_site_id
 _symmetry_equiv_pos_as_xyz
  1  'x, y, z'
loop_
 _atom_site_type_symbol
 _atom_site_label
 _atom_site_symmetry_multiplicity
 _atom_site_fract_x
 _atom_site_fract_y
 _atom_site_fract_z
 _atom_site_occupancy
  Ho  Ho0  1  0.999666  0.000891  0.000000  1
  Ho  Ho1  1  0.331988  0.665146  0.500000  1
  Fe  Fe2  1  0.393767  0.219820  0.000000  1
  Fe  Fe3  1  0.828587  0.605843  0.000000  1
  P  P4  1  0.550828  0.914922  0.000000  1
  P  P5  1  0.371622  0.446017  0.000000  1
  P  P6  1  0.072351  0.624848  0.000000  1
  P  P7  1  0.952979  0.221990  0.500000  1
  P  P8  1  0.265438  0.054696  0.500000  1
  P  P9  1  0.781887  0.730529  0.500000  1
  P  P10  1  0.661518  0.340224  0.000000  1
  Ir  Ir11  1  0.296819  0.897832  0.000000  1
  Ir  Ir12  1  0.724131  0.946230  0.500000  1
  Ir  Ir13  1  0.227513  0.278556  0.500000  1
  Ir  Ir14  1  0.051454  0.780692  0.500000  1
  Ru  Ru15  1  0.606462  0.697980  0.000000  1
  Ru  Ru16  1  0.102695  0.398855  0.000000  1
  Ru  Ru17  1  0.774859  0.177161  0.000000  1
  Ru  Ru18  1  0.528539  0.107482  0.500000  1
  Ru  Ru19  1  0.582272  0.454831  0.500000  1
  Ru  Ru20  1  0.894627  0.435457  0.500000  1
