# generated using pymatgen
data_Tb2YbEu(Al3Pd)6
_symmetry_space_group_name_H-M   'P 1'
_cell_length_a   7.66185457
_cell_length_b   7.66320855
_cell_length_c   9.52979500
_cell_angle_alpha   90.00000000
_cell_angle_beta   90.00000000
_cell_angle_gamma   119.59293765
_symmetry_Int_Tables_number   1
_chemical_formula_structural   Tb2YbEu(Al3Pd)6
_chemical_formula_sum   'Tb2 Yb1 Eu1 Al18 Pd6'
_cell_volume   486.54786079
_cell_formula_units_Z   1
loop_
 _symmetry_equiv_pos_site_id
 _symmetry_equiv_pos_as_xyz
  1  'x, y, z'
loop_
 _atom_site_type_symbol
 _atom_site_label
 _atom_site_symmetry_multiplicity
 _atom_site_fract_x
 _atom_site_fract_y
 _atom_site_fract_z
 _atom_site_occupancy
  Tb  Tb0  1  0.669453  0.995196  0.250000  1
  Tb  Tb1  1  0.330243  0.003788  0.750000  1
  Yb  Yb2  1  0.995206  0.669660  0.250000  1
  Eu  Eu3  1  0.005069  0.332317  0.750000  1
  Al  Al4  1  0.130024  0.131101  0.250000  1
  Al  Al5  1  0.870083  0.868756  0.750000  1
  Al  Al6  1  0.001243  0.335464  0.077587  1
  Al  Al7  1  0.998362  0.665496  0.926046  1
  Al  Al8  1  0.998362  0.665496  0.573954  1
  Al  Al9  1  0.334256  0.999756  0.423615  1
  Al  Al10  1  0.001243  0.335464  0.422413  1
  Al  Al11  1  0.665471  0.999513  0.574022  1
  Al  Al12  1  0.665471  0.999513  0.925978  1
  Al  Al13  1  0.334256  0.999756  0.076385  1
  Al  Al14  1  0.333300  0.332872  0.555223  1
  Al  Al15  1  0.666721  0.666692  0.441644  1
  Al  Al16  1  0.666721  0.666692  0.058356  1
  Al  Al17  1  0.333300  0.332872  0.944777  1
  Al  Al18  1  0.343179  0.548604  0.250000  1
  Al  Al19  1  0.657521  0.451936  0.750000  1
  Al  Al20  1  0.544651  0.335867  0.250000  1
  Al  Al21  1  0.456494  0.663980  0.750000  1
  Pd  Pd22  1  0.670863  0.328457  0.001467  1
  Pd  Pd23  1  0.329174  0.672604  0.001034  1
  Pd  Pd24  1  0.329174  0.672604  0.498966  1
  Pd  Pd25  1  0.670863  0.328457  0.498533  1
  Pd  Pd26  1  0.999649  0.998544  0.001574  1
  Pd  Pd27  1  0.999649  0.998544  0.498426  1
