# generated using pymatgen
data_LaCoAs3Rh4
_symmetry_space_group_name_H-M   'P 1'
_cell_length_a   3.99221500
_cell_length_b   11.33976900
_cell_length_c   12.91168500
_cell_angle_alpha   90.00000000
_cell_angle_beta   90.00000000
_cell_angle_gamma   90.00000000
_symmetry_Int_Tables_number   1
_chemical_formula_structural   LaCoAs3Rh4
_chemical_formula_sum   'La4 Co4 As12 Rh16'
_cell_volume   584.52225634
_cell_formula_units_Z   4
loop_
 _symmetry_equiv_pos_site_id
 _symmetry_equiv_pos_as_xyz
  1  'x, y, z'
loop_
 _atom_site_type_symbol
 _atom_site_label
 _atom_site_symmetry_multiplicity
 _atom_site_fract_x
 _atom_site_fract_y
 _atom_site_fract_z
 _atom_site_occupancy
  La  La0  1  0.250000  0.584873  0.706064  1
  La  La1  1  0.250000  0.915127  0.206064  1
  La  La2  1  0.750000  0.415127  0.293936  1
  La  La3  1  0.750000  0.084873  0.793936  1
  Co  Co4  1  0.250000  0.468199  0.933308  1
  Co  Co5  1  0.250000  0.031801  0.433308  1
  Co  Co6  1  0.750000  0.531801  0.066692  1
  Co  Co7  1  0.750000  0.968199  0.566692  1
  As  As8  1  0.250000  0.419947  0.105202  1
  As  As9  1  0.250000  0.080053  0.605202  1
  As  As10  1  0.750000  0.580053  0.894798  1
  As  As11  1  0.750000  0.919947  0.394798  1
  As  As12  1  0.250000  0.276479  0.874415  1
  As  As13  1  0.250000  0.223521  0.374415  1
  As  As14  1  0.750000  0.723521  0.125585  1
  As  As15  1  0.750000  0.776479  0.625585  1
  As  As16  1  0.250000  0.602881  0.389406  1
  As  As17  1  0.250000  0.897119  0.889406  1
  As  As18  1  0.750000  0.397119  0.610594  1
  As  As19  1  0.750000  0.102881  0.110594  1
  Rh  Rh20  1  0.250000  0.711051  0.987867  1
  Rh  Rh21  1  0.250000  0.788949  0.487867  1
  Rh  Rh22  1  0.750000  0.288949  0.012133  1
  Rh  Rh23  1  0.750000  0.211051  0.512133  1
  Rh  Rh24  1  0.250000  0.407297  0.482611  1
  Rh  Rh25  1  0.250000  0.092703  0.982611  1
  Rh  Rh26  1  0.750000  0.592703  0.517389  1
  Rh  Rh27  1  0.750000  0.907297  0.017389  1
  Rh  Rh28  1  0.250000  0.220155  0.177558  1
  Rh  Rh29  1  0.250000  0.279845  0.677558  1
  Rh  Rh30  1  0.750000  0.779845  0.822442  1
  Rh  Rh31  1  0.750000  0.720155  0.322442  1
  Rh  Rh32  1  0.250000  0.886309  0.695454  1
  Rh  Rh33  1  0.250000  0.613691  0.195454  1
  Rh  Rh34  1  0.750000  0.113691  0.304546  1
  Rh  Rh35  1  0.750000  0.386309  0.804546  1
