# generated using pymatgen
data_Y8Ta4Ti5Si16Mo3
_symmetry_space_group_name_H-M   'P 1'
_cell_length_a   6.84018662
_cell_length_b   7.03366179
_cell_length_c   13.28777130
_cell_angle_alpha   89.98042218
_cell_angle_beta   90.01492908
_cell_angle_gamma   90.02707305
_symmetry_Int_Tables_number   1
_chemical_formula_structural   Y8Ta4Ti5Si16Mo3
_chemical_formula_sum   'Y8 Ta4 Ti5 Si16 Mo3'
_cell_volume   639.29526561
_cell_formula_units_Z   1
loop_
 _symmetry_equiv_pos_site_id
 _symmetry_equiv_pos_as_xyz
  1  'x, y, z'
loop_
 _atom_site_type_symbol
 _atom_site_label
 _atom_site_symmetry_multiplicity
 _atom_site_fract_x
 _atom_site_fract_y
 _atom_site_fract_z
 _atom_site_occupancy
  Y  Y0  1  0.502744  0.329519  0.096522  1
  Y  Y1  1  0.004070  0.171134  0.402877  1
  Y  Y2  1  0.495956  0.669953  0.596325  1
  Y  Y3  1  0.997719  0.829146  0.904524  1
  Y  Y4  1  0.495110  0.670840  0.903795  1
  Y  Y5  1  0.995645  0.828477  0.596130  1
  Y  Y6  1  0.504542  0.329726  0.403234  1
  Y  Y7  1  0.004347  0.170866  0.097310  1
  Ta  Ta8  1  0.833322  0.326726  0.626891  1
  Ta  Ta9  1  0.333994  0.175124  0.873570  1
  Ta  Ta10  1  0.166213  0.673851  0.127181  1
  Ta  Ta11  1  0.661400  0.011234  0.749777  1
  Ti  Ti12  1  0.665952  0.827164  0.372035  1
  Ti  Ti13  1  0.167925  0.672471  0.373373  1
  Ti  Ti14  1  0.666747  0.825510  0.127099  1
  Ti  Ti15  1  0.833466  0.326457  0.874101  1
  Ti  Ti16  1  0.331668  0.174655  0.625385  1
  Si  Si17  1  0.658251  0.037354  0.542013  1
  Si  Si18  1  0.159461  0.460791  0.957908  1
  Si  Si19  1  0.340563  0.961006  0.043162  1
  Si  Si20  1  0.841478  0.542000  0.455454  1
  Si  Si21  1  0.340956  0.960623  0.455533  1
  Si  Si22  1  0.839259  0.538056  0.043125  1
  Si  Si23  1  0.661380  0.037430  0.958154  1
  Si  Si24  1  0.160326  0.460920  0.542423  1
  Si  Si25  1  0.535089  0.376680  0.749424  1
  Si  Si26  1  0.039287  0.124716  0.750463  1
  Si  Si27  1  0.464813  0.626171  0.250914  1
  Si  Si28  1  0.962473  0.874553  0.251597  1
  Si  Si29  1  0.797298  0.624334  0.751197  1
  Si  Si30  1  0.294834  0.873958  0.748926  1
  Si  Si31  1  0.202926  0.375521  0.250670  1
  Si  Si32  1  0.701825  0.123730  0.249611  1
  Mo  Mo33  1  0.160136  0.488612  0.749637  1
  Mo  Mo34  1  0.339329  0.988331  0.249969  1
  Mo  Mo35  1  0.839494  0.512364  0.249692  1
