# generated using pymatgen
data_Li4WF7
_symmetry_space_group_name_H-M   'P 1'
_cell_length_a   6.09857262
_cell_length_b   6.09857182
_cell_length_c   6.09857300
_cell_angle_alpha   59.99999903
_cell_angle_beta   60.00000339
_cell_angle_gamma   60.00000103
_symmetry_Int_Tables_number   1
_chemical_formula_structural   Li4WF7
_chemical_formula_sum   'Li4 W1 F7'
_cell_volume   160.38715465
_cell_formula_units_Z   1
loop_
 _symmetry_equiv_pos_site_id
 _symmetry_equiv_pos_as_xyz
  1  'x, y, z'
loop_
 _atom_site_type_symbol
 _atom_site_label
 _atom_site_symmetry_multiplicity
 _atom_site_fract_x
 _atom_site_fract_y
 _atom_site_fract_z
 _atom_site_occupancy
  Li  Li0  1  0.373692  0.373692  0.373692  1
  Li  Li1  1  0.373692  0.373692  0.878926  1
  Li  Li2  1  0.373692  0.878926  0.373692  1
  Li  Li3  1  0.878926  0.373692  0.373692  1
  W  W4  1  0.000000  0.000000  0.000000  1
  F  F5  1  0.247255  0.247255  0.752745  1
  F  F6  1  0.247255  0.752745  0.247255  1
  F  F7  1  0.752745  0.247255  0.247255  1
  F  F8  1  0.752745  0.752745  0.247255  1
  F  F9  1  0.250000  0.250000  0.250000  1
  F  F10  1  0.247255  0.752745  0.752745  1
  F  F11  1  0.752745  0.247255  0.752745  1
