# generated using pymatgen
data_Sm3Al2B4Rh9
_symmetry_space_group_name_H-M   'P 1'
_cell_length_a   5.53650300
_cell_length_b   5.53650254
_cell_length_c   10.07818400
_cell_angle_alpha   90.00000000
_cell_angle_beta   90.00000000
_cell_angle_gamma   119.99999679
_symmetry_Int_Tables_number   1
_chemical_formula_structural   Sm3Al2B4Rh9
_chemical_formula_sum   'Sm3 Al2 B4 Rh9'
_cell_volume   267.53707320
_cell_formula_units_Z   1
loop_
 _symmetry_equiv_pos_site_id
 _symmetry_equiv_pos_as_xyz
  1  'x, y, z'
loop_
 _atom_site_type_symbol
 _atom_site_label
 _atom_site_symmetry_multiplicity
 _atom_site_fract_x
 _atom_site_fract_y
 _atom_site_fract_z
 _atom_site_occupancy
  Sm  Sm0  1  0.000000  0.000000  0.000000  1
  Sm  Sm1  1  0.000000  0.000000  0.660911  1
  Sm  Sm2  1  0.000000  0.000000  0.339089  1
  Al  Al3  1  0.666667  0.333333  0.000000  1
  Al  Al4  1  0.333333  0.666667  0.000000  1
  B  B5  1  0.666667  0.333333  0.654328  1
  B  B6  1  0.333333  0.666667  0.654328  1
  B  B7  1  0.333333  0.666667  0.345672  1
  B  B8  1  0.666667  0.333333  0.345672  1
  Rh  Rh9  1  0.500000  0.500000  0.500000  1
  Rh  Rh10  1  0.500000  0.000000  0.500000  1
  Rh  Rh11  1  0.000000  0.500000  0.500000  1
  Rh  Rh12  1  0.500000  0.500000  0.797436  1
  Rh  Rh13  1  0.500000  0.000000  0.797436  1
  Rh  Rh14  1  0.000000  0.500000  0.797436  1
  Rh  Rh15  1  0.500000  0.500000  0.202564  1
  Rh  Rh16  1  0.500000  0.000000  0.202564  1
  Rh  Rh17  1  0.000000  0.500000  0.202564  1
