# generated using pymatgen
data_Cs6ErTmSb4
_symmetry_space_group_name_H-M   'P 1'
_cell_length_a   10.52655905
_cell_length_b   10.52655982
_cell_length_c   10.52656035
_cell_angle_alpha   127.69532397
_cell_angle_beta   70.12393842
_cell_angle_gamma   136.76280606
_symmetry_Int_Tables_number   1
_chemical_formula_structural   Cs6ErTmSb4
_chemical_formula_sum   'Cs6 Er1 Tm1 Sb4'
_cell_volume   620.16428163
_cell_formula_units_Z   1
loop_
 _symmetry_equiv_pos_site_id
 _symmetry_equiv_pos_as_xyz
  1  'x, y, z'
loop_
 _atom_site_type_symbol
 _atom_site_label
 _atom_site_symmetry_multiplicity
 _atom_site_fract_x
 _atom_site_fract_y
 _atom_site_fract_z
 _atom_site_occupancy
  Cs  Cs0  1  0.315942  0.703906  0.019819  1
  Cs  Cs1  1  0.184058  0.203878  0.387964  1
  Cs  Cs2  1  0.750000  0.250000  0.500000  1
  Cs  Cs3  1  0.250000  0.749999  0.499999  1
  Cs  Cs4  1  0.815914  0.796095  0.612037  1
  Cs  Cs5  1  0.684086  0.296123  0.980182  1
  Er  Er6  1  0.250000  0.250000  0.000000  1
  Tm  Tm7  1  0.750000  0.750000  0.000000  1
  Sb  Sb8  1  0.906113  0.183441  0.089902  1
  Sb  Sb9  1  0.593888  0.683791  0.277330  1
  Sb  Sb10  1  0.406460  0.316558  0.722669  1
  Sb  Sb11  1  0.093540  0.816209  0.910097  1
