# generated using pymatgen
data_Tb7ErCoHg3
_symmetry_space_group_name_H-M   'P 1'
_cell_length_a   10.16560348
_cell_length_b   10.16560327
_cell_length_c   7.17671852
_cell_angle_alpha   90.11461043
_cell_angle_beta   89.88539052
_cell_angle_gamma   119.94665488
_symmetry_Int_Tables_number   1
_chemical_formula_structural   Tb7ErCoHg3
_chemical_formula_sum   'Tb14 Er2 Co2 Hg6'
_cell_volume   642.62099145
_cell_formula_units_Z   2
loop_
 _symmetry_equiv_pos_site_id
 _symmetry_equiv_pos_as_xyz
  1  'x, y, z'
loop_
 _atom_site_type_symbol
 _atom_site_label
 _atom_site_symmetry_multiplicity
 _atom_site_fract_x
 _atom_site_fract_y
 _atom_site_fract_z
 _atom_site_occupancy
  Tb  Tb0  1  0.826443  0.173557  0.482840  1
  Tb  Tb1  1  0.173867  0.347478  0.981572  1
  Tb  Tb2  1  0.652522  0.826133  0.981572  1
  Tb  Tb3  1  0.173711  0.826289  0.980863  1
  Tb  Tb4  1  0.665959  0.334041  0.188800  1
  Tb  Tb5  1  0.333005  0.666995  0.687440  1
  Tb  Tb6  1  0.538931  0.078772  0.788909  1
  Tb  Tb7  1  0.921228  0.461069  0.788909  1
  Tb  Tb8  1  0.539474  0.460526  0.787669  1
  Tb  Tb9  1  0.460516  0.921037  0.290081  1
  Tb  Tb10  1  0.078963  0.539484  0.290081  1
  Tb  Tb11  1  0.461153  0.538847  0.290189  1
  Tb  Tb12  1  0.000525  0.999475  0.772207  1
  Tb  Tb13  1  0.999792  0.000208  0.273529  1
  Er  Er14  1  0.826108  0.651762  0.482042  1
  Er  Er15  1  0.348238  0.173892  0.482042  1
  Co  Co16  1  0.665957  0.334043  0.553562  1
  Co  Co17  1  0.333287  0.666713  0.053979  1
  Hg  Hg18  1  0.831789  0.664424  0.046752  1
  Hg  Hg19  1  0.335576  0.168211  0.046752  1
  Hg  Hg20  1  0.832157  0.167843  0.044708  1
  Hg  Hg21  1  0.168680  0.334356  0.544377  1
  Hg  Hg22  1  0.665644  0.831320  0.544377  1
  Hg  Hg23  1  0.166474  0.833526  0.542825  1
