# generated using pymatgen
data_Tc2OsN
_symmetry_space_group_name_H-M   'P 1'
_cell_length_a   2.79434800
_cell_length_b   2.79434769
_cell_length_c   7.16732600
_cell_angle_alpha   90.00000000
_cell_angle_beta   90.00000000
_cell_angle_gamma   120.00000364
_symmetry_Int_Tables_number   1
_chemical_formula_structural   Tc2OsN
_chemical_formula_sum   'Tc2 Os1 N1'
_cell_volume   48.46728677
_cell_formula_units_Z   1
loop_
 _symmetry_equiv_pos_site_id
 _symmetry_equiv_pos_as_xyz
  1  'x, y, z'
loop_
 _atom_site_type_symbol
 _atom_site_label
 _atom_site_symmetry_multiplicity
 _atom_site_fract_x
 _atom_site_fract_y
 _atom_site_fract_z
 _atom_site_occupancy
  Tc  Tc0  1  0.333333  0.666667  0.803097  1
  Tc  Tc1  1  0.333333  0.666667  0.196903  1
  Os  Os2  1  0.666667  0.333333  0.500000  1
  N  N3  1  0.666667  0.333333  0.000000  1
