# generated using pymatgen
data_Er5TmWO12
_symmetry_space_group_name_H-M   'P 1'
_cell_length_a   6.42286832
_cell_length_b   6.42492451
_cell_length_c   6.42690906
_cell_angle_alpha   98.73137459
_cell_angle_beta   98.71255165
_cell_angle_gamma   98.77076133
_symmetry_Int_Tables_number   1
_chemical_formula_structural   Er5TmWO12
_chemical_formula_sum   'Er5 Tm1 W1 O12'
_cell_volume   254.90354167
_cell_formula_units_Z   1
loop_
 _symmetry_equiv_pos_site_id
 _symmetry_equiv_pos_as_xyz
  1  'x, y, z'
loop_
 _atom_site_type_symbol
 _atom_site_label
 _atom_site_symmetry_multiplicity
 _atom_site_fract_x
 _atom_site_fract_y
 _atom_site_fract_z
 _atom_site_occupancy
  Er  Er0  1  0.855975  0.389148  0.681831  1
  Er  Er1  1  0.611142  0.318359  0.144238  1
  Er  Er2  1  0.317714  0.143982  0.610747  1
  Er  Er3  1  0.681866  0.855669  0.388858  1
  Er  Er4  1  0.388699  0.682049  0.855953  1
  Tm  Tm5  1  0.144603  0.610698  0.319057  1
  W  W6  1  0.000197  0.000147  0.000330  1
  O  O7  1  0.920815  0.035785  0.701221  1
  O  O8  1  0.965144  0.299470  0.080008  1
  O  O9  1  0.590152  0.177539  0.430153  1
  O  O10  1  0.823684  0.570218  0.409377  1
  O  O11  1  0.299107  0.079214  0.964281  1
  O  O12  1  0.569806  0.410074  0.822596  1
  O  O13  1  0.428910  0.589923  0.177939  1
  O  O14  1  0.700865  0.920860  0.035625  1
  O  O15  1  0.177521  0.430381  0.588946  1
  O  O16  1  0.408958  0.822023  0.569194  1
  O  O17  1  0.035551  0.701051  0.920770  1
  O  O18  1  0.079289  0.963411  0.298876  1
