# generated using pymatgen
data_Yb3Er(WN2)4
_symmetry_space_group_name_H-M   'P 1'
_cell_length_a   3.09730800
_cell_length_b   5.62275537
_cell_length_c   10.86875198
_cell_angle_alpha   89.68662263
_cell_angle_beta   90.00000000
_cell_angle_gamma   90.00000000
_symmetry_Int_Tables_number   1
_chemical_formula_structural   Yb3Er(WN2)4
_chemical_formula_sum   'Yb3 Er1 W4 N8'
_cell_volume   189.28088846
_cell_formula_units_Z   1
loop_
 _symmetry_equiv_pos_site_id
 _symmetry_equiv_pos_as_xyz
  1  'x, y, z'
loop_
 _atom_site_type_symbol
 _atom_site_label
 _atom_site_symmetry_multiplicity
 _atom_site_fract_x
 _atom_site_fract_y
 _atom_site_fract_z
 _atom_site_occupancy
  Yb  Yb0  1  0.250000  0.081601  0.869633  1
  Yb  Yb1  1  0.250000  0.585911  0.632608  1
  Yb  Yb2  1  0.750000  0.918062  0.131220  1
  Er  Er3  1  0.750000  0.415063  0.367391  1
  W  W4  1  0.250000  0.426437  0.117811  1
  W  W5  1  0.250000  0.922424  0.380116  1
  W  W6  1  0.750000  0.575229  0.879322  1
  W  W7  1  0.750000  0.078992  0.621573  1
  N  N8  1  0.250000  0.171374  0.245111  1
  N  N9  1  0.250000  0.667048  0.257368  1
  N  N10  1  0.750000  0.828675  0.756430  1
  N  N11  1  0.750000  0.327961  0.743467  1
  N  N12  1  0.250000  0.726479  0.993300  1
  N  N13  1  0.250000  0.235471  0.505798  1
  N  N14  1  0.750000  0.271479  0.006656  1
  N  N15  1  0.750000  0.767795  0.492197  1
