# generated using pymatgen
data_In7GeRhO8
_symmetry_space_group_name_H-M   'P 1'
_cell_length_a   7.27273006
_cell_length_b   7.27272976
_cell_length_c   7.27273000
_cell_angle_alpha   59.99999893
_cell_angle_beta   60.00000026
_cell_angle_gamma   60.00000147
_symmetry_Int_Tables_number   1
_chemical_formula_structural   In7GeRhO8
_chemical_formula_sum   'In7 Ge1 Rh1 O8'
_cell_volume   272.00531337
_cell_formula_units_Z   1
loop_
 _symmetry_equiv_pos_site_id
 _symmetry_equiv_pos_as_xyz
  1  'x, y, z'
loop_
 _atom_site_type_symbol
 _atom_site_label
 _atom_site_symmetry_multiplicity
 _atom_site_fract_x
 _atom_site_fract_y
 _atom_site_fract_z
 _atom_site_occupancy
  In  In0  1  0.248964  0.751036  0.751036  1
  In  In1  1  0.751036  0.248964  0.248964  1
  In  In2  1  0.248964  0.248964  0.751036  1
  In  In3  1  0.248964  0.751036  0.248964  1
  In  In4  1  0.751036  0.751036  0.248964  1
  In  In5  1  0.751036  0.248964  0.751036  1
  In  In6  1  0.750000  0.750000  0.750000  1
  Ge  Ge7  1  0.250000  0.250000  0.250000  1
  Rh  Rh8  1  0.000000  0.000000  0.000000  1
  O  O9  1  0.351108  0.946677  0.351108  1
  O  O10  1  0.629662  0.629662  0.629662  1
  O  O11  1  0.946677  0.351108  0.351108  1
  O  O12  1  0.629662  0.111016  0.629662  1
  O  O13  1  0.351108  0.351108  0.351108  1
  O  O14  1  0.111016  0.629662  0.629662  1
  O  O15  1  0.351108  0.351108  0.946677  1
  O  O16  1  0.629662  0.629662  0.111016  1
