# generated using pymatgen
data_TbGd5(RuI3)2
_symmetry_space_group_name_H-M   'P 1'
_cell_length_a   4.30889900
_cell_length_b   8.96237997
_cell_length_c   12.52912700
_cell_angle_alpha   87.02202625
_cell_angle_beta   90.00000000
_cell_angle_gamma   90.00000000
_symmetry_Int_Tables_number   1
_chemical_formula_structural   TbGd5(RuI3)2
_chemical_formula_sum   'Tb1 Gd5 Ru2 I6'
_cell_volume   483.19630240
_cell_formula_units_Z   1
loop_
 _symmetry_equiv_pos_site_id
 _symmetry_equiv_pos_as_xyz
  1  'x, y, z'
loop_
 _atom_site_type_symbol
 _atom_site_label
 _atom_site_symmetry_multiplicity
 _atom_site_fract_x
 _atom_site_fract_y
 _atom_site_fract_z
 _atom_site_occupancy
  Tb  Tb0  1  0.750000  0.102275  0.187561  1
  Gd  Gd1  1  0.250000  0.266199  0.399120  1
  Gd  Gd2  1  0.750000  0.732319  0.601235  1
  Gd  Gd3  1  0.250000  0.871529  0.376004  1
  Gd  Gd4  1  0.750000  0.127774  0.624084  1
  Gd  Gd5  1  0.250000  0.897858  0.814582  1
  Ru  Ru6  1  0.250000  0.940240  0.593325  1
  Ru  Ru7  1  0.750000  0.059069  0.406003  1
  I  I8  1  0.250000  0.423997  0.631653  1
  I  I9  1  0.750000  0.576123  0.367125  1
  I  I10  1  0.250000  0.867374  0.109066  1
  I  I11  1  0.750000  0.139617  0.890026  1
  I  I12  1  0.250000  0.350401  0.140681  1
  I  I13  1  0.750000  0.645224  0.859539  1
