# generated using pymatgen
data_Y3Ho5Ti9Si16Tc3
_symmetry_space_group_name_H-M   'P 1'
_cell_length_a   6.97531527
_cell_length_b   6.97590814
_cell_length_c   12.81481541
_cell_angle_alpha   90.07352881
_cell_angle_beta   89.92847844
_cell_angle_gamma   90.01882085
_symmetry_Int_Tables_number   1
_chemical_formula_structural   Y3Ho5Ti9Si16Tc3
_chemical_formula_sum   'Y3 Ho5 Ti9 Si16 Tc3'
_cell_volume   623.55710304
_cell_formula_units_Z   1
loop_
 _symmetry_equiv_pos_site_id
 _symmetry_equiv_pos_as_xyz
  1  'x, y, z'
loop_
 _atom_site_type_symbol
 _atom_site_label
 _atom_site_symmetry_multiplicity
 _atom_site_fract_x
 _atom_site_fract_y
 _atom_site_fract_z
 _atom_site_occupancy
  Y  Y0  1  0.340644  0.001959  0.467184  1
  Y  Y1  1  0.498132  0.841769  0.719363  1
  Y  Y2  1  0.500819  0.158619  0.217725  1
  Ho  Ho3  1  0.842129  0.498705  0.280594  1
  Ho  Ho4  1  0.158292  0.500247  0.782357  1
  Ho  Ho5  1  0.658722  0.999637  0.968349  1
  Ho  Ho6  1  0.001542  0.340900  0.532800  1
  Ho  Ho7  1  0.999529  0.658662  0.031474  1
  Ti  Ti8  1  0.674230  0.673690  0.499991  1
  Ti  Ti9  1  0.151978  0.005586  0.877361  1
  Ti  Ti10  1  0.494671  0.653764  0.124738  1
  Ti  Ti11  1  0.504909  0.347821  0.628092  1
  Ti  Ti12  1  0.654009  0.494675  0.875272  1
  Ti  Ti13  1  0.347565  0.504819  0.372114  1
  Ti  Ti14  1  0.846997  0.992184  0.376147  1
  Ti  Ti15  1  0.005439  0.152143  0.122608  1
  Ti  Ti16  1  0.992364  0.846644  0.624038  1
  Si  Si17  1  0.198716  0.130018  0.684414  1
  Si  Si18  1  0.370378  0.700002  0.933432  1
  Si  Si19  1  0.632189  0.298279  0.434980  1
  Si  Si20  1  0.700733  0.370968  0.066483  1
  Si  Si21  1  0.296819  0.630453  0.565126  1
  Si  Si22  1  0.800005  0.869432  0.183688  1
  Si  Si23  1  0.128361  0.200139  0.315627  1
  Si  Si24  1  0.870527  0.799190  0.816450  1
  Si  Si25  1  0.290187  0.951670  0.066575  1
  Si  Si26  1  0.547896  0.789210  0.315802  1
  Si  Si27  1  0.451683  0.211360  0.817190  1
  Si  Si28  1  0.790655  0.546857  0.684094  1
  Si  Si29  1  0.210284  0.452496  0.182943  1
  Si  Si30  1  0.708972  0.049798  0.567577  1
  Si  Si31  1  0.952200  0.290655  0.933232  1
  Si  Si32  1  0.048670  0.707415  0.432346  1
  Tc  Tc33  1  0.327962  0.328297  0.999905  1
  Tc  Tc34  1  0.173380  0.827585  0.248356  1
  Tc  Tc35  1  0.828409  0.174353  0.751573  1
