# generated using pymatgen
data_Fe6OsW6
_symmetry_space_group_name_H-M   'P 1'
_cell_length_a   9.21795563
_cell_length_b   9.21795580
_cell_length_c   9.21795528
_cell_angle_alpha   30.05976898
_cell_angle_beta   30.05976335
_cell_angle_gamma   30.05977144
_symmetry_Int_Tables_number   1
_chemical_formula_structural   Fe6OsW6
_chemical_formula_sum   'Fe6 Os1 W6'
_cell_volume   174.09113369
_cell_formula_units_Z   1
loop_
 _symmetry_equiv_pos_site_id
 _symmetry_equiv_pos_as_xyz
  1  'x, y, z'
loop_
 _atom_site_type_symbol
 _atom_site_label
 _atom_site_symmetry_multiplicity
 _atom_site_fract_x
 _atom_site_fract_y
 _atom_site_fract_z
 _atom_site_occupancy
  Fe  Fe0  1  0.582580  0.091788  0.091788  1
  Fe  Fe1  1  0.091788  0.091788  0.582580  1
  Fe  Fe2  1  0.091788  0.582580  0.091788  1
  Fe  Fe3  1  0.908212  0.417420  0.908212  1
  Fe  Fe4  1  0.417420  0.908212  0.908212  1
  Fe  Fe5  1  0.908212  0.908212  0.417420  1
  Os  Os6  1  0.000000  0.000000  0.000000  1
  W  W7  1  0.164407  0.164407  0.164407  1
  W  W8  1  0.835593  0.835593  0.835593  1
  W  W9  1  0.348885  0.348885  0.348885  1
  W  W10  1  0.651115  0.651115  0.651115  1
  W  W11  1  0.451066  0.451066  0.451066  1
  W  W12  1  0.548934  0.548934  0.548934  1
