# generated using pymatgen
data_Dy3Y(MnC2)2
_symmetry_space_group_name_H-M   'P 1'
_cell_length_a   5.04770200
_cell_length_b   6.34800200
_cell_length_c   9.69002700
_cell_angle_alpha   90.00000000
_cell_angle_beta   90.00000000
_cell_angle_gamma   90.00000000
_symmetry_Int_Tables_number   1
_chemical_formula_structural   Dy3Y(MnC2)2
_chemical_formula_sum   'Dy6 Y2 Mn4 C8'
_cell_volume   310.49581413
_cell_formula_units_Z   2
loop_
 _symmetry_equiv_pos_site_id
 _symmetry_equiv_pos_as_xyz
  1  'x, y, z'
loop_
 _atom_site_type_symbol
 _atom_site_label
 _atom_site_symmetry_multiplicity
 _atom_site_fract_x
 _atom_site_fract_y
 _atom_site_fract_z
 _atom_site_occupancy
  Dy  Dy0  1  0.750000  0.523521  0.786402  1
  Dy  Dy1  1  0.250000  0.976479  0.286402  1
  Dy  Dy2  1  0.750000  0.683076  0.444798  1
  Dy  Dy3  1  0.250000  0.816924  0.944798  1
  Dy  Dy4  1  0.750000  0.183569  0.055197  1
  Dy  Dy5  1  0.250000  0.316431  0.555197  1
  Y  Y6  1  0.250000  0.476614  0.213702  1
  Y  Y7  1  0.750000  0.023386  0.713702  1
  Mn  Mn8  1  0.250000  0.270952  0.856787  1
  Mn  Mn9  1  0.250000  0.770575  0.643300  1
  Mn  Mn10  1  0.750000  0.229048  0.356787  1
  Mn  Mn11  1  0.750000  0.729425  0.143300  1
  C  C12  1  0.250000  0.691345  0.465536  1
  C  C13  1  0.250000  0.535797  0.759694  1
  C  C14  1  0.750000  0.464249  0.240253  1
  C  C15  1  0.750000  0.808655  0.965536  1
  C  C16  1  0.250000  0.035751  0.740253  1
  C  C17  1  0.250000  0.191140  0.034330  1
  C  C18  1  0.750000  0.308860  0.534330  1
  C  C19  1  0.750000  0.964203  0.259694  1
