# generated using pymatgen
data_Cs6Na4CeSnAs6
_symmetry_space_group_name_H-M   'P 1'
_cell_length_a   11.30654877
_cell_length_b   11.30654646
_cell_length_c   16.91181600
_cell_angle_alpha   90.00000000
_cell_angle_beta   90.00000000
_cell_angle_gamma   142.87305237
_symmetry_Int_Tables_number   1
_chemical_formula_structural   Cs6Na4CeSnAs6
_chemical_formula_sum   'Cs12 Na8 Ce2 Sn2 As12'
_cell_volume   1304.93027804
_cell_formula_units_Z   2
loop_
 _symmetry_equiv_pos_site_id
 _symmetry_equiv_pos_as_xyz
  1  'x, y, z'
loop_
 _atom_site_type_symbol
 _atom_site_label
 _atom_site_symmetry_multiplicity
 _atom_site_fract_x
 _atom_site_fract_y
 _atom_site_fract_z
 _atom_site_occupancy
  Cs  Cs0  1  0.939419  0.603180  0.827367  1
  Cs  Cs1  1  0.560581  0.896820  0.327367  1
  Cs  Cs2  1  0.396820  0.060581  0.172633  1
  Cs  Cs3  1  0.051169  0.391582  0.173346  1
  Cs  Cs4  1  0.891582  0.551169  0.326654  1
  Cs  Cs5  1  0.448831  0.108418  0.673346  1
  Cs  Cs6  1  0.608418  0.948831  0.826654  1
  Cs  Cs7  1  0.274679  0.278582  0.318719  1
  Cs  Cs8  1  0.778582  0.774679  0.181281  1
  Cs  Cs9  1  0.225321  0.221418  0.818719  1
  Cs  Cs10  1  0.721418  0.725321  0.681281  1
  Cs  Cs11  1  0.103180  0.439419  0.672633  1
  Na  Na12  1  0.919252  0.080748  0.000000  1
  Na  Na13  1  0.580748  0.419252  0.500000  1
  Na  Na14  1  0.082098  0.917902  0.000000  1
  Na  Na15  1  0.417902  0.582098  0.500000  1
  Na  Na16  1  0.752178  0.247822  0.000000  1
  Na  Na17  1  0.747822  0.252178  0.500000  1
  Na  Na18  1  0.244233  0.755767  0.000000  1
  Na  Na19  1  0.255767  0.744233  0.500000  1
  Ce  Ce20  1  0.416061  0.583939  0.000000  1
  Ce  Ce21  1  0.083939  0.916061  0.500000  1
  Sn  Sn22  1  0.586384  0.413616  0.000000  1
  Sn  Sn23  1  0.913616  0.086384  0.500000  1
  As  As24  1  0.875666  0.562754  0.093384  1
  As  As25  1  0.437246  0.124334  0.906616  1
  As  As26  1  0.624334  0.937246  0.593384  1
  As  As27  1  0.932725  0.613231  0.594314  1
  As  As28  1  0.113231  0.432725  0.905686  1
  As  As29  1  0.567275  0.886769  0.094314  1
  As  As30  1  0.386769  0.067275  0.405686  1
  As  As31  1  0.209693  0.217969  0.589529  1
  As  As32  1  0.717969  0.709693  0.910471  1
  As  As33  1  0.290307  0.282031  0.089529  1
  As  As34  1  0.062754  0.375666  0.406616  1
  As  As35  1  0.782031  0.790307  0.410471  1
