# generated using pymatgen
data_MnNb16V(Si6Os)2
_symmetry_space_group_name_H-M   'P 1'
_cell_length_a   7.45970213
_cell_length_b   7.45970195
_cell_length_c   14.05560300
_cell_angle_alpha   90.00000000
_cell_angle_beta   90.00000000
_cell_angle_gamma   140.77786533
_symmetry_Int_Tables_number   1
_chemical_formula_structural   MnNb16V(Si6Os)2
_chemical_formula_sum   'Mn1 Nb16 V1 Si12 Os2'
_cell_volume   494.57856800
_cell_formula_units_Z   1
loop_
 _symmetry_equiv_pos_site_id
 _symmetry_equiv_pos_as_xyz
  1  'x, y, z'
loop_
 _atom_site_type_symbol
 _atom_site_label
 _atom_site_symmetry_multiplicity
 _atom_site_fract_x
 _atom_site_fract_y
 _atom_site_fract_z
 _atom_site_occupancy
  Mn  Mn0  1  0.001290  0.001290  0.000000  1
  Nb  Nb1  1  0.067183  0.427189  0.400101  1
  Nb  Nb2  1  0.571693  0.934602  0.900357  1
  Nb  Nb3  1  0.427189  0.067183  0.599899  1
  Nb  Nb4  1  0.934602  0.571693  0.099643  1
  Nb  Nb5  1  0.849280  0.650380  0.681169  1
  Nb  Nb6  1  0.350745  0.150480  0.180600  1
  Nb  Nb7  1  0.650380  0.849280  0.318831  1
  Nb  Nb8  1  0.150480  0.350745  0.819400  1
  Nb  Nb9  1  0.650380  0.849280  0.681169  1
  Nb  Nb10  1  0.150480  0.350745  0.180600  1
  Nb  Nb11  1  0.849280  0.650380  0.318831  1
  Nb  Nb12  1  0.350745  0.150480  0.819400  1
  Nb  Nb13  1  0.427189  0.067183  0.400101  1
  Nb  Nb14  1  0.934602  0.571693  0.900357  1
  Nb  Nb15  1  0.067183  0.427189  0.599899  1
  Nb  Nb16  1  0.571693  0.934602  0.099643  1
  V  V17  1  0.995260  0.995260  0.500000  1
  Si  Si18  1  0.250547  0.749685  0.750277  1
  Si  Si19  1  0.749685  0.250547  0.249723  1
  Si  Si20  1  0.749685  0.250547  0.750277  1
  Si  Si21  1  0.250547  0.749685  0.249723  1
  Si  Si22  1  0.242904  0.242904  0.657326  1
  Si  Si23  1  0.755613  0.755613  0.154255  1
  Si  Si24  1  0.242904  0.242904  0.342674  1
  Si  Si25  1  0.755613  0.755613  0.845745  1
  Si  Si26  1  0.593696  0.909589  0.500000  1
  Si  Si27  1  0.094908  0.404352  0.000000  1
  Si  Si28  1  0.909589  0.593696  0.500000  1
  Si  Si29  1  0.404352  0.094908  0.000000  1
  Os  Os30  1  0.500747  0.500747  0.000000  1
  Os  Os31  1  0.499551  0.499551  0.500000  1
