# generated using pymatgen
data_TbSm2CBr3
_symmetry_space_group_name_H-M   'P 1'
_cell_length_a   3.76348200
_cell_length_b   8.41034666
_cell_length_c   11.43606000
_cell_angle_alpha   92.24836605
_cell_angle_beta   90.00000000
_cell_angle_gamma   90.00000000
_symmetry_Int_Tables_number   1
_chemical_formula_structural   TbSm2CBr3
_chemical_formula_sum   'Tb2 Sm4 C2 Br6'
_cell_volume   361.69765865
_cell_formula_units_Z   2
loop_
 _symmetry_equiv_pos_site_id
 _symmetry_equiv_pos_as_xyz
  1  'x, y, z'
loop_
 _atom_site_type_symbol
 _atom_site_label
 _atom_site_symmetry_multiplicity
 _atom_site_fract_x
 _atom_site_fract_y
 _atom_site_fract_z
 _atom_site_occupancy
  Tb  Tb0  1  0.250000  0.309035  0.619188  1
  Tb  Tb1  1  0.750000  0.690965  0.380812  1
  Sm  Sm2  1  0.250000  0.909477  0.607316  1
  Sm  Sm3  1  0.750000  0.090523  0.392684  1
  Sm  Sm4  1  0.250000  0.882913  0.167008  1
  Sm  Sm5  1  0.750000  0.117087  0.832992  1
  C  C6  1  0.250000  0.874874  0.380686  1
  C  C7  1  0.750000  0.125126  0.619314  1
  Br  Br8  1  0.250000  0.855054  0.877426  1
  Br  Br9  1  0.750000  0.144946  0.122574  1
  Br  Br10  1  0.250000  0.380784  0.867564  1
  Br  Br11  1  0.750000  0.619216  0.132436  1
  Br  Br12  1  0.250000  0.386706  0.370478  1
  Br  Br13  1  0.750000  0.613294  0.629522  1
