# generated using pymatgen
data_Er6AlSi5Au2
_symmetry_space_group_name_H-M   'P 1'
_cell_length_a   5.64118683
_cell_length_b   5.64118641
_cell_length_c   13.58895400
_cell_angle_alpha   71.71622741
_cell_angle_beta   71.71622884
_cell_angle_gamma   44.39572975
_symmetry_Int_Tables_number   1
_chemical_formula_structural   Er6AlSi5Au2
_chemical_formula_sum   'Er6 Al1 Si5 Au2'
_cell_volume   284.64347369
_cell_formula_units_Z   1
loop_
 _symmetry_equiv_pos_site_id
 _symmetry_equiv_pos_as_xyz
  1  'x, y, z'
loop_
 _atom_site_type_symbol
 _atom_site_label
 _atom_site_symmetry_multiplicity
 _atom_site_fract_x
 _atom_site_fract_y
 _atom_site_fract_z
 _atom_site_occupancy
  Er  Er0  1  0.474474  0.474474  0.370035  1
  Er  Er1  1  0.603626  0.603626  0.076029  1
  Er  Er2  1  0.739330  0.739330  0.784092  1
  Er  Er3  1  0.531742  0.531742  0.625091  1
  Er  Er4  1  0.393762  0.393762  0.926103  1
  Er  Er5  1  0.258494  0.258494  0.218553  1
  Al  Al6  1  0.872410  0.872410  0.540706  1
  Si  Si7  1  0.971114  0.971114  0.223144  1
  Si  Si8  1  0.887445  0.887445  0.073500  1
  Si  Si9  1  0.110278  0.110278  0.927590  1
  Si  Si10  1  0.126303  0.126303  0.455914  1
  Si  Si11  1  0.027158  0.027158  0.776842  1
  Au  Au12  1  0.756992  0.756992  0.389078  1
  Au  Au13  1  0.246872  0.246872  0.613329  1
