# generated using pymatgen
data_ScAgB2O5
_symmetry_space_group_name_H-M   'P 1'
_cell_length_a   10.08293500
_cell_length_b   6.08651319
_cell_length_c   7.22437775
_cell_angle_alpha   72.87041519
_cell_angle_beta   90.00000000
_cell_angle_gamma   90.00000000
_symmetry_Int_Tables_number   1
_chemical_formula_structural   ScAgB2O5
_chemical_formula_sum   'Sc4 Ag4 B8 O20'
_cell_volume   423.69250610
_cell_formula_units_Z   4
loop_
 _symmetry_equiv_pos_site_id
 _symmetry_equiv_pos_as_xyz
  1  'x, y, z'
loop_
 _atom_site_type_symbol
 _atom_site_label
 _atom_site_symmetry_multiplicity
 _atom_site_fract_x
 _atom_site_fract_y
 _atom_site_fract_z
 _atom_site_occupancy
  Sc  Sc0  1  0.826901  0.766972  0.751053  1
  Sc  Sc1  1  0.173099  0.233028  0.248947  1
  Sc  Sc2  1  0.673099  0.266972  0.751053  1
  Sc  Sc3  1  0.326901  0.733028  0.248947  1
  Ag  Ag4  1  0.576291  0.279829  0.234216  1
  Ag  Ag5  1  0.923709  0.779829  0.234216  1
  Ag  Ag6  1  0.076291  0.220171  0.765784  1
  Ag  Ag7  1  0.423709  0.720171  0.765784  1
  B  B8  1  0.614122  0.814964  0.075209  1
  B  B9  1  0.114122  0.685036  0.924791  1
  B  B10  1  0.385878  0.185036  0.924791  1
  B  B11  1  0.895404  0.225455  0.438480  1
  B  B12  1  0.604596  0.725455  0.438480  1
  B  B13  1  0.885878  0.314964  0.075209  1
  B  B14  1  0.104596  0.774545  0.561520  1
  B  B15  1  0.395404  0.274545  0.561520  1
  O  O16  1  0.328736  0.206675  0.741774  1
  O  O17  1  0.512115  0.262339  0.936517  1
  O  O18  1  0.693760  0.908904  0.916354  1
  O  O19  1  0.828736  0.293325  0.258226  1
  O  O20  1  0.318006  0.367080  0.399604  1
  O  O21  1  0.971039  0.745378  0.551420  1
  O  O22  1  0.181994  0.867080  0.399604  1
  O  O23  1  0.987885  0.762339  0.936517  1
  O  O24  1  0.671264  0.793325  0.258226  1
  O  O25  1  0.806240  0.408904  0.916354  1
  O  O26  1  0.681994  0.632920  0.600396  1
  O  O27  1  0.028961  0.254622  0.448580  1
  O  O28  1  0.528961  0.245378  0.551420  1
  O  O29  1  0.487885  0.737661  0.063483  1
  O  O30  1  0.471039  0.754622  0.448580  1
  O  O31  1  0.193760  0.591096  0.083646  1
  O  O32  1  0.306240  0.091096  0.083646  1
  O  O33  1  0.012115  0.237661  0.063483  1
  O  O34  1  0.171264  0.706675  0.741774  1
  O  O35  1  0.818006  0.132920  0.600396  1
