# generated using pymatgen
data_Tb3Ce(Cu5Sn)4
_symmetry_space_group_name_H-M   'P 1'
_cell_length_a   5.04156500
_cell_length_b   8.24872849
_cell_length_c   10.55336564
_cell_angle_alpha   90.03969421
_cell_angle_beta   90.00000000
_cell_angle_gamma   90.00000000
_symmetry_Int_Tables_number   1
_chemical_formula_structural   Tb3Ce(Cu5Sn)4
_chemical_formula_sum   'Tb3 Ce1 Cu20 Sn4'
_cell_volume   438.87744381
_cell_formula_units_Z   1
loop_
 _symmetry_equiv_pos_site_id
 _symmetry_equiv_pos_as_xyz
  1  'x, y, z'
loop_
 _atom_site_type_symbol
 _atom_site_label
 _atom_site_symmetry_multiplicity
 _atom_site_fract_x
 _atom_site_fract_y
 _atom_site_fract_z
 _atom_site_occupancy
  Tb  Tb0  1  0.750000  0.247995  0.938671  1
  Tb  Tb1  1  0.750000  0.749102  0.560454  1
  Tb  Tb2  1  0.250000  0.250656  0.440941  1
  Ce  Ce3  1  0.250000  0.752236  0.059313  1
  Cu  Cu4  1  0.250000  0.816162  0.744346  1
  Cu  Cu5  1  0.750000  0.184076  0.256971  1
  Cu  Cu6  1  0.750000  0.684505  0.244017  1
  Cu  Cu7  1  0.250000  0.316305  0.754715  1
  Cu  Cu8  1  0.501393  0.567056  0.811624  1
  Cu  Cu9  1  0.499144  0.431450  0.188434  1
  Cu  Cu10  1  0.499583  0.932971  0.313036  1
  Cu  Cu11  1  0.000856  0.431450  0.188434  1
  Cu  Cu12  1  0.501025  0.067621  0.687646  1
  Cu  Cu13  1  0.998607  0.567056  0.811624  1
  Cu  Cu14  1  0.998975  0.067621  0.687646  1
  Cu  Cu15  1  0.000417  0.932971  0.313036  1
  Cu  Cu16  1  0.250000  0.915322  0.517000  1
  Cu  Cu17  1  0.750000  0.084247  0.483668  1
  Cu  Cu18  1  0.750000  0.580497  0.016723  1
  Cu  Cu19  1  0.250000  0.414195  0.982173  1
  Cu  Cu20  1  0.250000  0.561122  0.602157  1
  Cu  Cu21  1  0.750000  0.438759  0.397822  1
  Cu  Cu22  1  0.750000  0.941323  0.103149  1
  Cu  Cu23  1  0.250000  0.062798  0.896533  1
  Sn  Sn24  1  0.250000  0.639202  0.360581  1
  Sn  Sn25  1  0.750000  0.361145  0.639654  1
  Sn  Sn26  1  0.750000  0.861674  0.859542  1
  Sn  Sn27  1  0.250000  0.140483  0.140091  1
