# generated using pymatgen
data_Sm8Sc12OsPb15
_symmetry_space_group_name_H-M   'P 1'
_cell_length_a   7.91170400
_cell_length_b   8.21465743
_cell_length_c   15.26524100
_cell_angle_alpha   90.00000000
_cell_angle_beta   90.00000000
_cell_angle_gamma   89.69626597
_symmetry_Int_Tables_number   1
_chemical_formula_structural   Sm8Sc12OsPb15
_chemical_formula_sum   'Sm8 Sc12 Os1 Pb15'
_cell_volume   992.10365640
_cell_formula_units_Z   1
loop_
 _symmetry_equiv_pos_site_id
 _symmetry_equiv_pos_as_xyz
  1  'x, y, z'
loop_
 _atom_site_type_symbol
 _atom_site_label
 _atom_site_symmetry_multiplicity
 _atom_site_fract_x
 _atom_site_fract_y
 _atom_site_fract_z
 _atom_site_occupancy
  Sm  Sm0  1  0.507741  0.337243  0.899865  1
  Sm  Sm1  1  0.010052  0.180707  0.595666  1
  Sm  Sm2  1  0.489206  0.680361  0.406036  1
  Sm  Sm3  1  0.990795  0.825748  0.094319  1
  Sm  Sm4  1  0.489206  0.680361  0.093964  1
  Sm  Sm5  1  0.990795  0.825748  0.405681  1
  Sm  Sm6  1  0.507741  0.337243  0.600135  1
  Sm  Sm7  1  0.010052  0.180707  0.904334  1
  Sc  Sc8  1  0.375009  0.810784  0.860649  1
  Sc  Sc9  1  0.799165  0.658926  0.635798  1
  Sc  Sc10  1  0.659600  0.162685  0.374090  1
  Sc  Sc11  1  0.161027  0.341691  0.126265  1
  Sc  Sc12  1  0.659600  0.162685  0.125910  1
  Sc  Sc13  1  0.161027  0.341691  0.373735  1
  Sc  Sc14  1  0.375009  0.810784  0.639351  1
  Sc  Sc15  1  0.799165  0.658926  0.864202  1
  Sc  Sc16  1  0.200627  0.508585  0.750000  1
  Sc  Sc17  1  0.674167  0.980973  0.750000  1
  Sc  Sc18  1  0.828452  0.499112  0.250000  1
  Sc  Sc19  1  0.328125  0.004183  0.250000  1
  Os  Os20  1  0.532150  0.612155  0.750000  1
  Pb  Pb21  1  0.316955  0.044401  0.038658  1
  Pb  Pb22  1  0.817632  0.459161  0.457452  1
  Pb  Pb23  1  0.687175  0.964229  0.542547  1
  Pb  Pb24  1  0.176135  0.547928  0.955926  1
  Pb  Pb25  1  0.687175  0.964229  0.957453  1
  Pb  Pb26  1  0.176135  0.547928  0.544074  1
  Pb  Pb27  1  0.316955  0.044401  0.461342  1
  Pb  Pb28  1  0.817632  0.459161  0.042548  1
  Pb  Pb29  1  0.033328  0.867755  0.750000  1
  Pb  Pb30  1  0.468474  0.368946  0.250000  1
  Pb  Pb31  1  0.969404  0.131945  0.250000  1
  Pb  Pb32  1  0.312090  0.140201  0.750000  1
  Pb  Pb33  1  0.809365  0.355528  0.750000  1
  Pb  Pb34  1  0.681328  0.850156  0.250000  1
  Pb  Pb35  1  0.181501  0.652735  0.250000  1
