# generated using pymatgen
data_Pr8Be(Si4Ir)3
_symmetry_space_group_name_H-M   'P 1'
_cell_length_a   8.21539900
_cell_length_b   8.21539991
_cell_length_c   8.60446000
_cell_angle_alpha   90.00000000
_cell_angle_beta   90.00000000
_cell_angle_gamma   120.00000036
_symmetry_Int_Tables_number   1
_chemical_formula_structural   Pr8Be(Si4Ir)3
_chemical_formula_sum   'Pr8 Be1 Si12 Ir3'
_cell_volume   502.93472213
_cell_formula_units_Z   1
loop_
 _symmetry_equiv_pos_site_id
 _symmetry_equiv_pos_as_xyz
  1  'x, y, z'
loop_
 _atom_site_type_symbol
 _atom_site_label
 _atom_site_symmetry_multiplicity
 _atom_site_fract_x
 _atom_site_fract_y
 _atom_site_fract_z
 _atom_site_occupancy
  Pr  Pr0  1  0.498732  0.501268  0.752199  1
  Pr  Pr1  1  0.499511  0.500489  0.247770  1
  Pr  Pr2  1  0.002535  0.501268  0.752199  1
  Pr  Pr3  1  0.000978  0.500489  0.247770  1
  Pr  Pr4  1  0.498732  0.997465  0.752199  1
  Pr  Pr5  1  0.499511  0.999022  0.247770  1
  Pr  Pr6  1  0.000000  0.000000  0.748882  1
  Pr  Pr7  1  0.000000  0.000000  0.250443  1
  Be  Be8  1  0.666667  0.333333  0.503741  1
  Si  Si9  1  0.833089  0.166911  0.000560  1
  Si  Si10  1  0.166950  0.833050  0.999323  1
  Si  Si11  1  0.333822  0.166911  0.000560  1
  Si  Si12  1  0.167052  0.832948  0.500856  1
  Si  Si13  1  0.666099  0.833050  0.999323  1
  Si  Si14  1  0.829793  0.170207  0.499132  1
  Si  Si15  1  0.833089  0.666178  0.000560  1
  Si  Si16  1  0.665896  0.832948  0.500856  1
  Si  Si17  1  0.166950  0.333901  0.999323  1
  Si  Si18  1  0.340413  0.170207  0.499132  1
  Si  Si19  1  0.167052  0.334104  0.500856  1
  Si  Si20  1  0.829793  0.659587  0.499132  1
  Ir  Ir21  1  0.666667  0.333333  0.996698  1
  Ir  Ir22  1  0.333333  0.666667  0.002674  1
  Ir  Ir23  1  0.333333  0.666667  0.498042  1
