# generated using pymatgen
data_Dy5UAl18
_symmetry_space_group_name_H-M   'P 1'
_cell_length_a   14.61398928
_cell_length_b   14.61398805
_cell_length_c   14.61399010
_cell_angle_alpha   24.26926553
_cell_angle_beta   24.26926543
_cell_angle_gamma   24.26927012
_symmetry_Int_Tables_number   1
_chemical_formula_structural   Dy5UAl18
_chemical_formula_sum   'Dy5 U1 Al18'
_cell_volume   463.46375452
_cell_formula_units_Z   1
loop_
 _symmetry_equiv_pos_site_id
 _symmetry_equiv_pos_as_xyz
  1  'x, y, z'
loop_
 _atom_site_type_symbol
 _atom_site_label
 _atom_site_symmetry_multiplicity
 _atom_site_fract_x
 _atom_site_fract_y
 _atom_site_fract_z
 _atom_site_occupancy
  Dy  Dy0  1  0.000028  0.000028  0.000028  1
  Dy  Dy1  1  0.499638  0.499638  0.499638  1
  Dy  Dy2  1  0.109358  0.109358  0.109358  1
  Dy  Dy3  1  0.891099  0.891099  0.891099  1
  Dy  Dy4  1  0.390501  0.390501  0.390501  1
  U  U5  1  0.608763  0.608763  0.608763  1
  Al  Al6  1  0.919458  0.372814  0.372814  1
  Al  Al7  1  0.423423  0.871249  0.871249  1
  Al  Al8  1  0.372814  0.372814  0.919458  1
  Al  Al9  1  0.871249  0.871249  0.423423  1
  Al  Al10  1  0.372814  0.919458  0.372814  1
  Al  Al11  1  0.871249  0.423423  0.871249  1
  Al  Al12  1  0.578752  0.128186  0.128186  1
  Al  Al13  1  0.076732  0.629016  0.629016  1
  Al  Al14  1  0.128186  0.128186  0.578752  1
  Al  Al15  1  0.629016  0.629016  0.076732  1
  Al  Al16  1  0.128186  0.578752  0.128186  1
  Al  Al17  1  0.629016  0.076732  0.629016  1
  Al  Al18  1  0.503779  0.503779  0.991971  1
  Al  Al19  1  0.000074  0.000074  0.500047  1
  Al  Al20  1  0.503779  0.991971  0.503779  1
  Al  Al21  1  0.000074  0.500047  0.000074  1
  Al  Al22  1  0.991971  0.503779  0.503779  1
  Al  Al23  1  0.500047  0.000074  0.000074  1
