# generated using pymatgen
data_Pa3(Si2W)2
_symmetry_space_group_name_H-M   'P 1'
_cell_length_a   10.47833141
_cell_length_b   10.47833126
_cell_length_c   14.26189612
_cell_angle_alpha   56.61596277
_cell_angle_beta   56.61595773
_cell_angle_gamma   31.62000405
_symmetry_Int_Tables_number   1
_chemical_formula_structural   Pa3(Si2W)2
_chemical_formula_sum   'Pa12 Si16 W8'
_cell_volume   673.47136688
_cell_formula_units_Z   4
loop_
 _symmetry_equiv_pos_site_id
 _symmetry_equiv_pos_as_xyz
  1  'x, y, z'
loop_
 _atom_site_type_symbol
 _atom_site_label
 _atom_site_symmetry_multiplicity
 _atom_site_fract_x
 _atom_site_fract_y
 _atom_site_fract_z
 _atom_site_occupancy
  Pa  Pa0  1  0.747816  0.470444  0.052199  1
  Pa  Pa1  1  0.530145  0.313221  0.160493  1
  Pa  Pa2  1  0.529556  0.252184  0.447801  1
  Pa  Pa3  1  0.469855  0.686779  0.839507  1
  Pa  Pa4  1  0.289266  0.044674  0.135363  1
  Pa  Pa5  1  0.955326  0.710734  0.364637  1
  Pa  Pa6  1  0.710734  0.955326  0.864637  1
  Pa  Pa7  1  0.044674  0.289266  0.635363  1
  Pa  Pa8  1  0.252184  0.529556  0.947801  1
  Pa  Pa9  1  0.470444  0.747816  0.552199  1
  Pa  Pa10  1  0.313221  0.530145  0.660493  1
  Pa  Pa11  1  0.686779  0.469855  0.339507  1
  Si  Si12  1  0.917218  0.082782  0.250000  1
  Si  Si13  1  0.082782  0.917218  0.750000  1
  Si  Si14  1  0.341652  0.658348  0.250000  1
  Si  Si15  1  0.658348  0.341652  0.750000  1
  Si  Si16  1  0.021800  0.215942  0.870745  1
  Si  Si17  1  0.784058  0.978200  0.629255  1
  Si  Si18  1  0.978200  0.784058  0.129255  1
  Si  Si19  1  0.215942  0.021800  0.370745  1
  Si  Si20  1  0.598036  0.051505  0.075392  1
  Si  Si21  1  0.948495  0.401964  0.424608  1
  Si  Si22  1  0.401964  0.948495  0.924608  1
  Si  Si23  1  0.051505  0.598036  0.575392  1
  Si  Si24  1  0.379166  0.159284  0.390162  1
  Si  Si25  1  0.840716  0.620834  0.109838  1
  Si  Si26  1  0.620834  0.840716  0.609838  1
  Si  Si27  1  0.159284  0.379166  0.890162  1
  W  W28  1  0.634905  0.830808  0.285013  1
  W  W29  1  0.830808  0.634905  0.785013  1
  W  W30  1  0.365095  0.169192  0.714987  1
  W  W31  1  0.169192  0.365095  0.214987  1
  W  W32  1  0.150696  0.899718  0.070834  1
  W  W33  1  0.100282  0.849304  0.429166  1
  W  W34  1  0.849304  0.100282  0.929166  1
  W  W35  1  0.899718  0.150696  0.570834  1
