# generated using pymatgen
data_MoPd7Pt
_symmetry_space_group_name_H-M   'P 1'
_cell_length_a   6.26616564
_cell_length_b   6.26616456
_cell_length_c   6.24478046
_cell_angle_alpha   95.67587151
_cell_angle_beta   95.68098980
_cell_angle_gamma   143.39686384
_symmetry_Int_Tables_number   1
_chemical_formula_structural   MoPd7Pt
_chemical_formula_sum   'Mo1 Pd7 Pt1'
_cell_volume   138.75764133
_cell_formula_units_Z   1
loop_
 _symmetry_equiv_pos_site_id
 _symmetry_equiv_pos_as_xyz
  1  'x, y, z'
loop_
 _atom_site_type_symbol
 _atom_site_label
 _atom_site_symmetry_multiplicity
 _atom_site_fract_x
 _atom_site_fract_y
 _atom_site_fract_z
 _atom_site_occupancy
  Mo  Mo0  1  0.002595  0.997436  0.000031  1
  Pd  Pd1  1  0.337660  0.662366  0.000026  1
  Pd  Pd2  1  0.329036  0.999687  0.328723  1
  Pd  Pd3  1  0.999370  0.327408  0.326777  1
  Pd  Pd4  1  0.661700  0.663504  0.325203  1
  Pd  Pd5  1  0.336510  0.338273  0.674782  1
  Pd  Pd6  1  0.672569  0.000637  0.673206  1
  Pd  Pd7  1  0.000326  0.670950  0.671276  1
  Pt  Pt8  1  0.660235  0.339739  0.999974  1
