# generated using pymatgen
data_Nd15Pa5Ir13Rh3
_symmetry_space_group_name_H-M   'P 1'
_cell_length_a   7.61922802
_cell_length_b   7.66735970
_cell_length_c   14.76582209
_cell_angle_alpha   90.19991667
_cell_angle_beta   90.39501832
_cell_angle_gamma   90.29771322
_symmetry_Int_Tables_number   1
_chemical_formula_structural   Nd15Pa5Ir13Rh3
_chemical_formula_sum   'Nd15 Pa5 Ir13 Rh3'
_cell_volume   862.57239949
_cell_formula_units_Z   1
loop_
 _symmetry_equiv_pos_site_id
 _symmetry_equiv_pos_as_xyz
  1  'x, y, z'
loop_
 _atom_site_type_symbol
 _atom_site_label
 _atom_site_symmetry_multiplicity
 _atom_site_fract_x
 _atom_site_fract_y
 _atom_site_fract_z
 _atom_site_occupancy
  Nd  Nd0  1  0.835923  0.661298  0.122693  1
  Nd  Nd1  1  0.662175  0.163016  0.879338  1
  Nd  Nd2  1  0.160668  0.335693  0.617371  1
  Nd  Nd3  1  0.509816  0.676384  0.590904  1
  Nd  Nd4  1  0.013407  0.819029  0.906455  1
  Nd  Nd5  1  0.485007  0.317860  0.092717  1
  Nd  Nd6  1  0.991943  0.176297  0.409225  1
  Nd  Nd7  1  0.489292  0.321871  0.407953  1
  Nd  Nd8  1  0.984739  0.177180  0.086907  1
  Nd  Nd9  1  0.515789  0.679051  0.911365  1
  Nd  Nd10  1  0.006614  0.823111  0.591351  1
  Nd  Nd11  1  0.818306  0.514863  0.747512  1
  Nd  Nd12  1  0.318306  0.982619  0.749749  1
  Nd  Nd13  1  0.179677  0.482354  0.248762  1
  Nd  Nd14  1  0.690676  0.018632  0.251181  1
  Pa  Pa15  1  0.657652  0.154574  0.620695  1
  Pa  Pa16  1  0.161552  0.341948  0.875638  1
  Pa  Pa17  1  0.337375  0.844801  0.123889  1
  Pa  Pa18  1  0.841105  0.657881  0.380016  1
  Pa  Pa19  1  0.341611  0.843033  0.377813  1
  Ir  Ir20  1  0.687238  0.948562  0.463787  1
  Ir  Ir21  1  0.207726  0.558956  0.035135  1
  Ir  Ir22  1  0.292012  0.058304  0.967181  1
  Ir  Ir23  1  0.801350  0.447383  0.533469  1
  Ir  Ir24  1  0.326935  0.028838  0.531837  1
  Ir  Ir25  1  0.856207  0.462415  0.953695  1
  Ir  Ir26  1  0.644333  0.960580  0.047935  1
  Ir  Ir27  1  0.166820  0.558008  0.452752  1
  Ir  Ir28  1  0.462327  0.356946  0.741960  1
  Ir  Ir29  1  0.959908  0.131334  0.749777  1
  Ir  Ir30  1  0.536088  0.644203  0.262313  1
  Ir  Ir31  1  0.049054  0.860399  0.258375  1
  Ir  Ir32  1  0.698831  0.881053  0.738371  1
  Rh  Rh33  1  0.209340  0.610107  0.761681  1
  Rh  Rh34  1  0.307743  0.112585  0.247461  1
  Rh  Rh35  1  0.792455  0.388828  0.262739  1
