# generated using pymatgen
data_DyY2Ho5(Si3Rh)4
_symmetry_space_group_name_H-M   'P 1'
_cell_length_a   8.16063002
_cell_length_b   8.16062864
_cell_length_c   7.88276000
_cell_angle_alpha   90.00000000
_cell_angle_beta   90.00000000
_cell_angle_gamma   120.00824537
_symmetry_Int_Tables_number   1
_chemical_formula_structural   DyY2Ho5(Si3Rh)4
_chemical_formula_sum   'Dy1 Y2 Ho5 Si12 Rh4'
_cell_volume   454.59028466
_cell_formula_units_Z   1
loop_
 _symmetry_equiv_pos_site_id
 _symmetry_equiv_pos_as_xyz
  1  'x, y, z'
loop_
 _atom_site_type_symbol
 _atom_site_label
 _atom_site_symmetry_multiplicity
 _atom_site_fract_x
 _atom_site_fract_y
 _atom_site_fract_z
 _atom_site_occupancy
  Dy  Dy0  1  0.508999  0.491001  0.250000  1
  Y  Y1  1  0.999980  0.000020  0.250000  1
  Y  Y2  1  0.000029  0.999971  0.750000  1
  Ho  Ho3  1  0.508968  0.017852  0.250000  1
  Ho  Ho4  1  0.982148  0.491032  0.250000  1
  Ho  Ho5  1  0.491053  0.508947  0.750000  1
  Ho  Ho6  1  0.491044  0.982117  0.750000  1
  Ho  Ho7  1  0.017883  0.508956  0.750000  1
  Si  Si8  1  0.167096  0.832904  0.499684  1
  Si  Si9  1  0.166988  0.334132  0.499725  1
  Si  Si10  1  0.665868  0.833012  0.499725  1
  Si  Si11  1  0.832896  0.167104  0.500352  1
  Si  Si12  1  0.833053  0.665893  0.500482  1
  Si  Si13  1  0.334107  0.166947  0.500482  1
  Si  Si14  1  0.832896  0.167104  0.999648  1
  Si  Si15  1  0.833053  0.665893  0.999518  1
  Si  Si16  1  0.334107  0.166947  0.999518  1
  Si  Si17  1  0.167096  0.832904  0.000316  1
  Si  Si18  1  0.166988  0.334132  0.000275  1
  Si  Si19  1  0.665868  0.833012  0.000275  1
  Rh  Rh20  1  0.333190  0.666810  0.466400  1
  Rh  Rh21  1  0.666749  0.333251  0.533963  1
  Rh  Rh22  1  0.666749  0.333251  0.966037  1
  Rh  Rh23  1  0.333190  0.666810  0.033600  1
