# generated using pymatgen
data_ErSiTc4Ge
_symmetry_space_group_name_H-M   'P 1'
_cell_length_a   4.17967182
_cell_length_b   7.15388882
_cell_length_c   7.60557414
_cell_angle_alpha   89.26366730
_cell_angle_beta   90.01086391
_cell_angle_gamma   90.07108871
_symmetry_Int_Tables_number   1
_chemical_formula_structural   ErSiTc4Ge
_chemical_formula_sum   'Er2 Si2 Tc8 Ge2'
_cell_volume   227.39461120
_cell_formula_units_Z   2
loop_
 _symmetry_equiv_pos_site_id
 _symmetry_equiv_pos_as_xyz
  1  'x, y, z'
loop_
 _atom_site_type_symbol
 _atom_site_label
 _atom_site_symmetry_multiplicity
 _atom_site_fract_x
 _atom_site_fract_y
 _atom_site_fract_z
 _atom_site_occupancy
  Er  Er0  1  0.500003  0.000046  0.999981  1
  Er  Er1  1  0.000016  0.499958  0.500036  1
  Si  Si2  1  0.500004  0.722235  0.693637  1
  Si  Si3  1  0.500005  0.277787  0.306364  1
  Tc  Tc4  1  0.000033  0.911433  0.656223  1
  Tc  Tc5  1  0.999995  0.348708  0.109366  1
  Tc  Tc6  1  0.499986  0.578651  0.156555  1
  Tc  Tc7  1  0.999969  0.088550  0.343783  1
  Tc  Tc8  1  0.500008  0.149442  0.603844  1
  Tc  Tc9  1  0.500007  0.421356  0.843441  1
  Tc  Tc10  1  0.000003  0.651273  0.890634  1
  Tc  Tc11  1  0.499989  0.850545  0.396145  1
  Ge  Ge12  1  0.999989  0.219918  0.804215  1
  Ge  Ge13  1  0.999993  0.780099  0.195774  1
