# generated using pymatgen
data_Hf8ReOs7
_symmetry_space_group_name_H-M   'P 1'
_cell_length_a   4.60842600
_cell_length_b   13.01183021
_cell_length_c   4.60817200
_cell_angle_alpha   90.00000000
_cell_angle_beta   90.00000000
_cell_angle_gamma   90.01036991
_symmetry_Int_Tables_number   1
_chemical_formula_structural   Hf8ReOs7
_chemical_formula_sum   'Hf8 Re1 Os7'
_cell_volume   276.32468239
_cell_formula_units_Z   1
loop_
 _symmetry_equiv_pos_site_id
 _symmetry_equiv_pos_as_xyz
  1  'x, y, z'
loop_
 _atom_site_type_symbol
 _atom_site_label
 _atom_site_symmetry_multiplicity
 _atom_site_fract_x
 _atom_site_fract_y
 _atom_site_fract_z
 _atom_site_occupancy
  Hf  Hf0  1  0.917178  0.001123  0.000000  1
  Hf  Hf1  1  0.916150  0.248875  0.000000  1
  Hf  Hf2  1  0.916172  0.499422  0.000000  1
  Hf  Hf3  1  0.917148  0.750574  0.000000  1
  Hf  Hf4  1  0.417171  0.001125  0.500000  1
  Hf  Hf5  1  0.416149  0.248876  0.500000  1
  Hf  Hf6  1  0.416166  0.499429  0.500000  1
  Hf  Hf7  1  0.417147  0.750577  0.500000  1
  Re  Re8  1  0.416648  0.125022  0.000000  1
  Os  Os9  1  0.416074  0.376431  0.000000  1
  Os  Os10  1  0.416674  0.624987  0.000000  1
  Os  Os11  1  0.417255  0.873579  0.000000  1
  Os  Os12  1  0.916659  0.124985  0.500000  1
  Os  Os13  1  0.916087  0.375985  0.500000  1
  Os  Os14  1  0.916674  0.624987  0.500000  1
  Os  Os15  1  0.917239  0.874025  0.500000  1
