# generated using pymatgen
data_Dy3LuFe14
_symmetry_space_group_name_H-M   'P 1'
_cell_length_a   5.06184094
_cell_length_b   5.06184169
_cell_length_c   12.29926747
_cell_angle_alpha   78.14992200
_cell_angle_beta   78.14992205
_cell_angle_gamma   59.92433117
_symmetry_Int_Tables_number   1
_chemical_formula_structural   Dy3LuFe14
_chemical_formula_sum   'Dy3 Lu1 Fe14'
_cell_volume   264.93492554
_cell_formula_units_Z   1
loop_
 _symmetry_equiv_pos_site_id
 _symmetry_equiv_pos_as_xyz
  1  'x, y, z'
loop_
 _atom_site_type_symbol
 _atom_site_label
 _atom_site_symmetry_multiplicity
 _atom_site_fract_x
 _atom_site_fract_y
 _atom_site_fract_z
 _atom_site_occupancy
  Dy  Dy0  1  0.052089  0.052089  0.843377  1
  Dy  Dy1  1  0.947442  0.947442  0.158040  1
  Dy  Dy2  1  0.149585  0.149585  0.550634  1
  Lu  Lu3  1  0.850831  0.850831  0.447848  1
  Fe  Fe4  1  0.500264  0.500264  0.499241  1
  Fe  Fe5  1  0.278482  0.278482  0.164433  1
  Fe  Fe6  1  0.721421  0.721421  0.835853  1
  Fe  Fe7  1  0.387420  0.387420  0.837255  1
  Fe  Fe8  1  0.612450  0.612450  0.163011  1
  Fe  Fe9  1  0.499888  0.499888  0.000256  1
  Fe  Fe10  1  0.499916  0.000064  0.000222  1
  Fe  Fe11  1  0.000064  0.499916  0.000222  1
  Fe  Fe12  1  0.109126  0.609717  0.670896  1
  Fe  Fe13  1  0.609800  0.609800  0.671007  1
  Fe  Fe14  1  0.609717  0.109126  0.670896  1
  Fe  Fe15  1  0.890856  0.390314  0.328971  1
  Fe  Fe16  1  0.390333  0.390333  0.328866  1
  Fe  Fe17  1  0.390314  0.890856  0.328971  1
