# generated using pymatgen
data_HoPu3Zr4F28
_symmetry_space_group_name_H-M   'P 1'
_cell_length_a   5.82920211
_cell_length_b   9.28775977
_cell_length_c   12.43315000
_cell_angle_alpha   62.08161722
_cell_angle_beta   90.01111671
_cell_angle_gamma   89.99881395
_symmetry_Int_Tables_number   1
_chemical_formula_structural   HoPu3Zr4F28
_chemical_formula_sum   'Ho1 Pu3 Zr4 F28'
_cell_volume   594.79122347
_cell_formula_units_Z   1
loop_
 _symmetry_equiv_pos_site_id
 _symmetry_equiv_pos_as_xyz
  1  'x, y, z'
loop_
 _atom_site_type_symbol
 _atom_site_label
 _atom_site_symmetry_multiplicity
 _atom_site_fract_x
 _atom_site_fract_y
 _atom_site_fract_z
 _atom_site_occupancy
  Ho  Ho0  1  0.758893  0.812103  0.765032  1
  Pu  Pu1  1  0.742106  0.812550  0.264369  1
  Pu  Pu2  1  0.242124  0.182664  0.236647  1
  Pu  Pu3  1  0.260473  0.178024  0.736774  1
  Zr  Zr4  1  0.744650  0.269966  0.458295  1
  Zr  Zr5  1  0.243989  0.723049  0.040279  1
  Zr  Zr6  1  0.258735  0.724540  0.550879  1
  Zr  Zr7  1  0.757537  0.281204  0.952406  1
  F  F8  1  0.466196  0.714567  0.916784  1
  F  F9  1  0.955648  0.290120  0.579884  1
  F  F10  1  0.543614  0.290178  0.077936  1
  F  F11  1  0.040849  0.716276  0.426223  1
  F  F12  1  0.451407  0.281366  0.545119  1
  F  F13  1  0.955925  0.720508  0.944982  1
  F  F14  1  0.545229  0.716408  0.458759  1
  F  F15  1  0.048615  0.288915  0.041070  1
  F  F16  1  0.763262  0.529627  0.856389  1
  F  F17  1  0.267756  0.479127  0.643491  1
  F  F18  1  0.226777  0.478132  0.139773  1
  F  F19  1  0.727719  0.517693  0.359656  1
  F  F20  1  0.761346  0.032488  0.054254  1
  F  F21  1  0.262408  0.973148  0.446986  1
  F  F22  1  0.232564  0.972105  0.945790  1
  F  F23  1  0.739126  0.022196  0.560448  1
  F  F24  1  0.988250  0.734486  0.652970  1
  F  F25  1  0.483115  0.269601  0.854218  1
  F  F26  1  0.023187  0.265116  0.360898  1
  F  F27  1  0.518310  0.734022  0.137567  1
  F  F28  1  0.043777  0.738978  0.170435  1
  F  F29  1  0.549557  0.256125  0.325657  1
  F  F30  1  0.956177  0.261762  0.824401  1
  F  F31  1  0.469161  0.749099  0.674894  1
  F  F32  1  0.409414  0.958965  0.237147  1
  F  F33  1  0.909972  0.037351  0.261585  1
  F  F34  1  0.585347  0.020438  0.765622  1
  F  F35  1  0.066783  0.967104  0.732382  1
