# generated using pymatgen
data_Ce2Dy10Tc3Os
_symmetry_space_group_name_H-M   'P 1'
_cell_length_a   6.35671137
_cell_length_b   7.29830641
_cell_length_c   9.34440700
_cell_angle_alpha   90.00000000
_cell_angle_beta   90.00000000
_cell_angle_gamma   90.03871393
_symmetry_Int_Tables_number   1
_chemical_formula_structural   Ce2Dy10Tc3Os
_chemical_formula_sum   'Ce2 Dy10 Tc3 Os1'
_cell_volume   433.51709922
_cell_formula_units_Z   1
loop_
 _symmetry_equiv_pos_site_id
 _symmetry_equiv_pos_as_xyz
  1  'x, y, z'
loop_
 _atom_site_type_symbol
 _atom_site_label
 _atom_site_symmetry_multiplicity
 _atom_site_fract_x
 _atom_site_fract_y
 _atom_site_fract_z
 _atom_site_occupancy
  Ce  Ce0  1  0.865831  0.561132  0.250000  1
  Ce  Ce1  1  0.633873  0.059401  0.250000  1
  Dy  Dy2  1  0.335029  0.676986  0.060061  1
  Dy  Dy3  1  0.163395  0.176839  0.439495  1
  Dy  Dy4  1  0.670292  0.325308  0.568083  1
  Dy  Dy5  1  0.828807  0.824367  0.931413  1
  Dy  Dy6  1  0.670292  0.325308  0.931917  1
  Dy  Dy7  1  0.828807  0.824367  0.568587  1
  Dy  Dy8  1  0.335029  0.676986  0.439939  1
  Dy  Dy9  1  0.163395  0.176839  0.060505  1
  Dy  Dy10  1  0.135279  0.460029  0.750000  1
  Dy  Dy11  1  0.367347  0.960553  0.750000  1
  Tc  Tc12  1  0.002338  0.860937  0.250000  1
  Tc  Tc13  1  0.498167  0.360338  0.250000  1
  Tc  Tc14  1  0.963009  0.114717  0.750000  1
  Os  Os15  1  0.539110  0.615890  0.750000  1
