# generated using pymatgen
data_CeDy(Tc2P)4
_symmetry_space_group_name_H-M   'P 1'
_cell_length_a   7.45506269
_cell_length_b   7.45506269
_cell_length_c   3.93900700
_cell_angle_alpha   90.00000000
_cell_angle_beta   90.00000000
_cell_angle_gamma   89.30101609
_symmetry_Int_Tables_number   1
_chemical_formula_structural   CeDy(Tc2P)4
_chemical_formula_sum   'Ce1 Dy1 Tc8 P4'
_cell_volume   218.90568160
_cell_formula_units_Z   1
loop_
 _symmetry_equiv_pos_site_id
 _symmetry_equiv_pos_as_xyz
  1  'x, y, z'
loop_
 _atom_site_type_symbol
 _atom_site_label
 _atom_site_symmetry_multiplicity
 _atom_site_fract_x
 _atom_site_fract_y
 _atom_site_fract_z
 _atom_site_occupancy
  Ce  Ce0  1  0.000000  0.000000  0.000000  1
  Dy  Dy1  1  0.500000  0.500000  0.500000  1
  Tc  Tc2  1  0.580674  0.839417  0.000000  1
  Tc  Tc3  1  0.839417  0.580674  0.000000  1
  Tc  Tc4  1  0.160583  0.419326  0.000000  1
  Tc  Tc5  1  0.419326  0.160583  0.000000  1
  Tc  Tc6  1  0.659428  0.083363  0.500000  1
  Tc  Tc7  1  0.916637  0.340572  0.500000  1
  Tc  Tc8  1  0.083363  0.659428  0.500000  1
  Tc  Tc9  1  0.340572  0.916637  0.500000  1
  P  P10  1  0.710035  0.289965  0.000000  1
  P  P11  1  0.289965  0.710035  0.000000  1
  P  P12  1  0.784632  0.784632  0.500000  1
  P  P13  1  0.215368  0.215368  0.500000  1
