# generated using pymatgen
data_Ba2LaAlSe5
_symmetry_space_group_name_H-M   'P 1'
_cell_length_a   7.43645768
_cell_length_b   9.00315063
_cell_length_c   9.69102958
_cell_angle_alpha   103.75012153
_cell_angle_beta   102.50643817
_cell_angle_gamma   107.85352829
_symmetry_Int_Tables_number   1
_chemical_formula_structural   Ba2LaAlSe5
_chemical_formula_sum   'Ba4 La2 Al2 Se10'
_cell_volume   569.73583818
_cell_formula_units_Z   2
loop_
 _symmetry_equiv_pos_site_id
 _symmetry_equiv_pos_as_xyz
  1  'x, y, z'
loop_
 _atom_site_type_symbol
 _atom_site_label
 _atom_site_symmetry_multiplicity
 _atom_site_fract_x
 _atom_site_fract_y
 _atom_site_fract_z
 _atom_site_occupancy
  Ba  Ba0  1  0.634772  0.978464  0.295614  1
  Ba  Ba1  1  0.365228  0.021536  0.704386  1
  Ba  Ba2  1  0.340770  0.508448  0.703346  1
  Ba  Ba3  1  0.659230  0.491552  0.296654  1
  La  La4  1  0.997378  0.732841  0.997843  1
  La  La5  1  0.002622  0.267159  0.002157  1
  Al  Al6  1  0.805865  0.871879  0.687001  1
  Al  Al7  1  0.194135  0.128121  0.312999  1
  Se  Se8  1  0.986508  0.690057  0.677637  1
  Se  Se9  1  0.013492  0.309943  0.322363  1
  Se  Se10  1  0.982365  0.142908  0.681860  1
  Se  Se11  1  0.017635  0.857092  0.318140  1
  Se  Se12  1  0.703491  0.903640  0.915272  1
  Se  Se13  1  0.296509  0.096360  0.084728  1
  Se  Se14  1  0.694077  0.406742  0.944179  1
  Se  Se15  1  0.305923  0.593258  0.055821  1
  Se  Se16  1  0.495637  0.743492  0.495717  1
  Se  Se17  1  0.504363  0.256508  0.504283  1
