# generated using pymatgen
data_Nd11(Ni2Sb3)2
_symmetry_space_group_name_H-M   'P 1'
_cell_length_a   4.46577529
_cell_length_b   9.70411463
_cell_length_c   14.52621400
_cell_angle_alpha   106.17719272
_cell_angle_beta   90.02061777
_cell_angle_gamma   103.24761668
_symmetry_Int_Tables_number   1
_chemical_formula_structural   Nd11(Ni2Sb3)2
_chemical_formula_sum   'Nd11 Ni4 Sb6'
_cell_volume   587.10950786
_cell_formula_units_Z   1
loop_
 _symmetry_equiv_pos_site_id
 _symmetry_equiv_pos_as_xyz
  1  'x, y, z'
loop_
 _atom_site_type_symbol
 _atom_site_label
 _atom_site_symmetry_multiplicity
 _atom_site_fract_x
 _atom_site_fract_y
 _atom_site_fract_z
 _atom_site_occupancy
  Nd  Nd0  1  0.904236  0.807417  0.216860  1
  Nd  Nd1  1  0.852998  0.706095  0.642718  1
  Nd  Nd2  1  0.214021  0.428409  0.099956  1
  Nd  Nd3  1  0.549368  0.098020  0.123526  1
  Nd  Nd4  1  0.342203  0.681964  0.416306  1
  Nd  Nd5  1  0.450869  0.901540  0.877695  1
  Nd  Nd6  1  0.000215  0.999897  0.500550  1
  Nd  Nd7  1  0.147434  0.293957  0.358527  1
  Nd  Nd8  1  0.786269  0.571028  0.901038  1
  Nd  Nd9  1  0.658028  0.318016  0.584500  1
  Nd  Nd10  1  0.095948  0.192143  0.784292  1
  Ni  Ni11  1  0.752925  0.505290  0.457454  1
  Ni  Ni12  1  0.944045  0.888497  0.026295  1
  Ni  Ni13  1  0.056072  0.110977  0.974974  1
  Ni  Ni14  1  0.246989  0.495136  0.543597  1
  Sb  Sb15  1  0.631317  0.261152  0.949329  1
  Sb  Sb16  1  0.262018  0.521580  0.735943  1
  Sb  Sb17  1  0.738206  0.477867  0.265036  1
  Sb  Sb18  1  0.369044  0.738252  0.051839  1
  Sb  Sb19  1  0.514654  0.028593  0.348002  1
  Sb  Sb20  1  0.485737  0.971219  0.653086  1
