# generated using pymatgen
data_Sc12Hg(RuBr8)2
_symmetry_space_group_name_H-M   'P 1'
_cell_length_a   9.01172750
_cell_length_b   11.11012991
_cell_length_c   11.71861123
_cell_angle_alpha   117.10452511
_cell_angle_beta   101.87544098
_cell_angle_gamma   101.37771028
_symmetry_Int_Tables_number   1
_chemical_formula_structural   Sc12Hg(RuBr8)2
_chemical_formula_sum   'Sc12 Hg1 Ru2 Br16'
_cell_volume   963.34942353
_cell_formula_units_Z   1
loop_
 _symmetry_equiv_pos_site_id
 _symmetry_equiv_pos_as_xyz
  1  'x, y, z'
loop_
 _atom_site_type_symbol
 _atom_site_label
 _atom_site_symmetry_multiplicity
 _atom_site_fract_x
 _atom_site_fract_y
 _atom_site_fract_z
 _atom_site_occupancy
  Sc  Sc0  1  0.093760  0.244654  0.342961  1
  Sc  Sc1  1  0.906240  0.755346  0.657039  1
  Sc  Sc2  1  0.759546  0.539241  0.310915  1
  Sc  Sc3  1  0.240454  0.460759  0.689085  1
  Sc  Sc4  1  0.303436  0.756741  0.657545  1
  Sc  Sc5  1  0.696564  0.243259  0.342455  1
  Sc  Sc6  1  0.156540  0.538762  0.312143  1
  Sc  Sc7  1  0.843460  0.461238  0.687857  1
  Sc  Sc8  1  0.402428  0.352949  0.265959  1
  Sc  Sc9  1  0.597572  0.647051  0.734041  1
  Sc  Sc10  1  0.456591  0.300660  0.520926  1
  Sc  Sc11  1  0.543409  0.699340  0.479074  1
  Hg  Hg12  1  0.000000  0.500000  0.500000  1
  Ru  Ru13  1  0.337768  0.500191  0.499438  1
  Ru  Ru14  1  0.662233  0.499809  0.500562  1
  Br  Br15  1  0.399068  0.746501  0.892054  1
  Br  Br16  1  0.600932  0.253499  0.107946  1
  Br  Br17  1  0.191219  0.971795  0.786368  1
  Br  Br18  1  0.808781  0.028205  0.213632  1
  Br  Br19  1  0.335214  0.085647  0.244981  1
  Br  Br20  1  0.664786  0.914353  0.755019  1
  Br  Br21  1  0.556265  0.437314  0.805018  1
  Br  Br22  1  0.443735  0.562686  0.194982  1
  Br  Br23  1  0.310766  0.833616  0.462091  1
  Br  Br24  1  0.689234  0.166384  0.537909  1
  Br  Br25  1  0.165259  0.165146  0.533466  1
  Br  Br26  1  0.834741  0.834854  0.466534  1
  Br  Br27  1  0.926502  0.578620  0.158387  1
  Br  Br28  1  0.073498  0.421380  0.841613  1
  Br  Br29  1  0.927376  0.745199  0.892348  1
  Br  Br30  1  0.072624  0.254801  0.107652  1
