# generated using pymatgen
data_Er3Tm12Lu5(CoSb2)4
_symmetry_space_group_name_H-M   'P 1'
_cell_length_a   7.73832320
_cell_length_b   8.70274207
_cell_length_c   12.02501731
_cell_angle_alpha   90.00891572
_cell_angle_beta   89.97591000
_cell_angle_gamma   89.98895292
_symmetry_Int_Tables_number   1
_chemical_formula_structural   Er3Tm12Lu5(CoSb2)4
_chemical_formula_sum   'Er3 Tm12 Lu5 Co4 Sb8'
_cell_volume   809.82025534
_cell_formula_units_Z   1
loop_
 _symmetry_equiv_pos_site_id
 _symmetry_equiv_pos_as_xyz
  1  'x, y, z'
loop_
 _atom_site_type_symbol
 _atom_site_label
 _atom_site_symmetry_multiplicity
 _atom_site_fract_x
 _atom_site_fract_y
 _atom_site_fract_z
 _atom_site_occupancy
  Er  Er0  1  0.122425  0.249991  0.191421  1
  Er  Er1  1  0.377577  0.249943  0.691511  1
  Er  Er2  1  0.877858  0.750103  0.808560  1
  Tm  Tm3  1  0.157199  0.750097  0.204084  1
  Tm  Tm4  1  0.657159  0.249926  0.295856  1
  Tm  Tm5  1  0.843065  0.249991  0.795944  1
  Tm  Tm6  1  0.342874  0.749962  0.704088  1
  Tm  Tm7  1  0.449358  0.750070  0.998017  1
  Tm  Tm8  1  0.949444  0.250032  0.501936  1
  Tm  Tm9  1  0.550148  0.249848  0.001985  1
  Tm  Tm10  1  0.050182  0.750044  0.498046  1
  Tm  Tm11  1  0.621871  0.749947  0.309068  1
  Tm  Tm12  1  0.676046  0.962281  0.565341  1
  Tm  Tm13  1  0.824029  0.537235  0.065508  1
  Tm  Tm14  1  0.324241  0.463097  0.434404  1
  Lu  Lu15  1  0.824683  0.962743  0.065425  1
  Lu  Lu16  1  0.324639  0.036945  0.434421  1
  Lu  Lu17  1  0.175494  0.462435  0.934513  1
  Lu  Lu18  1  0.675630  0.537729  0.565310  1
  Lu  Lu19  1  0.175332  0.037534  0.934562  1
  Co  Co20  1  0.431687  0.749974  0.490869  1
  Co  Co21  1  0.931866  0.249818  0.008932  1
  Co  Co22  1  0.568383  0.249977  0.508843  1
  Co  Co23  1  0.068588  0.750223  0.991072  1
  Sb  Sb24  1  0.931115  0.991302  0.327631  1
  Sb  Sb25  1  0.431894  0.008264  0.172443  1
  Sb  Sb26  1  0.068601  0.491437  0.672323  1
  Sb  Sb27  1  0.568593  0.508509  0.827660  1
  Sb  Sb28  1  0.068773  0.008588  0.672398  1
  Sb  Sb29  1  0.568482  0.991511  0.827750  1
  Sb  Sb30  1  0.931025  0.508723  0.327629  1
  Sb  Sb31  1  0.431743  0.491718  0.172448  1
