# generated using pymatgen
data_Sr5Ag5Au
_symmetry_space_group_name_H-M   'P 1'
_cell_length_a   16.73443087
_cell_length_b   16.73443029
_cell_length_c   4.41205300
_cell_angle_alpha   90.00000000
_cell_angle_beta   90.00000000
_cell_angle_gamma   164.13315771
_symmetry_Int_Tables_number   1
_chemical_formula_structural   Sr5Ag5Au
_chemical_formula_sum   'Sr5 Ag5 Au1'
_cell_volume   337.80435442
_cell_formula_units_Z   1
loop_
 _symmetry_equiv_pos_site_id
 _symmetry_equiv_pos_as_xyz
  1  'x, y, z'
loop_
 _atom_site_type_symbol
 _atom_site_label
 _atom_site_symmetry_multiplicity
 _atom_site_fract_x
 _atom_site_fract_y
 _atom_site_fract_z
 _atom_site_occupancy
  Sr  Sr0  1  0.999968  0.000032  0.000000  1
  Sr  Sr1  1  0.618422  0.381576  0.000000  1
  Sr  Sr2  1  0.382852  0.617146  0.000000  1
  Sr  Sr3  1  0.800690  0.199308  0.500001  1
  Sr  Sr4  1  0.198332  0.801666  0.500001  1
  Ag  Ag5  1  0.277932  0.722066  0.000000  1
  Ag  Ag6  1  0.909590  0.090409  0.500001  1
  Ag  Ag7  1  0.542019  0.457979  0.500001  1
  Ag  Ag8  1  0.458370  0.541628  0.500001  1
  Ag  Ag9  1  0.090668  0.909331  0.500001  1
  Au  Au10  1  0.721149  0.278849  0.000000  1
