# generated using pymatgen
data_Tb8Mg2Sc10Si15Au
_symmetry_space_group_name_H-M   'P 1'
_cell_length_a   7.07732828
_cell_length_b   7.38883645
_cell_length_c   14.13610018
_cell_angle_alpha   89.89856127
_cell_angle_beta   89.74313802
_cell_angle_gamma   90.13256593
_symmetry_Int_Tables_number   1
_chemical_formula_structural   Tb8Mg2Sc10Si15Au
_chemical_formula_sum   'Tb8 Mg2 Sc10 Si15 Au1'
_cell_volume   739.21163416
_cell_formula_units_Z   1
loop_
 _symmetry_equiv_pos_site_id
 _symmetry_equiv_pos_as_xyz
  1  'x, y, z'
loop_
 _atom_site_type_symbol
 _atom_site_label
 _atom_site_symmetry_multiplicity
 _atom_site_fract_x
 _atom_site_fract_y
 _atom_site_fract_z
 _atom_site_occupancy
  Tb  Tb0  1  0.011199  0.179492  0.097387  1
  Tb  Tb1  1  0.989326  0.821309  0.902857  1
  Tb  Tb2  1  0.485356  0.674362  0.903412  1
  Tb  Tb3  1  0.990604  0.824394  0.597922  1
  Tb  Tb4  1  0.512728  0.326168  0.096358  1
  Tb  Tb5  1  0.009219  0.179025  0.399651  1
  Tb  Tb6  1  0.512722  0.325071  0.400962  1
  Tb  Tb7  1  0.489032  0.673964  0.599535  1
  Mg  Mg8  1  0.159632  0.503337  0.749445  1
  Mg  Mg9  1  0.838725  0.496996  0.250140  1
  Sc  Sc10  1  0.339592  0.000243  0.249058  1
  Sc  Sc11  1  0.662692  0.997421  0.751530  1
  Sc  Sc12  1  0.336753  0.179670  0.625690  1
  Sc  Sc13  1  0.668623  0.819739  0.373718  1
  Sc  Sc14  1  0.165036  0.671603  0.373346  1
  Sc  Sc15  1  0.672379  0.820122  0.124534  1
  Sc  Sc16  1  0.831217  0.326883  0.625173  1
  Sc  Sc17  1  0.327445  0.179614  0.876470  1
  Sc  Sc18  1  0.831946  0.322457  0.876046  1
  Sc  Sc19  1  0.168232  0.675199  0.124579  1
  Si  Si20  1  0.032313  0.108722  0.750188  1
  Si  Si21  1  0.968733  0.893956  0.249026  1
  Si  Si22  1  0.460025  0.618832  0.248452  1
  Si  Si23  1  0.541136  0.381966  0.752769  1
  Si  Si24  1  0.288636  0.884248  0.751139  1
  Si  Si25  1  0.710317  0.117224  0.248850  1
  Si  Si26  1  0.223038  0.371119  0.248713  1
  Si  Si27  1  0.779294  0.627488  0.752257  1
  Si  Si28  1  0.832173  0.540993  0.464395  1
  Si  Si29  1  0.341857  0.963155  0.461048  1
  Si  Si30  1  0.841979  0.539293  0.033486  1
  Si  Si31  1  0.655804  0.034202  0.537190  1
  Si  Si32  1  0.157433  0.460989  0.966440  1
  Si  Si33  1  0.656483  0.032490  0.960996  1
  Si  Si34  1  0.344671  0.966532  0.039666  1
  Au  Au35  1  0.163649  0.461722  0.537572  1
