# generated using pymatgen
data_Tm5PaGa10
_symmetry_space_group_name_H-M   'P 1'
_cell_length_a   6.07383641
_cell_length_b   9.57459185
_cell_length_c   11.39178100
_cell_angle_alpha   90.00000000
_cell_angle_beta   90.00000000
_cell_angle_gamma   89.99706651
_symmetry_Int_Tables_number   1
_chemical_formula_structural   Tm5PaGa10
_chemical_formula_sum   'Tm10 Pa2 Ga20'
_cell_volume   662.48337979
_cell_formula_units_Z   2
loop_
 _symmetry_equiv_pos_site_id
 _symmetry_equiv_pos_as_xyz
  1  'x, y, z'
loop_
 _atom_site_type_symbol
 _atom_site_label
 _atom_site_symmetry_multiplicity
 _atom_site_fract_x
 _atom_site_fract_y
 _atom_site_fract_z
 _atom_site_occupancy
  Tm  Tm0  1  0.850301  0.749189  0.073187  1
  Tm  Tm1  1  0.649699  0.750811  0.573187  1
  Tm  Tm2  1  0.147110  0.247035  0.926498  1
  Tm  Tm3  1  0.352890  0.252965  0.426498  1
  Tm  Tm4  1  0.111857  0.009533  0.648283  1
  Tm  Tm5  1  0.388143  0.490467  0.148283  1
  Tm  Tm6  1  0.111241  0.489278  0.648577  1
  Tm  Tm7  1  0.388759  0.010722  0.148577  1
  Tm  Tm8  1  0.890361  0.990640  0.352020  1
  Tm  Tm9  1  0.609639  0.509360  0.852020  1
  Pa  Pa10  1  0.887801  0.511350  0.353604  1
  Pa  Pa11  1  0.612199  0.988650  0.853604  1
  Ga  Ga12  1  0.870800  0.052944  0.091974  1
  Ga  Ga13  1  0.629200  0.447056  0.591974  1
  Ga  Ga14  1  0.127836  0.549909  0.907305  1
  Ga  Ga15  1  0.372164  0.950091  0.407305  1
  Ga  Ga16  1  0.122756  0.946553  0.908687  1
  Ga  Ga17  1  0.377244  0.553447  0.408687  1
  Ga  Ga18  1  0.871645  0.447160  0.090449  1
  Ga  Ga19  1  0.628355  0.052840  0.590449  1
  Ga  Ga20  1  0.172379  0.750906  0.252642  1
  Ga  Ga21  1  0.327621  0.749094  0.752642  1
  Ga  Ga22  1  0.826846  0.249666  0.746786  1
  Ga  Ga23  1  0.673154  0.250334  0.246786  1
  Ga  Ga24  1  0.375968  0.750588  0.004176  1
  Ga  Ga25  1  0.124032  0.749412  0.504176  1
  Ga  Ga26  1  0.621599  0.249526  0.994629  1
  Ga  Ga27  1  0.878401  0.250474  0.494629  1
  Ga  Ga28  1  0.604102  0.752015  0.298403  1
  Ga  Ga29  1  0.895898  0.747985  0.798403  1
  Ga  Ga30  1  0.397694  0.247436  0.702779  1
  Ga  Ga31  1  0.102306  0.252564  0.202779  1
