# generated using pymatgen
data_La4YbCo4I
_symmetry_space_group_name_H-M   'P 1'
_cell_length_a   4.03617000
_cell_length_b   4.03617021
_cell_length_c   19.17228900
_cell_angle_alpha   90.00000000
_cell_angle_beta   90.00000000
_cell_angle_gamma   119.99999825
_symmetry_Int_Tables_number   1
_chemical_formula_structural   La4YbCo4I
_chemical_formula_sum   'La4 Yb1 Co4 I1'
_cell_volume   270.48521383
_cell_formula_units_Z   1
loop_
 _symmetry_equiv_pos_site_id
 _symmetry_equiv_pos_as_xyz
  1  'x, y, z'
loop_
 _atom_site_type_symbol
 _atom_site_label
 _atom_site_symmetry_multiplicity
 _atom_site_fract_x
 _atom_site_fract_y
 _atom_site_fract_z
 _atom_site_occupancy
  La  La0  1  0.000000  0.000000  0.081824  1
  La  La1  1  0.000000  0.000000  0.888144  1
  La  La2  1  0.000000  0.000000  0.611856  1
  La  La3  1  0.000000  0.000000  0.418176  1
  Yb  Yb4  1  0.333333  0.666667  0.250000  1
  Co  Co5  1  0.333333  0.666667  0.512999  1
  Co  Co6  1  0.666667  0.333333  0.515542  1
  Co  Co7  1  0.666667  0.333333  0.984458  1
  Co  Co8  1  0.333333  0.666667  0.987001  1
  I  I9  1  0.666667  0.333333  0.750000  1
