# generated using pymatgen
data_Ba6Mn(TcO6)2
_symmetry_space_group_name_H-M   'P 1'
_cell_length_a   9.20342082
_cell_length_b   9.20342022
_cell_length_c   7.36883708
_cell_angle_alpha   68.04712989
_cell_angle_beta   68.04713177
_cell_angle_gamma   36.84668056
_symmetry_Int_Tables_number   1
_chemical_formula_structural   Ba6Mn(TcO6)2
_chemical_formula_sum   'Ba6 Mn1 Tc2 O12'
_cell_volume   344.01210588
_cell_formula_units_Z   1
loop_
 _symmetry_equiv_pos_site_id
 _symmetry_equiv_pos_as_xyz
  1  'x, y, z'
loop_
 _atom_site_type_symbol
 _atom_site_label
 _atom_site_symmetry_multiplicity
 _atom_site_fract_x
 _atom_site_fract_y
 _atom_site_fract_z
 _atom_site_occupancy
  Ba  Ba0  1  0.209403  0.209403  0.709482  1
  Ba  Ba1  1  0.886018  0.886018  0.709702  1
  Ba  Ba2  1  0.547701  0.547701  0.715522  1
  Ba  Ba3  1  0.790597  0.790597  0.290518  1
  Ba  Ba4  1  0.452299  0.452299  0.284478  1
  Ba  Ba5  1  0.113982  0.113982  0.290298  1
  Mn  Mn6  1  0.000000  0.000000  0.000000  1
  Tc  Tc7  1  0.669431  0.669431  0.000577  1
  Tc  Tc8  1  0.330569  0.330569  0.999423  1
  O  O9  1  0.280429  0.280429  0.300046  1
  O  O10  1  0.945274  0.945274  0.322807  1
  O  O11  1  0.620130  0.620130  0.298501  1
  O  O12  1  0.719571  0.719571  0.699954  1
  O  O13  1  0.379870  0.379870  0.701499  1
  O  O14  1  0.054726  0.054726  0.677193  1
  O  O15  1  0.000000  0.500000  0.000000  1
  O  O16  1  0.643568  0.176739  0.001421  1
  O  O17  1  0.356432  0.823261  0.998579  1
  O  O18  1  0.500000  0.000000  0.000000  1
  O  O19  1  0.176739  0.643568  0.001421  1
  O  O20  1  0.823261  0.356432  0.998579  1
