# generated using pymatgen
data_Ti12GaSiPt2
_symmetry_space_group_name_H-M   'P 1'
_cell_length_a   5.01461500
_cell_length_b   5.01123200
_cell_length_c   10.06082300
_cell_angle_alpha   90.00000000
_cell_angle_beta   90.00000000
_cell_angle_gamma   90.00000000
_symmetry_Int_Tables_number   1
_chemical_formula_structural   Ti12GaSiPt2
_chemical_formula_sum   'Ti12 Ga1 Si1 Pt2'
_cell_volume   252.82243700
_cell_formula_units_Z   1
loop_
 _symmetry_equiv_pos_site_id
 _symmetry_equiv_pos_as_xyz
  1  'x, y, z'
loop_
 _atom_site_type_symbol
 _atom_site_label
 _atom_site_symmetry_multiplicity
 _atom_site_fract_x
 _atom_site_fract_y
 _atom_site_fract_z
 _atom_site_occupancy
  Ti  Ti0  1  0.000000  0.500000  0.125946  1
  Ti  Ti1  1  0.000000  0.500000  0.624044  1
  Ti  Ti2  1  0.500000  0.248689  0.746579  1
  Ti  Ti3  1  0.500000  0.248976  0.253140  1
  Ti  Ti4  1  0.751567  0.000000  0.000260  1
  Ti  Ti5  1  0.749149  0.000000  0.499808  1
  Ti  Ti6  1  0.000000  0.500000  0.879047  1
  Ti  Ti7  1  0.000000  0.500000  0.370253  1
  Ti  Ti8  1  0.500000  0.751311  0.746579  1
  Ti  Ti9  1  0.500000  0.751024  0.253140  1
  Ti  Ti10  1  0.248433  0.000000  0.000260  1
  Ti  Ti11  1  0.250851  0.000000  0.499808  1
  Ga  Ga12  1  0.500000  0.500000  0.999559  1
  Si  Si13  1  0.000000  0.000000  0.250985  1
  Pt  Pt14  1  0.500000  0.500000  0.499175  1
  Pt  Pt15  1  0.000000  0.000000  0.751418  1
