# generated using pymatgen
data_Lu2Fe10Mo2P7
_symmetry_space_group_name_H-M   'P 1'
_cell_length_a   9.06956128
_cell_length_b   9.10800607
_cell_length_c   3.65718400
_cell_angle_alpha   90.00000000
_cell_angle_beta   90.00000000
_cell_angle_gamma   120.74515435
_symmetry_Int_Tables_number   1
_chemical_formula_structural   Lu2Fe10Mo2P7
_chemical_formula_sum   'Lu2 Fe10 Mo2 P7'
_cell_volume   259.64313299
_cell_formula_units_Z   1
loop_
 _symmetry_equiv_pos_site_id
 _symmetry_equiv_pos_as_xyz
  1  'x, y, z'
loop_
 _atom_site_type_symbol
 _atom_site_label
 _atom_site_symmetry_multiplicity
 _atom_site_fract_x
 _atom_site_fract_y
 _atom_site_fract_z
 _atom_site_occupancy
  Lu  Lu0  1  0.667336  0.340553  0.000000  1
  Lu  Lu1  1  0.000072  0.995011  0.500000  1
  Fe  Fe2  1  0.757530  0.721499  0.000000  1
  Fe  Fe3  1  0.281394  0.042589  0.000000  1
  Fe  Fe4  1  0.952998  0.232084  0.000000  1
  Fe  Fe5  1  0.499465  0.948552  0.000000  1
  Fe  Fe6  1  0.055731  0.546991  0.000000  1
  Fe  Fe7  1  0.454214  0.511739  0.000000  1
  Fe  Fe8  1  0.725469  0.101652  0.500000  1
  Fe  Fe9  1  0.892437  0.617226  0.500000  1
  Fe  Fe10  1  0.383776  0.280742  0.500000  1
  Fe  Fe11  1  0.548662  0.758973  0.500000  1
  Mo  Mo12  1  0.234515  0.788547  0.500000  1
  Mo  Mo13  1  0.213728  0.445256  0.500000  1
  P  P14  1  0.460665  0.082147  0.500000  1
  P  P15  1  0.921968  0.386788  0.500000  1
  P  P16  1  0.619478  0.551790  0.500000  1
  P  P17  1  0.742407  0.951610  0.000000  1
  P  P18  1  0.026707  0.776198  0.000000  1
  P  P19  1  0.220676  0.249333  0.000000  1
  P  P20  1  0.340772  0.670723  0.000000  1
