# generated using pymatgen
data_HoCrCo4As3
_symmetry_space_group_name_H-M   'P 1'
_cell_length_a   3.77553800
_cell_length_b   10.75982400
_cell_length_c   12.29200200
_cell_angle_alpha   90.00000000
_cell_angle_beta   90.00000000
_cell_angle_gamma   90.00000000
_symmetry_Int_Tables_number   1
_chemical_formula_structural   HoCrCo4As3
_chemical_formula_sum   'Ho4 Cr4 Co16 As12'
_cell_volume   499.35181819
_cell_formula_units_Z   4
loop_
 _symmetry_equiv_pos_site_id
 _symmetry_equiv_pos_as_xyz
  1  'x, y, z'
loop_
 _atom_site_type_symbol
 _atom_site_label
 _atom_site_symmetry_multiplicity
 _atom_site_fract_x
 _atom_site_fract_y
 _atom_site_fract_z
 _atom_site_occupancy
  Ho  Ho0  1  0.250000  0.581158  0.705432  1
  Ho  Ho1  1  0.250000  0.918842  0.205432  1
  Ho  Ho2  1  0.750000  0.418842  0.294568  1
  Ho  Ho3  1  0.750000  0.081158  0.794568  1
  Cr  Cr4  1  0.250000  0.706070  0.990605  1
  Cr  Cr5  1  0.250000  0.793930  0.490605  1
  Cr  Cr6  1  0.750000  0.293930  0.009395  1
  Cr  Cr7  1  0.750000  0.206070  0.509395  1
  Co  Co8  1  0.250000  0.405595  0.489219  1
  Co  Co9  1  0.250000  0.094405  0.989219  1
  Co  Co10  1  0.750000  0.594405  0.510781  1
  Co  Co11  1  0.750000  0.905595  0.010781  1
  Co  Co12  1  0.250000  0.217177  0.175976  1
  Co  Co13  1  0.250000  0.282823  0.675976  1
  Co  Co14  1  0.750000  0.782823  0.824024  1
  Co  Co15  1  0.750000  0.717177  0.324024  1
  Co  Co16  1  0.250000  0.884067  0.698202  1
  Co  Co17  1  0.250000  0.615933  0.198202  1
  Co  Co18  1  0.750000  0.115933  0.301798  1
  Co  Co19  1  0.750000  0.384067  0.801798  1
  Co  Co20  1  0.250000  0.465482  0.932126  1
  Co  Co21  1  0.250000  0.034518  0.432126  1
  Co  Co22  1  0.750000  0.534518  0.067874  1
  Co  Co23  1  0.750000  0.965482  0.567874  1
  As  As24  1  0.250000  0.417765  0.114424  1
  As  As25  1  0.250000  0.082235  0.614424  1
  As  As26  1  0.750000  0.582235  0.885576  1
  As  As27  1  0.750000  0.917765  0.385576  1
  As  As28  1  0.250000  0.267405  0.866638  1
  As  As29  1  0.250000  0.232595  0.366638  1
  As  As30  1  0.750000  0.732595  0.133362  1
  As  As31  1  0.750000  0.767405  0.633362  1
  As  As32  1  0.250000  0.595521  0.389184  1
  As  As33  1  0.250000  0.904479  0.889184  1
  As  As34  1  0.750000  0.404479  0.610816  1
  As  As35  1  0.750000  0.095521  0.110816  1
