# generated using pymatgen
data_NdDyPa2(Al3Co)6
_symmetry_space_group_name_H-M   'P 1'
_cell_length_a   7.45024634
_cell_length_b   7.44409794
_cell_length_c   9.27646500
_cell_angle_alpha   90.00000000
_cell_angle_beta   90.00000000
_cell_angle_gamma   119.21339127
_symmetry_Int_Tables_number   1
_chemical_formula_structural   NdDyPa2(Al3Co)6
_chemical_formula_sum   'Nd1 Dy1 Pa2 Al18 Co6'
_cell_volume   449.03888929
_cell_formula_units_Z   1
loop_
 _symmetry_equiv_pos_site_id
 _symmetry_equiv_pos_as_xyz
  1  'x, y, z'
loop_
 _atom_site_type_symbol
 _atom_site_label
 _atom_site_symmetry_multiplicity
 _atom_site_fract_x
 _atom_site_fract_y
 _atom_site_fract_z
 _atom_site_occupancy
  Nd  Nd0  1  0.671645  0.993629  0.250000  1
  Dy  Dy1  1  0.993864  0.671736  0.250000  1
  Pa  Pa2  1  0.006325  0.324301  0.750000  1
  Pa  Pa3  1  0.324208  0.006217  0.750000  1
  Al  Al4  1  0.662493  0.998442  0.926420  1
  Al  Al5  1  0.998945  0.662917  0.571947  1
  Al  Al6  1  0.126608  0.124778  0.250000  1
  Al  Al7  1  0.669209  0.667587  0.043511  1
  Al  Al8  1  0.336730  0.336786  0.543578  1
  Al  Al9  1  0.336730  0.336786  0.956422  1
  Al  Al10  1  0.669209  0.667587  0.456489  1
  Al  Al11  1  0.333088  0.997874  0.071908  1
  Al  Al12  1  0.000194  0.337257  0.427954  1
  Al  Al13  1  0.338613  0.553676  0.250000  1
  Al  Al14  1  0.000194  0.337257  0.072046  1
  Al  Al15  1  0.556042  0.343181  0.250000  1
  Al  Al16  1  0.659229  0.447417  0.750000  1
  Al  Al17  1  0.868208  0.867637  0.750000  1
  Al  Al18  1  0.998945  0.662917  0.928053  1
  Al  Al19  1  0.662493  0.998442  0.573580  1
  Al  Al20  1  0.333088  0.997874  0.428092  1
  Al  Al21  1  0.447133  0.658831  0.750000  1
  Co  Co22  1  0.670755  0.326306  0.506655  1
  Co  Co23  1  0.670755  0.326306  0.993345  1
  Co  Co24  1  0.325203  0.670186  0.506608  1
  Co  Co25  1  0.007448  0.006944  0.988963  1
  Co  Co26  1  0.007448  0.006944  0.511037  1
  Co  Co27  1  0.325203  0.670186  0.993392  1
