# generated using pymatgen
data_Tb4Ge2Sb3AsRh7
_symmetry_space_group_name_H-M   'P 1'
_cell_length_a   7.49607379
_cell_length_b   7.45330013
_cell_length_c   7.45330137
_cell_angle_alpha   109.30916078
_cell_angle_beta   109.60207091
_cell_angle_gamma   109.60208210
_symmetry_Int_Tables_number   1
_chemical_formula_structural   Tb4Ge2Sb3AsRh7
_chemical_formula_sum   'Tb4 Ge2 Sb3 As1 Rh7'
_cell_volume   320.16301099
_cell_formula_units_Z   1
loop_
 _symmetry_equiv_pos_site_id
 _symmetry_equiv_pos_as_xyz
  1  'x, y, z'
loop_
 _atom_site_type_symbol
 _atom_site_label
 _atom_site_symmetry_multiplicity
 _atom_site_fract_x
 _atom_site_fract_y
 _atom_site_fract_z
 _atom_site_occupancy
  Tb  Tb0  1  0.542928  0.999645  0.999645  1
  Tb  Tb1  1  0.989062  0.480452  0.000036  1
  Tb  Tb2  1  0.989062  0.000036  0.480452  1
  Tb  Tb3  1  0.508586  0.519564  0.519564  1
  Ge  Ge4  1  0.671439  0.999275  0.664272  1
  Ge  Ge5  1  0.671439  0.664272  0.999275  1
  Sb  Sb6  1  0.008255  0.697046  0.697046  1
  Sb  Sb7  1  0.314934  0.999552  0.305806  1
  Sb  Sb8  1  0.314934  0.305806  0.999552  1
  As  As9  1  0.006053  0.333872  0.333872  1
  Rh  Rh10  1  0.962302  0.999110  0.999110  1
  Rh  Rh11  1  0.503189  0.748977  0.249037  1
  Rh  Rh12  1  0.754302  0.500996  0.251659  1
  Rh  Rh13  1  0.253012  0.750181  0.500520  1
  Rh  Rh14  1  0.253012  0.500520  0.750181  1
  Rh  Rh15  1  0.503189  0.249037  0.748977  1
  Rh  Rh16  1  0.754302  0.251659  0.500996  1
