# generated using pymatgen
data_TiV9Se16
_symmetry_space_group_name_H-M   'P 1'
_cell_length_a   6.74179600
_cell_length_b   6.74184271
_cell_length_c   12.67396800
_cell_angle_alpha   89.99868204
_cell_angle_beta   90.00020182
_cell_angle_gamma   120.00170065
_symmetry_Int_Tables_number   1
_chemical_formula_structural   TiV9Se16
_chemical_formula_sum   'Ti1 V9 Se16'
_cell_volume   498.87302146
_cell_formula_units_Z   1
loop_
 _symmetry_equiv_pos_site_id
 _symmetry_equiv_pos_as_xyz
  1  'x, y, z'
loop_
 _atom_site_type_symbol
 _atom_site_label
 _atom_site_symmetry_multiplicity
 _atom_site_fract_x
 _atom_site_fract_y
 _atom_site_fract_z
 _atom_site_occupancy
  Ti  Ti0  1  0.000000  0.000000  0.500000  1
  V  V1  1  0.999995  0.999987  0.249859  1
  V  V2  1  0.000005  0.000013  0.750141  1
  V  V3  1  0.508361  0.491648  0.248913  1
  V  V4  1  0.508385  0.016777  0.248909  1
  V  V5  1  0.983191  0.491602  0.248920  1
  V  V6  1  0.491639  0.508352  0.751087  1
  V  V7  1  0.491615  0.983223  0.751091  1
  V  V8  1  0.016809  0.508398  0.751080  1
  V  V9  1  0.000000  0.000000  0.000000  1
  Se  Se10  1  0.333365  0.666626  0.879358  1
  Se  Se11  1  0.666635  0.333374  0.120642  1
  Se  Se12  1  0.666661  0.333394  0.376793  1
  Se  Se13  1  0.333339  0.666606  0.623207  1
  Se  Se14  1  0.169025  0.830985  0.372582  1
  Se  Se15  1  0.169067  0.338048  0.372556  1
  Se  Se16  1  0.661938  0.830934  0.372553  1
  Se  Se17  1  0.830975  0.169015  0.627418  1
  Se  Se18  1  0.830933  0.661952  0.627444  1
  Se  Se19  1  0.338062  0.169066  0.627447  1
  Se  Se20  1  0.832450  0.167540  0.873132  1
  Se  Se21  1  0.832421  0.664895  0.873107  1
  Se  Se22  1  0.335117  0.167581  0.873104  1
  Se  Se23  1  0.167550  0.832460  0.126868  1
  Se  Se24  1  0.167579  0.335105  0.126893  1
  Se  Se25  1  0.664883  0.832419  0.126896  1
