# generated using pymatgen
data_Nd6Y4Be3Si15Au2
_symmetry_space_group_name_H-M   'P 1'
_cell_length_a   4.12954191
_cell_length_b   4.12977837
_cell_length_c   34.85181603
_cell_angle_alpha   86.59286799
_cell_angle_beta   86.56271923
_cell_angle_gamma   89.99933654
_symmetry_Int_Tables_number   1
_chemical_formula_structural   Nd6Y4Be3Si15Au2
_chemical_formula_sum   'Nd6 Y4 Be3 Si15 Au2'
_cell_volume   592.24440725
_cell_formula_units_Z   1
loop_
 _symmetry_equiv_pos_site_id
 _symmetry_equiv_pos_as_xyz
  1  'x, y, z'
loop_
 _atom_site_type_symbol
 _atom_site_label
 _atom_site_symmetry_multiplicity
 _atom_site_fract_x
 _atom_site_fract_y
 _atom_site_fract_z
 _atom_site_occupancy
  Nd  Nd0  1  0.545793  0.045987  0.908180  1
  Nd  Nd1  1  0.997527  0.997113  0.006041  1
  Nd  Nd2  1  0.399983  0.399775  0.200545  1
  Nd  Nd3  1  0.802065  0.801841  0.395888  1
  Nd  Nd4  1  0.204885  0.204284  0.591009  1
  Nd  Nd5  1  0.601416  0.601089  0.797223  1
  Y  Y6  1  0.947731  0.447996  0.104042  1
  Y  Y7  1  0.350476  0.850596  0.298849  1
  Y  Y8  1  0.753234  0.253494  0.493632  1
  Y  Y9  1  0.149218  0.649982  0.700704  1
  Be  Be10  1  0.464837  0.965234  0.069803  1
  Be  Be11  1  0.867377  0.367642  0.264863  1
  Be  Be12  1  0.269699  0.769831  0.460107  1
  Si  Si13  1  0.667015  0.167298  0.665278  1
  Si  Si14  1  0.063272  0.564071  0.871953  1
  Si  Si15  1  0.916011  0.916328  0.167694  1
  Si  Si16  1  0.318372  0.318900  0.362860  1
  Si  Si17  1  0.720354  0.720960  0.558690  1
  Si  Si18  1  0.117134  0.117091  0.765570  1
  Si  Si19  1  0.513058  0.513157  0.973674  1
  Si  Si20  1  0.433805  0.933373  0.132690  1
  Si  Si21  1  0.836045  0.335542  0.327877  1
  Si  Si22  1  0.238543  0.738309  0.523094  1
  Si  Si23  1  0.634263  0.134626  0.731627  1
  Si  Si24  1  0.030559  0.530307  0.939240  1
  Si  Si25  1  0.479467  0.479207  0.041614  1
  Si  Si26  1  0.882092  0.881956  0.236061  1
  Si  Si27  1  0.284572  0.284222  0.431310  1
  Au  Au28  1  0.685578  0.684994  0.629654  1
  Au  Au29  1  0.082823  0.081997  0.835830  1
