# generated using pymatgen
data_Er4LuBiAu2
_symmetry_space_group_name_H-M   'P 1'
_cell_length_a   8.63565561
_cell_length_b   8.63565549
_cell_length_c   8.63565600
_cell_angle_alpha   124.29054331
_cell_angle_beta   124.29054100
_cell_angle_gamma   82.71647516
_symmetry_Int_Tables_number   1
_chemical_formula_structural   Er4LuBiAu2
_chemical_formula_sum   'Er8 Lu2 Bi2 Au4'
_cell_volume   422.09907593
_cell_formula_units_Z   2
loop_
 _symmetry_equiv_pos_site_id
 _symmetry_equiv_pos_as_xyz
  1  'x, y, z'
loop_
 _atom_site_type_symbol
 _atom_site_label
 _atom_site_symmetry_multiplicity
 _atom_site_fract_x
 _atom_site_fract_y
 _atom_site_fract_z
 _atom_site_occupancy
  Er  Er0  1  0.514072  0.014072  0.808665  1
  Er  Er1  1  0.205406  0.705406  0.191335  1
  Er  Er2  1  0.014072  0.205406  0.500000  1
  Er  Er3  1  0.705406  0.514072  0.500000  1
  Er  Er4  1  0.485928  0.985928  0.191335  1
  Er  Er5  1  0.794594  0.294594  0.808665  1
  Er  Er6  1  0.985928  0.794594  0.500000  1
  Er  Er7  1  0.294594  0.485928  0.500000  1
  Lu  Lu8  1  0.500000  0.500000  0.000000  1
  Lu  Lu9  1  0.000000  0.000000  0.000000  1
  Bi  Bi10  1  0.250000  0.250000  0.000000  1
  Bi  Bi11  1  0.750000  0.750000  0.000000  1
  Au  Au12  1  0.139260  0.639260  0.778520  1
  Au  Au13  1  0.860740  0.360740  0.221480  1
  Au  Au14  1  0.639260  0.860740  0.500000  1
  Au  Au15  1  0.360740  0.139260  0.500000  1
