# generated using pymatgen
data_Sc8TaV9(Si8W)2
_symmetry_space_group_name_H-M   'P 1'
_cell_length_a   6.66897584
_cell_length_b   6.66897625
_cell_length_c   12.35494536
_cell_angle_alpha   89.88452298
_cell_angle_beta   90.11548029
_cell_angle_gamma   90.13055352
_symmetry_Int_Tables_number   1
_chemical_formula_structural   Sc8TaV9(Si8W)2
_chemical_formula_sum   'Sc8 Ta1 V9 Si16 W2'
_cell_volume   549.48552556
_cell_formula_units_Z   1
loop_
 _symmetry_equiv_pos_site_id
 _symmetry_equiv_pos_as_xyz
  1  'x, y, z'
loop_
 _atom_site_type_symbol
 _atom_site_label
 _atom_site_symmetry_multiplicity
 _atom_site_fract_x
 _atom_site_fract_y
 _atom_site_fract_z
 _atom_site_occupancy
  Sc  Sc0  1  0.002495  0.663839  0.029907  1
  Sc  Sc1  1  0.837394  0.502591  0.280121  1
  Sc  Sc2  1  0.161320  0.497554  0.778342  1
  Sc  Sc3  1  0.502591  0.837394  0.719879  1
  Sc  Sc4  1  0.497554  0.161320  0.221658  1
  Sc  Sc5  1  0.997073  0.336603  0.529935  1
  Sc  Sc6  1  0.663839  0.002495  0.970093  1
  Sc  Sc7  1  0.336603  0.997073  0.470065  1
  Ta  Ta8  1  0.332742  0.332742  0.000000  1
  V  V9  1  0.667517  0.667517  0.500000  1
  V  V10  1  0.006828  0.157388  0.127059  1
  V  V11  1  0.343210  0.506899  0.377690  1
  V  V12  1  0.657153  0.494088  0.875932  1
  V  V13  1  0.506899  0.343210  0.622310  1
  V  V14  1  0.494088  0.657153  0.124068  1
  V  V15  1  0.993410  0.842380  0.625948  1
  V  V16  1  0.157388  0.006828  0.872941  1
  V  V17  1  0.842380  0.993410  0.374052  1
  Si  Si18  1  0.295289  0.956460  0.064559  1
  Si  Si19  1  0.542831  0.793004  0.316049  1
  Si  Si20  1  0.460563  0.204558  0.811438  1
  Si  Si21  1  0.793004  0.542831  0.683951  1
  Si  Si22  1  0.204558  0.460563  0.188562  1
  Si  Si23  1  0.704190  0.037554  0.562491  1
  Si  Si24  1  0.956460  0.295289  0.935441  1
  Si  Si25  1  0.037554  0.704190  0.437509  1
  Si  Si26  1  0.709173  0.371390  0.072190  1
  Si  Si27  1  0.128273  0.206127  0.322164  1
  Si  Si28  1  0.871334  0.793487  0.820832  1
  Si  Si29  1  0.206127  0.128273  0.677836  1
  Si  Si30  1  0.793487  0.871334  0.179168  1
  Si  Si31  1  0.296397  0.629135  0.570222  1
  Si  Si32  1  0.371390  0.709173  0.927810  1
  Si  Si33  1  0.629135  0.296397  0.429778  1
  W  W34  1  0.167840  0.831908  0.251210  1
  W  W35  1  0.831908  0.167840  0.748790  1
