# generated using pymatgen
data_Th2Fe2Co15
_symmetry_space_group_name_H-M   'P 1'
_cell_length_a   6.32572381
_cell_length_b   6.32572294
_cell_length_c   6.32572394
_cell_angle_alpha   82.88695494
_cell_angle_beta   82.88695650
_cell_angle_gamma   82.88695232
_symmetry_Int_Tables_number   1
_chemical_formula_structural   Th2Fe2Co15
_chemical_formula_sum   'Th2 Fe2 Co15'
_cell_volume   247.72367480
_cell_formula_units_Z   1
loop_
 _symmetry_equiv_pos_site_id
 _symmetry_equiv_pos_as_xyz
  1  'x, y, z'
loop_
 _atom_site_type_symbol
 _atom_site_label
 _atom_site_symmetry_multiplicity
 _atom_site_fract_x
 _atom_site_fract_y
 _atom_site_fract_z
 _atom_site_occupancy
  Th  Th0  1  0.344005  0.344005  0.344006  1
  Th  Th1  1  0.655994  0.655994  0.655995  1
  Fe  Fe2  1  0.096931  0.096931  0.096931  1
  Fe  Fe3  1  0.903069  0.903069  0.903069  1
  Co  Co4  1  0.286987  0.713012  0.000000  1
  Co  Co5  1  0.000000  0.286986  0.713012  1
  Co  Co6  1  0.713014  0.000000  0.286986  1
  Co  Co7  1  0.713012  0.286987  0.000000  1
  Co  Co8  1  0.000000  0.713014  0.286986  1
  Co  Co9  1  0.286986  0.000000  0.713012  1
  Co  Co10  1  0.000000  0.000000  0.500002  1
  Co  Co11  1  0.499999  0.000002  0.000001  1
  Co  Co12  1  0.000002  0.499999  0.000001  1
  Co  Co13  1  0.655290  0.150060  0.655290  1
  Co  Co14  1  0.655290  0.655290  0.150060  1
  Co  Co15  1  0.150060  0.655290  0.655290  1
  Co  Co16  1  0.849940  0.344712  0.344711  1
  Co  Co17  1  0.344711  0.344711  0.849941  1
  Co  Co18  1  0.344712  0.849940  0.344711  1
