# generated using pymatgen
data_Dy4Y12Cd4Ir3Rh
_symmetry_space_group_name_H-M   'P 1'
_cell_length_a   9.66976294
_cell_length_b   9.66976193
_cell_length_c   9.66976241
_cell_angle_alpha   60.02739501
_cell_angle_beta   60.02739749
_cell_angle_gamma   60.02740091
_symmetry_Int_Tables_number   1
_chemical_formula_structural   Dy4Y12Cd4Ir3Rh
_chemical_formula_sum   'Dy4 Y12 Cd4 Ir3 Rh1'
_cell_volume   639.73786728
_cell_formula_units_Z   1
loop_
 _symmetry_equiv_pos_site_id
 _symmetry_equiv_pos_as_xyz
  1  'x, y, z'
loop_
 _atom_site_type_symbol
 _atom_site_label
 _atom_site_symmetry_multiplicity
 _atom_site_fract_x
 _atom_site_fract_y
 _atom_site_fract_z
 _atom_site_occupancy
  Dy  Dy0  1  0.347982  0.347982  0.347982  1
  Dy  Dy1  1  0.349801  0.349801  0.953158  1
  Dy  Dy2  1  0.349801  0.953158  0.349801  1
  Dy  Dy3  1  0.953158  0.349801  0.349801  1
  Y  Y4  1  0.808235  0.189889  0.189889  1
  Y  Y5  1  0.188635  0.810098  0.810098  1
  Y  Y6  1  0.189889  0.808235  0.189889  1
  Y  Y7  1  0.810098  0.188635  0.810098  1
  Y  Y8  1  0.189889  0.189889  0.808235  1
  Y  Y9  1  0.810098  0.810098  0.188635  1
  Y  Y10  1  0.939416  0.561830  0.561830  1
  Y  Y11  1  0.563256  0.937559  0.937559  1
  Y  Y12  1  0.561830  0.939416  0.561830  1
  Y  Y13  1  0.937559  0.563256  0.937559  1
  Y  Y14  1  0.561830  0.561830  0.939416  1
  Y  Y15  1  0.937559  0.937559  0.563256  1
  Cd  Cd16  1  0.580299  0.580299  0.580299  1
  Cd  Cd17  1  0.580798  0.580798  0.257043  1
  Cd  Cd18  1  0.580798  0.257043  0.580798  1
  Cd  Cd19  1  0.257043  0.580798  0.580798  1
  Ir  Ir20  1  0.143154  0.143154  0.573245  1
  Ir  Ir21  1  0.143154  0.573245  0.143154  1
  Ir  Ir22  1  0.573245  0.143154  0.143154  1
  Rh  Rh23  1  0.142476  0.142476  0.142476  1
