# generated using pymatgen
data_LaPrSmTaO7
_symmetry_space_group_name_H-M   'P 1'
_cell_length_a   6.69939576
_cell_length_b   6.69939674
_cell_length_c   7.75214000
_cell_angle_alpha   90.00000000
_cell_angle_beta   90.00000000
_cell_angle_gamma   108.70944955
_symmetry_Int_Tables_number   1
_chemical_formula_structural   LaPrSmTaO7
_chemical_formula_sum   'La2 Pr2 Sm2 Ta2 O14'
_cell_volume   329.54527562
_cell_formula_units_Z   2
loop_
 _symmetry_equiv_pos_site_id
 _symmetry_equiv_pos_as_xyz
  1  'x, y, z'
loop_
 _atom_site_type_symbol
 _atom_site_label
 _atom_site_symmetry_multiplicity
 _atom_site_fract_x
 _atom_site_fract_y
 _atom_site_fract_z
 _atom_site_occupancy
  La  La0  1  0.475212  0.475212  0.500000  1
  La  La1  1  0.475212  0.475212  0.000000  1
  Pr  Pr2  1  0.536879  0.994991  0.750000  1
  Pr  Pr3  1  0.994991  0.536879  0.250000  1
  Sm  Sm4  1  0.467008  0.996298  0.250000  1
  Sm  Sm5  1  0.996298  0.467008  0.750000  1
  Ta  Ta6  1  0.999638  0.999638  0.500000  1
  Ta  Ta7  1  0.999638  0.999638  0.000000  1
  O  O8  1  0.696389  0.947131  0.463800  1
  O  O9  1  0.947131  0.696389  0.536200  1
  O  O10  1  0.696389  0.947131  0.036200  1
  O  O11  1  0.947131  0.696389  0.963800  1
  O  O12  1  0.317995  0.072524  0.524436  1
  O  O13  1  0.072524  0.317995  0.475564  1
  O  O14  1  0.317995  0.072524  0.975564  1
  O  O15  1  0.072524  0.317995  0.024436  1
  O  O16  1  0.943672  0.058066  0.750000  1
  O  O17  1  0.058066  0.943672  0.250000  1
  O  O18  1  0.361002  0.624725  0.750000  1
  O  O19  1  0.624725  0.361002  0.250000  1
  O  O20  1  0.638047  0.361531  0.750000  1
  O  O21  1  0.361531  0.638047  0.250000  1
