# generated using pymatgen
data_Y5As12Ru10Rh9
_symmetry_space_group_name_H-M   'P 1'
_cell_length_a   13.09128761
_cell_length_b   13.04161174
_cell_length_c   4.01076400
_cell_angle_alpha   90.00000000
_cell_angle_beta   90.00000000
_cell_angle_gamma   119.76252675
_symmetry_Int_Tables_number   1
_chemical_formula_structural   Y5As12Ru10Rh9
_chemical_formula_sum   'Y5 As12 Ru10 Rh9'
_cell_volume   594.43674134
_cell_formula_units_Z   1
loop_
 _symmetry_equiv_pos_site_id
 _symmetry_equiv_pos_as_xyz
  1  'x, y, z'
loop_
 _atom_site_type_symbol
 _atom_site_label
 _atom_site_symmetry_multiplicity
 _atom_site_fract_x
 _atom_site_fract_y
 _atom_site_fract_z
 _atom_site_occupancy
  Y  Y0  1  0.666733  0.331899  0.000000  1
  Y  Y1  1  0.333912  0.667365  0.000000  1
  Y  Y2  1  0.812124  0.001394  0.500000  1
  Y  Y3  1  0.185248  0.187685  0.500000  1
  Y  Y4  1  0.000097  0.813117  0.500000  1
  As  As5  1  0.632942  0.998080  0.000000  1
  As  As6  1  0.365236  0.369204  0.000000  1
  As  As7  1  0.004309  0.634480  0.000000  1
  As  As8  1  0.683652  0.517611  0.500000  1
  As  As9  1  0.832776  0.312789  0.500000  1
  As  As10  1  0.317919  0.834165  0.500000  1
  As  As11  1  0.516741  0.682657  0.500000  1
  As  As12  1  0.179294  0.001211  0.000000  1
  As  As13  1  0.820633  0.820396  0.000000  1
  As  As14  1  0.996752  0.179461  0.000000  1
  As  As15  1  0.480815  0.163913  0.500000  1
  As  As16  1  0.167033  0.484554  0.500000  1
  Ru  Ru17  1  0.126620  0.644012  0.500000  1
  Ru  Ru18  1  0.357575  0.483510  0.500000  1
  Ru  Ru19  1  0.516386  0.872627  0.500000  1
  Ru  Ru20  1  0.716457  0.715218  0.500000  1
  Ru  Ru21  1  0.001299  0.286050  0.500000  1
  Ru  Ru22  1  0.448538  0.002615  0.000000  1
  Ru  Ru23  1  0.555027  0.549743  0.000000  1
  Ru  Ru24  1  0.000019  0.447136  0.000000  1
  Ru  Ru25  1  0.818388  0.196437  0.000000  1
  Ru  Ru26  1  0.284034  0.001025  0.500000  1
  Rh  Rh27  1  0.624422  0.802677  0.000000  1
  Rh  Rh28  1  0.179360  0.375473  0.000000  1
  Rh  Rh29  1  0.375027  0.181995  0.000000  1
  Rh  Rh30  1  0.196878  0.822150  0.000000  1
  Rh  Rh31  1  0.806797  0.624059  0.000000  1
  Rh  Rh32  1  0.872494  0.512872  0.500000  1
  Rh  Rh33  1  0.485468  0.357026  0.500000  1
  Rh  Rh34  1  0.639626  0.125347  0.500000  1
  Rh  Rh35  1  0.999371  0.000044  0.000000  1
