# generated using pymatgen
data_Tb2Y6Hf3Si16Mo9
_symmetry_space_group_name_H-M   'P 1'
_cell_length_a   6.99337160
_cell_length_b   6.99362012
_cell_length_c   12.93939502
_cell_angle_alpha   89.94074304
_cell_angle_beta   90.06803266
_cell_angle_gamma   89.83437539
_symmetry_Int_Tables_number   1
_chemical_formula_structural   Tb2Y6Hf3Si16Mo9
_chemical_formula_sum   'Tb2 Y6 Hf3 Si16 Mo9'
_cell_volume   632.84923739
_cell_formula_units_Z   1
loop_
 _symmetry_equiv_pos_site_id
 _symmetry_equiv_pos_as_xyz
  1  'x, y, z'
loop_
 _atom_site_type_symbol
 _atom_site_label
 _atom_site_symmetry_multiplicity
 _atom_site_fract_x
 _atom_site_fract_y
 _atom_site_fract_z
 _atom_site_occupancy
  Tb  Tb0  1  0.337984  0.999744  0.783327  1
  Tb  Tb1  1  0.660327  0.004817  0.279647  1
  Y  Y2  1  0.999761  0.338078  0.216682  1
  Y  Y3  1  0.004717  0.660210  0.720385  1
  Y  Y4  1  0.160553  0.497048  0.468317  1
  Y  Y5  1  0.500228  0.841443  0.031101  1
  Y  Y6  1  0.841468  0.500201  0.968872  1
  Y  Y7  1  0.497052  0.160572  0.531676  1
  Hf  Hf8  1  0.831701  0.831730  0.499997  1
  Hf  Hf9  1  0.329752  0.669405  0.247719  1
  Hf  Hf10  1  0.669256  0.329637  0.752296  1
  Si  Si11  1  0.370696  0.295313  0.316626  1
  Si  Si12  1  0.627352  0.705855  0.817251  1
  Si  Si13  1  0.204150  0.872066  0.567644  1
  Si  Si14  1  0.125343  0.804529  0.934903  1
  Si  Si15  1  0.804667  0.125388  0.065075  1
  Si  Si16  1  0.872181  0.204223  0.432399  1
  Si  Si17  1  0.295258  0.371000  0.683351  1
  Si  Si18  1  0.705886  0.627141  0.182726  1
  Si  Si19  1  0.286777  0.046872  0.182991  1
  Si  Si20  1  0.709751  0.957936  0.689010  1
  Si  Si21  1  0.456454  0.790041  0.437842  1
  Si  Si22  1  0.212472  0.533563  0.058322  1
  Si  Si23  1  0.533618  0.212503  0.941645  1
  Si  Si24  1  0.790043  0.456505  0.562192  1
  Si  Si25  1  0.046834  0.287080  0.816952  1
  Si  Si26  1  0.957989  0.709492  0.310942  1
  Mo  Mo27  1  0.167928  0.167970  0.000087  1
  Mo  Mo28  1  0.160479  0.994677  0.375285  1
  Mo  Mo29  1  0.833037  0.003559  0.877189  1
  Mo  Mo30  1  0.506563  0.659436  0.626554  1
  Mo  Mo31  1  0.344346  0.497654  0.873522  1
  Mo  Mo32  1  0.497588  0.344317  0.126473  1
  Mo  Mo33  1  0.659584  0.506488  0.373468  1
  Mo  Mo34  1  0.994770  0.160490  0.624720  1
  Mo  Mo35  1  0.003438  0.833019  0.122812  1
