# generated using pymatgen
data_Rb8Ba4HfZrAs8
_symmetry_space_group_name_H-M   'P 1'
_cell_length_a   10.92077996
_cell_length_b   10.92117264
_cell_length_c   8.23581791
_cell_angle_alpha   88.38665180
_cell_angle_beta   88.40023894
_cell_angle_gamma   119.63861875
_symmetry_Int_Tables_number   1
_chemical_formula_structural   Rb8Ba4HfZrAs8
_chemical_formula_sum   'Rb8 Ba4 Hf1 Zr1 As8'
_cell_volume   852.42054203
_cell_formula_units_Z   1
loop_
 _symmetry_equiv_pos_site_id
 _symmetry_equiv_pos_as_xyz
  1  'x, y, z'
loop_
 _atom_site_type_symbol
 _atom_site_label
 _atom_site_symmetry_multiplicity
 _atom_site_fract_x
 _atom_site_fract_y
 _atom_site_fract_z
 _atom_site_occupancy
  Rb  Rb0  1  0.473617  0.942080  0.385880  1
  Rb  Rb1  1  0.941848  0.473493  0.885810  1
  Rb  Rb2  1  0.866698  0.723154  0.173435  1
  Rb  Rb3  1  0.267215  0.127504  0.232994  1
  Rb  Rb4  1  0.857021  0.139603  0.199323  1
  Rb  Rb5  1  0.127437  0.267039  0.732748  1
  Rb  Rb6  1  0.723351  0.866798  0.673208  1
  Rb  Rb7  1  0.139514  0.857135  0.699089  1
  Ba  Ba8  1  0.067397  0.533553  0.394646  1
  Ba  Ba9  1  0.475527  0.533179  0.379241  1
  Ba  Ba10  1  0.533922  0.068075  0.894297  1
  Ba  Ba11  1  0.533428  0.475291  0.879133  1
  Hf  Hf12  1  0.664310  0.334045  0.489002  1
  Zr  Zr13  1  0.333874  0.664388  0.988657  1
  As  As14  1  0.643351  0.328801  0.169437  1
  As  As15  1  0.328647  0.643064  0.666416  1
  As  As16  1  0.211386  0.406819  0.126055  1
  As  As17  1  0.599556  0.794733  0.075735  1
  As  As18  1  0.209072  0.801373  0.095433  1
  As  As19  1  0.793743  0.597525  0.575122  1
  As  As20  1  0.408650  0.212165  0.625091  1
  As  As21  1  0.800245  0.209989  0.594590  1
