# generated using pymatgen
data_Ca8TbYIr4
_symmetry_space_group_name_H-M   'P 1'
_cell_length_a   6.64111983
_cell_length_b   7.41552702
_cell_length_c   8.65674923
_cell_angle_alpha   97.36421072
_cell_angle_beta   112.55563214
_cell_angle_gamma   89.99999217
_symmetry_Int_Tables_number   1
_chemical_formula_structural   Ca8TbYIr4
_chemical_formula_sum   'Ca8 Tb1 Y1 Ir4'
_cell_volume   389.90140872
_cell_formula_units_Z   1
loop_
 _symmetry_equiv_pos_site_id
 _symmetry_equiv_pos_as_xyz
  1  'x, y, z'
loop_
 _atom_site_type_symbol
 _atom_site_label
 _atom_site_symmetry_multiplicity
 _atom_site_fract_x
 _atom_site_fract_y
 _atom_site_fract_z
 _atom_site_occupancy
  Ca  Ca0  1  0.977665  0.919115  0.172652  1
  Ca  Ca1  1  0.805012  0.580885  0.827348  1
  Ca  Ca2  1  0.022276  0.080744  0.827370  1
  Ca  Ca3  1  0.194906  0.419256  0.172630  1
  Ca  Ca4  1  0.641719  0.820116  0.436277  1
  Ca  Ca5  1  0.205442  0.679884  0.563723  1
  Ca  Ca6  1  0.358306  0.179831  0.563668  1
  Ca  Ca7  1  0.794638  0.320169  0.436332  1
  Tb  Tb8  1  0.562247  0.250000  0.000000  1
  Y  Y9  1  0.437471  0.750000  0.000000  1
  Ir  Ir10  1  0.808305  0.574024  0.208913  1
  Ir  Ir11  1  0.599392  0.925976  0.791087  1
  Ir  Ir12  1  0.191908  0.425603  0.791195  1
  Ir  Ir13  1  0.400713  0.074397  0.208805  1
