# generated using pymatgen
data_TbHo3Ga18(Co2Ni)2
_symmetry_space_group_name_H-M   'P 1'
_cell_length_a   7.37927543
_cell_length_b   7.37973173
_cell_length_c   9.37919202
_cell_angle_alpha   89.99757171
_cell_angle_beta   89.99836555
_cell_angle_gamma   119.81619590
_symmetry_Int_Tables_number   1
_chemical_formula_structural   TbHo3Ga18(Co2Ni)2
_chemical_formula_sum   'Tb1 Ho3 Ga18 Co4 Ni2'
_cell_volume   443.15101427
_cell_formula_units_Z   1
loop_
 _symmetry_equiv_pos_site_id
 _symmetry_equiv_pos_as_xyz
  1  'x, y, z'
loop_
 _atom_site_type_symbol
 _atom_site_label
 _atom_site_symmetry_multiplicity
 _atom_site_fract_x
 _atom_site_fract_y
 _atom_site_fract_z
 _atom_site_occupancy
  Tb  Tb0  1  0.003630  0.331547  0.250079  1
  Ho  Ho1  1  0.331324  0.002985  0.250106  1
  Ho  Ho2  1  0.996866  0.668622  0.749894  1
  Ho  Ho3  1  0.668361  0.996257  0.749847  1
  Ga  Ga4  1  0.336013  0.001429  0.925732  1
  Ga  Ga5  1  0.998561  0.664477  0.073999  1
  Ga  Ga6  1  0.333764  0.998295  0.571317  1
  Ga  Ga7  1  0.001714  0.666706  0.428973  1
  Ga  Ga8  1  0.665736  0.002675  0.073633  1
  Ga  Ga9  1  0.996867  0.333754  0.925747  1
  Ga  Ga10  1  0.665479  0.001196  0.429260  1
  Ga  Ga11  1  0.998375  0.334058  0.571386  1
  Ga  Ga12  1  0.666264  0.664237  0.939163  1
  Ga  Ga13  1  0.336142  0.333716  0.060515  1
  Ga  Ga14  1  0.667669  0.667669  0.557588  1
  Ga  Ga15  1  0.332746  0.332334  0.442729  1
  Ga  Ga16  1  0.121920  0.122529  0.747826  1
  Ga  Ga17  1  0.877256  0.877526  0.252184  1
  Ga  Ga18  1  0.451416  0.664237  0.252799  1
  Ga  Ga19  1  0.336237  0.549240  0.747210  1
  Ga  Ga20  1  0.550977  0.336596  0.749269  1
  Ga  Ga21  1  0.663032  0.449192  0.250739  1
  Co  Co22  1  0.999975  0.999931  0.500155  1
  Co  Co23  1  0.328872  0.671357  0.500146  1
  Co  Co24  1  0.670444  0.329574  0.999854  1
  Co  Co25  1  0.671019  0.329001  0.500148  1
  Ni  Ni26  1  0.999878  0.000096  0.999840  1
  Ni  Ni27  1  0.329459  0.670764  0.999862  1
