# generated using pymatgen
data_Na8Si4(Pd3Pt)3
_symmetry_space_group_name_H-M   'P 1'
_cell_length_a   7.36509150
_cell_length_b   7.34349575
_cell_length_c   7.35965400
_cell_angle_alpha   89.97198212
_cell_angle_beta   89.92996231
_cell_angle_gamma   89.65399660
_symmetry_Int_Tables_number   1
_chemical_formula_structural   Na8Si4(Pd3Pt)3
_chemical_formula_sum   'Na8 Si4 Pd9 Pt3'
_cell_volume   398.04309853
_cell_formula_units_Z   1
loop_
 _symmetry_equiv_pos_site_id
 _symmetry_equiv_pos_as_xyz
  1  'x, y, z'
loop_
 _atom_site_type_symbol
 _atom_site_label
 _atom_site_symmetry_multiplicity
 _atom_site_fract_x
 _atom_site_fract_y
 _atom_site_fract_z
 _atom_site_occupancy
  Na  Na0  1  0.281111  0.281499  0.281227  1
  Na  Na1  1  0.031099  0.468943  0.529673  1
  Na  Na2  1  0.532153  0.031566  0.469007  1
  Na  Na3  1  0.469695  0.530503  0.031008  1
  Na  Na4  1  0.218904  0.718857  0.781526  1
  Na  Na5  1  0.968462  0.969517  0.969289  1
  Na  Na6  1  0.780535  0.219553  0.719054  1
  Na  Na7  1  0.719091  0.779495  0.218960  1
  Si  Si8  1  0.872684  0.373814  0.118166  1
  Si  Si9  1  0.371490  0.128045  0.880139  1
  Si  Si10  1  0.631370  0.624015  0.623211  1
  Si  Si11  1  0.121889  0.870579  0.378463  1
  Pd  Pd12  1  0.167897  0.084110  0.625101  1
  Pd  Pd13  1  0.416534  0.376361  0.664428  1
  Pd  Pd14  1  0.086516  0.624737  0.164471  1
  Pd  Pd15  1  0.915789  0.125625  0.333623  1
  Pd  Pd16  1  0.332655  0.914633  0.128319  1
  Pd  Pd17  1  0.665334  0.413059  0.372911  1
  Pd  Pd18  1  0.580175  0.876598  0.834022  1
  Pd  Pd19  1  0.623856  0.161568  0.086517  1
  Pd  Pd20  1  0.377045  0.666015  0.417686  1
  Pt  Pt21  1  0.875149  0.837533  0.585624  1
  Pt  Pt22  1  0.124889  0.335852  0.913625  1
  Pt  Pt23  1  0.835682  0.587524  0.873950  1
