# generated using pymatgen
data_YbHo8Tm(In2Pt)4
_symmetry_space_group_name_H-M   'P 1'
_cell_length_a   3.59663600
_cell_length_b   8.16014423
_cell_length_c   18.27123414
_cell_angle_alpha   89.93081947
_cell_angle_beta   90.00000000
_cell_angle_gamma   90.00000000
_symmetry_Int_Tables_number   1
_chemical_formula_structural   YbHo8Tm(In2Pt)4
_chemical_formula_sum   'Yb1 Ho8 Tm1 In8 Pt4'
_cell_volume   536.24331117
_cell_formula_units_Z   1
loop_
 _symmetry_equiv_pos_site_id
 _symmetry_equiv_pos_as_xyz
  1  'x, y, z'
loop_
 _atom_site_type_symbol
 _atom_site_label
 _atom_site_symmetry_multiplicity
 _atom_site_fract_x
 _atom_site_fract_y
 _atom_site_fract_z
 _atom_site_occupancy
  Yb  Yb0  1  0.000000  0.999979  0.000069  1
  Ho  Ho1  1  0.000000  0.117131  0.414699  1
  Ho  Ho2  1  0.000000  0.882634  0.585030  1
  Ho  Ho3  1  0.000000  0.380994  0.914293  1
  Ho  Ho4  1  0.000000  0.619135  0.085953  1
  Ho  Ho5  1  0.000000  0.243006  0.221213  1
  Ho  Ho6  1  0.000000  0.757053  0.778864  1
  Ho  Ho7  1  0.000000  0.257378  0.720688  1
  Ho  Ho8  1  0.000000  0.499924  0.499979  1
  Tm  Tm9  1  0.000000  0.742970  0.278986  1
  In  In10  1  0.500000  0.425250  0.352059  1
  In  In11  1  0.500000  0.575120  0.647832  1
  In  In12  1  0.500000  0.073631  0.851543  1
  In  In13  1  0.500000  0.925904  0.148789  1
  In  In14  1  0.500000  0.293211  0.067441  1
  In  In15  1  0.500000  0.706958  0.932627  1
  In  In16  1  0.500000  0.208677  0.566850  1
  In  In17  1  0.500000  0.791358  0.432709  1
  Pt  Pt18  1  0.500000  0.022505  0.303849  1
  Pt  Pt19  1  0.500000  0.975756  0.696004  1
  Pt  Pt20  1  0.500000  0.477119  0.802919  1
  Pt  Pt21  1  0.500000  0.524308  0.197604  1
