# generated using pymatgen
data_Er10Si4Bi3Pb
_symmetry_space_group_name_H-M   'P 1'
_cell_length_a   8.57009066
_cell_length_b   8.57009046
_cell_length_c   7.86795698
_cell_angle_alpha   89.95424206
_cell_angle_beta   89.95423809
_cell_angle_gamma   125.38164260
_symmetry_Int_Tables_number   1
_chemical_formula_structural   Er10Si4Bi3Pb
_chemical_formula_sum   'Er10 Si4 Bi3 Pb1'
_cell_volume   471.14728914
_cell_formula_units_Z   1
loop_
 _symmetry_equiv_pos_site_id
 _symmetry_equiv_pos_as_xyz
  1  'x, y, z'
loop_
 _atom_site_type_symbol
 _atom_site_label
 _atom_site_symmetry_multiplicity
 _atom_site_fract_x
 _atom_site_fract_y
 _atom_site_fract_z
 _atom_site_occupancy
  Er  Er0  1  0.041931  0.285724  0.334306  1
  Er  Er1  1  0.956907  0.712828  0.664732  1
  Er  Er2  1  0.459298  0.214068  0.836887  1
  Er  Er3  1  0.785932  0.540702  0.163113  1
  Er  Er4  1  0.543689  0.787463  0.163031  1
  Er  Er5  1  0.212537  0.456311  0.836969  1
  Er  Er6  1  0.714276  0.958069  0.665694  1
  Er  Er7  1  0.287172  0.043093  0.335268  1
  Er  Er8  1  0.998561  0.001439  0.000000  1
  Er  Er9  1  0.500314  0.499686  0.500000  1
  Si  Si10  1  0.365368  0.365218  0.134364  1
  Si  Si11  1  0.634782  0.634632  0.865636  1
  Si  Si12  1  0.135086  0.134684  0.633959  1
  Si  Si13  1  0.865316  0.864914  0.366041  1
  Bi  Bi14  1  0.207181  0.792820  0.000000  1
  Bi  Bi15  1  0.707060  0.292940  0.500000  1
  Bi  Bi16  1  0.292557  0.707443  0.500000  1
  Pb  Pb17  1  0.792035  0.207965  0.000000  1
