# generated using pymatgen
data_Ca3Tb(YHg2)4
_symmetry_space_group_name_H-M   'P 1'
_cell_length_a   7.46112201
_cell_length_b   7.50791200
_cell_length_c   7.50828301
_cell_angle_alpha   90.00051892
_cell_angle_beta   90.00438636
_cell_angle_gamma   89.99990813
_symmetry_Int_Tables_number   1
_chemical_formula_structural   Ca3Tb(YHg2)4
_chemical_formula_sum   'Ca3 Tb1 Y4 Hg8'
_cell_volume   420.59484737
_cell_formula_units_Z   1
loop_
 _symmetry_equiv_pos_site_id
 _symmetry_equiv_pos_as_xyz
  1  'x, y, z'
loop_
 _atom_site_type_symbol
 _atom_site_label
 _atom_site_symmetry_multiplicity
 _atom_site_fract_x
 _atom_site_fract_y
 _atom_site_fract_z
 _atom_site_occupancy
  Ca  Ca0  1  0.249397  0.750000  0.499979  1
  Ca  Ca1  1  0.750725  0.250003  0.500005  1
  Ca  Ca2  1  0.250609  0.750004  0.999965  1
  Tb  Tb3  1  0.749286  0.249997  0.000012  1
  Y  Y4  1  0.250629  0.250002  0.999979  1
  Y  Y5  1  0.749449  0.750001  0.999994  1
  Y  Y6  1  0.750589  0.749995  0.499991  1
  Y  Y7  1  0.249491  0.250000  0.499981  1
  Hg  Hg8  1  0.996693  0.496664  0.246951  1
  Hg  Hg9  1  0.996692  0.003339  0.246951  1
  Hg  Hg10  1  0.503293  0.003291  0.248603  1
  Hg  Hg11  1  0.503292  0.496707  0.248604  1
  Hg  Hg12  1  0.503271  0.496770  0.751411  1
  Hg  Hg13  1  0.503267  0.003230  0.751412  1
  Hg  Hg14  1  0.996657  0.003340  0.753082  1
  Hg  Hg15  1  0.996660  0.496662  0.753082  1
