# generated using pymatgen
data_Ho4Ir7Ru
_symmetry_space_group_name_H-M   'P 1'
_cell_length_a   5.34022792
_cell_length_b   5.35786641
_cell_length_c   8.71231000
_cell_angle_alpha   90.00000000
_cell_angle_beta   90.00000000
_cell_angle_gamma   120.10929535
_symmetry_Int_Tables_number   1
_chemical_formula_structural   Ho4Ir7Ru
_chemical_formula_sum   'Ho4 Ir7 Ru1'
_cell_volume   215.64344878
_cell_formula_units_Z   1
loop_
 _symmetry_equiv_pos_site_id
 _symmetry_equiv_pos_as_xyz
  1  'x, y, z'
loop_
 _atom_site_type_symbol
 _atom_site_label
 _atom_site_symmetry_multiplicity
 _atom_site_fract_x
 _atom_site_fract_y
 _atom_site_fract_z
 _atom_site_occupancy
  Ho  Ho0  1  0.666812  0.333386  0.567520  1
  Ho  Ho1  1  0.333362  0.666703  0.433358  1
  Ho  Ho2  1  0.333362  0.666703  0.066642  1
  Ho  Ho3  1  0.666812  0.333386  0.932480  1
  Ir  Ir4  1  0.002673  0.001336  0.499117  1
  Ir  Ir5  1  0.002673  0.001336  0.000883  1
  Ir  Ir6  1  0.169721  0.338961  0.750000  1
  Ir  Ir7  1  0.169710  0.830712  0.750000  1
  Ir  Ir8  1  0.659559  0.829758  0.750000  1
  Ir  Ir9  1  0.827421  0.658961  0.250000  1
  Ir  Ir10  1  0.827434  0.168515  0.250000  1
  Ru  Ru11  1  0.340461  0.170243  0.250000  1
