# generated using pymatgen
data_B2Se13
_symmetry_space_group_name_H-M   'P 1'
_cell_length_a   8.86103878
_cell_length_b   8.97975510
_cell_length_c   10.08144600
_cell_angle_alpha   80.66977708
_cell_angle_beta   103.75573218
_cell_angle_gamma   77.59107349
_symmetry_Int_Tables_number   1
_chemical_formula_structural   B2Se13
_chemical_formula_sum   'B2 Se13'
_cell_volume   741.49848761
_cell_formula_units_Z   1
loop_
 _symmetry_equiv_pos_site_id
 _symmetry_equiv_pos_as_xyz
  1  'x, y, z'
loop_
 _atom_site_type_symbol
 _atom_site_label
 _atom_site_symmetry_multiplicity
 _atom_site_fract_x
 _atom_site_fract_y
 _atom_site_fract_z
 _atom_site_occupancy
  B  B0  1  0.833193  0.871148  0.167062  1
  B  B1  1  0.757016  0.148676  0.286187  1
  Se  Se2  1  0.764993  0.451060  0.805767  1
  Se  Se3  1  0.641982  0.291602  0.673820  1
  Se  Se4  1  0.149995  0.859921  0.847702  1
  Se  Se5  1  0.618825  0.867244  0.178985  1
  Se  Se6  1  0.931667  0.034211  0.223141  1
  Se  Se7  1  0.085731  0.535170  0.648001  1
  Se  Se8  1  0.564466  0.416609  0.434797  1
  Se  Se9  1  0.278355  0.645086  0.768907  1
  Se  Se10  1  0.794609  0.334466  0.353489  1
  Se  Se11  1  0.040528  0.356673  0.827192  1
  Se  Se12  1  0.185946  0.757759  0.085827  1
  Se  Se13  1  0.560635  0.086709  0.282285  1
  Se  Se14  1  0.942664  0.693252  0.103297  1
