# generated using pymatgen
data_Tb3Zr(P3Ir4)2
_symmetry_space_group_name_H-M   'P 1'
_cell_length_a   4.01089200
_cell_length_b   11.24160600
_cell_length_c   12.93944200
_cell_angle_alpha   90.00000000
_cell_angle_beta   90.00000000
_cell_angle_gamma   90.00000000
_symmetry_Int_Tables_number   1
_chemical_formula_structural   Tb3Zr(P3Ir4)2
_chemical_formula_sum   'Tb6 Zr2 P12 Ir16'
_cell_volume   583.42478680
_cell_formula_units_Z   2
loop_
 _symmetry_equiv_pos_site_id
 _symmetry_equiv_pos_as_xyz
  1  'x, y, z'
loop_
 _atom_site_type_symbol
 _atom_site_label
 _atom_site_symmetry_multiplicity
 _atom_site_fract_x
 _atom_site_fract_y
 _atom_site_fract_z
 _atom_site_occupancy
  Tb  Tb0  1  0.000000  0.500000  0.523070  1
  Tb  Tb1  1  0.500000  0.000000  0.476930  1
  Tb  Tb2  1  0.500000  0.820221  0.202609  1
  Tb  Tb3  1  0.500000  0.179779  0.202609  1
  Tb  Tb4  1  0.000000  0.679779  0.797391  1
  Tb  Tb5  1  0.000000  0.320221  0.797391  1
  Zr  Zr6  1  0.500000  0.500000  0.159395  1
  Zr  Zr7  1  0.000000  0.000000  0.840605  1
  P  P8  1  0.500000  0.500000  0.877800  1
  P  P9  1  0.000000  0.000000  0.122200  1
  P  P10  1  0.500000  0.500000  0.359991  1
  P  P11  1  0.000000  0.000000  0.640009  1
  P  P12  1  0.500000  0.313286  0.616874  1
  P  P13  1  0.500000  0.686714  0.616874  1
  P  P14  1  0.000000  0.186714  0.383126  1
  P  P15  1  0.000000  0.813286  0.383126  1
  P  P16  1  0.500000  0.842486  0.887680  1
  P  P17  1  0.500000  0.157514  0.887680  1
  P  P18  1  0.000000  0.657514  0.112320  1
  P  P19  1  0.000000  0.342486  0.112320  1
  Ir  Ir20  1  0.500000  0.500000  0.699556  1
  Ir  Ir21  1  0.000000  0.000000  0.300444  1
  Ir  Ir22  1  0.000000  0.500000  0.989060  1
  Ir  Ir23  1  0.500000  0.000000  0.010940  1
  Ir  Ir24  1  0.500000  0.330856  0.983336  1
  Ir  Ir25  1  0.500000  0.669144  0.983336  1
  Ir  Ir26  1  0.000000  0.169144  0.016664  1
  Ir  Ir27  1  0.000000  0.830856  0.016664  1
  Ir  Ir28  1  0.500000  0.294015  0.432267  1
  Ir  Ir29  1  0.500000  0.705985  0.432267  1
  Ir  Ir30  1  0.000000  0.205985  0.567733  1
  Ir  Ir31  1  0.000000  0.794015  0.567733  1
  Ir  Ir32  1  0.500000  0.870550  0.708620  1
  Ir  Ir33  1  0.500000  0.129450  0.708620  1
  Ir  Ir34  1  0.000000  0.629450  0.291380  1
  Ir  Ir35  1  0.000000  0.370550  0.291380  1
