# generated using pymatgen
data_BaZn4Pd
_symmetry_space_group_name_H-M   'P 1'
_cell_length_a   6.88130054
_cell_length_b   6.88130092
_cell_length_c   5.46062800
_cell_angle_alpha   90.00000000
_cell_angle_beta   90.00000000
_cell_angle_gamma   103.64194940
_symmetry_Int_Tables_number   1
_chemical_formula_structural   BaZn4Pd
_chemical_formula_sum   'Ba2 Zn8 Pd2'
_cell_volume   251.27857406
_cell_formula_units_Z   2
loop_
 _symmetry_equiv_pos_site_id
 _symmetry_equiv_pos_as_xyz
  1  'x, y, z'
loop_
 _atom_site_type_symbol
 _atom_site_label
 _atom_site_symmetry_multiplicity
 _atom_site_fract_x
 _atom_site_fract_y
 _atom_site_fract_z
 _atom_site_occupancy
  Ba  Ba0  1  0.668578  0.668578  0.250000  1
  Ba  Ba1  1  0.331422  0.331422  0.750000  1
  Zn  Zn2  1  0.923340  0.923340  0.750000  1
  Zn  Zn3  1  0.076660  0.076660  0.250000  1
  Zn  Zn4  1  0.535007  0.920993  0.749852  1
  Zn  Zn5  1  0.464993  0.079007  0.249852  1
  Zn  Zn6  1  0.920993  0.535007  0.750148  1
  Zn  Zn7  1  0.079007  0.464993  0.250148  1
  Zn  Zn8  1  0.794510  0.205490  0.000000  1
  Zn  Zn9  1  0.205490  0.794510  0.500000  1
  Pd  Pd10  1  0.795201  0.204799  0.500000  1
  Pd  Pd11  1  0.204799  0.795201  0.000000  1
