# generated using pymatgen
data_Hf2SnB2Ru5
_symmetry_space_group_name_H-M   'P 1'
_cell_length_a   9.52586700
_cell_length_b   9.52586700
_cell_length_c   3.10039500
_cell_angle_alpha   90.00000000
_cell_angle_beta   90.00000000
_cell_angle_gamma   90.00000000
_symmetry_Int_Tables_number   1
_chemical_formula_structural   Hf2SnB2Ru5
_chemical_formula_sum   'Hf4 Sn2 B4 Ru10'
_cell_volume   281.33648366
_cell_formula_units_Z   2
loop_
 _symmetry_equiv_pos_site_id
 _symmetry_equiv_pos_as_xyz
  1  'x, y, z'
loop_
 _atom_site_type_symbol
 _atom_site_label
 _atom_site_symmetry_multiplicity
 _atom_site_fract_x
 _atom_site_fract_y
 _atom_site_fract_z
 _atom_site_occupancy
  Hf  Hf0  1  0.824492  0.675508  0.000000  1
  Hf  Hf1  1  0.175508  0.324492  0.000000  1
  Hf  Hf2  1  0.324492  0.824492  0.000000  1
  Hf  Hf3  1  0.675508  0.175508  0.000000  1
  Sn  Sn4  1  0.500000  0.500000  0.000000  1
  Sn  Sn5  1  0.000000  0.000000  0.000000  1
  B  B6  1  0.621270  0.878730  0.000000  1
  B  B7  1  0.378730  0.121270  0.000000  1
  B  B8  1  0.121270  0.621270  0.000000  1
  B  B9  1  0.878730  0.378730  0.000000  1
  Ru  Ru10  1  0.570106  0.720990  0.500000  1
  Ru  Ru11  1  0.429894  0.279010  0.500000  1
  Ru  Ru12  1  0.070106  0.779010  0.500000  1
  Ru  Ru13  1  0.929894  0.220990  0.500000  1
  Ru  Ru14  1  0.279010  0.570106  0.500000  1
  Ru  Ru15  1  0.720990  0.429894  0.500000  1
  Ru  Ru16  1  0.220990  0.070106  0.500000  1
  Ru  Ru17  1  0.779010  0.929894  0.500000  1
  Ru  Ru18  1  0.500000  0.000000  0.500000  1
  Ru  Ru19  1  0.000000  0.500000  0.500000  1
