# generated using pymatgen
data_DyEr3Ga18(NiIr2)2
_symmetry_space_group_name_H-M   'P 1'
_cell_length_a   7.52966309
_cell_length_b   7.52971540
_cell_length_c   9.40878900
_cell_angle_alpha   90.00000000
_cell_angle_beta   90.00000000
_cell_angle_gamma   119.99221284
_symmetry_Int_Tables_number   1
_chemical_formula_structural   DyEr3Ga18(NiIr2)2
_chemical_formula_sum   'Dy1 Er3 Ga18 Ni2 Ir4'
_cell_volume   462.01123836
_cell_formula_units_Z   1
loop_
 _symmetry_equiv_pos_site_id
 _symmetry_equiv_pos_as_xyz
  1  'x, y, z'
loop_
 _atom_site_type_symbol
 _atom_site_label
 _atom_site_symmetry_multiplicity
 _atom_site_fract_x
 _atom_site_fract_y
 _atom_site_fract_z
 _atom_site_occupancy
  Dy  Dy0  1  0.996663  0.663973  0.750000  1
  Er  Er1  1  0.003118  0.336022  0.250000  1
  Er  Er2  1  0.663932  0.996657  0.750000  1
  Er  Er3  1  0.336136  0.003113  0.250000  1
  Ga  Ga4  1  0.114880  0.115165  0.750000  1
  Ga  Ga5  1  0.885325  0.885383  0.250000  1
  Ga  Ga6  1  0.999068  0.328212  0.579141  1
  Ga  Ga7  1  0.000844  0.671476  0.420591  1
  Ga  Ga8  1  0.000844  0.671476  0.079409  1
  Ga  Ga9  1  0.329035  0.999489  0.920841  1
  Ga  Ga10  1  0.999068  0.328212  0.920859  1
  Ga  Ga11  1  0.671500  0.000865  0.079142  1
  Ga  Ga12  1  0.671500  0.000865  0.420858  1
  Ga  Ga13  1  0.329035  0.999489  0.579159  1
  Ga  Ga14  1  0.325925  0.325927  0.065726  1
  Ga  Ga15  1  0.673655  0.674031  0.934339  1
  Ga  Ga16  1  0.673655  0.674031  0.565661  1
  Ga  Ga17  1  0.325925  0.325927  0.434274  1
  Ga  Ga18  1  0.338680  0.543344  0.750000  1
  Ga  Ga19  1  0.661637  0.456733  0.250000  1
  Ga  Ga20  1  0.543006  0.338189  0.750000  1
  Ga  Ga21  1  0.456755  0.661645  0.250000  1
  Ni  Ni22  1  0.000027  0.000069  0.499793  1
  Ni  Ni23  1  0.000027  0.000069  0.000207  1
  Ir  Ir24  1  0.671664  0.328039  0.499732  1
  Ir  Ir25  1  0.328216  0.671780  0.499748  1
  Ir  Ir26  1  0.328216  0.671780  0.000252  1
  Ir  Ir27  1  0.671664  0.328039  0.000268  1
