# generated using pymatgen
data_Sm8Si15Au
_symmetry_space_group_name_H-M   'P 1'
_cell_length_a   8.22377300
_cell_length_b   8.22377246
_cell_length_c   8.24677200
_cell_angle_alpha   90.00000000
_cell_angle_beta   90.00000000
_cell_angle_gamma   119.99999814
_symmetry_Int_Tables_number   1
_chemical_formula_structural   Sm8Si15Au
_chemical_formula_sum   'Sm8 Si15 Au1'
_cell_volume   483.01078397
_cell_formula_units_Z   1
loop_
 _symmetry_equiv_pos_site_id
 _symmetry_equiv_pos_as_xyz
  1  'x, y, z'
loop_
 _atom_site_type_symbol
 _atom_site_label
 _atom_site_symmetry_multiplicity
 _atom_site_fract_x
 _atom_site_fract_y
 _atom_site_fract_z
 _atom_site_occupancy
  Sm  Sm0  1  0.000000  0.000000  0.748071  1
  Sm  Sm1  1  0.000000  0.000000  0.251927  1
  Sm  Sm2  1  0.503334  0.496666  0.742917  1
  Sm  Sm3  1  0.503334  0.006670  0.742917  1
  Sm  Sm4  1  0.993330  0.496666  0.742917  1
  Sm  Sm5  1  0.503673  0.496327  0.257079  1
  Sm  Sm6  1  0.992656  0.496327  0.257079  1
  Sm  Sm7  1  0.503673  0.007344  0.257079  1
  Si  Si8  1  0.666667  0.333333  0.999731  1
  Si  Si9  1  0.666667  0.333333  0.500649  1
  Si  Si10  1  0.333333  0.666667  0.499306  1
  Si  Si11  1  0.833566  0.166434  0.999856  1
  Si  Si12  1  0.833566  0.667131  0.999856  1
  Si  Si13  1  0.332869  0.166434  0.999856  1
  Si  Si14  1  0.833072  0.166928  0.500010  1
  Si  Si15  1  0.833072  0.666145  0.500010  1
  Si  Si16  1  0.333855  0.166928  0.500010  1
  Si  Si17  1  0.166794  0.833206  0.500006  1
  Si  Si18  1  0.666415  0.833206  0.500006  1
  Si  Si19  1  0.166794  0.333585  0.500006  1
  Si  Si20  1  0.163414  0.836586  0.000111  1
  Si  Si21  1  0.673172  0.836586  0.000111  1
  Si  Si22  1  0.163414  0.326828  0.000111  1
  Au  Au23  1  0.333333  0.666667  0.000376  1
