# generated using pymatgen
data_Lu4HfTi3Ir4
_symmetry_space_group_name_H-M   'P 1'
_cell_length_a   4.34771800
_cell_length_b   6.89154086
_cell_length_c   8.07080101
_cell_angle_alpha   89.16906036
_cell_angle_beta   90.00000000
_cell_angle_gamma   90.00000000
_symmetry_Int_Tables_number   1
_chemical_formula_structural   Lu4HfTi3Ir4
_chemical_formula_sum   'Lu4 Hf1 Ti3 Ir4'
_cell_volume   241.79575351
_cell_formula_units_Z   1
loop_
 _symmetry_equiv_pos_site_id
 _symmetry_equiv_pos_as_xyz
  1  'x, y, z'
loop_
 _atom_site_type_symbol
 _atom_site_label
 _atom_site_symmetry_multiplicity
 _atom_site_fract_x
 _atom_site_fract_y
 _atom_site_fract_z
 _atom_site_occupancy
  Lu  Lu0  1  0.750000  0.477844  0.816724  1
  Lu  Lu1  1  0.250000  0.024281  0.326331  1
  Lu  Lu2  1  0.750000  0.981180  0.677665  1
  Lu  Lu3  1  0.250000  0.513959  0.180923  1
  Hf  Hf4  1  0.750000  0.854914  0.069198  1
  Ti  Ti5  1  0.250000  0.638593  0.564949  1
  Ti  Ti6  1  0.250000  0.144000  0.934514  1
  Ti  Ti7  1  0.750000  0.359785  0.434100  1
  Ir  Ir8  1  0.250000  0.774500  0.888615  1
  Ir  Ir9  1  0.250000  0.274950  0.601733  1
  Ir  Ir10  1  0.750000  0.723483  0.402563  1
  Ir  Ir11  1  0.750000  0.232509  0.102685  1
