# generated using pymatgen
data_SrAlSi2Pd
_symmetry_space_group_name_H-M   'P 1'
_cell_length_a   6.10430964
_cell_length_b   6.10430945
_cell_length_c   6.10431008
_cell_angle_alpha   139.62692325
_cell_angle_beta   139.62691568
_cell_angle_gamma   58.42020655
_symmetry_Int_Tables_number   1
_chemical_formula_structural   SrAlSi2Pd
_chemical_formula_sum   'Sr1 Al1 Si2 Pd1'
_cell_volume   94.56625428
_cell_formula_units_Z   1
loop_
 _symmetry_equiv_pos_site_id
 _symmetry_equiv_pos_as_xyz
  1  'x, y, z'
loop_
 _atom_site_type_symbol
 _atom_site_label
 _atom_site_symmetry_multiplicity
 _atom_site_fract_x
 _atom_site_fract_y
 _atom_site_fract_z
 _atom_site_occupancy
  Sr  Sr0  1  0.000000  0.000000  0.000000  1
  Al  Al1  1  0.250000  0.750000  0.500000  1
  Si  Si2  1  0.385276  0.385276  0.000000  1
  Si  Si3  1  0.614724  0.614724  0.000000  1
  Pd  Pd4  1  0.750000  0.250000  0.500000  1
