# generated using pymatgen
data_Rb2PrNd5(CBr6)2
_symmetry_space_group_name_H-M   'P 1'
_cell_length_a   9.04956414
_cell_length_b   9.08935815
_cell_length_c   9.77867490
_cell_angle_alpha   69.51058045
_cell_angle_beta   86.77969352
_cell_angle_gamma   89.73562914
_symmetry_Int_Tables_number   1
_chemical_formula_structural   Rb2PrNd5(CBr6)2
_chemical_formula_sum   'Rb2 Pr1 Nd5 C2 Br12'
_cell_volume   752.16986446
_cell_formula_units_Z   1
loop_
 _symmetry_equiv_pos_site_id
 _symmetry_equiv_pos_as_xyz
  1  'x, y, z'
loop_
 _atom_site_type_symbol
 _atom_site_label
 _atom_site_symmetry_multiplicity
 _atom_site_fract_x
 _atom_site_fract_y
 _atom_site_fract_z
 _atom_site_occupancy
  Rb  Rb0  1  0.482546  0.321704  0.346639  1
  Rb  Rb1  1  0.517626  0.678021  0.653419  1
  Pr  Pr2  1  0.016886  0.127448  0.670539  1
  Nd  Nd3  1  0.914265  0.737304  0.003236  1
  Nd  Nd4  1  0.085791  0.262700  0.996594  1
  Nd  Nd5  1  0.736578  0.086368  0.000176  1
  Nd  Nd6  1  0.263320  0.913520  0.000122  1
  Nd  Nd7  1  0.982794  0.873350  0.327833  1
  C  C8  1  0.003883  0.028837  0.923348  1
  C  C9  1  0.995920  0.970946  0.077162  1
  Br  Br10  1  0.092317  0.188644  0.325970  1
  Br  Br11  1  0.907473  0.809416  0.672967  1
  Br  Br12  1  0.208244  0.592816  0.999210  1
  Br  Br13  1  0.791790  0.407120  0.001037  1
  Br  Br14  1  0.406101  0.203560  0.009039  1
  Br  Br15  1  0.593965  0.796294  0.991219  1
  Br  Br16  1  0.673761  0.992302  0.327089  1
  Br  Br17  1  0.328234  0.006849  0.673325  1
  Br  Br18  1  0.291149  0.761228  0.324944  1
  Br  Br19  1  0.706154  0.239693  0.675593  1
  Br  Br20  1  0.852968  0.578154  0.325002  1
  Br  Br21  1  0.148233  0.423728  0.675536  1
