# generated using pymatgen
data_Dy3IO8
_symmetry_space_group_name_H-M   'P 1'
_cell_length_a   6.16839300
_cell_length_b   7.25399014
_cell_length_c   7.25389100
_cell_angle_alpha   68.39366147
_cell_angle_beta   90.00000000
_cell_angle_gamma   90.00000000
_symmetry_Int_Tables_number   1
_chemical_formula_structural   Dy3IO8
_chemical_formula_sum   'Dy6 I2 O16'
_cell_volume   301.77242654
_cell_formula_units_Z   2
loop_
 _symmetry_equiv_pos_site_id
 _symmetry_equiv_pos_as_xyz
  1  'x, y, z'
loop_
 _atom_site_type_symbol
 _atom_site_label
 _atom_site_symmetry_multiplicity
 _atom_site_fract_x
 _atom_site_fract_y
 _atom_site_fract_z
 _atom_site_occupancy
  Dy  Dy0  1  0.250000  0.328930  0.886449  1
  Dy  Dy1  1  0.750000  0.598602  0.599167  1
  Dy  Dy2  1  0.750000  0.113291  0.669824  1
  Dy  Dy3  1  0.250000  0.886709  0.330176  1
  Dy  Dy4  1  0.250000  0.401398  0.400833  1
  Dy  Dy5  1  0.750000  0.671070  0.113551  1
  I  I6  1  0.250000  0.818297  0.819334  1
  I  I7  1  0.750000  0.181703  0.180666  1
  O  O8  1  0.750000  0.429198  0.961498  1
  O  O9  1  0.944680  0.812356  0.812711  1
  O  O10  1  0.555320  0.812356  0.812711  1
  O  O11  1  0.750000  0.026269  0.024780  1
  O  O12  1  0.250000  0.659802  0.660878  1
  O  O13  1  0.999946  0.334983  0.664497  1
  O  O14  1  0.500054  0.334983  0.664497  1
  O  O15  1  0.750000  0.962244  0.428092  1
  O  O16  1  0.250000  0.037756  0.571908  1
  O  O17  1  0.000054  0.665017  0.335503  1
  O  O18  1  0.499946  0.665017  0.335503  1
  O  O19  1  0.750000  0.340198  0.339122  1
  O  O20  1  0.250000  0.973731  0.975220  1
  O  O21  1  0.055320  0.187644  0.187289  1
  O  O22  1  0.444680  0.187644  0.187289  1
  O  O23  1  0.250000  0.570802  0.038502  1
