# generated using pymatgen
data_EuDySc2(SbO4)4
_symmetry_space_group_name_H-M   'P 1'
_cell_length_a   5.33757838
_cell_length_b   7.49040983
_cell_length_c   7.59659471
_cell_angle_alpha   80.78092117
_cell_angle_beta   86.86320693
_cell_angle_gamma   91.18427552
_symmetry_Int_Tables_number   1
_chemical_formula_structural   EuDySc2(SbO4)4
_chemical_formula_sum   'Eu1 Dy1 Sc2 Sb4 O16'
_cell_volume   299.21098068
_cell_formula_units_Z   1
loop_
 _symmetry_equiv_pos_site_id
 _symmetry_equiv_pos_as_xyz
  1  'x, y, z'
loop_
 _atom_site_type_symbol
 _atom_site_label
 _atom_site_symmetry_multiplicity
 _atom_site_fract_x
 _atom_site_fract_y
 _atom_site_fract_z
 _atom_site_occupancy
  Eu  Eu0  1  0.748861  0.380458  0.371900  1
  Dy  Dy1  1  0.250203  0.622873  0.627332  1
  Sc  Sc2  1  0.716724  0.869736  0.334765  1
  Sc  Sc3  1  0.282371  0.130289  0.666704  1
  Sb  Sb4  1  0.776195  0.308806  0.839914  1
  Sb  Sb5  1  0.223667  0.692398  0.159400  1
  Sb  Sb6  1  0.247991  0.185815  0.170329  1
  Sb  Sb7  1  0.752685  0.813413  0.828421  1
  O  O8  1  0.898963  0.804984  0.069444  1
  O  O9  1  0.098857  0.192569  0.931289  1
  O  O10  1  0.386065  0.937427  0.175221  1
  O  O11  1  0.615847  0.062862  0.821814  1
  O  O12  1  0.104692  0.435143  0.172774  1
  O  O13  1  0.900493  0.565399  0.823638  1
  O  O14  1  0.579935  0.310796  0.070025  1
  O  O15  1  0.419932  0.688822  0.928989  1
  O  O16  1  0.001750  0.319144  0.614874  1
  O  O17  1  0.001150  0.682461  0.387313  1
  O  O18  1  0.412293  0.176968  0.402399  1
  O  O19  1  0.585553  0.818331  0.598300  1
  O  O20  1  0.484441  0.621719  0.333646  1
  O  O21  1  0.508961  0.382173  0.671938  1
  O  O22  1  0.929022  0.102259  0.302507  1
  O  O23  1  0.073351  0.895156  0.697063  1
