# generated using pymatgen
data_LaYb(Zn9Cu2)2
_symmetry_space_group_name_H-M   'P 1'
_cell_length_a   8.20903398
_cell_length_b   8.20977406
_cell_length_c   8.20903491
_cell_angle_alpha   99.66500895
_cell_angle_beta   99.69629724
_cell_angle_gamma   131.57592152
_symmetry_Int_Tables_number   1
_chemical_formula_structural   LaYb(Zn9Cu2)2
_chemical_formula_sum   'La1 Yb1 Zn18 Cu4'
_cell_volume   377.47853859
_cell_formula_units_Z   1
loop_
 _symmetry_equiv_pos_site_id
 _symmetry_equiv_pos_as_xyz
  1  'x, y, z'
loop_
 _atom_site_type_symbol
 _atom_site_label
 _atom_site_symmetry_multiplicity
 _atom_site_fract_x
 _atom_site_fract_y
 _atom_site_fract_z
 _atom_site_occupancy
  La  La0  1  0.999877  0.999897  0.000019  1
  Yb  Yb1  1  0.250187  0.750169  0.499981  1
  Zn  Zn2  1  0.894984  0.568688  0.082603  1
  Zn  Zn3  1  0.431289  0.513913  0.326365  1
  Zn  Zn4  1  0.486084  0.568688  0.673703  1
  Zn  Zn5  1  0.431212  0.104879  0.917363  1
  Zn  Zn6  1  0.762559  0.180356  0.825682  1
  Zn  Zn7  1  0.486143  0.812395  0.917367  1
  Zn  Zn8  1  0.499951  0.499895  0.999944  1
  Zn  Zn9  1  0.762495  0.936862  0.582233  1
  Zn  Zn10  1  0.750028  0.250086  0.500058  1
  Zn  Zn11  1  0.063225  0.645470  0.825735  1
  Zn  Zn12  1  0.354674  0.180356  0.417797  1
  Zn  Zn13  1  0.819735  0.645470  0.582244  1
  Zn  Zn14  1  0.895028  0.812395  0.326252  1
  Zn  Zn15  1  0.187516  0.104879  0.673667  1
  Zn  Zn16  1  0.063185  0.237413  0.417768  1
  Zn  Zn17  1  0.354629  0.936862  0.174367  1
  Zn  Zn18  1  0.819646  0.237413  0.174230  1
  Zn  Zn19  1  0.187548  0.513913  0.082624  1
  Cu  Cu20  1  0.625119  0.875766  0.250647  1
  Cu  Cu21  1  0.124229  0.374881  0.749348  1
  Cu  Cu22  1  0.625532  0.374881  0.250652  1
  Cu  Cu23  1  0.625124  0.374476  0.749352  1
