# generated using pymatgen
data_Rb4Zr6PCl18
_symmetry_space_group_name_H-M   'P 1'
_cell_length_a   10.47256115
_cell_length_b   10.47256114
_cell_length_c   10.17279684
_cell_angle_alpha   77.19626049
_cell_angle_beta   77.19625992
_cell_angle_gamma   117.60549449
_symmetry_Int_Tables_number   1
_chemical_formula_structural   Rb4Zr6PCl18
_chemical_formula_sum   'Rb4 Zr6 P1 Cl18'
_cell_volume   893.62998488
_cell_formula_units_Z   1
loop_
 _symmetry_equiv_pos_site_id
 _symmetry_equiv_pos_as_xyz
  1  'x, y, z'
loop_
 _atom_site_type_symbol
 _atom_site_label
 _atom_site_symmetry_multiplicity
 _atom_site_fract_x
 _atom_site_fract_y
 _atom_site_fract_z
 _atom_site_occupancy
  Rb  Rb0  1  0.767747  0.446252  0.685426  1
  Rb  Rb1  1  0.553748  0.232253  0.314574  1
  Rb  Rb2  1  0.232253  0.553748  0.314574  1
  Rb  Rb3  1  0.446252  0.767747  0.685426  1
  Zr  Zr4  1  0.128377  0.128377  0.147867  1
  Zr  Zr5  1  0.871623  0.871623  0.852133  1
  Zr  Zr6  1  0.946073  0.753646  0.156604  1
  Zr  Zr7  1  0.246354  0.053927  0.843396  1
  Zr  Zr8  1  0.053927  0.246354  0.843396  1
  Zr  Zr9  1  0.753646  0.946073  0.156604  1
  P  P10  1  0.000000  0.000000  0.000000  1
  Cl  Cl11  1  0.806057  0.598844  0.010390  1
  Cl  Cl12  1  0.401157  0.193943  0.989610  1
  Cl  Cl13  1  0.193943  0.401157  0.989610  1
  Cl  Cl14  1  0.598843  0.806057  0.010390  1
  Cl  Cl15  1  0.206076  0.793924  0.000000  1
  Cl  Cl16  1  0.793924  0.206076  0.000000  1
  Cl  Cl17  1  0.323054  0.323054  0.670261  1
  Cl  Cl18  1  0.676946  0.676946  0.329739  1
  Cl  Cl19  1  0.886983  0.493233  0.329166  1
  Cl  Cl20  1  0.506767  0.113017  0.670834  1
  Cl  Cl21  1  0.113017  0.506767  0.670834  1
  Cl  Cl22  1  0.493233  0.886983  0.329166  1
  Cl  Cl23  1  0.266270  0.266270  0.298020  1
  Cl  Cl24  1  0.733730  0.733730  0.701980  1
  Cl  Cl25  1  0.080626  0.873997  0.320580  1
  Cl  Cl26  1  0.126003  0.919374  0.679420  1
  Cl  Cl27  1  0.919374  0.126003  0.679420  1
  Cl  Cl28  1  0.873997  0.080626  0.320580  1
