# generated using pymatgen
data_La16Cd4CoNi2Ru
_symmetry_space_group_name_H-M   'P 1'
_cell_length_a   10.06317772
_cell_length_b   10.06317656
_cell_length_c   10.10322247
_cell_angle_alpha   59.49645568
_cell_angle_beta   59.49645722
_cell_angle_gamma   59.48992096
_symmetry_Int_Tables_number   1
_chemical_formula_structural   La16Cd4CoNi2Ru
_chemical_formula_sum   'La16 Cd4 Co1 Ni2 Ru1'
_cell_volume   715.13988303
_cell_formula_units_Z   1
loop_
 _symmetry_equiv_pos_site_id
 _symmetry_equiv_pos_as_xyz
  1  'x, y, z'
loop_
 _atom_site_type_symbol
 _atom_site_label
 _atom_site_symmetry_multiplicity
 _atom_site_fract_x
 _atom_site_fract_y
 _atom_site_fract_z
 _atom_site_occupancy
  La  La0  1  0.594777  0.594777  0.601811  1
  La  La1  1  0.597011  0.597011  0.212324  1
  La  La2  1  0.594953  0.214913  0.598673  1
  La  La3  1  0.214913  0.594953  0.598673  1
  La  La4  1  0.061441  0.438214  0.437807  1
  La  La5  1  0.437621  0.062741  0.052244  1
  La  La6  1  0.438214  0.061441  0.437807  1
  La  La7  1  0.062741  0.437621  0.052244  1
  La  La8  1  0.437437  0.437437  0.056398  1
  La  La9  1  0.055027  0.055027  0.441910  1
  La  La10  1  0.188239  0.812820  0.814358  1
  La  La11  1  0.801746  0.190385  0.191493  1
  La  La12  1  0.812820  0.188239  0.814358  1
  La  La13  1  0.190385  0.801746  0.191493  1
  La  La14  1  0.813175  0.813175  0.188610  1
  La  La15  1  0.189872  0.189872  0.802033  1
  Cd  Cd16  1  0.828465  0.828465  0.829036  1
  Cd  Cd17  1  0.828947  0.828947  0.512846  1
  Cd  Cd18  1  0.829392  0.512350  0.829384  1
  Cd  Cd19  1  0.512350  0.829392  0.829384  1
  Co  Co20  1  0.395402  0.395402  0.830699  1
  Ni  Ni21  1  0.394695  0.829544  0.392641  1
  Ni  Ni22  1  0.829544  0.394695  0.392641  1
  Ru  Ru23  1  0.390837  0.390837  0.391138  1
