# generated using pymatgen
data_Zr5(Sc3Os2)2
_symmetry_space_group_name_H-M   'P 1'
_cell_length_a   9.51076684
_cell_length_b   9.51076698
_cell_length_c   9.53447700
_cell_angle_alpha   59.91749554
_cell_angle_beta   59.91749506
_cell_angle_gamma   59.80301702
_symmetry_Int_Tables_number   1
_chemical_formula_structural   Zr5(Sc3Os2)2
_chemical_formula_sum   'Zr10 Sc12 Os8'
_cell_volume   608.16460516
_cell_formula_units_Z   2
loop_
 _symmetry_equiv_pos_site_id
 _symmetry_equiv_pos_as_xyz
  1  'x, y, z'
loop_
 _atom_site_type_symbol
 _atom_site_label
 _atom_site_symmetry_multiplicity
 _atom_site_fract_x
 _atom_site_fract_y
 _atom_site_fract_z
 _atom_site_occupancy
  Zr  Zr0  1  0.841699  0.839947  0.842804  1
  Zr  Zr1  1  0.522682  0.159621  0.158848  1
  Zr  Zr2  1  0.160053  0.158301  0.524449  1
  Zr  Zr3  1  0.160323  0.524355  0.157661  1
  Zr  Zr4  1  0.841699  0.839947  0.475551  1
  Zr  Zr5  1  0.840379  0.477318  0.841152  1
  Zr  Zr6  1  0.475645  0.839677  0.842339  1
  Zr  Zr7  1  0.160053  0.158301  0.157196  1
  Zr  Zr8  1  0.198333  0.801667  0.200656  1
  Zr  Zr9  1  0.198333  0.801667  0.799344  1
  Sc  Sc10  1  0.801057  0.198943  0.199422  1
  Sc  Sc11  1  0.800138  0.801067  0.199398  1
  Sc  Sc12  1  0.198933  0.199862  0.800602  1
  Sc  Sc13  1  0.801057  0.198943  0.800578  1
  Sc  Sc14  1  0.383518  0.384114  0.384482  1
  Sc  Sc15  1  0.150439  0.617647  0.615958  1
  Sc  Sc16  1  0.617100  0.151450  0.615726  1
  Sc  Sc17  1  0.615886  0.616482  0.152115  1
  Sc  Sc18  1  0.382353  0.849561  0.384042  1
  Sc  Sc19  1  0.383518  0.384114  0.847885  1
  Sc  Sc20  1  0.848550  0.382900  0.384274  1
  Sc  Sc21  1  0.615886  0.616482  0.615518  1
  Os  Os22  1  0.500513  0.499487  0.000000  1
  Os  Os23  1  0.000587  0.999413  0.500000  1
  Os  Os24  1  0.499920  0.000040  0.499921  1
  Os  Os25  1  0.999960  0.500080  0.500079  1
  Os  Os26  1  0.499920  0.000040  0.000119  1
  Os  Os27  1  0.999960  0.500080  0.999881  1
  Os  Os28  1  0.499967  0.500033  0.500000  1
  Os  Os29  1  0.001535  0.998465  0.000000  1
