# generated using pymatgen
data_Zn22Ir3Pd
_symmetry_space_group_name_H-M   'P 1'
_cell_length_a   7.93002709
_cell_length_b   7.92046718
_cell_length_c   7.93002829
_cell_angle_alpha   109.44681136
_cell_angle_beta   109.49563156
_cell_angle_gamma   109.44679591
_symmetry_Int_Tables_number   1
_chemical_formula_structural   Zn22Ir3Pd
_chemical_formula_sum   'Zn22 Ir3 Pd1'
_cell_volume   383.53859261
_cell_formula_units_Z   1
loop_
 _symmetry_equiv_pos_site_id
 _symmetry_equiv_pos_as_xyz
  1  'x, y, z'
loop_
 _atom_site_type_symbol
 _atom_site_label
 _atom_site_symmetry_multiplicity
 _atom_site_fract_x
 _atom_site_fract_y
 _atom_site_fract_z
 _atom_site_occupancy
  Zn  Zn0  1  0.000000  0.792470  0.000000  1
  Zn  Zn1  1  0.785291  0.997232  0.000000  1
  Zn  Zn2  1  0.000000  0.997232  0.785291  1
  Zn  Zn3  1  0.214709  0.211942  0.214709  1
  Zn  Zn4  1  0.350826  0.618042  0.350826  1
  Zn  Zn5  1  0.265912  0.002328  0.650644  1
  Zn  Zn6  1  0.650644  0.002328  0.265912  1
  Zn  Zn7  1  0.268440  0.650579  0.000000  1
  Zn  Zn8  1  0.734088  0.736416  0.384733  1
  Zn  Zn9  1  0.384733  0.736416  0.734088  1
  Zn  Zn10  1  0.000000  0.650579  0.268440  1
  Zn  Zn11  1  0.000000  0.267215  0.649174  1
  Zn  Zn12  1  0.649174  0.267215  0.000000  1
  Zn  Zn13  1  0.349356  0.351685  0.615267  1
  Zn  Zn14  1  0.615267  0.351685  0.349356  1
  Zn  Zn15  1  0.731560  0.382140  0.731560  1
  Zn  Zn16  1  0.355994  0.357119  0.000000  1
  Zn  Zn17  1  0.000000  0.637629  0.647987  1
  Zn  Zn18  1  0.000000  0.357119  0.355994  1
  Zn  Zn19  1  0.352013  0.989642  0.352013  1
  Zn  Zn20  1  0.644006  0.001125  0.644006  1
  Zn  Zn21  1  0.647987  0.637629  0.000000  1
  Ir  Ir22  1  0.346993  0.001730  0.000000  1
  Ir  Ir23  1  0.000000  0.001730  0.346993  1
  Ir  Ir24  1  0.653007  0.654737  0.653007  1
  Pd  Pd25  1  0.000000  0.346034  0.000000  1
