# generated using pymatgen
data_YbY2(BPt2)3
_symmetry_space_group_name_H-M   'P 1'
_cell_length_a   5.40759203
_cell_length_b   5.40861613
_cell_length_c   7.79966100
_cell_angle_alpha   90.00000000
_cell_angle_beta   90.00000000
_cell_angle_gamma   120.00626113
_symmetry_Int_Tables_number   1
_chemical_formula_structural   YbY2(BPt2)3
_chemical_formula_sum   'Yb1 Y2 B3 Pt6'
_cell_volume   197.54636070
_cell_formula_units_Z   1
loop_
 _symmetry_equiv_pos_site_id
 _symmetry_equiv_pos_as_xyz
  1  'x, y, z'
loop_
 _atom_site_type_symbol
 _atom_site_label
 _atom_site_symmetry_multiplicity
 _atom_site_fract_x
 _atom_site_fract_y
 _atom_site_fract_z
 _atom_site_occupancy
  Yb  Yb0  1  0.000000  0.500000  0.166667  1
  Y  Y1  1  0.500000  0.500000  0.836541  1
  Y  Y2  1  0.500000  0.000000  0.496792  1
  B  B3  1  0.500000  0.500000  0.331432  1
  B  B4  1  0.500000  0.000000  0.001901  1
  B  B5  1  0.000000  0.500000  0.666667  1
  Pt  Pt6  1  0.151729  0.850778  0.833574  1
  Pt  Pt7  1  0.151729  0.300951  0.499759  1
  Pt  Pt8  1  0.704237  0.852119  0.166667  1
  Pt  Pt9  1  0.848271  0.149222  0.833574  1
  Pt  Pt10  1  0.848271  0.699049  0.499759  1
  Pt  Pt11  1  0.295763  0.147881  0.166667  1
