# generated using pymatgen
data_YbHo3Sb6Rh7
_symmetry_space_group_name_H-M   'P 1'
_cell_length_a   7.60283580
_cell_length_b   7.60283602
_cell_length_c   7.59723500
_cell_angle_alpha   109.45630053
_cell_angle_beta   109.45630113
_cell_angle_gamma   109.48613541
_symmetry_Int_Tables_number   1
_chemical_formula_structural   YbHo3Sb6Rh7
_chemical_formula_sum   'Yb1 Ho3 Sb6 Rh7'
_cell_volume   338.11531504
_cell_formula_units_Z   1
loop_
 _symmetry_equiv_pos_site_id
 _symmetry_equiv_pos_as_xyz
  1  'x, y, z'
loop_
 _atom_site_type_symbol
 _atom_site_label
 _atom_site_symmetry_multiplicity
 _atom_site_fract_x
 _atom_site_fract_y
 _atom_site_fract_z
 _atom_site_occupancy
  Yb  Yb0  1  0.000000  0.000000  0.500000  1
  Ho  Ho1  1  0.500000  0.000000  0.000000  1
  Ho  Ho2  1  0.000000  0.500000  0.000000  1
  Ho  Ho3  1  0.500000  0.500000  0.500000  1
  Sb  Sb4  1  0.316061  0.000000  0.317878  1
  Sb  Sb5  1  0.000000  0.683939  0.682122  1
  Sb  Sb6  1  0.683939  0.683939  0.001817  1
  Sb  Sb7  1  0.683939  0.000000  0.682122  1
  Sb  Sb8  1  0.000000  0.316061  0.317878  1
  Sb  Sb9  1  0.316061  0.316061  0.998183  1
  Rh  Rh10  1  0.252304  0.504608  0.752304  1
  Rh  Rh11  1  0.504608  0.252304  0.752304  1
  Rh  Rh12  1  0.747696  0.252304  0.500000  1
  Rh  Rh13  1  0.495392  0.747696  0.247696  1
  Rh  Rh14  1  0.000000  0.000000  0.000000  1
  Rh  Rh15  1  0.252304  0.747696  0.500000  1
  Rh  Rh16  1  0.747696  0.495392  0.247696  1
