# generated using pymatgen
data_Nb3Tl2Cl9
_symmetry_space_group_name_H-M   'P 1'
_cell_length_a   9.97550889
_cell_length_b   9.97550884
_cell_length_c   9.80874000
_cell_angle_alpha   76.83909369
_cell_angle_beta   76.83909377
_cell_angle_gamma   116.39779201
_symmetry_Int_Tables_number   1
_chemical_formula_structural   Nb3Tl2Cl9
_chemical_formula_sum   'Nb6 Tl4 Cl18'
_cell_volume   788.47962598
_cell_formula_units_Z   2
loop_
 _symmetry_equiv_pos_site_id
 _symmetry_equiv_pos_as_xyz
  1  'x, y, z'
loop_
 _atom_site_type_symbol
 _atom_site_label
 _atom_site_symmetry_multiplicity
 _atom_site_fract_x
 _atom_site_fract_y
 _atom_site_fract_z
 _atom_site_occupancy
  Nb  Nb0  1  0.614736  0.614736  0.128474  1
  Nb  Nb1  1  0.385264  0.385264  0.871526  1
  Nb  Nb2  1  0.454471  0.281242  0.139744  1
  Nb  Nb3  1  0.545529  0.718758  0.860256  1
  Nb  Nb4  1  0.718758  0.545529  0.860256  1
  Nb  Nb5  1  0.281242  0.454471  0.139744  1
  Tl  Tl6  1  0.728776  0.047198  0.329929  1
  Tl  Tl7  1  0.271224  0.952802  0.670071  1
  Tl  Tl8  1  0.952802  0.271224  0.670071  1
  Tl  Tl9  1  0.047198  0.728776  0.329929  1
  Cl  Cl10  1  0.704841  0.295159  0.000000  1
  Cl  Cl11  1  0.295159  0.704841  0.000000  1
  Cl  Cl12  1  0.394166  0.002209  0.320363  1
  Cl  Cl13  1  0.605834  0.997791  0.679637  1
  Cl  Cl14  1  0.997791  0.605834  0.679637  1
  Cl  Cl15  1  0.002209  0.394166  0.320363  1
  Cl  Cl16  1  0.312250  0.106490  0.013673  1
  Cl  Cl17  1  0.687750  0.893510  0.986327  1
  Cl  Cl18  1  0.893510  0.687750  0.986327  1
  Cl  Cl19  1  0.106490  0.312250  0.013673  1
  Cl  Cl20  1  0.759470  0.759470  0.287446  1
  Cl  Cl21  1  0.240530  0.240530  0.712554  1
  Cl  Cl22  1  0.814004  0.814004  0.671533  1
  Cl  Cl23  1  0.185996  0.185996  0.328467  1
  Cl  Cl24  1  0.581794  0.376482  0.314482  1
  Cl  Cl25  1  0.418206  0.623518  0.685518  1
  Cl  Cl26  1  0.623518  0.418206  0.685518  1
  Cl  Cl27  1  0.376482  0.581794  0.314482  1
