# generated using pymatgen
data_Lu5Hf4ZrSn6
_symmetry_space_group_name_H-M   'P 1'
_cell_length_a   8.65854307
_cell_length_b   8.67820367
_cell_length_c   5.97382900
_cell_angle_alpha   90.00000000
_cell_angle_beta   90.00000000
_cell_angle_gamma   120.07513747
_symmetry_Int_Tables_number   1
_chemical_formula_structural   Lu5Hf4ZrSn6
_chemical_formula_sum   'Lu5 Hf4 Zr1 Sn6'
_cell_volume   388.44430717
_cell_formula_units_Z   1
loop_
 _symmetry_equiv_pos_site_id
 _symmetry_equiv_pos_as_xyz
  1  'x, y, z'
loop_
 _atom_site_type_symbol
 _atom_site_label
 _atom_site_symmetry_multiplicity
 _atom_site_fract_x
 _atom_site_fract_y
 _atom_site_fract_z
 _atom_site_occupancy
  Lu  Lu0  1  0.761226  0.759829  0.750000  1
  Lu  Lu1  1  0.238774  0.998602  0.750000  1
  Lu  Lu2  1  0.000000  0.243127  0.750000  1
  Lu  Lu3  1  0.240181  0.238895  0.250000  1
  Lu  Lu4  1  0.759819  0.998713  0.250000  1
  Hf  Hf5  1  0.667508  0.334778  0.001155  1
  Hf  Hf6  1  0.332492  0.667271  0.001155  1
  Hf  Hf7  1  0.332492  0.667271  0.498845  1
  Hf  Hf8  1  0.667508  0.334778  0.498845  1
  Zr  Zr9  1  0.000000  0.754481  0.250000  1
  Sn  Sn10  1  0.398304  0.398009  0.750000  1
  Sn  Sn11  1  0.601696  0.999705  0.750000  1
  Sn  Sn12  1  0.000000  0.603028  0.750000  1
  Sn  Sn13  1  0.607170  0.604532  0.250000  1
  Sn  Sn14  1  0.392830  0.997362  0.250000  1
  Sn  Sn15  1  0.000000  0.399617  0.250000  1
