# generated using pymatgen
data_LiTmPaPt5
_symmetry_space_group_name_H-M   'P 1'
_cell_length_a   5.76815391
_cell_length_b   5.76815359
_cell_length_c   4.89761500
_cell_angle_alpha   90.00000000
_cell_angle_beta   90.00000000
_cell_angle_gamma   119.90682518
_symmetry_Int_Tables_number   1
_chemical_formula_structural   LiTmPaPt5
_chemical_formula_sum   'Li1 Tm1 Pa1 Pt5'
_cell_volume   141.25242749
_cell_formula_units_Z   1
loop_
 _symmetry_equiv_pos_site_id
 _symmetry_equiv_pos_as_xyz
  1  'x, y, z'
loop_
 _atom_site_type_symbol
 _atom_site_label
 _atom_site_symmetry_multiplicity
 _atom_site_fract_x
 _atom_site_fract_y
 _atom_site_fract_z
 _atom_site_occupancy
  Li  Li0  1  0.138200  0.861800  0.250000  1
  Tm  Tm1  1  0.665090  0.334910  0.250000  1
  Pa  Pa2  1  0.343214  0.656786  0.750000  1
  Pt  Pt3  1  0.842728  0.157272  0.750000  1
  Pt  Pt4  1  0.331270  0.147574  0.750000  1
  Pt  Pt5  1  0.852426  0.668730  0.750000  1
  Pt  Pt6  1  0.664032  0.836960  0.250000  1
  Pt  Pt7  1  0.163040  0.335968  0.250000  1
