# generated using pymatgen
data_Lu2GaB2Ir3Ru2
_symmetry_space_group_name_H-M   'P 1'
_cell_length_a   9.57418783
_cell_length_b   9.55814090
_cell_length_c   3.07086500
_cell_angle_alpha   90.00000000
_cell_angle_beta   90.00000000
_cell_angle_gamma   89.80489428
_symmetry_Int_Tables_number   1
_chemical_formula_structural   Lu2GaB2Ir3Ru2
_chemical_formula_sum   'Lu4 Ga2 B4 Ir6 Ru4'
_cell_volume   281.01763752
_cell_formula_units_Z   2
loop_
 _symmetry_equiv_pos_site_id
 _symmetry_equiv_pos_as_xyz
  1  'x, y, z'
loop_
 _atom_site_type_symbol
 _atom_site_label
 _atom_site_symmetry_multiplicity
 _atom_site_fract_x
 _atom_site_fract_y
 _atom_site_fract_z
 _atom_site_occupancy
  Lu  Lu0  1  0.674239  0.171622  0.000000  1
  Lu  Lu1  1  0.325761  0.828378  0.000000  1
  Lu  Lu2  1  0.175116  0.323383  0.000000  1
  Lu  Lu3  1  0.824884  0.676617  0.000000  1
  Ga  Ga4  1  0.000000  0.000000  0.000000  1
  Ga  Ga5  1  0.500000  0.500000  0.000000  1
  B  B6  1  0.122101  0.621254  0.000000  1
  B  B7  1  0.877899  0.378746  0.000000  1
  B  B8  1  0.624613  0.879085  0.000000  1
  B  B9  1  0.375387  0.120915  0.000000  1
  Ir  Ir10  1  0.070405  0.782918  0.500000  1
  Ir  Ir11  1  0.717256  0.430306  0.500000  1
  Ir  Ir12  1  0.929595  0.217082  0.500000  1
  Ir  Ir13  1  0.282744  0.569694  0.500000  1
  Ir  Ir14  1  0.569752  0.717075  0.500000  1
  Ir  Ir15  1  0.430248  0.282925  0.500000  1
  Ru  Ru16  1  0.216380  0.069974  0.500000  1
  Ru  Ru17  1  0.783620  0.930026  0.500000  1
  Ru  Ru18  1  0.500000  0.000000  0.500000  1
  Ru  Ru19  1  0.000000  0.500000  0.500000  1
