# generated using pymatgen
data_Nd3TmAl17GeIr6
_symmetry_space_group_name_H-M   'P 1'
_cell_length_a   7.59949600
_cell_length_b   7.60487239
_cell_length_c   9.55156400
_cell_angle_alpha   90.00000000
_cell_angle_beta   90.00000000
_cell_angle_gamma   119.56504642
_symmetry_Int_Tables_number   1
_chemical_formula_structural   Nd3TmAl17GeIr6
_chemical_formula_sum   'Nd3 Tm1 Al17 Ge1 Ir6'
_cell_volume   480.14086181
_cell_formula_units_Z   1
loop_
 _symmetry_equiv_pos_site_id
 _symmetry_equiv_pos_as_xyz
  1  'x, y, z'
loop_
 _atom_site_type_symbol
 _atom_site_label
 _atom_site_symmetry_multiplicity
 _atom_site_fract_x
 _atom_site_fract_y
 _atom_site_fract_z
 _atom_site_occupancy
  Nd  Nd0  1  0.994441  0.676148  0.250000  1
  Nd  Nd1  1  0.002908  0.329002  0.750000  1
  Nd  Nd2  1  0.676181  0.994307  0.250000  1
  Tm  Tm3  1  0.328232  0.003118  0.750000  1
  Al  Al4  1  0.872149  0.870439  0.750000  1
  Al  Al5  1  0.002320  0.338337  0.072029  1
  Al  Al6  1  0.999253  0.666723  0.923998  1
  Al  Al7  1  0.999253  0.666723  0.576002  1
  Al  Al8  1  0.337943  0.001842  0.431618  1
  Al  Al9  1  0.002320  0.338337  0.427971  1
  Al  Al10  1  0.662693  0.997084  0.576220  1
  Al  Al11  1  0.662693  0.997084  0.923780  1
  Al  Al12  1  0.337943  0.001842  0.068382  1
  Al  Al13  1  0.333131  0.331588  0.558841  1
  Al  Al14  1  0.662918  0.662733  0.455988  1
  Al  Al15  1  0.662918  0.662733  0.044012  1
  Al  Al16  1  0.333131  0.331588  0.941159  1
  Al  Al17  1  0.337547  0.551629  0.250000  1
  Al  Al18  1  0.657608  0.450316  0.750000  1
  Al  Al19  1  0.550586  0.335767  0.250000  1
  Al  Al20  1  0.452515  0.662698  0.750000  1
  Ge  Ge21  1  0.137870  0.136558  0.250000  1
  Ir  Ir22  1  0.668906  0.327053  0.998954  1
  Ir  Ir23  1  0.327469  0.669744  0.999152  1
  Ir  Ir24  1  0.327469  0.669744  0.500848  1
  Ir  Ir25  1  0.668906  0.327053  0.501046  1
  Ir  Ir26  1  0.000349  0.999903  0.999092  1
  Ir  Ir27  1  0.000349  0.999903  0.500908  1
