# generated using pymatgen
data_Ho6Er6In2Fe2Ir
_symmetry_space_group_name_H-M   'P 1'
_cell_length_a   8.31357546
_cell_length_b   8.31658030
_cell_length_c   8.31658048
_cell_angle_alpha   108.79466542
_cell_angle_beta   108.74960280
_cell_angle_gamma   110.89365956
_symmetry_Int_Tables_number   1
_chemical_formula_structural   Ho6Er6In2Fe2Ir
_chemical_formula_sum   'Ho6 Er6 In2 Fe2 Ir1'
_cell_volume   442.35976244
_cell_formula_units_Z   1
loop_
 _symmetry_equiv_pos_site_id
 _symmetry_equiv_pos_as_xyz
  1  'x, y, z'
loop_
 _atom_site_type_symbol
 _atom_site_label
 _atom_site_symmetry_multiplicity
 _atom_site_fract_x
 _atom_site_fract_y
 _atom_site_fract_z
 _atom_site_occupancy
  Ho  Ho0  1  0.306861  0.306818  0.614014  1
  Ho  Ho1  1  0.693139  0.693182  0.385986  1
  Ho  Ho2  1  0.306861  0.692846  0.000044  1
  Ho  Ho3  1  0.693139  0.307154  0.999956  1
  Ho  Ho4  1  0.432649  0.193772  0.238876  1
  Ho  Ho5  1  0.567351  0.806228  0.761124  1
  Er  Er6  1  0.954997  0.193770  0.761227  1
  Er  Er7  1  0.193440  0.954815  0.761056  1
  Er  Er8  1  0.045003  0.806230  0.238773  1
  Er  Er9  1  0.806560  0.045185  0.238944  1
  Er  Er10  1  0.193440  0.432386  0.238625  1
  Er  Er11  1  0.806560  0.567614  0.761375  1
  In  In12  1  0.500000  0.000000  0.500000  1
  In  In13  1  0.000000  0.500000  0.500000  1
  Fe  Fe14  1  0.385875  0.385912  0.999963  1
  Fe  Fe15  1  0.614125  0.614088  0.000037  1
  Ir  Ir16  1  0.000000  0.000000  0.000000  1
