# generated using pymatgen
data_K2Ag(CO3)2
_symmetry_space_group_name_H-M   'P 1'
_cell_length_a   6.27236424
_cell_length_b   6.82768680
_cell_length_c   9.86455621
_cell_angle_alpha   98.38215215
_cell_angle_beta   71.48718125
_cell_angle_gamma   117.32837001
_symmetry_Int_Tables_number   1
_chemical_formula_structural   K2Ag(CO3)2
_chemical_formula_sum   'K4 Ag2 C4 O12'
_cell_volume   355.88537907
_cell_formula_units_Z   2
loop_
 _symmetry_equiv_pos_site_id
 _symmetry_equiv_pos_as_xyz
  1  'x, y, z'
loop_
 _atom_site_type_symbol
 _atom_site_label
 _atom_site_symmetry_multiplicity
 _atom_site_fract_x
 _atom_site_fract_y
 _atom_site_fract_z
 _atom_site_occupancy
  K  K0  1  0.681996  0.341494  0.100370  1
  K  K1  1  0.032659  0.841542  0.399524  1
  K  K2  1  0.590760  0.158419  0.600513  1
  K  K3  1  0.441129  0.658291  0.899561  1
  Ag  Ag4  1  0.999763  0.999976  0.000062  1
  Ag  Ag5  1  0.249932  0.500096  0.500009  1
  C  C6  1  0.100608  0.356445  0.241820  1
  C  C7  1  0.592206  0.856333  0.258190  1
  C  C8  1  0.994357  0.143668  0.741757  1
  C  C9  1  0.985729  0.643588  0.758229  1
  O  O10  1  0.136719  0.331486  0.103053  1
  O  O11  1  0.497346  0.902306  0.178007  1
  O  O12  1  0.803050  0.837361  0.206629  1
  O  O13  1  0.259888  0.337482  0.293452  1
  O  O14  1  0.925673  0.402498  0.321915  1
  O  O15  1  0.489692  0.831552  0.396956  1
  O  O16  1  0.055598  0.168624  0.602977  1
  O  O17  1  0.844821  0.597595  0.678132  1
  O  O18  1  0.215670  0.662602  0.706571  1
  O  O19  1  0.172511  0.162619  0.793482  1
  O  O20  1  0.773364  0.097553  0.821772  1
  O  O21  1  0.908283  0.668471  0.897019  1
