# generated using pymatgen
data_Gd4Dy(OsO6)2
_symmetry_space_group_name_H-M   'P 1'
_cell_length_a   6.91090377
_cell_length_b   6.91090217
_cell_length_c   7.52861900
_cell_angle_alpha   73.95706832
_cell_angle_beta   73.95707213
_cell_angle_gamma   48.44792960
_symmetry_Int_Tables_number   1
_chemical_formula_structural   Gd4Dy(OsO6)2
_chemical_formula_sum   'Gd4 Dy1 Os2 O12'
_cell_volume   256.43319642
_cell_formula_units_Z   1
loop_
 _symmetry_equiv_pos_site_id
 _symmetry_equiv_pos_as_xyz
  1  'x, y, z'
loop_
 _atom_site_type_symbol
 _atom_site_label
 _atom_site_symmetry_multiplicity
 _atom_site_fract_x
 _atom_site_fract_y
 _atom_site_fract_z
 _atom_site_occupancy
  Gd  Gd0  1  0.197996  0.197996  0.642787  1
  Gd  Gd1  1  0.187341  0.187341  0.170216  1
  Gd  Gd2  1  0.802004  0.802004  0.357213  1
  Gd  Gd3  1  0.812659  0.812659  0.829784  1
  Dy  Dy4  1  0.500000  0.500000  0.500000  1
  Os  Os5  1  0.719482  0.280518  0.000000  1
  Os  Os6  1  0.280518  0.719482  0.000000  1
  O  O7  1  0.415064  0.915795  0.915000  1
  O  O8  1  0.915795  0.415064  0.915000  1
  O  O9  1  0.900613  0.400917  0.428365  1
  O  O10  1  0.400917  0.900613  0.428365  1
  O  O11  1  0.501057  0.501057  0.202178  1
  O  O12  1  0.998570  0.998570  0.171295  1
  O  O13  1  0.001430  0.001430  0.828705  1
  O  O14  1  0.498943  0.498943  0.797822  1
  O  O15  1  0.084205  0.584936  0.085000  1
  O  O16  1  0.584936  0.084205  0.085000  1
  O  O17  1  0.099387  0.599083  0.571635  1
  O  O18  1  0.599083  0.099387  0.571635  1
