# generated using pymatgen
data_Ca19Tl4Cd2In2N7
_symmetry_space_group_name_H-M   'P 1'
_cell_length_a   10.42043728
_cell_length_b   10.45732353
_cell_length_c   10.46736594
_cell_angle_alpha   60.21859513
_cell_angle_beta   60.09942576
_cell_angle_gamma   60.28300046
_symmetry_Int_Tables_number   1
_chemical_formula_structural   Ca19Tl4Cd2In2N7
_chemical_formula_sum   'Ca19 Tl4 Cd2 In2 N7'
_cell_volume   810.20014531
_cell_formula_units_Z   1
loop_
 _symmetry_equiv_pos_site_id
 _symmetry_equiv_pos_as_xyz
  1  'x, y, z'
loop_
 _atom_site_type_symbol
 _atom_site_label
 _atom_site_symmetry_multiplicity
 _atom_site_fract_x
 _atom_site_fract_y
 _atom_site_fract_z
 _atom_site_occupancy
  Ca  Ca0  1  0.174019  0.500040  0.826101  1
  Ca  Ca1  1  0.500402  0.825885  0.173832  1
  Ca  Ca2  1  0.826013  0.174027  0.500085  1
  Ca  Ca3  1  0.164986  0.834450  0.166679  1
  Ca  Ca4  1  0.826465  0.499931  0.173830  1
  Ca  Ca5  1  0.173852  0.825822  0.500315  1
  Ca  Ca6  1  0.164865  0.167369  0.832760  1
  Ca  Ca7  1  0.173962  0.499748  0.499992  1
  Ca  Ca8  1  0.834176  0.834468  0.165428  1
  Ca  Ca9  1  0.834882  0.166593  0.832496  1
  Ca  Ca10  1  0.500735  0.825706  0.500322  1
  Ca  Ca11  1  0.500112  0.500247  0.499737  1
  Ca  Ca12  1  0.500076  0.499592  0.174320  1
  Ca  Ca13  1  0.164831  0.835829  0.832526  1
  Ca  Ca14  1  0.500212  0.174451  0.825763  1
  Ca  Ca15  1  0.499857  0.174448  0.499401  1
  Ca  Ca16  1  0.826102  0.500247  0.500241  1
  Ca  Ca17  1  0.834295  0.166457  0.165139  1
  Ca  Ca18  1  0.500509  0.500211  0.825480  1
  Tl  Tl19  1  0.482869  0.171236  0.175222  1
  Tl  Tl20  1  0.172046  0.480493  0.176078  1
  Tl  Tl21  1  0.518475  0.826353  0.826960  1
  Tl  Tl22  1  0.171512  0.171114  0.174532  1
  Cd  Cd23  1  0.174611  0.173045  0.478949  1
  Cd  Cd24  1  0.827003  0.522362  0.825698  1
  In  In25  1  0.826273  0.823413  0.825537  1
  In  In26  1  0.825586  0.823259  0.526061  1
  N  N27  1  0.674380  0.327404  0.672808  1
  N  N28  1  0.674152  0.327026  0.324790  1
  N  N29  1  0.326158  0.674983  0.673272  1
  N  N30  1  0.325889  0.674407  0.325290  1
  N  N31  1  0.325618  0.327117  0.672916  1
  N  N32  1  0.674545  0.674418  0.325429  1
  N  N33  1  0.000531  0.997846  0.002014  1
