# generated using pymatgen
data_HoEr7Zn2(Si6Rh)2
_symmetry_space_group_name_H-M   'P 1'
_cell_length_a   8.11727900
_cell_length_b   8.11728027
_cell_length_c   7.98904100
_cell_angle_alpha   90.00000000
_cell_angle_beta   90.00000000
_cell_angle_gamma   119.99999890
_symmetry_Int_Tables_number   1
_chemical_formula_structural   HoEr7Zn2(Si6Rh)2
_chemical_formula_sum   'Ho1 Er7 Zn2 Si12 Rh2'
_cell_volume   455.87555093
_cell_formula_units_Z   1
loop_
 _symmetry_equiv_pos_site_id
 _symmetry_equiv_pos_as_xyz
  1  'x, y, z'
loop_
 _atom_site_type_symbol
 _atom_site_label
 _atom_site_symmetry_multiplicity
 _atom_site_fract_x
 _atom_site_fract_y
 _atom_site_fract_z
 _atom_site_occupancy
  Ho  Ho0  1  0.000000  0.000000  0.250000  1
  Er  Er1  1  0.000000  0.000000  0.750000  1
  Er  Er2  1  0.493266  0.506734  0.250000  1
  Er  Er3  1  0.493266  0.986533  0.250000  1
  Er  Er4  1  0.013467  0.506734  0.250000  1
  Er  Er5  1  0.498403  0.501597  0.750000  1
  Er  Er6  1  0.003195  0.501597  0.750000  1
  Er  Er7  1  0.498403  0.996805  0.750000  1
  Zn  Zn8  1  0.666667  0.333333  0.489519  1
  Zn  Zn9  1  0.666667  0.333333  0.010481  1
  Si  Si10  1  0.835772  0.164228  0.500241  1
  Si  Si11  1  0.835772  0.671547  0.500241  1
  Si  Si12  1  0.328453  0.164228  0.500241  1
  Si  Si13  1  0.835772  0.164228  0.999759  1
  Si  Si14  1  0.835772  0.671547  0.999759  1
  Si  Si15  1  0.328453  0.164228  0.999759  1
  Si  Si16  1  0.168532  0.831468  0.999023  1
  Si  Si17  1  0.662936  0.831468  0.999023  1
  Si  Si18  1  0.168532  0.337064  0.999023  1
  Si  Si19  1  0.168532  0.831468  0.500977  1
  Si  Si20  1  0.662936  0.831468  0.500977  1
  Si  Si21  1  0.168532  0.337064  0.500977  1
  Rh  Rh22  1  0.333333  0.666667  0.994053  1
  Rh  Rh23  1  0.333333  0.666667  0.505947  1
