# generated using pymatgen
data_NdDy3IrRh3O14
_symmetry_space_group_name_H-M   'P 1'
_cell_length_a   7.29401856
_cell_length_b   7.25080811
_cell_length_c   7.25080600
_cell_angle_alpha   60.00000052
_cell_angle_beta   60.19577524
_cell_angle_gamma   60.19577679
_symmetry_Int_Tables_number   1
_chemical_formula_structural   NdDy3IrRh3O14
_chemical_formula_sum   'Nd1 Dy3 Ir1 Rh3 O14'
_cell_volume   271.95897238
_cell_formula_units_Z   1
loop_
 _symmetry_equiv_pos_site_id
 _symmetry_equiv_pos_as_xyz
  1  'x, y, z'
loop_
 _atom_site_type_symbol
 _atom_site_label
 _atom_site_symmetry_multiplicity
 _atom_site_fract_x
 _atom_site_fract_y
 _atom_site_fract_z
 _atom_site_occupancy
  Nd  Nd0  1  0.625000  0.125000  0.125000  1
  Dy  Dy1  1  0.125000  0.625000  0.125000  1
  Dy  Dy2  1  0.125000  0.125000  0.625000  1
  Dy  Dy3  1  0.125000  0.125000  0.125000  1
  Ir  Ir4  1  0.125000  0.625000  0.625000  1
  Rh  Rh5  1  0.625000  0.125000  0.625000  1
  Rh  Rh6  1  0.625000  0.625000  0.125000  1
  Rh  Rh7  1  0.625000  0.625000  0.625000  1
  O  O8  1  0.721078  0.703034  0.287943  1
  O  O9  1  0.287686  0.292983  0.709666  1
  O  O10  1  0.721078  0.287943  0.703034  1
  O  O11  1  0.287686  0.709666  0.292983  1
  O  O12  1  0.287686  0.709666  0.709666  1
  O  O13  1  0.721078  0.287943  0.287943  1
  O  O14  1  0.528922  0.546966  0.962057  1
  O  O15  1  0.962314  0.957017  0.540334  1
  O  O16  1  0.528922  0.962057  0.546966  1
  O  O17  1  0.962314  0.540334  0.957017  1
  O  O18  1  0.962314  0.540334  0.540334  1
  O  O19  1  0.528922  0.962057  0.962057  1
  O  O20  1  0.238683  0.253772  0.253772  1
  O  O21  1  0.011317  0.996228  0.996228  1
