# generated using pymatgen
data_Tb10AsPb6Au
_symmetry_space_group_name_H-M   'P 1'
_cell_length_a   9.26254100
_cell_length_b   9.26253774
_cell_length_c   6.82256800
_cell_angle_alpha   90.00018557
_cell_angle_beta   89.99979587
_cell_angle_gamma   120.00040807
_symmetry_Int_Tables_number   1
_chemical_formula_structural   Tb10AsPb6Au
_chemical_formula_sum   'Tb10 As1 Pb6 Au1'
_cell_volume   506.91699605
_cell_formula_units_Z   1
loop_
 _symmetry_equiv_pos_site_id
 _symmetry_equiv_pos_as_xyz
  1  'x, y, z'
loop_
 _atom_site_type_symbol
 _atom_site_label
 _atom_site_symmetry_multiplicity
 _atom_site_fract_x
 _atom_site_fract_y
 _atom_site_fract_z
 _atom_site_occupancy
  Tb  Tb0  1  0.253382  0.999999  0.263381  1
  Tb  Tb1  1  0.746618  0.000001  0.736619  1
  Tb  Tb2  1  0.999998  0.253382  0.263380  1
  Tb  Tb3  1  0.000002  0.746618  0.736620  1
  Tb  Tb4  1  0.746615  0.746616  0.263378  1
  Tb  Tb5  1  0.253385  0.253384  0.736622  1
  Tb  Tb6  1  0.333339  0.666660  0.000000  1
  Tb  Tb7  1  0.666661  0.333340  0.000000  1
  Tb  Tb8  1  0.666669  0.333331  0.500000  1
  Tb  Tb9  1  0.333331  0.666669  0.500000  1
  As  As10  1  0.000000  0.000000  0.500000  1
  Pb  Pb11  1  0.606152  0.000012  0.249797  1
  Pb  Pb12  1  0.393848  0.999988  0.750203  1
  Pb  Pb13  1  0.000012  0.606152  0.249801  1
  Pb  Pb14  1  0.999988  0.393848  0.750199  1
  Pb  Pb15  1  0.393839  0.393839  0.249815  1
  Pb  Pb16  1  0.606161  0.606161  0.750185  1
  Au  Au17  1  0.000000  0.000000  0.000000  1
