# generated using pymatgen
data_LaGa2IrRh2
_symmetry_space_group_name_H-M   'P 1'
_cell_length_a   5.70523070
_cell_length_b   5.70523151
_cell_length_c   3.85230500
_cell_angle_alpha   90.00000000
_cell_angle_beta   90.00000000
_cell_angle_gamma   120.17564881
_symmetry_Int_Tables_number   1
_chemical_formula_structural   LaGa2IrRh2
_chemical_formula_sum   'La1 Ga2 Ir1 Rh2'
_cell_volume   108.39927396
_cell_formula_units_Z   1
loop_
 _symmetry_equiv_pos_site_id
 _symmetry_equiv_pos_as_xyz
  1  'x, y, z'
loop_
 _atom_site_type_symbol
 _atom_site_label
 _atom_site_symmetry_multiplicity
 _atom_site_fract_x
 _atom_site_fract_y
 _atom_site_fract_z
 _atom_site_occupancy
  La  La0  1  0.000000  0.000000  0.000000  1
  Ga  Ga1  1  0.333430  0.666570  0.000000  1
  Ga  Ga2  1  0.666570  0.333430  0.000000  1
  Ir  Ir3  1  0.500000  0.500000  0.500000  1
  Rh  Rh4  1  0.500000  0.000000  0.500000  1
  Rh  Rh5  1  0.000000  0.500000  0.500000  1
