# generated using pymatgen
data_Ho8Si7GePd8
_symmetry_space_group_name_H-M   'P 1'
_cell_length_a   4.34266700
_cell_length_b   7.50834636
_cell_length_c   13.85686168
_cell_angle_alpha   89.96429443
_cell_angle_beta   90.00000000
_cell_angle_gamma   90.00000000
_symmetry_Int_Tables_number   1
_chemical_formula_structural   Ho8Si7GePd8
_chemical_formula_sum   'Ho8 Si7 Ge1 Pd8'
_cell_volume   451.82018022
_cell_formula_units_Z   1
loop_
 _symmetry_equiv_pos_site_id
 _symmetry_equiv_pos_as_xyz
  1  'x, y, z'
loop_
 _atom_site_type_symbol
 _atom_site_label
 _atom_site_symmetry_multiplicity
 _atom_site_fract_x
 _atom_site_fract_y
 _atom_site_fract_z
 _atom_site_occupancy
  Ho  Ho0  1  0.000000  0.211290  0.750089  1
  Ho  Ho1  1  0.000000  0.211785  0.249775  1
  Ho  Ho2  1  0.500000  0.787956  0.748391  1
  Ho  Ho3  1  0.500000  0.788110  0.251314  1
  Ho  Ho4  1  0.000000  0.289300  0.499969  1
  Ho  Ho5  1  0.500000  0.710729  0.000470  1
  Ho  Ho6  1  0.000000  0.298561  0.000795  1
  Ho  Ho7  1  0.500000  0.701647  0.499879  1
  Si  Si8  1  0.000000  0.589428  0.856864  1
  Si  Si9  1  0.000000  0.591392  0.143295  1
  Si  Si10  1  0.500000  0.408744  0.643344  1
  Si  Si11  1  0.500000  0.408780  0.357089  1
  Si  Si12  1  0.000000  0.909271  0.405883  1
  Si  Si13  1  0.000000  0.909291  0.593819  1
  Si  Si14  1  0.500000  0.091436  0.097793  1
  Ge  Ge15  1  0.500000  0.092854  0.904686  1
  Pd  Pd16  1  0.000000  0.915563  0.889871  1
  Pd  Pd17  1  0.000000  0.924268  0.109240  1
  Pd  Pd18  1  0.500000  0.075994  0.609275  1
  Pd  Pd19  1  0.500000  0.075691  0.390820  1
  Pd  Pd20  1  0.000000  0.579516  0.343701  1
  Pd  Pd21  1  0.000000  0.579510  0.655618  1
  Pd  Pd22  1  0.500000  0.420638  0.156788  1
  Pd  Pd23  1  0.500000  0.428247  0.841231  1
