# generated using pymatgen
data_Rb8Zr6CCl20
_symmetry_space_group_name_H-M   'P 1'
_cell_length_a   11.48623449
_cell_length_b   11.48623442
_cell_length_c   11.48623400
_cell_angle_alpha   60.00000121
_cell_angle_beta   60.00000140
_cell_angle_gamma   59.99999741
_symmetry_Int_Tables_number   1
_chemical_formula_structural   Rb8Zr6CCl20
_chemical_formula_sum   'Rb8 Zr6 C1 Cl20'
_cell_volume   1071.56375447
_cell_formula_units_Z   1
loop_
 _symmetry_equiv_pos_site_id
 _symmetry_equiv_pos_as_xyz
  1  'x, y, z'
loop_
 _atom_site_type_symbol
 _atom_site_label
 _atom_site_symmetry_multiplicity
 _atom_site_fract_x
 _atom_site_fract_y
 _atom_site_fract_z
 _atom_site_occupancy
  Rb  Rb0  1  0.360184  0.360184  0.360184  1
  Rb  Rb1  1  0.639816  0.639816  0.639816  1
  Rb  Rb2  1  0.360184  0.360184  0.919448  1
  Rb  Rb3  1  0.360184  0.919448  0.360184  1
  Rb  Rb4  1  0.639816  0.639816  0.080552  1
  Rb  Rb5  1  0.639816  0.080552  0.639816  1
  Rb  Rb6  1  0.919448  0.360184  0.360184  1
  Rb  Rb7  1  0.080552  0.639816  0.639816  1
  Zr  Zr8  1  0.861153  0.138847  0.138847  1
  Zr  Zr9  1  0.138847  0.861153  0.861153  1
  Zr  Zr10  1  0.138847  0.861153  0.138847  1
  Zr  Zr11  1  0.861153  0.138847  0.861153  1
  Zr  Zr12  1  0.138847  0.138847  0.861153  1
  Zr  Zr13  1  0.861153  0.861153  0.138847  1
  C  C14  1  0.000000  0.000000  0.000000  1
  Cl  Cl15  1  0.318590  0.000000  0.000000  1
  Cl  Cl16  1  0.681410  0.000000  0.000000  1
  Cl  Cl17  1  0.000000  0.318590  0.681410  1
  Cl  Cl18  1  0.000000  0.681410  0.318590  1
  Cl  Cl19  1  0.000000  0.318590  0.000000  1
  Cl  Cl20  1  0.681410  0.000000  0.318590  1
  Cl  Cl21  1  0.000000  0.681410  0.000000  1
  Cl  Cl22  1  0.318590  0.000000  0.681410  1
  Cl  Cl23  1  0.000000  0.000000  0.318590  1
  Cl  Cl24  1  0.000000  0.000000  0.681410  1
  Cl  Cl25  1  0.681410  0.318590  0.000000  1
  Cl  Cl26  1  0.318590  0.681410  0.000000  1
  Cl  Cl27  1  0.693141  0.306859  0.306859  1
  Cl  Cl28  1  0.306859  0.693141  0.693141  1
  Cl  Cl29  1  0.306859  0.693141  0.306859  1
  Cl  Cl30  1  0.693141  0.306859  0.693141  1
  Cl  Cl31  1  0.306859  0.306859  0.693141  1
  Cl  Cl32  1  0.693141  0.693141  0.306859  1
  Cl  Cl33  1  0.250000  0.250000  0.250000  1
  Cl  Cl34  1  0.750000  0.750000  0.750000  1
