# generated using pymatgen
data_Cs6CrIr(RhBr9)2
_symmetry_space_group_name_H-M   'P 1'
_cell_length_a   7.72799500
_cell_length_b   7.72799562
_cell_length_c   19.47263500
_cell_angle_alpha   90.00000000
_cell_angle_beta   90.00000000
_cell_angle_gamma   119.99999305
_symmetry_Int_Tables_number   1
_chemical_formula_structural   Cs6CrIr(RhBr9)2
_chemical_formula_sum   'Cs6 Cr1 Ir1 Rh2 Br18'
_cell_volume   1007.13823875
_cell_formula_units_Z   1
loop_
 _symmetry_equiv_pos_site_id
 _symmetry_equiv_pos_as_xyz
  1  'x, y, z'
loop_
 _atom_site_type_symbol
 _atom_site_label
 _atom_site_symmetry_multiplicity
 _atom_site_fract_x
 _atom_site_fract_y
 _atom_site_fract_z
 _atom_site_occupancy
  Cs  Cs0  1  0.666667  0.333333  0.931425  1
  Cs  Cs1  1  0.333333  0.666667  0.431437  1
  Cs  Cs2  1  0.666667  0.333333  0.569985  1
  Cs  Cs3  1  0.333333  0.666667  0.069219  1
  Cs  Cs4  1  0.000000  0.000000  0.748750  1
  Cs  Cs5  1  0.000000  0.000000  0.250280  1
  Cr  Cr6  1  0.333333  0.666667  0.836597  1
  Ir  Ir7  1  0.333333  0.666667  0.667590  1
  Rh  Rh8  1  0.666667  0.333333  0.165879  1
  Rh  Rh9  1  0.666667  0.333333  0.334071  1
  Br  Br10  1  0.820104  0.640208  0.406224  1
  Br  Br11  1  0.178278  0.356558  0.905315  1
  Br  Br12  1  0.178278  0.821722  0.905315  1
  Br  Br13  1  0.180142  0.360283  0.594321  1
  Br  Br14  1  0.643442  0.821722  0.905315  1
  Br  Br15  1  0.359792  0.179896  0.406224  1
  Br  Br16  1  0.035973  0.517987  0.748862  1
  Br  Br17  1  0.820104  0.179896  0.406224  1
  Br  Br18  1  0.519509  0.039019  0.249902  1
  Br  Br19  1  0.482013  0.517987  0.748862  1
  Br  Br20  1  0.519509  0.480491  0.249902  1
  Br  Br21  1  0.960981  0.480491  0.249902  1
  Br  Br22  1  0.359742  0.179871  0.093632  1
  Br  Br23  1  0.482013  0.964027  0.748862  1
  Br  Br24  1  0.820129  0.640258  0.093632  1
  Br  Br25  1  0.180142  0.819858  0.594321  1
  Br  Br26  1  0.639717  0.819858  0.594321  1
  Br  Br27  1  0.820129  0.179871  0.093632  1
