# generated using pymatgen
data_La2Er3Tl4
_symmetry_space_group_name_H-M   'P 1'
_cell_length_a   8.14625700
_cell_length_b   8.33658000
_cell_length_c   16.14335500
_cell_angle_alpha   90.00000000
_cell_angle_beta   90.00000000
_cell_angle_gamma   90.00000000
_symmetry_Int_Tables_number   1
_chemical_formula_structural   La2Er3Tl4
_chemical_formula_sum   'La8 Er12 Tl16'
_cell_volume   1096.32628464
_cell_formula_units_Z   4
loop_
 _symmetry_equiv_pos_site_id
 _symmetry_equiv_pos_as_xyz
  1  'x, y, z'
loop_
 _atom_site_type_symbol
 _atom_site_label
 _atom_site_symmetry_multiplicity
 _atom_site_fract_x
 _atom_site_fract_y
 _atom_site_fract_z
 _atom_site_occupancy
  La  La0  1  0.004502  0.181207  0.096099  1
  La  La1  1  0.504502  0.318793  0.403901  1
  La  La2  1  0.495498  0.681207  0.903901  1
  La  La3  1  0.995498  0.818793  0.596099  1
  La  La4  1  0.995498  0.818793  0.903901  1
  La  La5  1  0.495498  0.681207  0.596099  1
  La  La6  1  0.504502  0.318793  0.096099  1
  La  La7  1  0.004502  0.181207  0.403901  1
  Er  Er8  1  0.846357  0.661804  0.125038  1
  Er  Er9  1  0.346357  0.838196  0.374962  1
  Er  Er10  1  0.653643  0.161804  0.874962  1
  Er  Er11  1  0.153643  0.338196  0.625038  1
  Er  Er12  1  0.153643  0.338196  0.874962  1
  Er  Er13  1  0.653643  0.161804  0.625038  1
  Er  Er14  1  0.346357  0.838196  0.125038  1
  Er  Er15  1  0.846357  0.661804  0.374962  1
  Er  Er16  1  0.681807  0.996583  0.250000  1
  Er  Er17  1  0.181807  0.503417  0.250000  1
  Er  Er18  1  0.818193  0.496583  0.750000  1
  Er  Er19  1  0.318193  0.003417  0.750000  1
  Tl  Tl20  1  0.042502  0.876196  0.250000  1
  Tl  Tl21  1  0.542502  0.623804  0.250000  1
  Tl  Tl22  1  0.457498  0.376196  0.750000  1
  Tl  Tl23  1  0.957498  0.123804  0.750000  1
  Tl  Tl24  1  0.807531  0.361830  0.250000  1
  Tl  Tl25  1  0.307531  0.138170  0.250000  1
  Tl  Tl26  1  0.692469  0.861830  0.750000  1
  Tl  Tl27  1  0.192469  0.638170  0.750000  1
  Tl  Tl28  1  0.818704  0.457801  0.960586  1
  Tl  Tl29  1  0.318704  0.042199  0.539414  1
  Tl  Tl30  1  0.681296  0.957801  0.039414  1
  Tl  Tl31  1  0.181296  0.542199  0.460586  1
  Tl  Tl32  1  0.181296  0.542199  0.039414  1
  Tl  Tl33  1  0.681296  0.957801  0.460586  1
  Tl  Tl34  1  0.318704  0.042199  0.960586  1
  Tl  Tl35  1  0.818704  0.457801  0.539414  1
