# generated using pymatgen
data_ReTc(W2Cl9)2
_symmetry_space_group_name_H-M   'P 1'
_cell_length_a   9.59258749
_cell_length_b   9.56111422
_cell_length_c   9.62002041
_cell_angle_alpha   68.15596259
_cell_angle_beta   67.12798406
_cell_angle_gamma   67.88031880
_symmetry_Int_Tables_number   1
_chemical_formula_structural   ReTc(W2Cl9)2
_chemical_formula_sum   'Re1 Tc1 W4 Cl18'
_cell_volume   726.29213407
_cell_formula_units_Z   1
loop_
 _symmetry_equiv_pos_site_id
 _symmetry_equiv_pos_as_xyz
  1  'x, y, z'
loop_
 _atom_site_type_symbol
 _atom_site_label
 _atom_site_symmetry_multiplicity
 _atom_site_fract_x
 _atom_site_fract_y
 _atom_site_fract_z
 _atom_site_occupancy
  Re  Re0  1  0.371209  0.149841  0.146559  1
  Tc  Tc1  1  0.853061  0.849675  0.629394  1
  W  W2  1  0.144197  0.384479  0.140610  1
  W  W3  1  0.140971  0.139084  0.386647  1
  W  W4  1  0.613974  0.860768  0.857877  1
  W  W5  1  0.859760  0.616543  0.854758  1
  Cl  Cl6  1  0.372371  0.918769  0.369787  1
  Cl  Cl7  1  0.375659  0.372684  0.914279  1
  Cl  Cl8  1  0.917531  0.368013  0.369622  1
  Cl  Cl9  1  0.626363  0.080076  0.631988  1
  Cl  Cl10  1  0.630192  0.633542  0.082100  1
  Cl  Cl11  1  0.084868  0.624229  0.627592  1
  Cl  Cl12  1  0.327208  0.012041  0.011614  1
  Cl  Cl13  1  0.016677  0.329485  0.003940  1
  Cl  Cl14  1  0.016865  0.006020  0.327505  1
  Cl  Cl15  1  0.671337  0.993937  0.984610  1
  Cl  Cl16  1  0.993858  0.672709  0.983443  1
  Cl  Cl17  1  0.990373  0.989223  0.670600  1
  Cl  Cl18  1  0.528698  0.224182  0.215316  1
  Cl  Cl19  1  0.219490  0.540766  0.209651  1
  Cl  Cl20  1  0.215109  0.214249  0.539440  1
  Cl  Cl21  1  0.460169  0.784017  0.787276  1
  Cl  Cl22  1  0.786727  0.460611  0.783073  1
  Cl  Cl23  1  0.783333  0.775056  0.472319  1
