# generated using pymatgen
data_Tb2Tm2B12MoRu
_symmetry_space_group_name_H-M   'P 1'
_cell_length_a   3.64813100
_cell_length_b   9.17265251
_cell_length_c   11.58118310
_cell_angle_alpha   89.76306100
_cell_angle_beta   90.00000000
_cell_angle_gamma   90.00000000
_symmetry_Int_Tables_number   1
_chemical_formula_structural   Tb2Tm2B12MoRu
_chemical_formula_sum   'Tb4 Tm4 B24 Mo2 Ru2'
_cell_volume   387.53825599
_cell_formula_units_Z   2
loop_
 _symmetry_equiv_pos_site_id
 _symmetry_equiv_pos_as_xyz
  1  'x, y, z'
loop_
 _atom_site_type_symbol
 _atom_site_label
 _atom_site_symmetry_multiplicity
 _atom_site_fract_x
 _atom_site_fract_y
 _atom_site_fract_z
 _atom_site_occupancy
  Tb  Tb0  1  0.000000  0.321788  0.414527  1
  Tb  Tb1  1  0.000000  0.678212  0.585473  1
  Tb  Tb2  1  0.000000  0.822069  0.085447  1
  Tb  Tb3  1  0.000000  0.177931  0.914553  1
  Tm  Tm4  1  0.000000  0.944720  0.370871  1
  Tm  Tm5  1  0.000000  0.055280  0.629129  1
  Tm  Tm6  1  0.000000  0.441976  0.128545  1
  Tm  Tm7  1  0.000000  0.558024  0.871455  1
  B  B8  1  0.500000  0.552269  0.433391  1
  B  B9  1  0.500000  0.447731  0.566609  1
  B  B10  1  0.500000  0.054594  0.067625  1
  B  B11  1  0.500000  0.945406  0.932375  1
  B  B12  1  0.500000  0.751483  0.419830  1
  B  B13  1  0.500000  0.248517  0.580170  1
  B  B14  1  0.500000  0.249347  0.081695  1
  B  B15  1  0.500000  0.750653  0.918305  1
  B  B16  1  0.500000  0.795241  0.264170  1
  B  B17  1  0.500000  0.204759  0.735830  1
  B  B18  1  0.500000  0.290806  0.233710  1
  B  B19  1  0.500000  0.709194  0.766290  1
  B  B20  1  0.500000  0.630807  0.182368  1
  B  B21  1  0.500000  0.369193  0.817632  1
  B  B22  1  0.500000  0.130043  0.313636  1
  B  B23  1  0.500000  0.869957  0.686364  1
  B  B24  1  0.500000  0.983521  0.212130  1
  B  B25  1  0.500000  0.016479  0.787870  1
  B  B26  1  0.500000  0.478956  0.286361  1
  B  B27  1  0.500000  0.521044  0.713639  1
  B  B28  1  0.500000  0.600874  0.027402  1
  B  B29  1  0.500000  0.399126  0.972598  1
  B  B30  1  0.500000  0.100950  0.471569  1
  B  B31  1  0.500000  0.899050  0.528431  1
  Mo  Mo32  1  0.000000  0.639608  0.318186  1
  Mo  Mo33  1  0.000000  0.360392  0.681814  1
  Ru  Ru34  1  0.000000  0.138682  0.178942  1
  Ru  Ru35  1  0.000000  0.861318  0.821058  1
