# generated using pymatgen
data_NdEr4Si10P2Ir19
_symmetry_space_group_name_H-M   'P 1'
_cell_length_a   12.84582454
_cell_length_b   12.84582519
_cell_length_c   3.95975000
_cell_angle_alpha   90.00000000
_cell_angle_beta   90.00000000
_cell_angle_gamma   120.12526984
_symmetry_Int_Tables_number   1
_chemical_formula_structural   NdEr4Si10P2Ir19
_chemical_formula_sum   'Nd1 Er4 Si10 P2 Ir19'
_cell_volume   565.16179590
_cell_formula_units_Z   1
loop_
 _symmetry_equiv_pos_site_id
 _symmetry_equiv_pos_as_xyz
  1  'x, y, z'
loop_
 _atom_site_type_symbol
 _atom_site_label
 _atom_site_symmetry_multiplicity
 _atom_site_fract_x
 _atom_site_fract_y
 _atom_site_fract_z
 _atom_site_occupancy
  Nd  Nd0  1  0.813396  0.813396  0.500000  1
  Er  Er1  1  0.666312  0.333652  0.000000  1
  Er  Er2  1  0.333652  0.666312  0.000000  1
  Er  Er3  1  0.187074  0.001711  0.500000  1
  Er  Er4  1  0.001711  0.187074  0.500000  1
  Si  Si5  1  0.686438  0.168777  0.500000  1
  Si  Si6  1  0.831524  0.517974  0.500000  1
  Si  Si7  1  0.480720  0.311803  0.500000  1
  Si  Si8  1  0.168777  0.686438  0.500000  1
  Si  Si9  1  0.517974  0.831524  0.500000  1
  Si  Si10  1  0.311803  0.480720  0.500000  1
  Si  Si11  1  0.630758  0.630758  0.000000  1
  Si  Si12  1  0.367422  0.000154  0.000000  1
  Si  Si13  1  0.000154  0.367422  0.000000  1
  Si  Si14  1  0.179502  0.179502  0.000000  1
  P  P15  1  0.821243  0.002877  0.000000  1
  P  P16  1  0.002877  0.821243  0.000000  1
  Ir  Ir17  1  0.807009  0.180740  0.000000  1
  Ir  Ir18  1  0.820418  0.624243  0.000000  1
  Ir  Ir19  1  0.375540  0.193502  0.000000  1
  Ir  Ir20  1  0.180740  0.807009  0.000000  1
  Ir  Ir21  1  0.624243  0.820418  0.000000  1
  Ir  Ir22  1  0.193502  0.375540  0.000000  1
  Ir  Ir23  1  0.446761  0.446761  0.000000  1
  Ir  Ir24  1  0.552580  0.999487  0.000000  1
  Ir  Ir25  1  0.999487  0.552580  0.000000  1
  Ir  Ir26  1  0.281546  0.281546  0.500000  1
  Ir  Ir27  1  0.720520  0.001461  0.500000  1
  Ir  Ir28  1  0.001461  0.720520  0.500000  1
  Ir  Ir29  1  0.872108  0.359871  0.500000  1
  Ir  Ir30  1  0.639410  0.511391  0.500000  1
  Ir  Ir31  1  0.487354  0.126272  0.500000  1
  Ir  Ir32  1  0.359871  0.872108  0.500000  1
  Ir  Ir33  1  0.511391  0.639410  0.500000  1
  Ir  Ir34  1  0.126272  0.487354  0.500000  1
  Ir  Ir35  1  0.998449  0.998449  0.000000  1
