# generated using pymatgen
data_HoEr3(LuPt)4
_symmetry_space_group_name_H-M   'P 1'
_cell_length_a   4.73241500
_cell_length_b   7.07376957
_cell_length_c   8.59794569
_cell_angle_alpha   89.88032449
_cell_angle_beta   90.00000000
_cell_angle_gamma   90.00000000
_symmetry_Int_Tables_number   1
_chemical_formula_structural   HoEr3(LuPt)4
_chemical_formula_sum   'Ho1 Er3 Lu4 Pt4'
_cell_volume   287.82431582
_cell_formula_units_Z   1
loop_
 _symmetry_equiv_pos_site_id
 _symmetry_equiv_pos_as_xyz
  1  'x, y, z'
loop_
 _atom_site_type_symbol
 _atom_site_label
 _atom_site_symmetry_multiplicity
 _atom_site_fract_x
 _atom_site_fract_y
 _atom_site_fract_z
 _atom_site_occupancy
  Ho  Ho0  1  0.750000  0.512710  0.829429  1
  Er  Er1  1  0.250000  0.987301  0.330590  1
  Er  Er2  1  0.250000  0.487111  0.169986  1
  Er  Er3  1  0.750000  0.012646  0.669822  1
  Lu  Lu4  1  0.250000  0.356417  0.577021  1
  Lu  Lu5  1  0.250000  0.857122  0.922687  1
  Lu  Lu6  1  0.750000  0.643604  0.422309  1
  Lu  Lu7  1  0.750000  0.143158  0.077628  1
  Pt  Pt8  1  0.250000  0.255551  0.905708  1
  Pt  Pt9  1  0.250000  0.754725  0.595541  1
  Pt  Pt10  1  0.750000  0.744931  0.093394  1
  Pt  Pt11  1  0.750000  0.244724  0.405886  1
