# generated using pymatgen
data_ErTm2(Sn2Ir)2
_symmetry_space_group_name_H-M   'P 1'
_cell_length_a   7.48300202
_cell_length_b   7.48108884
_cell_length_c   4.18286100
_cell_angle_alpha   90.00000000
_cell_angle_beta   90.00000000
_cell_angle_gamma   120.00104955
_symmetry_Int_Tables_number   1
_chemical_formula_structural   ErTm2(Sn2Ir)2
_chemical_formula_sum   'Er1 Tm2 Sn4 Ir2'
_cell_volume   202.78701640
_cell_formula_units_Z   1
loop_
 _symmetry_equiv_pos_site_id
 _symmetry_equiv_pos_as_xyz
  1  'x, y, z'
loop_
 _atom_site_type_symbol
 _atom_site_label
 _atom_site_symmetry_multiplicity
 _atom_site_fract_x
 _atom_site_fract_y
 _atom_site_fract_z
 _atom_site_occupancy
  Er  Er0  1  0.975015  0.391157  0.500000  1
  Tm  Tm1  1  0.608974  0.583863  0.500000  1
  Tm  Tm2  1  0.416122  0.025131  0.500000  1
  Sn  Sn3  1  0.981406  0.742447  0.000000  1
  Sn  Sn4  1  0.257607  0.239005  0.000000  1
  Sn  Sn5  1  0.760940  0.018491  0.000000  1
  Sn  Sn6  1  0.333446  0.666739  0.000000  1
  Ir  Ir7  1  0.666497  0.333293  0.000000  1
  Ir  Ir8  1  0.999992  0.999874  0.500000  1
