# generated using pymatgen
data_Nd3Pa(Al3Rh)6
_symmetry_space_group_name_H-M   'P 1'
_cell_length_a   7.63018606
_cell_length_b   7.61346477
_cell_length_c   9.51097600
_cell_angle_alpha   90.00000000
_cell_angle_beta   90.00000000
_cell_angle_gamma   119.40985011
_symmetry_Int_Tables_number   1
_chemical_formula_structural   Nd3Pa(Al3Rh)6
_chemical_formula_sum   'Nd3 Pa1 Al18 Rh6'
_cell_volume   481.31038202
_cell_formula_units_Z   1
loop_
 _symmetry_equiv_pos_site_id
 _symmetry_equiv_pos_as_xyz
  1  'x, y, z'
loop_
 _atom_site_type_symbol
 _atom_site_label
 _atom_site_symmetry_multiplicity
 _atom_site_fract_x
 _atom_site_fract_y
 _atom_site_fract_z
 _atom_site_occupancy
  Nd  Nd0  1  0.005764  0.329174  0.250000  1
  Nd  Nd1  1  0.672266  0.994475  0.750000  1
  Nd  Nd2  1  0.328996  0.004524  0.250000  1
  Pa  Pa3  1  0.996124  0.672660  0.750000  1
  Al  Al4  1  0.133046  0.129650  0.750000  1
  Al  Al5  1  0.870765  0.870802  0.250000  1
  Al  Al6  1  0.002016  0.334816  0.576442  1
  Al  Al7  1  0.997068  0.664265  0.425194  1
  Al  Al8  1  0.997068  0.664265  0.074806  1
  Al  Al9  1  0.337647  0.003590  0.923374  1
  Al  Al10  1  0.002016  0.334816  0.923558  1
  Al  Al11  1  0.664863  0.998047  0.074769  1
  Al  Al12  1  0.664863  0.998047  0.425231  1
  Al  Al13  1  0.337647  0.003590  0.576626  1
  Al  Al14  1  0.333645  0.333526  0.047682  1
  Al  Al15  1  0.663980  0.665103  0.951233  1
  Al  Al16  1  0.663980  0.665103  0.548767  1
  Al  Al17  1  0.333645  0.333526  0.452318  1
  Al  Al18  1  0.336298  0.547043  0.750000  1
  Al  Al19  1  0.659324  0.450961  0.250000  1
  Al  Al20  1  0.550131  0.346450  0.750000  1
  Al  Al21  1  0.451768  0.659199  0.250000  1
  Rh  Rh22  1  0.673344  0.330905  0.502897  1
  Rh  Rh23  1  0.326517  0.671445  0.502860  1
  Rh  Rh24  1  0.326517  0.671445  0.997140  1
  Rh  Rh25  1  0.673344  0.330905  0.997103  1
  Rh  Rh26  1  0.998681  0.995834  0.504446  1
  Rh  Rh27  1  0.998681  0.995834  0.995554  1
