# generated using pymatgen
data_Ce2Hg3(TeCl4)2
_symmetry_space_group_name_H-M   'P 1'
_cell_length_a   10.02679634
_cell_length_b   10.01252245
_cell_length_c   13.64328571
_cell_angle_alpha   75.16956673
_cell_angle_beta   75.01013330
_cell_angle_gamma   45.87094557
_symmetry_Int_Tables_number   1
_chemical_formula_structural   Ce2Hg3(TeCl4)2
_chemical_formula_sum   'Ce4 Hg6 Te4 Cl16'
_cell_volume   943.97530731
_cell_formula_units_Z   2
loop_
 _symmetry_equiv_pos_site_id
 _symmetry_equiv_pos_as_xyz
  1  'x, y, z'
loop_
 _atom_site_type_symbol
 _atom_site_label
 _atom_site_symmetry_multiplicity
 _atom_site_fract_x
 _atom_site_fract_y
 _atom_site_fract_z
 _atom_site_occupancy
  Ce  Ce0  1  0.211496  0.732007  0.930874  1
  Ce  Ce1  1  0.267665  0.788946  0.568962  1
  Ce  Ce2  1  0.788504  0.267993  0.069126  1
  Ce  Ce3  1  0.732335  0.211054  0.431038  1
  Hg  Hg4  1  0.500000  0.000000  0.000000  1
  Hg  Hg5  1  0.000000  0.500000  0.500000  1
  Hg  Hg6  1  0.254159  0.237087  0.753458  1
  Hg  Hg7  1  0.763021  0.745825  0.746539  1
  Hg  Hg8  1  0.745841  0.762913  0.246542  1
  Hg  Hg9  1  0.236979  0.254175  0.253461  1
  Te  Te10  1  0.585851  0.081335  0.802534  1
  Te  Te11  1  0.919698  0.413155  0.697492  1
  Te  Te12  1  0.414149  0.918665  0.197466  1
  Te  Te13  1  0.080302  0.586845  0.302508  1
  Cl  Cl14  1  0.447604  0.364941  0.032602  1
  Cl  Cl15  1  0.635428  0.552380  0.467418  1
  Cl  Cl16  1  0.552396  0.635059  0.967398  1
  Cl  Cl17  1  0.364572  0.447620  0.532582  1
  Cl  Cl18  1  0.175174  0.638836  0.763358  1
  Cl  Cl19  1  0.361444  0.824734  0.736392  1
  Cl  Cl20  1  0.824826  0.361164  0.236642  1
  Cl  Cl21  1  0.638556  0.175266  0.263608  1
  Cl  Cl22  1  0.941481  0.719424  0.023962  1
  Cl  Cl23  1  0.280738  0.058439  0.475859  1
  Cl  Cl24  1  0.058519  0.280576  0.976038  1
  Cl  Cl25  1  0.719262  0.941561  0.524141  1
  Cl  Cl26  1  0.106293  0.890412  0.111273  1
  Cl  Cl27  1  0.110324  0.893115  0.388676  1
  Cl  Cl28  1  0.893707  0.109588  0.888727  1
  Cl  Cl29  1  0.889676  0.106885  0.611324  1
