# generated using pymatgen
data_Y15Ho5(SnBi)8
_symmetry_space_group_name_H-M   'P 1'
_cell_length_a   8.18650511
_cell_length_b   8.22952011
_cell_length_c   15.68848000
_cell_angle_alpha   90.00032026
_cell_angle_beta   89.90996729
_cell_angle_gamma   90.02975702
_symmetry_Int_Tables_number   1
_chemical_formula_structural   Y15Ho5(SnBi)8
_chemical_formula_sum   'Y15 Ho5 Sn8 Bi8'
_cell_volume   1056.94727054
_cell_formula_units_Z   1
loop_
 _symmetry_equiv_pos_site_id
 _symmetry_equiv_pos_as_xyz
  1  'x, y, z'
loop_
 _atom_site_type_symbol
 _atom_site_label
 _atom_site_symmetry_multiplicity
 _atom_site_fract_x
 _atom_site_fract_y
 _atom_site_fract_z
 _atom_site_occupancy
  Y  Y0  1  0.889971  0.662003  0.623255  1
  Y  Y1  1  0.609852  0.161886  0.376816  1
  Y  Y2  1  0.110851  0.338153  0.122933  1
  Y  Y3  1  0.610262  0.161906  0.123279  1
  Y  Y4  1  0.109845  0.338078  0.376852  1
  Y  Y5  1  0.390366  0.837985  0.623208  1
  Y  Y6  1  0.889766  0.661730  0.876996  1
  Y  Y7  1  0.557830  0.328797  0.888764  1
  Y  Y8  1  0.058894  0.170424  0.611790  1
  Y  Y9  1  0.441190  0.670659  0.388318  1
  Y  Y10  1  0.941951  0.828947  0.111461  1
  Y  Y11  1  0.442635  0.671265  0.111097  1
  Y  Y12  1  0.941344  0.829418  0.388135  1
  Y  Y13  1  0.558812  0.329655  0.611876  1
  Y  Y14  1  0.057535  0.170728  0.888635  1
  Ho  Ho15  1  0.389073  0.838510  0.876214  1
  Ho  Ho16  1  0.222510  0.498649  0.750096  1
  Ho  Ho17  1  0.722175  0.001353  0.750163  1
  Ho  Ho18  1  0.777772  0.501445  0.250046  1
  Ho  Ho19  1  0.277641  0.998660  0.249734  1
  Sn  Sn20  1  0.586729  0.627866  0.750555  1
  Sn  Sn21  1  0.087186  0.872430  0.750272  1
  Sn  Sn22  1  0.412899  0.372678  0.249984  1
  Sn  Sn23  1  0.913048  0.127600  0.249806  1
  Sn  Sn24  1  0.361727  0.143260  0.750269  1
  Sn  Sn25  1  0.861735  0.356641  0.750174  1
  Sn  Sn26  1  0.638290  0.856492  0.249939  1
  Sn  Sn27  1  0.138514  0.643373  0.249835  1
  Bi  Bi28  1  0.268554  0.018026  0.044334  1
  Bi  Bi29  1  0.767669  0.482428  0.455017  1
  Bi  Bi30  1  0.732335  0.982439  0.545053  1
  Bi  Bi31  1  0.232265  0.519412  0.954932  1
  Bi  Bi32  1  0.730157  0.980709  0.955179  1
  Bi  Bi33  1  0.232184  0.517540  0.545115  1
  Bi  Bi34  1  0.267723  0.017564  0.454944  1
  Bi  Bi35  1  0.768709  0.481292  0.044921  1
