# generated using pymatgen
data_Dy2Er18IrRh11
_symmetry_space_group_name_H-M   'P 1'
_cell_length_a   10.81400426
_cell_length_b   10.81400294
_cell_length_c   6.31520201
_cell_angle_alpha   89.99965877
_cell_angle_beta   89.99966020
_cell_angle_gamma   90.06112102
_symmetry_Int_Tables_number   1
_chemical_formula_structural   Dy2Er18IrRh11
_chemical_formula_sum   'Dy2 Er18 Ir1 Rh11'
_cell_volume   738.51618895
_cell_formula_units_Z   1
loop_
 _symmetry_equiv_pos_site_id
 _symmetry_equiv_pos_as_xyz
  1  'x, y, z'
loop_
 _atom_site_type_symbol
 _atom_site_label
 _atom_site_symmetry_multiplicity
 _atom_site_fract_x
 _atom_site_fract_y
 _atom_site_fract_z
 _atom_site_occupancy
  Dy  Dy0  1  0.499765  0.500008  0.000180  1
  Dy  Dy1  1  0.499992  0.500235  0.499820  1
  Er  Er2  1  0.290989  0.088846  0.378725  1
  Er  Er3  1  0.291301  0.909743  0.878537  1
  Er  Er4  1  0.708960  0.088714  0.878649  1
  Er  Er5  1  0.708838  0.911094  0.378604  1
  Er  Er6  1  0.587526  0.790718  0.878340  1
  Er  Er7  1  0.588917  0.208732  0.379026  1
  Er  Er8  1  0.410694  0.790620  0.379759  1
  Er  Er9  1  0.411043  0.208537  0.878554  1
  Er  Er10  1  0.209282  0.412474  0.621660  1
  Er  Er11  1  0.209380  0.589306  0.120241  1
  Er  Er12  1  0.791268  0.411083  0.120974  1
  Er  Er13  1  0.791463  0.588957  0.621446  1
  Er  Er14  1  0.911154  0.709011  0.121275  1
  Er  Er15  1  0.911286  0.291040  0.621351  1
  Er  Er16  1  0.090257  0.708699  0.621463  1
  Er  Er17  1  0.088906  0.291162  0.121396  1
  Er  Er18  1  0.999874  0.999906  0.500111  1
  Er  Er19  1  0.000094  0.000126  0.999889  1
  Ir  Ir20  1  0.345549  0.654451  0.750000  1
  Rh  Rh21  1  0.846150  0.153850  0.250000  1
  Rh  Rh22  1  0.846014  0.846305  0.750171  1
  Rh  Rh23  1  0.153695  0.153986  0.749829  1
  Rh  Rh24  1  0.153257  0.846743  0.250000  1
  Rh  Rh25  1  0.654374  0.345626  0.750000  1
  Rh  Rh26  1  0.654978  0.654471  0.250082  1
  Rh  Rh27  1  0.345529  0.345022  0.249918  1
  Rh  Rh28  1  0.500209  0.000433  0.124817  1
  Rh  Rh29  1  0.500287  0.000593  0.624321  1
  Rh  Rh30  1  0.999407  0.499713  0.875679  1
  Rh  Rh31  1  0.999567  0.499791  0.375183  1
