# generated using pymatgen
data_YPa3(HgPt2)2
_symmetry_space_group_name_H-M   'P 1'
_cell_length_a   7.88229221
_cell_length_b   7.88229221
_cell_length_c   3.61573200
_cell_angle_alpha   90.00000000
_cell_angle_beta   90.00000000
_cell_angle_gamma   90.92932753
_symmetry_Int_Tables_number   1
_chemical_formula_structural   YPa3(HgPt2)2
_chemical_formula_sum   'Y1 Pa3 Hg2 Pt4'
_cell_volume   224.61779750
_cell_formula_units_Z   1
loop_
 _symmetry_equiv_pos_site_id
 _symmetry_equiv_pos_as_xyz
  1  'x, y, z'
loop_
 _atom_site_type_symbol
 _atom_site_label
 _atom_site_symmetry_multiplicity
 _atom_site_fract_x
 _atom_site_fract_y
 _atom_site_fract_z
 _atom_site_occupancy
  Y  Y0  1  0.326418  0.173582  0.500000  1
  Pa  Pa1  1  0.828399  0.327486  0.500000  1
  Pa  Pa2  1  0.172514  0.671601  0.500000  1
  Pa  Pa3  1  0.669442  0.830558  0.500000  1
  Hg  Hg4  1  0.008260  0.002916  0.000000  1
  Hg  Hg5  1  0.497084  0.491740  0.000000  1
  Pt  Pt6  1  0.639690  0.123413  0.000000  1
  Pt  Pt7  1  0.117199  0.382801  0.000000  1
  Pt  Pt8  1  0.864407  0.635593  0.000000  1
  Pt  Pt9  1  0.376587  0.860310  0.000000  1
