# generated using pymatgen
data_Lu2ZnOsRu2
_symmetry_space_group_name_H-M   'P 1'
_cell_length_a   5.31494495
_cell_length_b   5.24180826
_cell_length_c   8.78230600
_cell_angle_alpha   90.00000000
_cell_angle_beta   90.00000000
_cell_angle_gamma   120.44265991
_symmetry_Int_Tables_number   1
_chemical_formula_structural   Lu2ZnOsRu2
_chemical_formula_sum   'Lu4 Zn2 Os2 Ru4'
_cell_volume   210.94273795
_cell_formula_units_Z   2
loop_
 _symmetry_equiv_pos_site_id
 _symmetry_equiv_pos_as_xyz
  1  'x, y, z'
loop_
 _atom_site_type_symbol
 _atom_site_label
 _atom_site_symmetry_multiplicity
 _atom_site_fract_x
 _atom_site_fract_y
 _atom_site_fract_z
 _atom_site_occupancy
  Lu  Lu0  1  0.328005  0.670159  0.442933  1
  Lu  Lu1  1  0.665880  0.337121  0.568379  1
  Lu  Lu2  1  0.665880  0.337121  0.931621  1
  Lu  Lu3  1  0.328005  0.670159  0.057067  1
  Zn  Zn4  1  0.346243  0.162650  0.250000  1
  Zn  Zn5  1  0.838557  0.654287  0.250000  1
  Os  Os6  1  0.164381  0.332303  0.750000  1
  Os  Os7  1  0.172425  0.822955  0.750000  1
  Ru  Ru8  1  0.658143  0.829454  0.750000  1
  Ru  Ru9  1  0.997148  0.012154  0.000990  1
  Ru  Ru10  1  0.838186  0.159483  0.250000  1
  Ru  Ru11  1  0.997148  0.012154  0.499010  1
