# generated using pymatgen
data_K5Ce2F13
_symmetry_space_group_name_H-M   'P 1'
_cell_length_a   7.25467976
_cell_length_b   7.25467930
_cell_length_c   9.50185815
_cell_angle_alpha   83.35677941
_cell_angle_beta   83.35677371
_cell_angle_gamma   50.58499348
_symmetry_Int_Tables_number   1
_chemical_formula_structural   K5Ce2F13
_chemical_formula_sum   'K5 Ce2 F13'
_cell_volume   383.17469932
_cell_formula_units_Z   1
loop_
 _symmetry_equiv_pos_site_id
 _symmetry_equiv_pos_as_xyz
  1  'x, y, z'
loop_
 _atom_site_type_symbol
 _atom_site_label
 _atom_site_symmetry_multiplicity
 _atom_site_fract_x
 _atom_site_fract_y
 _atom_site_fract_z
 _atom_site_occupancy
  K  K0  1  0.221061  0.221061  0.848437  1
  K  K1  1  0.778939  0.778939  0.151563  1
  K  K2  1  0.500000  0.500000  0.000000  1
  K  K3  1  0.659008  0.659008  0.572343  1
  K  K4  1  0.340992  0.340992  0.427657  1
  Ce  Ce5  1  0.927126  0.927126  0.737985  1
  Ce  Ce6  1  0.072874  0.072874  0.262015  1
  F  F7  1  0.047325  0.594992  0.644606  1
  F  F8  1  0.594992  0.047325  0.644606  1
  F  F9  1  0.952675  0.405008  0.355394  1
  F  F10  1  0.405008  0.952675  0.355394  1
  F  F11  1  0.651260  0.082344  0.916581  1
  F  F12  1  0.082344  0.651260  0.916581  1
  F  F13  1  0.348740  0.917656  0.083419  1
  F  F14  1  0.917656  0.348740  0.083419  1
  F  F15  1  0.283649  0.827863  0.753069  1
  F  F16  1  0.827863  0.283649  0.753069  1
  F  F17  1  0.716351  0.172137  0.246931  1
  F  F18  1  0.172137  0.716351  0.246931  1
  F  F19  1  0.000000  0.000000  0.500000  1
