# generated using pymatgen
data_Ho3In2GaPd2Pt
_symmetry_space_group_name_H-M   'P 1'
_cell_length_a   7.68593297
_cell_length_b   7.66913408
_cell_length_c   3.70560800
_cell_angle_alpha   90.00000000
_cell_angle_beta   90.00000000
_cell_angle_gamma   119.43312785
_symmetry_Int_Tables_number   1
_chemical_formula_structural   Ho3In2GaPd2Pt
_chemical_formula_sum   'Ho3 In2 Ga1 Pd2 Pt1'
_cell_volume   190.23287173
_cell_formula_units_Z   1
loop_
 _symmetry_equiv_pos_site_id
 _symmetry_equiv_pos_as_xyz
  1  'x, y, z'
loop_
 _atom_site_type_symbol
 _atom_site_label
 _atom_site_symmetry_multiplicity
 _atom_site_fract_x
 _atom_site_fract_y
 _atom_site_fract_z
 _atom_site_occupancy
  Ho  Ho0  1  0.598875  0.000825  0.500000  1
  Ho  Ho1  1  0.425477  0.420506  0.500000  1
  Ho  Ho2  1  0.986753  0.591739  0.500000  1
  In  In3  1  0.012185  0.265819  0.000000  1
  In  In4  1  0.260366  0.001402  0.000000  1
  Ga  Ga5  1  0.730819  0.735705  0.000000  1
  Pd  Pd6  1  0.341546  0.669801  0.000000  1
  Pd  Pd7  1  0.975017  0.975168  0.500000  1
  Pt  Pt8  1  0.668962  0.339034  0.000000  1
