# generated using pymatgen
data_Tb7Er9MgHg3Ir4
_symmetry_space_group_name_H-M   'P 1'
_cell_length_a   9.62280148
_cell_length_b   9.59882077
_cell_length_c   9.60245604
_cell_angle_alpha   59.78966062
_cell_angle_beta   59.90908937
_cell_angle_gamma   59.95123285
_symmetry_Int_Tables_number   1
_chemical_formula_structural   Tb7Er9MgHg3Ir4
_chemical_formula_sum   'Tb7 Er9 Mg1 Hg3 Ir4'
_cell_volume   625.50918419
_cell_formula_units_Z   1
loop_
 _symmetry_equiv_pos_site_id
 _symmetry_equiv_pos_as_xyz
  1  'x, y, z'
loop_
 _atom_site_type_symbol
 _atom_site_label
 _atom_site_symmetry_multiplicity
 _atom_site_fract_x
 _atom_site_fract_y
 _atom_site_fract_z
 _atom_site_occupancy
  Tb  Tb0  1  0.439173  0.059636  0.438237  1
  Tb  Tb1  1  0.438555  0.438873  0.059869  1
  Tb  Tb2  1  0.438453  0.062729  0.063626  1
  Tb  Tb3  1  0.058994  0.439509  0.438544  1
  Tb  Tb4  1  0.192139  0.190849  0.811533  1
  Tb  Tb5  1  0.649605  0.650194  0.046998  1
  Tb  Tb6  1  0.651143  0.045439  0.650600  1
  Er  Er7  1  0.191893  0.808236  0.808710  1
  Er  Er8  1  0.816913  0.187376  0.187644  1
  Er  Er9  1  0.060650  0.441633  0.060099  1
  Er  Er10  1  0.055577  0.648400  0.646679  1
  Er  Er11  1  0.651279  0.652264  0.652014  1
  Er  Er12  1  0.061704  0.060414  0.439875  1
  Er  Er13  1  0.191970  0.810666  0.191312  1
  Er  Er14  1  0.814038  0.811388  0.187715  1
  Er  Er15  1  0.813230  0.188113  0.811157  1
  Mg  Mg16  1  0.715657  0.429563  0.428073  1
  Hg  Hg17  1  0.415681  0.415017  0.756306  1
  Hg  Hg18  1  0.415423  0.756062  0.415103  1
  Hg  Hg19  1  0.417397  0.414465  0.415108  1
  Ir  Ir20  1  0.861843  0.854273  0.423565  1
  Ir  Ir21  1  0.860055  0.424802  0.854200  1
  Ir  Ir22  1  0.864647  0.855221  0.855631  1
  Ir  Ir23  1  0.423985  0.854878  0.857400  1
