# generated using pymatgen
data_TmIO5
_symmetry_space_group_name_H-M   'P 1'
_cell_length_a   5.60717500
_cell_length_b   5.67855845
_cell_length_c   15.30273177
_cell_angle_alpha   66.09735493
_cell_angle_beta   90.00000000
_cell_angle_gamma   90.00000000
_symmetry_Int_Tables_number   1
_chemical_formula_structural   TmIO5
_chemical_formula_sum   'Tm4 I4 O20'
_cell_volume   445.46043786
_cell_formula_units_Z   4
loop_
 _symmetry_equiv_pos_site_id
 _symmetry_equiv_pos_as_xyz
  1  'x, y, z'
loop_
 _atom_site_type_symbol
 _atom_site_label
 _atom_site_symmetry_multiplicity
 _atom_site_fract_x
 _atom_site_fract_y
 _atom_site_fract_z
 _atom_site_occupancy
  Tm  Tm0  1  0.594330  0.767459  0.269643  1
  Tm  Tm1  1  0.905670  0.767459  0.769643  1
  Tm  Tm2  1  0.405670  0.232541  0.730357  1
  Tm  Tm3  1  0.094330  0.232541  0.230357  1
  I  I4  1  0.542104  0.145407  0.391669  1
  I  I5  1  0.957896  0.145407  0.891669  1
  I  I6  1  0.457896  0.854593  0.608331  1
  I  I7  1  0.042104  0.854593  0.108331  1
  O  O8  1  0.682682  0.867361  0.505269  1
  O  O9  1  0.817318  0.867361  0.005269  1
  O  O10  1  0.317318  0.132639  0.494731  1
  O  O11  1  0.182682  0.132639  0.994731  1
  O  O12  1  0.342397  0.929716  0.355481  1
  O  O13  1  0.157603  0.929716  0.855481  1
  O  O14  1  0.657603  0.070284  0.644519  1
  O  O15  1  0.842397  0.070284  0.144519  1
  O  O16  1  0.362903  0.412267  0.296826  1
  O  O17  1  0.137097  0.412267  0.796826  1
  O  O18  1  0.637097  0.587733  0.703174  1
  O  O19  1  0.862903  0.587733  0.203174  1
  O  O20  1  0.723416  0.408329  0.397512  1
  O  O21  1  0.776584  0.408329  0.897512  1
  O  O22  1  0.276584  0.591671  0.602488  1
  O  O23  1  0.223416  0.591671  0.102488  1
  O  O24  1  0.775469  0.055255  0.319233  1
  O  O25  1  0.724531  0.055255  0.819233  1
  O  O26  1  0.224531  0.944745  0.680767  1
  O  O27  1  0.275469  0.944745  0.180767  1
