# generated using pymatgen
data_CeTh3(NiB4)4
_symmetry_space_group_name_H-M   'P 1'
_cell_length_a   6.93616591
_cell_length_b   6.93616466
_cell_length_c   6.93616562
_cell_angle_alpha   112.77898632
_cell_angle_beta   112.77898594
_cell_angle_gamma   103.04081418
_symmetry_Int_Tables_number   1
_chemical_formula_structural   CeTh3(NiB4)4
_chemical_formula_sum   'Ce1 Th3 Ni4 B16'
_cell_volume   254.49431391
_cell_formula_units_Z   1
loop_
 _symmetry_equiv_pos_site_id
 _symmetry_equiv_pos_as_xyz
  1  'x, y, z'
loop_
 _atom_site_type_symbol
 _atom_site_label
 _atom_site_symmetry_multiplicity
 _atom_site_fract_x
 _atom_site_fract_y
 _atom_site_fract_z
 _atom_site_occupancy
  Ce  Ce0  1  0.250000  0.750000  0.500000  1
  Th  Th1  1  0.796326  0.796326  0.000000  1
  Th  Th2  1  0.203674  0.203674  0.000000  1
  Th  Th3  1  0.750000  0.250000  0.500000  1
  Ni  Ni4  1  0.271988  0.500481  0.771507  1
  Ni  Ni5  1  0.728975  0.500481  0.228493  1
  Ni  Ni6  1  0.499519  0.728012  0.228493  1
  Ni  Ni7  1  0.499519  0.271025  0.771507  1
  B  B8  1  0.273632  0.110717  0.385157  1
  B  B9  1  0.725560  0.888475  0.614843  1
  B  B10  1  0.273632  0.888475  0.162915  1
  B  B11  1  0.725560  0.110717  0.837085  1
  B  B12  1  0.111525  0.726368  0.837085  1
  B  B13  1  0.889283  0.274440  0.162915  1
  B  B14  1  0.111525  0.274440  0.385157  1
  B  B15  1  0.889283  0.726368  0.614843  1
  B  B16  1  0.113579  0.112299  0.530762  1
  B  B17  1  0.581536  0.582816  0.469238  1
  B  B18  1  0.113579  0.582816  0.001280  1
  B  B19  1  0.581536  0.112299  0.998720  1
  B  B20  1  0.887701  0.886421  0.469238  1
  B  B21  1  0.417184  0.418464  0.530762  1
  B  B22  1  0.887701  0.418464  0.001280  1
  B  B23  1  0.417184  0.886421  0.998720  1
