# generated using pymatgen
data_Tb3Pr2Dy3(WO6)4
_symmetry_space_group_name_H-M   'P 1'
_cell_length_a   5.47067006
_cell_length_b   7.79990751
_cell_length_c   11.58614052
_cell_angle_alpha   75.66793090
_cell_angle_beta   90.00217679
_cell_angle_gamma   90.01616270
_symmetry_Int_Tables_number   1
_chemical_formula_structural   Tb3Pr2Dy3(WO6)4
_chemical_formula_sum   'Tb3 Pr2 Dy3 W4 O24'
_cell_volume   479.00224007
_cell_formula_units_Z   1
loop_
 _symmetry_equiv_pos_site_id
 _symmetry_equiv_pos_as_xyz
  1  'x, y, z'
loop_
 _atom_site_type_symbol
 _atom_site_label
 _atom_site_symmetry_multiplicity
 _atom_site_fract_x
 _atom_site_fract_y
 _atom_site_fract_z
 _atom_site_occupancy
  Tb  Tb0  1  0.741047  0.000164  0.750242  1
  Tb  Tb1  1  0.258995  0.000140  0.249784  1
  Tb  Tb2  1  0.187407  0.797859  0.576446  1
  Pr  Pr3  1  0.685263  0.499734  0.750203  1
  Pr  Pr4  1  0.314842  0.499942  0.249977  1
  Dy  Dy5  1  0.812770  0.797671  0.076635  1
  Dy  Dy6  1  0.187178  0.202357  0.923305  1
  Dy  Dy7  1  0.812669  0.202577  0.423230  1
  W  W8  1  0.252877  0.727693  0.884613  1
  W  W9  1  0.747375  0.727620  0.384207  1
  W  W10  1  0.252746  0.272099  0.615576  1
  W  W11  1  0.747263  0.272238  0.115551  1
  O  O12  1  0.042558  0.940829  0.896378  1
  O  O13  1  0.530407  0.846433  0.931218  1
  O  O14  1  0.957249  0.941009  0.396049  1
  O  O15  1  0.455109  0.793496  0.728477  1
  O  O16  1  0.470602  0.846906  0.430255  1
  O  O17  1  0.986697  0.719100  0.770459  1
  O  O18  1  0.545827  0.793589  0.227661  1
  O  O19  1  0.853837  0.641419  0.545020  1
  O  O20  1  0.348223  0.493989  0.887757  1
  O  O21  1  0.013273  0.719241  0.269927  1
  O  O22  1  0.349021  0.505463  0.612312  1
  O  O23  1  0.855290  0.357966  0.954911  1
  O  O24  1  0.144710  0.641947  0.045224  1
  O  O25  1  0.651493  0.493820  0.387591  1
  O  O26  1  0.987072  0.280949  0.730160  1
  O  O27  1  0.651732  0.505944  0.112245  1
  O  O28  1  0.144812  0.358083  0.454838  1
  O  O29  1  0.454144  0.206160  0.772213  1
  O  O30  1  0.012994  0.280764  0.230001  1
  O  O31  1  0.530168  0.153407  0.569035  1
  O  O32  1  0.545776  0.206319  0.272140  1
  O  O33  1  0.041444  0.060136  0.603701  1
  O  O34  1  0.469607  0.153698  0.069036  1
  O  O35  1  0.957528  0.059240  0.103622  1
