# generated using pymatgen
data_Y3Pa(HgPd2)2
_symmetry_space_group_name_H-M   'P 1'
_cell_length_a   7.76342709
_cell_length_b   7.76342692
_cell_length_c   3.69023500
_cell_angle_alpha   90.00000000
_cell_angle_beta   90.00000000
_cell_angle_gamma   91.73398458
_symmetry_Int_Tables_number   1
_chemical_formula_structural   Y3Pa(HgPd2)2
_chemical_formula_sum   'Y3 Pa1 Hg2 Pd4'
_cell_volume   222.31156564
_cell_formula_units_Z   1
loop_
 _symmetry_equiv_pos_site_id
 _symmetry_equiv_pos_as_xyz
  1  'x, y, z'
loop_
 _atom_site_type_symbol
 _atom_site_label
 _atom_site_symmetry_multiplicity
 _atom_site_fract_x
 _atom_site_fract_y
 _atom_site_fract_z
 _atom_site_occupancy
  Y  Y0  1  0.324118  0.824118  0.500000  1
  Y  Y1  1  0.174799  0.329111  0.500000  1
  Y  Y2  1  0.829111  0.674799  0.500000  1
  Pa  Pa3  1  0.670458  0.170458  0.500000  1
  Hg  Hg4  1  0.500196  0.504656  0.000000  1
  Hg  Hg5  1  0.004656  0.000196  0.000000  1
  Pd  Pd6  1  0.120411  0.620411  0.000000  1
  Pd  Pd7  1  0.860807  0.360807  0.000000  1
  Pd  Pd8  1  0.631437  0.884007  0.000000  1
  Pd  Pd9  1  0.384007  0.131437  0.000000  1
