# generated using pymatgen
data_Cs12CaErSe8
_symmetry_space_group_name_H-M   'P 1'
_cell_length_a   11.52056300
_cell_length_b   11.52056306
_cell_length_c   8.87522000
_cell_angle_alpha   90.00000000
_cell_angle_beta   90.00000000
_cell_angle_gamma   120.00000271
_symmetry_Int_Tables_number   1
_chemical_formula_structural   Cs12CaErSe8
_chemical_formula_sum   'Cs12 Ca1 Er1 Se8'
_cell_volume   1020.13384303
_cell_formula_units_Z   1
loop_
 _symmetry_equiv_pos_site_id
 _symmetry_equiv_pos_as_xyz
  1  'x, y, z'
loop_
 _atom_site_type_symbol
 _atom_site_label
 _atom_site_symmetry_multiplicity
 _atom_site_fract_x
 _atom_site_fract_y
 _atom_site_fract_z
 _atom_site_occupancy
  Cs  Cs0  1  0.136368  0.863632  0.536264  1
  Cs  Cs1  1  0.282342  0.141171  0.052444  1
  Cs  Cs2  1  0.858829  0.717658  0.052444  1
  Cs  Cs3  1  0.136368  0.272737  0.536264  1
  Cs  Cs4  1  0.727263  0.863632  0.536264  1
  Cs  Cs5  1  0.858829  0.141171  0.052444  1
  Cs  Cs6  1  0.533407  0.466593  0.367595  1
  Cs  Cs7  1  0.058737  0.529368  0.854492  1
  Cs  Cs8  1  0.470632  0.941263  0.854492  1
  Cs  Cs9  1  0.533407  0.066814  0.367595  1
  Cs  Cs10  1  0.933186  0.466593  0.367595  1
  Cs  Cs11  1  0.470632  0.529368  0.854492  1
  Ca  Ca12  1  0.666667  0.333333  0.760497  1
  Er  Er13  1  0.333333  0.666667  0.253362  1
  Se  Se14  1  0.333333  0.666667  0.560081  1
  Se  Se15  1  0.666667  0.333333  0.083160  1
  Se  Se16  1  0.204649  0.795351  0.152609  1
  Se  Se17  1  0.392316  0.196158  0.657365  1
  Se  Se18  1  0.803842  0.607684  0.657365  1
  Se  Se19  1  0.204649  0.409297  0.152609  1
  Se  Se20  1  0.590703  0.795351  0.152609  1
  Se  Se21  1  0.803842  0.196158  0.657365  1
