# generated using pymatgen
data_Ba3CdSb2O9
_symmetry_space_group_name_H-M   'P 1'
_cell_length_a   6.06991717
_cell_length_b   6.06364074
_cell_length_c   15.08177618
_cell_angle_alpha   90.74332469
_cell_angle_beta   91.38818607
_cell_angle_gamma   119.54091990
_symmetry_Int_Tables_number   1
_chemical_formula_structural   Ba3CdSb2O9
_chemical_formula_sum   'Ba6 Cd2 Sb4 O18'
_cell_volume   482.59640148
_cell_formula_units_Z   2
loop_
 _symmetry_equiv_pos_site_id
 _symmetry_equiv_pos_as_xyz
  1  'x, y, z'
loop_
 _atom_site_type_symbol
 _atom_site_label
 _atom_site_symmetry_multiplicity
 _atom_site_fract_x
 _atom_site_fract_y
 _atom_site_fract_z
 _atom_site_occupancy
  Ba  Ba0  1  0.318337  0.654052  0.410551  1
  Ba  Ba1  1  0.681663  0.345948  0.589449  1
  Ba  Ba2  1  0.656130  0.327604  0.907102  1
  Ba  Ba3  1  0.986522  0.000559  0.250666  1
  Ba  Ba4  1  0.013478  0.999441  0.749334  1
  Ba  Ba5  1  0.343870  0.672396  0.092898  1
  Cd  Cd6  1  0.000000  0.000000  0.000000  1
  Cd  Cd7  1  0.000000  0.000000  0.500000  1
  Sb  Sb8  1  0.307573  0.646705  0.845874  1
  Sb  Sb9  1  0.643396  0.311763  0.345224  1
  Sb  Sb10  1  0.356604  0.688237  0.654776  1
  Sb  Sb11  1  0.692427  0.353295  0.154126  1
  O  O12  1  0.210387  0.400256  0.569349  1
  O  O13  1  0.885600  0.212246  0.097452  1
  O  O14  1  0.242167  0.895127  0.590188  1
  O  O15  1  0.789613  0.599744  0.430651  1
  O  O16  1  0.588302  0.771430  0.934142  1
  O  O17  1  0.469010  0.510088  0.752608  1
  O  O18  1  0.892766  0.692322  0.105063  1
  O  O19  1  0.411698  0.228570  0.065858  1
  O  O20  1  0.107234  0.307678  0.894937  1
  O  O21  1  0.697334  0.853855  0.606641  1
  O  O22  1  0.114400  0.787754  0.902548  1
  O  O23  1  0.045416  0.531601  0.733621  1
  O  O24  1  0.530990  0.489912  0.247392  1
  O  O25  1  0.954584  0.468399  0.266379  1
  O  O26  1  0.757833  0.104873  0.409812  1
  O  O27  1  0.302666  0.146145  0.393359  1
  O  O28  1  0.514334  0.045729  0.235831  1
  O  O29  1  0.485666  0.954271  0.764169  1
