# generated using pymatgen
data_Ac2Ga3PIr6
_symmetry_space_group_name_H-M   'P 1'
_cell_length_a   6.89501826
_cell_length_b   6.88434032
_cell_length_c   6.89540631
_cell_angle_alpha   130.60887392
_cell_angle_beta   113.24423257
_cell_angle_gamma   87.44348126
_symmetry_Int_Tables_number   1
_chemical_formula_structural   Ac2Ga3PIr6
_chemical_formula_sum   'Ac2 Ga3 P1 Ir6'
_cell_volume   217.48584935
_cell_formula_units_Z   1
loop_
 _symmetry_equiv_pos_site_id
 _symmetry_equiv_pos_as_xyz
  1  'x, y, z'
loop_
 _atom_site_type_symbol
 _atom_site_label
 _atom_site_symmetry_multiplicity
 _atom_site_fract_x
 _atom_site_fract_y
 _atom_site_fract_z
 _atom_site_occupancy
  Ac  Ac0  1  0.251123  0.984692  0.733573  1
  Ac  Ac1  1  0.751070  0.012145  0.261061  1
  Ga  Ga2  1  0.085311  0.317133  0.231832  1
  Ga  Ga3  1  0.936187  0.706841  0.770684  1
  Ga  Ga4  1  0.392881  0.626903  0.233974  1
  P  P5  1  0.580025  0.346080  0.766044  1
  Ir  Ir6  1  0.524751  0.500624  0.528399  1
  Ir  Ir7  1  0.972233  0.500667  0.975924  1
  Ir  Ir8  1  0.279471  0.004040  0.279858  1
  Ir  Ir9  1  0.724149  0.003958  0.724451  1
  Ir  Ir10  1  0.259482  0.498426  0.755188  1
  Ir  Ir11  1  0.743314  0.498490  0.239013  1
