# generated using pymatgen
data_Cs2TiHgSe4
_symmetry_space_group_name_H-M   'P 1'
_cell_length_a   14.97243067
_cell_length_b   13.35706355
_cell_length_c   8.07403960
_cell_angle_alpha   84.83228940
_cell_angle_beta   62.68341895
_cell_angle_gamma   32.48429953
_symmetry_Int_Tables_number   1
_chemical_formula_structural   Cs2TiHgSe4
_chemical_formula_sum   'Cs4 Ti2 Hg2 Se8'
_cell_volume   603.02088272
_cell_formula_units_Z   2
loop_
 _symmetry_equiv_pos_site_id
 _symmetry_equiv_pos_as_xyz
  1  'x, y, z'
loop_
 _atom_site_type_symbol
 _atom_site_label
 _atom_site_symmetry_multiplicity
 _atom_site_fract_x
 _atom_site_fract_y
 _atom_site_fract_z
 _atom_site_occupancy
  Cs  Cs0  1  0.679819  0.679819  0.320181  1
  Cs  Cs1  1  0.320181  0.320181  0.679819  1
  Cs  Cs2  1  0.929819  0.929819  0.570181  1
  Cs  Cs3  1  0.570181  0.570181  0.929819  1
  Ti  Ti4  1  0.750000  0.750000  0.750000  1
  Ti  Ti5  1  0.500000  0.500000  0.500000  1
  Hg  Hg6  1  0.000000  0.000000  0.000000  1
  Hg  Hg7  1  0.250000  0.250000  0.250000  1
  Se  Se8  1  0.383590  0.007432  0.922792  1
  Se  Se9  1  0.686186  0.922792  0.007432  1
  Se  Se10  1  0.922792  0.686186  0.383590  1
  Se  Se11  1  0.007432  0.383590  0.686186  1
  Se  Se12  1  0.242568  0.866410  0.563814  1
  Se  Se13  1  0.563814  0.327208  0.242568  1
  Se  Se14  1  0.327208  0.563814  0.866410  1
  Se  Se15  1  0.866410  0.242568  0.327208  1
