# generated using pymatgen
data_MgNb3B4(PRu5)2
_symmetry_space_group_name_H-M   'P 1'
_cell_length_a   9.28655171
_cell_length_b   9.28655171
_cell_length_c   2.93671200
_cell_angle_alpha   90.00000000
_cell_angle_beta   90.00000000
_cell_angle_gamma   89.28511781
_symmetry_Int_Tables_number   1
_chemical_formula_structural   MgNb3B4(PRu5)2
_chemical_formula_sum   'Mg1 Nb3 B4 P2 Ru10'
_cell_volume   253.24245501
_cell_formula_units_Z   1
loop_
 _symmetry_equiv_pos_site_id
 _symmetry_equiv_pos_as_xyz
  1  'x, y, z'
loop_
 _atom_site_type_symbol
 _atom_site_label
 _atom_site_symmetry_multiplicity
 _atom_site_fract_x
 _atom_site_fract_y
 _atom_site_fract_z
 _atom_site_occupancy
  Mg  Mg0  1  0.822711  0.677289  0.000000  1
  Nb  Nb1  1  0.172565  0.327435  0.000000  1
  Nb  Nb2  1  0.325128  0.822960  0.000000  1
  Nb  Nb3  1  0.677040  0.174872  0.000000  1
  B  B4  1  0.627926  0.872074  0.000000  1
  B  B5  1  0.374851  0.125149  0.000000  1
  B  B6  1  0.122233  0.624298  0.000000  1
  B  B7  1  0.875702  0.377767  0.000000  1
  P  P8  1  0.502165  0.501090  0.000000  1
  P  P9  1  0.998910  0.997835  0.000000  1
  Ru  Ru10  1  0.560817  0.708990  0.500000  1
  Ru  Ru11  1  0.431552  0.290931  0.500000  1
  Ru  Ru12  1  0.076094  0.794733  0.500000  1
  Ru  Ru13  1  0.935774  0.207116  0.500000  1
  Ru  Ru14  1  0.292884  0.564226  0.500000  1
  Ru  Ru15  1  0.705267  0.423906  0.500000  1
  Ru  Ru16  1  0.209069  0.068448  0.500000  1
  Ru  Ru17  1  0.791010  0.939183  0.500000  1
  Ru  Ru18  1  0.500341  0.999659  0.500000  1
  Ru  Ru19  1  0.997961  0.502039  0.500000  1
