# generated using pymatgen
data_ErTh7(Nb3Si4)4
_symmetry_space_group_name_H-M   'P 1'
_cell_length_a   7.02498183
_cell_length_b   7.23628511
_cell_length_c   13.58556515
_cell_angle_alpha   90.14825372
_cell_angle_beta   89.85380917
_cell_angle_gamma   90.08363548
_symmetry_Int_Tables_number   1
_chemical_formula_structural   ErTh7(Nb3Si4)4
_chemical_formula_sum   'Er1 Th7 Nb12 Si16'
_cell_volume   690.61380974
_cell_formula_units_Z   1
loop_
 _symmetry_equiv_pos_site_id
 _symmetry_equiv_pos_as_xyz
  1  'x, y, z'
loop_
 _atom_site_type_symbol
 _atom_site_label
 _atom_site_symmetry_multiplicity
 _atom_site_fract_x
 _atom_site_fract_y
 _atom_site_fract_z
 _atom_site_occupancy
  Er  Er0  1  0.999436  0.828673  0.597172  1
  Th  Th1  1  0.501548  0.669149  0.595204  1
  Th  Th2  1  0.000750  0.830572  0.903746  1
  Th  Th3  1  0.500457  0.330611  0.095838  1
  Th  Th4  1  0.998529  0.170331  0.405806  1
  Th  Th5  1  0.498303  0.330426  0.406355  1
  Th  Th6  1  0.000246  0.169750  0.095915  1
  Th  Th7  1  0.500839  0.669840  0.902509  1
  Nb  Nb8  1  0.662321  0.172530  0.623830  1
  Nb  Nb9  1  0.162709  0.327419  0.873830  1
  Nb  Nb10  1  0.337378  0.827788  0.125148  1
  Nb  Nb11  1  0.835652  0.673513  0.376090  1
  Nb  Nb12  1  0.336273  0.827923  0.375726  1
  Nb  Nb13  1  0.836681  0.671907  0.125193  1
  Nb  Nb14  1  0.666073  0.170486  0.874004  1
  Nb  Nb15  1  0.164391  0.327611  0.624295  1
  Nb  Nb16  1  0.836206  0.491204  0.750236  1
  Nb  Nb17  1  0.336783  0.005136  0.748520  1
  Nb  Nb18  1  0.163219  0.507720  0.250694  1
  Nb  Nb19  1  0.663187  0.993536  0.251038  1
  Si  Si20  1  0.660984  0.957000  0.457962  1
  Si  Si21  1  0.160391  0.543384  0.043266  1
  Si  Si22  1  0.341066  0.044100  0.955260  1
  Si  Si23  1  0.844144  0.463147  0.545364  1
  Si  Si24  1  0.332728  0.037990  0.545090  1
  Si  Si25  1  0.839583  0.456096  0.955921  1
  Si  Si26  1  0.660100  0.956272  0.043461  1
  Si  Si27  1  0.157233  0.547167  0.458772  1
  Si  Si28  1  0.459134  0.367171  0.749346  1
  Si  Si29  1  0.960890  0.127985  0.746966  1
  Si  Si30  1  0.540728  0.631386  0.250931  1
  Si  Si31  1  0.040738  0.869179  0.250709  1
  Si  Si32  1  0.704616  0.883849  0.746503  1
  Si  Si33  1  0.196351  0.618444  0.747139  1
  Si  Si34  1  0.300075  0.115371  0.250875  1
  Si  Si35  1  0.800259  0.385331  0.251285  1
