# generated using pymatgen
data_Th2CoNiHg
_symmetry_space_group_name_H-M   'P 1'
_cell_length_a   7.60201400
_cell_length_b   7.59619500
_cell_length_c   3.67510400
_cell_angle_alpha   90.00000000
_cell_angle_beta   90.00000000
_cell_angle_gamma   90.00000000
_symmetry_Int_Tables_number   1
_chemical_formula_structural   Th2CoNiHg
_chemical_formula_sum   'Th4 Co2 Ni2 Hg2'
_cell_volume   212.22395483
_cell_formula_units_Z   2
loop_
 _symmetry_equiv_pos_site_id
 _symmetry_equiv_pos_as_xyz
  1  'x, y, z'
loop_
 _atom_site_type_symbol
 _atom_site_label
 _atom_site_symmetry_multiplicity
 _atom_site_fract_x
 _atom_site_fract_y
 _atom_site_fract_z
 _atom_site_occupancy
  Th  Th0  1  0.329602  0.840058  0.500000  1
  Th  Th1  1  0.829602  0.659942  0.500000  1
  Th  Th2  1  0.169961  0.321320  0.500000  1
  Th  Th3  1  0.669961  0.178680  0.500000  1
  Co  Co4  1  0.377175  0.124890  0.000000  1
  Co  Co5  1  0.877175  0.375110  0.000000  1
  Ni  Ni6  1  0.128464  0.625021  0.000000  1
  Ni  Ni7  1  0.628464  0.874979  0.000000  1
  Hg  Hg8  1  0.994799  0.995609  0.000000  1
  Hg  Hg9  1  0.494799  0.504391  0.000000  1
