# generated using pymatgen
data_DyU5(Ni3Sb4)2
_symmetry_space_group_name_H-M   'P 1'
_cell_length_a   8.14262361
_cell_length_b   8.14262326
_cell_length_c   8.14262436
_cell_angle_alpha   109.53702847
_cell_angle_beta   109.33967498
_cell_angle_gamma   109.53703824
_symmetry_Int_Tables_number   1
_chemical_formula_structural   DyU5(Ni3Sb4)2
_chemical_formula_sum   'Dy1 U5 Ni6 Sb8'
_cell_volume   415.59421743
_cell_formula_units_Z   1
loop_
 _symmetry_equiv_pos_site_id
 _symmetry_equiv_pos_as_xyz
  1  'x, y, z'
loop_
 _atom_site_type_symbol
 _atom_site_label
 _atom_site_symmetry_multiplicity
 _atom_site_fract_x
 _atom_site_fract_y
 _atom_site_fract_z
 _atom_site_occupancy
  Dy  Dy0  1  0.875000  0.250000  0.125000  1
  U  U1  1  0.625000  0.750000  0.375000  1
  U  U2  1  0.250080  0.123426  0.877215  1
  U  U3  1  0.753789  0.376574  0.626654  1
  U  U4  1  0.122785  0.872865  0.246211  1
  U  U5  1  0.373346  0.627135  0.749920  1
  Ni  Ni6  1  0.375000  0.250000  0.625000  1
  Ni  Ni7  1  0.125000  0.750000  0.875000  1
  Ni  Ni8  1  0.257943  0.630347  0.378614  1
  Ni  Ni9  1  0.748267  0.869653  0.127596  1
  Ni  Ni10  1  0.621386  0.379329  0.251733  1
  Ni  Ni11  1  0.872404  0.120671  0.742057  1
  Sb  Sb12  1  0.663892  0.498561  0.998466  1
  Sb  Sb13  1  0.499905  0.001439  0.665331  1
  Sb  Sb14  1  0.998628  0.663058  0.496834  1
  Sb  Sb15  1  0.833776  0.836942  0.835570  1
  Sb  Sb16  1  0.503166  0.001793  0.166224  1
  Sb  Sb17  1  0.164430  0.498207  0.001372  1
  Sb  Sb18  1  0.001534  0.165426  0.500095  1
  Sb  Sb19  1  0.334669  0.334574  0.336108  1
