# generated using pymatgen
data_Pr6EuCoBr12
_symmetry_space_group_name_H-M   'P 1'
_cell_length_a   9.69673353
_cell_length_b   9.69673418
_cell_length_c   9.69673471
_cell_angle_alpha   106.94703549
_cell_angle_beta   106.94702317
_cell_angle_gamma   106.94702026
_symmetry_Int_Tables_number   1
_chemical_formula_structural   Pr6EuCoBr12
_chemical_formula_sum   'Pr6 Eu1 Co1 Br12'
_cell_volume   760.40992977
_cell_formula_units_Z   1
loop_
 _symmetry_equiv_pos_site_id
 _symmetry_equiv_pos_as_xyz
  1  'x, y, z'
loop_
 _atom_site_type_symbol
 _atom_site_label
 _atom_site_symmetry_multiplicity
 _atom_site_fract_x
 _atom_site_fract_y
 _atom_site_fract_z
 _atom_site_occupancy
  Pr  Pr0  1  0.979084  0.899661  0.693504  1
  Pr  Pr1  1  0.020916  0.100339  0.306496  1
  Pr  Pr2  1  0.100339  0.306496  0.020916  1
  Pr  Pr3  1  0.306496  0.020916  0.100339  1
  Pr  Pr4  1  0.899661  0.693504  0.979084  1
  Pr  Pr5  1  0.693504  0.979084  0.899661  1
  Eu  Eu6  1  0.500000  0.500000  0.500000  1
  Co  Co7  1  0.000000  0.000000  0.000000  1
  Br  Br8  1  0.551480  0.629843  0.844509  1
  Br  Br9  1  0.448520  0.370157  0.155491  1
  Br  Br10  1  0.316584  0.929700  0.782509  1
  Br  Br11  1  0.370157  0.155491  0.448520  1
  Br  Br12  1  0.929700  0.782509  0.316584  1
  Br  Br13  1  0.683416  0.070300  0.217491  1
  Br  Br14  1  0.070300  0.217491  0.683416  1
  Br  Br15  1  0.782509  0.316584  0.929700  1
  Br  Br16  1  0.217491  0.683416  0.070300  1
  Br  Br17  1  0.844509  0.551480  0.629843  1
  Br  Br18  1  0.155491  0.448520  0.370157  1
  Br  Br19  1  0.629843  0.844509  0.551480  1
