# generated using pymatgen
data_TbErAl20RuRh3
_symmetry_space_group_name_H-M   'P 1'
_cell_length_a   6.84135185
_cell_length_b   6.83872096
_cell_length_c   9.14851760
_cell_angle_alpha   90.12899002
_cell_angle_beta   90.04755912
_cell_angle_gamma   97.09361350
_symmetry_Int_Tables_number   1
_chemical_formula_structural   TbErAl20RuRh3
_chemical_formula_sum   'Tb1 Er1 Al20 Ru1 Rh3'
_cell_volume   424.74586815
_cell_formula_units_Z   1
loop_
 _symmetry_equiv_pos_site_id
 _symmetry_equiv_pos_as_xyz
  1  'x, y, z'
loop_
 _atom_site_type_symbol
 _atom_site_label
 _atom_site_symmetry_multiplicity
 _atom_site_fract_x
 _atom_site_fract_y
 _atom_site_fract_z
 _atom_site_occupancy
  Tb  Tb0  1  0.130731  0.872186  0.249777  1
  Er  Er1  1  0.868705  0.128170  0.750056  1
  Al  Al2  1  0.621218  0.375963  0.548054  1
  Al  Al3  1  0.379039  0.623830  0.452270  1
  Al  Al4  1  0.378463  0.622199  0.049296  1
  Al  Al5  1  0.621783  0.377570  0.950383  1
  Al  Al6  1  0.221242  0.219970  0.499535  1
  Al  Al7  1  0.778612  0.780144  0.501010  1
  Al  Al8  1  0.777421  0.777985  0.999609  1
  Al  Al9  1  0.222436  0.222161  0.999819  1
  Al  Al10  1  0.844936  0.155577  0.103189  1
  Al  Al11  1  0.154754  0.844728  0.896399  1
  Al  Al12  1  0.155586  0.846038  0.602364  1
  Al  Al13  1  0.844160  0.154292  0.398058  1
  Al  Al14  1  0.856321  0.589659  0.749609  1
  Al  Al15  1  0.143446  0.409572  0.250407  1
  Al  Al16  1  0.410419  0.142845  0.749136  1
  Al  Al17  1  0.590322  0.857363  0.250905  1
  Al  Al18  1  0.224707  0.479915  0.749954  1
  Al  Al19  1  0.774993  0.519728  0.250049  1
  Al  Al20  1  0.519462  0.776688  0.746809  1
  Al  Al21  1  0.480923  0.223611  0.253218  1
  Ru  Ru22  1  0.500193  0.000048  0.500391  1
  Rh  Rh23  1  0.999994  0.499906  0.500280  1
  Rh  Rh24  1  0.000021  0.499871  0.999726  1
  Rh  Rh25  1  0.500112  0.999981  0.999696  1
