# generated using pymatgen
data_AgBi4(AuO6)2
_symmetry_space_group_name_H-M   'P 1'
_cell_length_a   7.25262787
_cell_length_b   7.25262764
_cell_length_c   7.25262730
_cell_angle_alpha   109.16909464
_cell_angle_beta   108.94952420
_cell_angle_gamma   110.29829898
_symmetry_Int_Tables_number   1
_chemical_formula_structural   AgBi4(AuO6)2
_chemical_formula_sum   'Ag1 Bi4 Au2 O12'
_cell_volume   293.62610399
_cell_formula_units_Z   1
loop_
 _symmetry_equiv_pos_site_id
 _symmetry_equiv_pos_as_xyz
  1  'x, y, z'
loop_
 _atom_site_type_symbol
 _atom_site_label
 _atom_site_symmetry_multiplicity
 _atom_site_fract_x
 _atom_site_fract_y
 _atom_site_fract_z
 _atom_site_occupancy
  Ag  Ag0  1  0.500000  0.000000  0.500000  1
  Bi  Bi1  1  0.500000  0.500000  0.500000  1
  Bi  Bi2  1  0.000000  0.500000  0.000000  1
  Bi  Bi3  1  0.000000  0.000000  0.500000  1
  Bi  Bi4  1  0.500000  0.000000  0.000000  1
  Au  Au5  1  0.500000  0.500000  0.000000  1
  Au  Au6  1  0.000000  0.500000  0.500000  1
  O  O7  1  0.324310  0.827600  0.151911  1
  O  O8  1  0.675690  0.172400  0.848089  1
  O  O9  1  0.675690  0.827600  0.503291  1
  O  O10  1  0.843946  0.674624  0.169323  1
  O  O11  1  0.826338  0.156050  0.329711  1
  O  O12  1  0.173662  0.503372  0.329711  1
  O  O13  1  0.494698  0.325376  0.169323  1
  O  O14  1  0.173662  0.843950  0.670289  1
  O  O15  1  0.324310  0.172400  0.496709  1
  O  O16  1  0.156054  0.325376  0.830677  1
  O  O17  1  0.826338  0.496628  0.670289  1
  O  O18  1  0.505302  0.674624  0.830677  1
