# generated using pymatgen
data_Dy3Er(GeRh2)8
_symmetry_space_group_name_H-M   'P 1'
_cell_length_a   4.22323300
_cell_length_b   9.17923973
_cell_length_c   11.49755391
_cell_angle_alpha   90.04568504
_cell_angle_beta   90.00000000
_cell_angle_gamma   90.00000000
_symmetry_Int_Tables_number   1
_chemical_formula_structural   Dy3Er(GeRh2)8
_chemical_formula_sum   'Dy3 Er1 Ge8 Rh16'
_cell_volume   445.71481678
_cell_formula_units_Z   1
loop_
 _symmetry_equiv_pos_site_id
 _symmetry_equiv_pos_as_xyz
  1  'x, y, z'
loop_
 _atom_site_type_symbol
 _atom_site_label
 _atom_site_symmetry_multiplicity
 _atom_site_fract_x
 _atom_site_fract_y
 _atom_site_fract_z
 _atom_site_occupancy
  Dy  Dy0  1  0.250000  0.147854  0.825539  1
  Dy  Dy1  1  0.250000  0.352161  0.325554  1
  Dy  Dy2  1  0.750000  0.852124  0.174452  1
  Er  Er3  1  0.750000  0.647807  0.674520  1
  Ge  Ge4  1  0.250000  0.414243  0.638604  1
  Ge  Ge5  1  0.250000  0.086183  0.138548  1
  Ge  Ge6  1  0.750000  0.586159  0.361486  1
  Ge  Ge7  1  0.750000  0.913671  0.861345  1
  Ge  Ge8  1  0.250000  0.618111  0.059501  1
  Ge  Ge9  1  0.250000  0.881834  0.559555  1
  Ge  Ge10  1  0.750000  0.381935  0.940517  1
  Ge  Ge11  1  0.750000  0.118070  0.440534  1
  Rh  Rh12  1  0.250000  0.615646  0.499100  1
  Rh  Rh13  1  0.250000  0.884597  0.998313  1
  Rh  Rh14  1  0.750000  0.384858  0.501684  1
  Rh  Rh15  1  0.750000  0.115396  0.001566  1
  Rh  Rh16  1  0.250000  0.690728  0.269197  1
  Rh  Rh17  1  0.250000  0.808472  0.768627  1
  Rh  Rh18  1  0.750000  0.309459  0.730835  1
  Rh  Rh19  1  0.750000  0.190821  0.230917  1
  Rh  Rh20  1  0.250000  0.170919  0.560629  1
  Rh  Rh21  1  0.250000  0.329191  0.060456  1
  Rh  Rh22  1  0.750000  0.829050  0.439629  1
  Rh  Rh23  1  0.750000  0.670746  0.939141  1
  Rh  Rh24  1  0.250000  0.003745  0.344506  1
  Rh  Rh25  1  0.250000  0.496449  0.844275  1
  Rh  Rh26  1  0.750000  0.996012  0.655525  1
  Rh  Rh27  1  0.750000  0.503759  0.155448  1
