# generated using pymatgen
data_Cs8Mo6PbO24
_symmetry_space_group_name_H-M   'P 1'
_cell_length_a   11.33802995
_cell_length_b   11.33802961
_cell_length_c   8.53612608
_cell_angle_alpha   80.83822284
_cell_angle_beta   80.83822327
_cell_angle_gamma   123.57517494
_symmetry_Int_Tables_number   1
_chemical_formula_structural   Cs8Mo6PbO24
_chemical_formula_sum   'Cs8 Mo6 Pb1 O24'
_cell_volume   860.83370069
_cell_formula_units_Z   1
loop_
 _symmetry_equiv_pos_site_id
 _symmetry_equiv_pos_as_xyz
  1  'x, y, z'
loop_
 _atom_site_type_symbol
 _atom_site_label
 _atom_site_symmetry_multiplicity
 _atom_site_fract_x
 _atom_site_fract_y
 _atom_site_fract_z
 _atom_site_occupancy
  Cs  Cs0  1  0.214337  0.214337  0.360037  1
  Cs  Cs1  1  0.785663  0.785663  0.639963  1
  Cs  Cs2  1  0.664524  0.335476  0.500000  1
  Cs  Cs3  1  0.335476  0.664524  0.500000  1
  Cs  Cs4  1  0.867917  0.522612  0.888823  1
  Cs  Cs5  1  0.522612  0.867917  0.888823  1
  Cs  Cs6  1  0.132083  0.477388  0.111177  1
  Cs  Cs7  1  0.477388  0.132083  0.111177  1
  Mo  Mo8  1  0.949160  0.257450  0.717612  1
  Mo  Mo9  1  0.257450  0.949160  0.717612  1
  Mo  Mo10  1  0.050840  0.742550  0.282388  1
  Mo  Mo11  1  0.742550  0.050840  0.282388  1
  Mo  Mo12  1  0.378783  0.378783  0.798488  1
  Mo  Mo13  1  0.621217  0.621217  0.201512  1
  Pb  Pb14  1  0.000000  0.000000  0.000000  1
  O  O15  1  0.937043  0.087608  0.807256  1
  O  O16  1  0.087608  0.937043  0.807256  1
  O  O17  1  0.062957  0.912392  0.192744  1
  O  O18  1  0.912392  0.062957  0.192744  1
  O  O19  1  0.769431  0.217095  0.769157  1
  O  O20  1  0.217095  0.769431  0.769157  1
  O  O21  1  0.230569  0.782905  0.230843  1
  O  O22  1  0.782905  0.230569  0.230843  1
  O  O23  1  0.059630  0.403682  0.798720  1
  O  O24  1  0.403682  0.059630  0.798720  1
  O  O25  1  0.940370  0.596318  0.201280  1
  O  O26  1  0.596318  0.940370  0.201280  1
  O  O27  1  0.029923  0.321553  0.497454  1
  O  O28  1  0.321553  0.029923  0.497454  1
  O  O29  1  0.970077  0.678447  0.502546  1
  O  O30  1  0.678447  0.970077  0.502546  1
  O  O31  1  0.401937  0.545880  0.810435  1
  O  O32  1  0.545880  0.401937  0.810435  1
  O  O33  1  0.598063  0.454120  0.189565  1
  O  O34  1  0.454120  0.598063  0.189565  1
  O  O35  1  0.214297  0.214297  0.972730  1
  O  O36  1  0.785703  0.785703  0.027270  1
  O  O37  1  0.350273  0.350273  0.606201  1
  O  O38  1  0.649727  0.649727  0.393799  1
