# generated using pymatgen
data_Sc4Co9Mo4P12Rh7
_symmetry_space_group_name_H-M   'P 1'
_cell_length_a   3.74944700
_cell_length_b   10.57828409
_cell_length_c   12.10862879
_cell_angle_alpha   90.05750875
_cell_angle_beta   90.00000000
_cell_angle_gamma   90.00000000
_symmetry_Int_Tables_number   1
_chemical_formula_structural   Sc4Co9Mo4P12Rh7
_chemical_formula_sum   'Sc4 Co9 Mo4 P12 Rh7'
_cell_volume   480.26085764
_cell_formula_units_Z   1
loop_
 _symmetry_equiv_pos_site_id
 _symmetry_equiv_pos_as_xyz
  1  'x, y, z'
loop_
 _atom_site_type_symbol
 _atom_site_label
 _atom_site_symmetry_multiplicity
 _atom_site_fract_x
 _atom_site_fract_y
 _atom_site_fract_z
 _atom_site_occupancy
  Sc  Sc0  1  0.250000  0.581883  0.708784  1
  Sc  Sc1  1  0.250000  0.913680  0.211308  1
  Sc  Sc2  1  0.750000  0.420606  0.290947  1
  Sc  Sc3  1  0.750000  0.081346  0.790120  1
  Co  Co4  1  0.750000  0.724131  0.319637  1
  Co  Co5  1  0.250000  0.887719  0.695180  1
  Co  Co6  1  0.250000  0.616741  0.198297  1
  Co  Co7  1  0.750000  0.107459  0.303040  1
  Co  Co8  1  0.750000  0.389929  0.803046  1
  Co  Co9  1  0.250000  0.465714  0.934678  1
  Co  Co10  1  0.250000  0.033903  0.432887  1
  Co  Co11  1  0.750000  0.535639  0.068324  1
  Co  Co12  1  0.750000  0.964627  0.564084  1
  Mo  Mo13  1  0.250000  0.707816  0.988310  1
  Mo  Mo14  1  0.250000  0.793604  0.482669  1
  Mo  Mo15  1  0.750000  0.293014  0.013215  1
  Mo  Mo16  1  0.750000  0.207273  0.512051  1
  P  P17  1  0.250000  0.429886  0.115922  1
  P  P18  1  0.250000  0.071687  0.613592  1
  P  P19  1  0.750000  0.572669  0.886750  1
  P  P20  1  0.750000  0.919898  0.382194  1
  P  P21  1  0.250000  0.270619  0.869767  1
  P  P22  1  0.250000  0.229328  0.369465  1
  P  P23  1  0.750000  0.729364  0.138981  1
  P  P24  1  0.750000  0.770482  0.629795  1
  P  P25  1  0.250000  0.602134  0.379632  1
  P  P26  1  0.250000  0.902183  0.882780  1
  P  P27  1  0.750000  0.404010  0.616052  1
  P  P28  1  0.750000  0.096821  0.117810  1
  Rh  Rh29  1  0.250000  0.407850  0.479086  1
  Rh  Rh30  1  0.250000  0.093055  0.980657  1
  Rh  Rh31  1  0.750000  0.595845  0.516108  1
  Rh  Rh32  1  0.750000  0.904376  0.022433  1
  Rh  Rh33  1  0.250000  0.226906  0.182510  1
  Rh  Rh34  1  0.250000  0.273923  0.681796  1
  Rh  Rh35  1  0.750000  0.773881  0.818092  1
