# generated using pymatgen
data_Tb2Ho14CdAg3Rh4
_symmetry_space_group_name_H-M   'P 1'
_cell_length_a   9.53741985
_cell_length_b   9.52163560
_cell_length_c   9.50552000
_cell_angle_alpha   60.05597249
_cell_angle_beta   60.11058041
_cell_angle_gamma   60.13251934
_symmetry_Int_Tables_number   1
_chemical_formula_structural   Tb2Ho14CdAg3Rh4
_chemical_formula_sum   'Tb2 Ho14 Cd1 Ag3 Rh4'
_cell_volume   611.76244770
_cell_formula_units_Z   1
loop_
 _symmetry_equiv_pos_site_id
 _symmetry_equiv_pos_as_xyz
  1  'x, y, z'
loop_
 _atom_site_type_symbol
 _atom_site_label
 _atom_site_symmetry_multiplicity
 _atom_site_fract_x
 _atom_site_fract_y
 _atom_site_fract_z
 _atom_site_occupancy
  Tb  Tb0  1  0.935275  0.936379  0.564173  1
  Tb  Tb1  1  0.563062  0.567001  0.934969  1
  Ho  Ho2  1  0.688380  0.688131  0.311744  1
  Ho  Ho3  1  0.146676  0.557815  0.147754  1
  Ho  Ho4  1  0.687907  0.313159  0.687085  1
  Ho  Ho5  1  0.148195  0.147827  0.148201  1
  Ho  Ho6  1  0.555521  0.147641  0.148419  1
  Ho  Ho7  1  0.687907  0.313159  0.311849  1
  Ho  Ho8  1  0.148195  0.147827  0.555776  1
  Ho  Ho9  1  0.312708  0.687970  0.312258  1
  Ho  Ho10  1  0.312708  0.687970  0.687063  1
  Ho  Ho11  1  0.935784  0.566483  0.561945  1
  Ho  Ho12  1  0.935784  0.566483  0.935788  1
  Ho  Ho13  1  0.563693  0.936623  0.563591  1
  Ho  Ho14  1  0.563693  0.936623  0.936093  1
  Ho  Ho15  1  0.312192  0.313062  0.687373  1
  Cd  Cd16  1  0.920624  0.237481  0.920948  1
  Ag  Ag17  1  0.917349  0.916090  0.247966  1
  Ag  Ag18  1  0.247705  0.917096  0.917600  1
  Ag  Ag19  1  0.917349  0.916090  0.918596  1
  Rh  Rh20  1  0.356195  0.356484  0.929302  1
  Rh  Rh21  1  0.356783  0.929461  0.356877  1
  Rh  Rh22  1  0.930118  0.356656  0.356613  1
  Rh  Rh23  1  0.356195  0.356484  0.358018  1
