# generated using pymatgen
data_Pr4Y2IrBr10
_symmetry_space_group_name_H-M   'P 1'
_cell_length_a   7.56370376
_cell_length_b   9.54589966
_cell_length_c   9.66374992
_cell_angle_alpha   108.46411087
_cell_angle_beta   94.87982484
_cell_angle_gamma   105.05716737
_symmetry_Int_Tables_number   1
_chemical_formula_structural   Pr4Y2IrBr10
_chemical_formula_sum   'Pr4 Y2 Ir1 Br10'
_cell_volume   628.34816388
_cell_formula_units_Z   1
loop_
 _symmetry_equiv_pos_site_id
 _symmetry_equiv_pos_as_xyz
  1  'x, y, z'
loop_
 _atom_site_type_symbol
 _atom_site_label
 _atom_site_symmetry_multiplicity
 _atom_site_fract_x
 _atom_site_fract_y
 _atom_site_fract_z
 _atom_site_occupancy
  Pr  Pr0  1  0.468146  0.795284  0.595257  1
  Pr  Pr1  1  0.531854  0.204716  0.404743  1
  Pr  Pr2  1  0.364421  0.449967  0.750406  1
  Pr  Pr3  1  0.635579  0.550033  0.249594  1
  Y  Y4  1  0.855558  0.628800  0.672376  1
  Y  Y5  1  0.144442  0.371200  0.327624  1
  Ir  Ir6  1  0.500000  0.500000  0.500000  1
  Br  Br7  1  0.413383  0.131781  0.671479  1
  Br  Br8  1  0.586617  0.868219  0.328521  1
  Br  Br9  1  0.050247  0.673926  0.420203  1
  Br  Br10  1  0.949753  0.326074  0.579797  1
  Br  Br11  1  0.254330  0.746575  0.839356  1
  Br  Br12  1  0.745670  0.253425  0.160644  1
  Br  Br13  1  0.251714  0.418535  0.059745  1
  Br  Br14  1  0.748286  0.581465  0.940255  1
  Br  Br15  1  0.853243  0.937149  0.765575  1
  Br  Br16  1  0.146757  0.062851  0.234425  1
