# generated using pymatgen
data_Zr2Co8Tc4P7
_symmetry_space_group_name_H-M   'P 1'
_cell_length_a   9.09331559
_cell_length_b   9.02110156
_cell_length_c   3.70227900
_cell_angle_alpha   90.00000000
_cell_angle_beta   90.00000000
_cell_angle_gamma   120.14824150
_symmetry_Int_Tables_number   1
_chemical_formula_structural   Zr2Co8Tc4P7
_chemical_formula_sum   'Zr2 Co8 Tc4 P7'
_cell_volume   262.62189514
_cell_formula_units_Z   1
loop_
 _symmetry_equiv_pos_site_id
 _symmetry_equiv_pos_as_xyz
  1  'x, y, z'
loop_
 _atom_site_type_symbol
 _atom_site_label
 _atom_site_symmetry_multiplicity
 _atom_site_fract_x
 _atom_site_fract_y
 _atom_site_fract_z
 _atom_site_occupancy
  Zr  Zr0  1  0.997942  0.998822  0.000000  1
  Zr  Zr1  1  0.332077  0.668832  0.500000  1
  Co  Co2  1  0.097302  0.403055  0.000000  1
  Co  Co3  1  0.297144  0.896275  0.000000  1
  Co  Co4  1  0.601518  0.703768  0.000000  1
  Co  Co5  1  0.830259  0.620200  0.000000  1
  Co  Co6  1  0.785595  0.170115  0.000000  1
  Co  Co7  1  0.391973  0.211291  0.000000  1
  Co  Co8  1  0.054110  0.773570  0.500000  1
  Co  Co9  1  0.717139  0.942610  0.500000  1
  Tc  Tc10  1  0.225794  0.280787  0.500000  1
  Tc  Tc11  1  0.884559  0.430262  0.500000  1
  Tc  Tc12  1  0.543519  0.109677  0.500000  1
  Tc  Tc13  1  0.577577  0.457584  0.500000  1
  P  P14  1  0.080405  0.634815  0.000000  1
  P  P15  1  0.551252  0.917306  0.000000  1
  P  P16  1  0.368915  0.452982  0.000000  1
  P  P17  1  0.790096  0.745377  0.500000  1
  P  P18  1  0.945374  0.208162  0.500000  1
  P  P19  1  0.258826  0.040080  0.500000  1
  P  P20  1  0.668626  0.334432  0.000000  1
