# generated using pymatgen
data_Lu4Ga4Ru3Rh
_symmetry_space_group_name_H-M   'P 1'
_cell_length_a   4.25708500
_cell_length_b   6.76156375
_cell_length_c   7.68072300
_cell_angle_alpha   89.79507173
_cell_angle_beta   90.00000000
_cell_angle_gamma   90.00000000
_symmetry_Int_Tables_number   1
_chemical_formula_structural   Lu4Ga4Ru3Rh
_chemical_formula_sum   'Lu4 Ga4 Ru3 Rh1'
_cell_volume   221.08475345
_cell_formula_units_Z   1
loop_
 _symmetry_equiv_pos_site_id
 _symmetry_equiv_pos_as_xyz
  1  'x, y, z'
loop_
 _atom_site_type_symbol
 _atom_site_label
 _atom_site_symmetry_multiplicity
 _atom_site_fract_x
 _atom_site_fract_y
 _atom_site_fract_z
 _atom_site_occupancy
  Lu  Lu0  1  0.250000  0.979733  0.310477  1
  Lu  Lu1  1  0.250000  0.482881  0.187724  1
  Lu  Lu2  1  0.750000  0.017800  0.689562  1
  Lu  Lu3  1  0.750000  0.518618  0.811650  1
  Ga  Ga4  1  0.250000  0.337960  0.573387  1
  Ga  Ga5  1  0.250000  0.835040  0.927317  1
  Ga  Ga6  1  0.750000  0.665588  0.428080  1
  Ga  Ga7  1  0.750000  0.164864  0.071807  1
  Ru  Ru8  1  0.250000  0.223402  0.892561  1
  Ru  Ru9  1  0.250000  0.726250  0.607179  1
  Ru  Ru10  1  0.750000  0.774086  0.107019  1
  Rh  Rh11  1  0.750000  0.273779  0.393238  1
