# generated using pymatgen
data_Tb16Cd2Co3Hg2Pd
_symmetry_space_group_name_H-M   'P 1'
_cell_length_a   9.56830070
_cell_length_b   9.56880805
_cell_length_c   9.57819488
_cell_angle_alpha   60.05268873
_cell_angle_beta   60.04714239
_cell_angle_gamma   60.01475321
_symmetry_Int_Tables_number   1
_chemical_formula_structural   Tb16Cd2Co3Hg2Pd
_chemical_formula_sum   'Tb16 Cd2 Co3 Hg2 Pd1'
_cell_volume   620.63612601
_cell_formula_units_Z   1
loop_
 _symmetry_equiv_pos_site_id
 _symmetry_equiv_pos_as_xyz
  1  'x, y, z'
loop_
 _atom_site_type_symbol
 _atom_site_label
 _atom_site_symmetry_multiplicity
 _atom_site_fract_x
 _atom_site_fract_y
 _atom_site_fract_z
 _atom_site_occupancy
  Tb  Tb0  1  0.438544  0.438605  0.049982  1
  Tb  Tb1  1  0.594782  0.594660  0.594337  1
  Tb  Tb2  1  0.187680  0.814189  0.814466  1
  Tb  Tb3  1  0.060049  0.060144  0.437364  1
  Tb  Tb4  1  0.436100  0.060734  0.061000  1
  Tb  Tb5  1  0.814206  0.187651  0.814523  1
  Tb  Tb6  1  0.438346  0.049594  0.439804  1
  Tb  Tb7  1  0.605832  0.201244  0.605450  1
  Tb  Tb8  1  0.813866  0.813894  0.189137  1
  Tb  Tb9  1  0.201208  0.605763  0.605495  1
  Tb  Tb10  1  0.812496  0.187091  0.188951  1
  Tb  Tb11  1  0.049524  0.438373  0.439760  1
  Tb  Tb12  1  0.187135  0.812463  0.188991  1
  Tb  Tb13  1  0.605339  0.605233  0.202858  1
  Tb  Tb14  1  0.187807  0.187812  0.812779  1
  Tb  Tb15  1  0.060684  0.436129  0.061037  1
  Cd  Cd16  1  0.508922  0.829025  0.829485  1
  Cd  Cd17  1  0.829014  0.508907  0.829496  1
  Co  Co18  1  0.826216  0.391438  0.391514  1
  Co  Co19  1  0.391448  0.826220  0.391500  1
  Co  Co20  1  0.391376  0.391355  0.826194  1
  Hg  Hg21  1  0.832881  0.832900  0.496809  1
  Hg  Hg22  1  0.833972  0.833997  0.835951  1
  Pd  Pd23  1  0.392572  0.392579  0.393115  1
