# generated using pymatgen
data_Tb5Dy3Re(TcB8)3
_symmetry_space_group_name_H-M   'P 1'
_cell_length_a   3.69981100
_cell_length_b   9.18767302
_cell_length_c   11.57986802
_cell_angle_alpha   90.03063261
_cell_angle_beta   90.00000000
_cell_angle_gamma   90.00000000
_symmetry_Int_Tables_number   1
_chemical_formula_structural   Tb5Dy3Re(TcB8)3
_chemical_formula_sum   'Tb5 Dy3 Re1 Tc3 B24'
_cell_volume   393.63038725
_cell_formula_units_Z   1
loop_
 _symmetry_equiv_pos_site_id
 _symmetry_equiv_pos_as_xyz
  1  'x, y, z'
loop_
 _atom_site_type_symbol
 _atom_site_label
 _atom_site_symmetry_multiplicity
 _atom_site_fract_x
 _atom_site_fract_y
 _atom_site_fract_z
 _atom_site_occupancy
  Tb  Tb0  1  0.000000  0.324263  0.414095  1
  Tb  Tb1  1  0.000000  0.676087  0.585978  1
  Tb  Tb2  1  0.000000  0.823915  0.085950  1
  Tb  Tb3  1  0.000000  0.176234  0.914195  1
  Tb  Tb4  1  0.000000  0.942575  0.369041  1
  Dy  Dy5  1  0.000000  0.058065  0.630185  1
  Dy  Dy6  1  0.000000  0.442498  0.131031  1
  Dy  Dy7  1  0.000000  0.556370  0.869509  1
  Re  Re8  1  0.000000  0.861431  0.820608  1
  Tc  Tc9  1  0.000000  0.638435  0.320502  1
  Tc  Tc10  1  0.000000  0.361395  0.679460  1
  Tc  Tc11  1  0.000000  0.138879  0.179413  1
  B  B12  1  0.500000  0.553658  0.432641  1
  B  B13  1  0.500000  0.446542  0.567459  1
  B  B14  1  0.500000  0.053637  0.067466  1
  B  B15  1  0.500000  0.946576  0.932781  1
  B  B16  1  0.500000  0.748392  0.418109  1
  B  B17  1  0.500000  0.251677  0.581767  1
  B  B18  1  0.500000  0.248588  0.081908  1
  B  B19  1  0.500000  0.750986  0.918284  1
  B  B20  1  0.500000  0.791157  0.265304  1
  B  B21  1  0.500000  0.208551  0.734446  1
  B  B22  1  0.500000  0.291483  0.234703  1
  B  B23  1  0.500000  0.708229  0.765484  1
  B  B24  1  0.500000  0.630629  0.185933  1
  B  B25  1  0.500000  0.369034  0.814053  1
  B  B26  1  0.500000  0.131011  0.313978  1
  B  B27  1  0.500000  0.869459  0.685754  1
  B  B28  1  0.500000  0.982966  0.211452  1
  B  B29  1  0.500000  0.017521  0.788094  1
  B  B30  1  0.500000  0.482781  0.288356  1
  B  B31  1  0.500000  0.517128  0.711815  1
  B  B32  1  0.500000  0.599863  0.028064  1
  B  B33  1  0.500000  0.399471  0.972195  1
  B  B34  1  0.500000  0.100540  0.471889  1
  B  B35  1  0.500000  0.899973  0.528097  1
