# generated using pymatgen
data_TiAl7(TcPd)4
_symmetry_space_group_name_H-M   'P 1'
_cell_length_a   6.00909935
_cell_length_b   6.00913938
_cell_length_c   6.37545800
_cell_angle_alpha   89.99999101
_cell_angle_beta   90.00000003
_cell_angle_gamma   90.38185056
_symmetry_Int_Tables_number   1
_chemical_formula_structural   TiAl7(TcPd)4
_chemical_formula_sum   'Ti1 Al7 Tc4 Pd4'
_cell_volume   230.20958696
_cell_formula_units_Z   1
loop_
 _symmetry_equiv_pos_site_id
 _symmetry_equiv_pos_as_xyz
  1  'x, y, z'
loop_
 _atom_site_type_symbol
 _atom_site_label
 _atom_site_symmetry_multiplicity
 _atom_site_fract_x
 _atom_site_fract_y
 _atom_site_fract_z
 _atom_site_occupancy
  Ti  Ti0  1  0.999959  0.499960  0.750020  1
  Al  Al1  1  0.000046  0.999961  0.249978  1
  Al  Al2  1  0.000017  0.500018  0.249977  1
  Al  Al3  1  0.499989  0.999990  0.250011  1
  Al  Al4  1  0.499961  0.500043  0.250009  1
  Al  Al5  1  0.499997  0.999991  0.749993  1
  Al  Al6  1  0.499980  0.500034  0.749989  1
  Al  Al7  1  0.000032  0.999978  0.750020  1
  Tc  Tc8  1  0.749025  0.249035  0.001651  1
  Tc  Tc9  1  0.250971  0.750961  0.001622  1
  Tc  Tc10  1  0.250955  0.750965  0.498379  1
  Tc  Tc11  1  0.749038  0.249031  0.498351  1
  Pd  Pd12  1  0.252119  0.247907  0.002180  1
  Pd  Pd13  1  0.747894  0.752109  0.002183  1
  Pd  Pd14  1  0.252092  0.247910  0.497819  1
  Pd  Pd15  1  0.747921  0.752106  0.497816  1
