# generated using pymatgen
data_ScNb8GeSe16
_symmetry_space_group_name_H-M   'P 1'
_cell_length_a   7.03117500
_cell_length_b   7.03117597
_cell_length_c   13.92356100
_cell_angle_alpha   90.00000000
_cell_angle_beta   90.00000000
_cell_angle_gamma   120.00000014
_symmetry_Int_Tables_number   1
_chemical_formula_structural   ScNb8GeSe16
_chemical_formula_sum   'Sc1 Nb8 Ge1 Se16'
_cell_volume   596.12430267
_cell_formula_units_Z   1
loop_
 _symmetry_equiv_pos_site_id
 _symmetry_equiv_pos_as_xyz
  1  'x, y, z'
loop_
 _atom_site_type_symbol
 _atom_site_label
 _atom_site_symmetry_multiplicity
 _atom_site_fract_x
 _atom_site_fract_y
 _atom_site_fract_z
 _atom_site_occupancy
  Sc  Sc0  1  0.000000  0.000000  0.500000  1
  Nb  Nb1  1  0.000000  0.000000  0.258870  1
  Nb  Nb2  1  0.000000  0.000000  0.741130  1
  Nb  Nb3  1  0.505958  0.011914  0.257102  1
  Nb  Nb4  1  0.494042  0.988086  0.742898  1
  Nb  Nb5  1  0.988086  0.494042  0.257102  1
  Nb  Nb6  1  0.011914  0.505958  0.742898  1
  Nb  Nb7  1  0.505958  0.494042  0.257102  1
  Nb  Nb8  1  0.494042  0.505958  0.742898  1
  Ge  Ge9  1  0.000000  0.000000  0.000000  1
  Se  Se10  1  0.333333  0.666667  0.620310  1
  Se  Se11  1  0.666667  0.333333  0.379690  1
  Se  Se12  1  0.666667  0.333333  0.134944  1
  Se  Se13  1  0.333333  0.666667  0.865056  1
  Se  Se14  1  0.167799  0.335597  0.138736  1
  Se  Se15  1  0.832201  0.664403  0.861264  1
  Se  Se16  1  0.664403  0.832201  0.138736  1
  Se  Se17  1  0.830522  0.661044  0.623139  1
  Se  Se18  1  0.335597  0.167799  0.861264  1
  Se  Se19  1  0.169478  0.338956  0.376861  1
  Se  Se20  1  0.167799  0.832201  0.138736  1
  Se  Se21  1  0.338956  0.169478  0.623139  1
  Se  Se22  1  0.832201  0.167799  0.861264  1
  Se  Se23  1  0.661044  0.830522  0.376861  1
  Se  Se24  1  0.830522  0.169478  0.623139  1
  Se  Se25  1  0.169478  0.830522  0.376861  1
