# generated using pymatgen
data_Ho7Er3In8(NiPd)2
_symmetry_space_group_name_H-M   'P 1'
_cell_length_a   3.60541700
_cell_length_b   8.04951465
_cell_length_c   18.06612568
_cell_angle_alpha   90.08362032
_cell_angle_beta   90.00000000
_cell_angle_gamma   90.00000000
_symmetry_Int_Tables_number   1
_chemical_formula_structural   Ho7Er3In8(NiPd)2
_chemical_formula_sum   'Ho7 Er3 In8 Ni2 Pd2'
_cell_volume   524.31195695
_cell_formula_units_Z   1
loop_
 _symmetry_equiv_pos_site_id
 _symmetry_equiv_pos_as_xyz
  1  'x, y, z'
loop_
 _atom_site_type_symbol
 _atom_site_label
 _atom_site_symmetry_multiplicity
 _atom_site_fract_x
 _atom_site_fract_y
 _atom_site_fract_z
 _atom_site_occupancy
  Ho  Ho0  1  0.000000  0.499985  0.500078  1
  Ho  Ho1  1  0.000000  0.999850  0.999859  1
  Ho  Ho2  1  0.000000  0.731738  0.278084  1
  Ho  Ho3  1  0.000000  0.268421  0.721889  1
  Ho  Ho4  1  0.000000  0.748908  0.781298  1
  Ho  Ho5  1  0.000000  0.251227  0.218841  1
  Ho  Ho6  1  0.000000  0.613716  0.087578  1
  Er  Er7  1  0.000000  0.386349  0.912036  1
  Er  Er8  1  0.000000  0.881885  0.584044  1
  Er  Er9  1  0.000000  0.118087  0.416012  1
  In  In10  1  0.500000  0.706563  0.932174  1
  In  In11  1  0.500000  0.292798  0.067619  1
  In  In12  1  0.500000  0.792000  0.432094  1
  In  In13  1  0.500000  0.207853  0.567919  1
  In  In14  1  0.500000  0.579375  0.651541  1
  In  In15  1  0.500000  0.420652  0.348590  1
  In  In16  1  0.500000  0.920558  0.149993  1
  In  In17  1  0.500000  0.080384  0.850009  1
  Ni  Ni18  1  0.500000  0.521951  0.195193  1
  Ni  Ni19  1  0.500000  0.477660  0.805117  1
  Pd  Pd20  1  0.500000  0.975968  0.696044  1
  Pd  Pd21  1  0.500000  0.024072  0.303989  1
