# generated using pymatgen
data_HoTmFe10Ni2P7
_symmetry_space_group_name_H-M   'P 1'
_cell_length_a   9.00830495
_cell_length_b   8.96564795
_cell_length_c   3.61819800
_cell_angle_alpha   90.00000000
_cell_angle_beta   90.00000000
_cell_angle_gamma   119.86205603
_symmetry_Int_Tables_number   1
_chemical_formula_structural   HoTmFe10Ni2P7
_chemical_formula_sum   'Ho1 Tm1 Fe10 Ni2 P7'
_cell_volume   253.42515525
_cell_formula_units_Z   1
loop_
 _symmetry_equiv_pos_site_id
 _symmetry_equiv_pos_as_xyz
  1  'x, y, z'
loop_
 _atom_site_type_symbol
 _atom_site_label
 _atom_site_symmetry_multiplicity
 _atom_site_fract_x
 _atom_site_fract_y
 _atom_site_fract_z
 _atom_site_occupancy
  Ho  Ho0  1  0.333346  0.667109  0.000000  1
  Tm  Tm1  1  0.999632  0.997198  0.500000  1
  Fe  Fe2  1  0.035225  0.762867  0.000000  1
  Fe  Fe3  1  0.939609  0.453104  0.000000  1
  Fe  Fe4  1  0.511795  0.061368  0.000000  1
  Fe  Fe5  1  0.548063  0.488797  0.000000  1
  Fe  Fe6  1  0.101879  0.381015  0.500000  1
  Fe  Fe7  1  0.279442  0.897675  0.500000  1
  Fe  Fe8  1  0.620758  0.722777  0.500000  1
  Fe  Fe9  1  0.765500  0.209644  0.500000  1
  Fe  Fe10  1  0.441212  0.233972  0.500000  1
  Fe  Fe11  1  0.788733  0.553128  0.500000  1
  Ni  Ni12  1  0.730600  0.965451  0.000000  1
  Ni  Ni13  1  0.236180  0.270826  0.000000  1
  P  P14  1  0.966200  0.225435  0.000000  1
  P  P15  1  0.256719  0.030005  0.000000  1
  P  P16  1  0.778354  0.738719  0.000000  1
  P  P17  1  0.067570  0.620948  0.500000  1
  P  P18  1  0.547564  0.930982  0.500000  1
  P  P19  1  0.384524  0.454620  0.500000  1
  P  P20  1  0.667098  0.334357  0.000000  1
