# generated using pymatgen
data_Ba2HoGaO5
_symmetry_space_group_name_H-M   'P 1'
_cell_length_a   6.12409300
_cell_length_b   7.84685978
_cell_length_c   12.71754518
_cell_angle_alpha   91.98852855
_cell_angle_beta   90.00000000
_cell_angle_gamma   90.00000000
_symmetry_Int_Tables_number   1
_chemical_formula_structural   Ba2HoGaO5
_chemical_formula_sum   'Ba8 Ho4 Ga4 O20'
_cell_volume   610.77231785
_cell_formula_units_Z   4
loop_
 _symmetry_equiv_pos_site_id
 _symmetry_equiv_pos_as_xyz
  1  'x, y, z'
loop_
 _atom_site_type_symbol
 _atom_site_label
 _atom_site_symmetry_multiplicity
 _atom_site_fract_x
 _atom_site_fract_y
 _atom_site_fract_z
 _atom_site_occupancy
  Ba  Ba0  1  0.762694  0.481774  0.346421  1
  Ba  Ba1  1  0.737306  0.981774  0.846421  1
  Ba  Ba2  1  0.237306  0.518226  0.653579  1
  Ba  Ba3  1  0.262694  0.018226  0.153579  1
  Ba  Ba4  1  0.755344  0.993121  0.380940  1
  Ba  Ba5  1  0.744656  0.493121  0.880940  1
  Ba  Ba6  1  0.244656  0.006879  0.619060  1
  Ba  Ba7  1  0.255344  0.506879  0.119060  1
  Ho  Ho8  1  0.749811  0.266833  0.628785  1
  Ho  Ho9  1  0.750189  0.766833  0.128785  1
  Ho  Ho10  1  0.250189  0.733167  0.371215  1
  Ho  Ho11  1  0.249811  0.233167  0.871215  1
  Ga  Ga12  1  0.734712  0.741843  0.582201  1
  Ga  Ga13  1  0.765288  0.241843  0.082201  1
  Ga  Ga14  1  0.265288  0.258157  0.417799  1
  Ga  Ga15  1  0.234712  0.758157  0.917799  1
  O  O16  1  0.758294  0.972083  0.629256  1
  O  O17  1  0.741706  0.472083  0.129256  1
  O  O18  1  0.241706  0.027917  0.370744  1
  O  O19  1  0.258294  0.527917  0.870744  1
  O  O20  1  0.728483  0.067285  0.176470  1
  O  O21  1  0.771517  0.567285  0.676470  1
  O  O22  1  0.271517  0.932715  0.823530  1
  O  O23  1  0.228483  0.432715  0.323530  1
  O  O24  1  0.542770  0.744640  0.271652  1
  O  O25  1  0.957230  0.244640  0.771652  1
  O  O26  1  0.457230  0.255360  0.728348  1
  O  O27  1  0.042770  0.755360  0.228348  1
  O  O28  1  0.548994  0.222119  0.976582  1
  O  O29  1  0.951006  0.722119  0.476582  1
  O  O30  1  0.451006  0.777881  0.023418  1
  O  O31  1  0.048994  0.277881  0.523418  1
  O  O32  1  0.044148  0.227903  0.020233  1
  O  O33  1  0.455852  0.727903  0.520233  1
  O  O34  1  0.955852  0.772097  0.979767  1
  O  O35  1  0.544148  0.272097  0.479767  1
