# generated using pymatgen
data_Y12Tc2NiIr
_symmetry_space_group_name_H-M   'P 1'
_cell_length_a   6.41924005
_cell_length_b   7.30841631
_cell_length_c   9.24918200
_cell_angle_alpha   90.00000000
_cell_angle_beta   90.00000000
_cell_angle_gamma   90.08862374
_symmetry_Int_Tables_number   1
_chemical_formula_structural   Y12Tc2NiIr
_chemical_formula_sum   'Y12 Tc2 Ni1 Ir1'
_cell_volume   433.92003287
_cell_formula_units_Z   1
loop_
 _symmetry_equiv_pos_site_id
 _symmetry_equiv_pos_as_xyz
  1  'x, y, z'
loop_
 _atom_site_type_symbol
 _atom_site_label
 _atom_site_symmetry_multiplicity
 _atom_site_fract_x
 _atom_site_fract_y
 _atom_site_fract_z
 _atom_site_occupancy
  Y  Y0  1  0.631018  0.040439  0.250000  1
  Y  Y1  1  0.372678  0.955760  0.750000  1
  Y  Y2  1  0.135764  0.461465  0.750000  1
  Y  Y3  1  0.867665  0.538983  0.250000  1
  Y  Y4  1  0.169280  0.177842  0.061082  1
  Y  Y5  1  0.829157  0.822394  0.935372  1
  Y  Y6  1  0.669619  0.323721  0.936896  1
  Y  Y7  1  0.829157  0.822394  0.564628  1
  Y  Y8  1  0.325003  0.678070  0.067165  1
  Y  Y9  1  0.169280  0.177842  0.438918  1
  Y  Y10  1  0.325003  0.678070  0.432835  1
  Y  Y11  1  0.669619  0.323721  0.563104  1
  Tc  Tc12  1  0.461603  0.388714  0.250000  1
  Tc  Tc13  1  0.964488  0.111212  0.750000  1
  Ni  Ni14  1  0.542187  0.613705  0.750000  1
  Ir  Ir15  1  0.038480  0.885666  0.250000  1
