# generated using pymatgen
data_Tm12Co8Se
_symmetry_space_group_name_H-M   'P 1'
_cell_length_a   11.21506500
_cell_length_b   11.21506545
_cell_length_c   3.98145000
_cell_angle_alpha   90.00000000
_cell_angle_beta   90.00000000
_cell_angle_gamma   120.00000084
_symmetry_Int_Tables_number   1
_chemical_formula_structural   Tm12Co8Se
_chemical_formula_sum   'Tm12 Co8 Se1'
_cell_volume   433.68609858
_cell_formula_units_Z   1
loop_
 _symmetry_equiv_pos_site_id
 _symmetry_equiv_pos_as_xyz
  1  'x, y, z'
loop_
 _atom_site_type_symbol
 _atom_site_label
 _atom_site_symmetry_multiplicity
 _atom_site_fract_x
 _atom_site_fract_y
 _atom_site_fract_z
 _atom_site_occupancy
  Tm  Tm0  1  0.517212  0.380818  0.250248  1
  Tm  Tm1  1  0.863607  0.482788  0.250248  1
  Tm  Tm2  1  0.619182  0.136393  0.250248  1
  Tm  Tm3  1  0.482788  0.619182  0.749752  1
  Tm  Tm4  1  0.136393  0.517212  0.749752  1
  Tm  Tm5  1  0.380818  0.863607  0.749752  1
  Tm  Tm6  1  0.975243  0.235738  0.254637  1
  Tm  Tm7  1  0.260495  0.024757  0.254637  1
  Tm  Tm8  1  0.764262  0.739505  0.254637  1
  Tm  Tm9  1  0.024757  0.764262  0.745363  1
  Tm  Tm10  1  0.739505  0.975243  0.745363  1
  Tm  Tm11  1  0.235738  0.260495  0.745363  1
  Co  Co12  1  0.333333  0.666667  0.248371  1
  Co  Co13  1  0.666667  0.333333  0.751629  1
  Co  Co14  1  0.157130  0.719876  0.252201  1
  Co  Co15  1  0.562746  0.842870  0.252201  1
  Co  Co16  1  0.280124  0.437254  0.252201  1
  Co  Co17  1  0.842870  0.280124  0.747799  1
  Co  Co18  1  0.437254  0.157130  0.747799  1
  Co  Co19  1  0.719876  0.562746  0.747799  1
  Se  Se20  1  0.000000  0.000000  0.500000  1
