# generated using pymatgen
data_Sc2U2Si2Ge4Ru7
_symmetry_space_group_name_H-M   'P 1'
_cell_length_a   7.08468754
_cell_length_b   7.09554925
_cell_length_c   7.10391233
_cell_angle_alpha   109.27285747
_cell_angle_beta   109.64006056
_cell_angle_gamma   109.45677337
_symmetry_Int_Tables_number   1
_chemical_formula_structural   Sc2U2Si2Ge4Ru7
_chemical_formula_sum   'Sc2 U2 Si2 Ge4 Ru7'
_cell_volume   275.05182148
_cell_formula_units_Z   1
loop_
 _symmetry_equiv_pos_site_id
 _symmetry_equiv_pos_as_xyz
  1  'x, y, z'
loop_
 _atom_site_type_symbol
 _atom_site_label
 _atom_site_symmetry_multiplicity
 _atom_site_fract_x
 _atom_site_fract_y
 _atom_site_fract_z
 _atom_site_occupancy
  Sc  Sc0  1  0.999252  0.514980  0.000789  1
  Sc  Sc1  1  0.499398  0.999408  0.000617  1
  U  U2  1  0.000651  0.997995  0.488702  1
  U  U3  1  0.501381  0.498840  0.502628  1
  Si  Si4  1  0.679841  0.681922  0.998767  1
  Si  Si5  1  0.318627  0.992620  0.307960  1
  Ge  Ge6  1  0.990930  0.310525  0.297502  1
  Ge  Ge7  1  0.302666  0.305118  0.998437  1
  Ge  Ge8  1  0.698059  0.009546  0.703643  1
  Ge  Ge9  1  0.009872  0.693631  0.699326  1
  Ru  Ru10  1  0.747581  0.249852  0.497898  1
  Ru  Ru11  1  0.749612  0.507951  0.254058  1
  Ru  Ru12  1  0.494199  0.250152  0.741153  1
  Ru  Ru13  1  0.251442  0.495033  0.742262  1
  Ru  Ru14  1  0.251339  0.753091  0.498117  1
  Ru  Ru15  1  0.505931  0.752231  0.254700  1
  Ru  Ru16  1  0.999215  0.987104  0.013441  1
