# generated using pymatgen
data_TmFe2(PRu)3
_symmetry_space_group_name_H-M   'P 1'
_cell_length_a   3.78129600
_cell_length_b   10.52930500
_cell_length_c   12.10800600
_cell_angle_alpha   90.00000000
_cell_angle_beta   90.00000000
_cell_angle_gamma   90.00000000
_symmetry_Int_Tables_number   1
_chemical_formula_structural   TmFe2(PRu)3
_chemical_formula_sum   'Tm4 Fe8 P12 Ru12'
_cell_volume   482.07322268
_cell_formula_units_Z   4
loop_
 _symmetry_equiv_pos_site_id
 _symmetry_equiv_pos_as_xyz
  1  'x, y, z'
loop_
 _atom_site_type_symbol
 _atom_site_label
 _atom_site_symmetry_multiplicity
 _atom_site_fract_x
 _atom_site_fract_y
 _atom_site_fract_z
 _atom_site_occupancy
  Tm  Tm0  1  0.250000  0.583770  0.708495  1
  Tm  Tm1  1  0.250000  0.916230  0.208495  1
  Tm  Tm2  1  0.750000  0.416230  0.291505  1
  Tm  Tm3  1  0.750000  0.083770  0.791505  1
  Fe  Fe4  1  0.250000  0.883532  0.697917  1
  Fe  Fe5  1  0.250000  0.616468  0.197917  1
  Fe  Fe6  1  0.750000  0.116468  0.302083  1
  Fe  Fe7  1  0.750000  0.383532  0.802083  1
  Fe  Fe8  1  0.250000  0.463581  0.935102  1
  Fe  Fe9  1  0.250000  0.036419  0.435102  1
  Fe  Fe10  1  0.750000  0.536419  0.064898  1
  Fe  Fe11  1  0.750000  0.963581  0.564898  1
  P  P12  1  0.250000  0.429746  0.112770  1
  P  P13  1  0.250000  0.070254  0.612770  1
  P  P14  1  0.750000  0.570254  0.887230  1
  P  P15  1  0.750000  0.929746  0.387230  1
  P  P16  1  0.250000  0.272092  0.869538  1
  P  P17  1  0.250000  0.227908  0.369538  1
  P  P18  1  0.750000  0.727908  0.130462  1
  P  P19  1  0.750000  0.772092  0.630462  1
  P  P20  1  0.250000  0.602368  0.386821  1
  P  P21  1  0.250000  0.897632  0.886821  1
  P  P22  1  0.750000  0.397632  0.613179  1
  P  P23  1  0.750000  0.102368  0.113179  1
  Ru  Ru24  1  0.250000  0.704045  0.988056  1
  Ru  Ru25  1  0.250000  0.795955  0.488056  1
  Ru  Ru26  1  0.750000  0.295955  0.011944  1
  Ru  Ru27  1  0.750000  0.204045  0.511944  1
  Ru  Ru28  1  0.250000  0.405192  0.484288  1
  Ru  Ru29  1  0.250000  0.094808  0.984288  1
  Ru  Ru30  1  0.750000  0.594808  0.515712  1
  Ru  Ru31  1  0.750000  0.905192  0.015712  1
  Ru  Ru32  1  0.250000  0.225670  0.178925  1
  Ru  Ru33  1  0.250000  0.274330  0.678925  1
  Ru  Ru34  1  0.750000  0.774330  0.821075  1
  Ru  Ru35  1  0.750000  0.725670  0.321075  1
