# generated using pymatgen
data_Cs6V3RhBr18
_symmetry_space_group_name_H-M   'P 1'
_cell_length_a   7.78412800
_cell_length_b   7.78412835
_cell_length_c   19.33436500
_cell_angle_alpha   90.00000000
_cell_angle_beta   90.00000000
_cell_angle_gamma   119.99999851
_symmetry_Int_Tables_number   1
_chemical_formula_structural   Cs6V3RhBr18
_chemical_formula_sum   'Cs6 V3 Rh1 Br18'
_cell_volume   1014.56647697
_cell_formula_units_Z   1
loop_
 _symmetry_equiv_pos_site_id
 _symmetry_equiv_pos_as_xyz
  1  'x, y, z'
loop_
 _atom_site_type_symbol
 _atom_site_label
 _atom_site_symmetry_multiplicity
 _atom_site_fract_x
 _atom_site_fract_y
 _atom_site_fract_z
 _atom_site_occupancy
  Cs  Cs0  1  0.666667  0.333333  0.570316  1
  Cs  Cs1  1  0.333333  0.666667  0.070594  1
  Cs  Cs2  1  0.333333  0.666667  0.430295  1
  Cs  Cs3  1  0.666667  0.333333  0.931668  1
  Cs  Cs4  1  0.000000  0.000000  0.249922  1
  Cs  Cs5  1  0.000000  0.000000  0.747966  1
  V  V6  1  0.666667  0.333333  0.335243  1
  V  V7  1  0.333333  0.666667  0.836421  1
  V  V8  1  0.666667  0.333333  0.164894  1
  Rh  Rh9  1  0.333333  0.666667  0.668489  1
  Br  Br10  1  0.822009  0.644019  0.406026  1
  Br  Br11  1  0.181564  0.818436  0.594554  1
  Br  Br12  1  0.636873  0.818436  0.594554  1
  Br  Br13  1  0.822009  0.177991  0.406026  1
  Br  Br14  1  0.355981  0.177991  0.406026  1
  Br  Br15  1  0.177598  0.355197  0.905538  1
  Br  Br16  1  0.032446  0.516223  0.748457  1
  Br  Br17  1  0.644803  0.822402  0.905538  1
  Br  Br18  1  0.822005  0.644010  0.093673  1
  Br  Br19  1  0.181564  0.363127  0.594554  1
  Br  Br20  1  0.483777  0.967554  0.748457  1
  Br  Br21  1  0.515625  0.484375  0.249815  1
  Br  Br22  1  0.483777  0.516223  0.748457  1
  Br  Br23  1  0.177598  0.822402  0.905538  1
  Br  Br24  1  0.355990  0.177995  0.093673  1
  Br  Br25  1  0.968751  0.484375  0.249815  1
  Br  Br26  1  0.515625  0.031249  0.249815  1
  Br  Br27  1  0.822005  0.177995  0.093673  1
