# generated using pymatgen
data_Yb5BiPb2Cl
_symmetry_space_group_name_H-M   'P 1'
_cell_length_a   9.35431135
_cell_length_b   9.35431162
_cell_length_c   6.88668100
_cell_angle_alpha   90.00000000
_cell_angle_beta   90.00000000
_cell_angle_gamma   118.83480965
_symmetry_Int_Tables_number   1
_chemical_formula_structural   Yb5BiPb2Cl
_chemical_formula_sum   'Yb10 Bi2 Pb4 Cl2'
_cell_volume   527.89139700
_cell_formula_units_Z   2
loop_
 _symmetry_equiv_pos_site_id
 _symmetry_equiv_pos_as_xyz
  1  'x, y, z'
loop_
 _atom_site_type_symbol
 _atom_site_label
 _atom_site_symmetry_multiplicity
 _atom_site_fract_x
 _atom_site_fract_y
 _atom_site_fract_z
 _atom_site_occupancy
  Yb  Yb0  1  0.244281  0.994153  0.750000  1
  Yb  Yb1  1  0.755719  0.005847  0.250000  1
  Yb  Yb2  1  0.994153  0.244281  0.750000  1
  Yb  Yb3  1  0.005847  0.755719  0.250000  1
  Yb  Yb4  1  0.736621  0.736621  0.750000  1
  Yb  Yb5  1  0.263379  0.263379  0.250000  1
  Yb  Yb6  1  0.335624  0.664376  0.500000  1
  Yb  Yb7  1  0.664376  0.335624  0.500000  1
  Yb  Yb8  1  0.664376  0.335624  0.000000  1
  Yb  Yb9  1  0.335624  0.664376  0.000000  1
  Bi  Bi10  1  0.384207  0.384207  0.750000  1
  Bi  Bi11  1  0.615793  0.615793  0.250000  1
  Pb  Pb12  1  0.582672  0.997412  0.750000  1
  Pb  Pb13  1  0.417328  0.002588  0.250000  1
  Pb  Pb14  1  0.997412  0.582672  0.750000  1
  Pb  Pb15  1  0.002588  0.417328  0.250000  1
  Cl  Cl16  1  0.000000  0.000000  0.500000  1
  Cl  Cl17  1  0.000000  0.000000  0.000000  1
