# generated using pymatgen
data_Hf10Al12Ir7
_symmetry_space_group_name_H-M   'P 1'
_cell_length_a   8.89403676
_cell_length_b   8.89403792
_cell_length_c   8.89403800
_cell_angle_alpha   60.00000715
_cell_angle_beta   60.00000284
_cell_angle_gamma   60.00000191
_symmetry_Int_Tables_number   1
_chemical_formula_structural   Hf10Al12Ir7
_chemical_formula_sum   'Hf10 Al12 Ir7'
_cell_volume   497.48720907
_cell_formula_units_Z   1
loop_
 _symmetry_equiv_pos_site_id
 _symmetry_equiv_pos_as_xyz
  1  'x, y, z'
loop_
 _atom_site_type_symbol
 _atom_site_label
 _atom_site_symmetry_multiplicity
 _atom_site_fract_x
 _atom_site_fract_y
 _atom_site_fract_z
 _atom_site_occupancy
  Hf  Hf0  1  0.879648  0.879648  0.361058  1
  Hf  Hf1  1  0.879648  0.361058  0.879648  1
  Hf  Hf2  1  0.361058  0.879648  0.879648  1
  Hf  Hf3  1  0.879648  0.879648  0.879648  1
  Hf  Hf4  1  0.683745  0.683745  0.316255  1
  Hf  Hf5  1  0.316255  0.683745  0.316255  1
  Hf  Hf6  1  0.683745  0.316255  0.316255  1
  Hf  Hf7  1  0.316255  0.316255  0.683745  1
  Hf  Hf8  1  0.683745  0.316255  0.683745  1
  Hf  Hf9  1  0.316255  0.683745  0.683745  1
  Al  Al10  1  0.121897  0.121897  0.634310  1
  Al  Al11  1  0.121897  0.634310  0.121897  1
  Al  Al12  1  0.634310  0.121897  0.121897  1
  Al  Al13  1  0.121897  0.121897  0.121897  1
  Al  Al14  1  0.659314  0.659314  0.022056  1
  Al  Al15  1  0.659314  0.022056  0.659314  1
  Al  Al16  1  0.022056  0.659314  0.659314  1
  Al  Al17  1  0.659314  0.659314  0.659314  1
  Al  Al18  1  0.337218  0.337218  0.988347  1
  Al  Al19  1  0.337218  0.988347  0.337218  1
  Al  Al20  1  0.988347  0.337218  0.337218  1
  Al  Al21  1  0.337218  0.337218  0.337218  1
  Ir  Ir22  1  0.000000  0.000000  0.000000  1
  Ir  Ir23  1  0.999367  0.999367  0.500633  1
  Ir  Ir24  1  0.500633  0.999367  0.500633  1
  Ir  Ir25  1  0.999367  0.500633  0.500633  1
  Ir  Ir26  1  0.500633  0.500633  0.999367  1
  Ir  Ir27  1  0.999367  0.500633  0.999367  1
  Ir  Ir28  1  0.500633  0.999367  0.999367  1
