# generated using pymatgen
data_Y6MgZn22As
_symmetry_space_group_name_H-M   'P 1'
_cell_length_a   9.07618544
_cell_length_b   9.07618607
_cell_length_c   9.07618600
_cell_angle_alpha   60.00000026
_cell_angle_beta   59.99999796
_cell_angle_gamma   60.00000094
_symmetry_Int_Tables_number   1
_chemical_formula_structural   Y6MgZn22As
_chemical_formula_sum   'Y6 Mg1 Zn22 As1'
_cell_volume   528.68274739
_cell_formula_units_Z   1
loop_
 _symmetry_equiv_pos_site_id
 _symmetry_equiv_pos_as_xyz
  1  'x, y, z'
loop_
 _atom_site_type_symbol
 _atom_site_label
 _atom_site_symmetry_multiplicity
 _atom_site_fract_x
 _atom_site_fract_y
 _atom_site_fract_z
 _atom_site_occupancy
  Y  Y0  1  0.716244  0.283756  0.283756  1
  Y  Y1  1  0.716244  0.283756  0.716244  1
  Y  Y2  1  0.716244  0.716244  0.283756  1
  Y  Y3  1  0.283756  0.716244  0.716244  1
  Y  Y4  1  0.283756  0.716244  0.283756  1
  Y  Y5  1  0.283756  0.283756  0.716244  1
  Mg  Mg6  1  0.000000  0.000000  0.000000  1
  Zn  Zn7  1  0.615634  0.128123  0.128123  1
  Zn  Zn8  1  0.128123  0.615634  0.128123  1
  Zn  Zn9  1  0.128123  0.128123  0.615634  1
  Zn  Zn10  1  0.128123  0.128123  0.128123  1
  Zn  Zn11  1  0.384366  0.871877  0.871877  1
  Zn  Zn12  1  0.871877  0.384366  0.871877  1
  Zn  Zn13  1  0.871877  0.871877  0.384366  1
  Zn  Zn14  1  0.871877  0.871877  0.871877  1
  Zn  Zn15  1  0.500000  0.000000  0.000000  1
  Zn  Zn16  1  0.500000  0.000000  0.500000  1
  Zn  Zn17  1  0.500000  0.500000  0.000000  1
  Zn  Zn18  1  0.000000  0.500000  0.500000  1
  Zn  Zn19  1  0.000000  0.500000  0.000000  1
  Zn  Zn20  1  0.000000  0.000000  0.500000  1
  Zn  Zn21  1  0.011831  0.329389  0.329389  1
  Zn  Zn22  1  0.329389  0.011831  0.329389  1
  Zn  Zn23  1  0.329389  0.329389  0.011831  1
  Zn  Zn24  1  0.329389  0.329389  0.329389  1
  Zn  Zn25  1  0.988169  0.670611  0.670611  1
  Zn  Zn26  1  0.670611  0.988169  0.670611  1
  Zn  Zn27  1  0.670611  0.670611  0.988169  1
  Zn  Zn28  1  0.670611  0.670611  0.670611  1
  As  As29  1  0.500000  0.500000  0.500000  1
