# generated using pymatgen
data_Er13Th3(HgIr)4
_symmetry_space_group_name_H-M   'P 1'
_cell_length_a   9.64148313
_cell_length_b   9.62585296
_cell_length_c   9.62585400
_cell_angle_alpha   60.00000332
_cell_angle_beta   60.05361561
_cell_angle_gamma   60.05362064
_symmetry_Int_Tables_number   1
_chemical_formula_structural   Er13Th3(HgIr)4
_chemical_formula_sum   'Er13 Th3 Hg4 Ir4'
_cell_volume   632.20633903
_cell_formula_units_Z   1
loop_
 _symmetry_equiv_pos_site_id
 _symmetry_equiv_pos_as_xyz
  1  'x, y, z'
loop_
 _atom_site_type_symbol
 _atom_site_label
 _atom_site_symmetry_multiplicity
 _atom_site_fract_x
 _atom_site_fract_y
 _atom_site_fract_z
 _atom_site_occupancy
  Er  Er0  1  0.193331  0.602223  0.602223  1
  Er  Er1  1  0.061301  0.439820  0.439820  1
  Er  Er2  1  0.437465  0.062597  0.062597  1
  Er  Er3  1  0.437465  0.062597  0.437341  1
  Er  Er4  1  0.061301  0.439820  0.059057  1
  Er  Er5  1  0.437465  0.437341  0.062597  1
  Er  Er6  1  0.061301  0.059057  0.439820  1
  Er  Er7  1  0.185910  0.813669  0.813669  1
  Er  Er8  1  0.815500  0.184556  0.184556  1
  Er  Er9  1  0.815500  0.184556  0.815390  1
  Er  Er10  1  0.185910  0.813669  0.186753  1
  Er  Er11  1  0.815500  0.815390  0.184556  1
  Er  Er12  1  0.185910  0.186753  0.813669  1
  Th  Th13  1  0.599336  0.601678  0.601678  1
  Th  Th14  1  0.599336  0.601678  0.197307  1
  Th  Th15  1  0.599336  0.197307  0.601678  1
  Hg  Hg16  1  0.841127  0.835268  0.835268  1
  Hg  Hg17  1  0.841127  0.835268  0.488336  1
  Hg  Hg18  1  0.841127  0.488336  0.835268  1
  Hg  Hg19  1  0.485964  0.838011  0.838011  1
  Ir  Ir20  1  0.391989  0.392332  0.392332  1
  Ir  Ir21  1  0.391989  0.392332  0.823346  1
  Ir  Ir22  1  0.391989  0.823346  0.392332  1
  Ir  Ir23  1  0.822818  0.392394  0.392394  1
