# generated using pymatgen
data_Ce2U3Bi8Pt6Pb
_symmetry_space_group_name_H-M   'P 1'
_cell_length_a   8.70142931
_cell_length_b   8.70143018
_cell_length_c   8.71523635
_cell_angle_alpha   109.95170256
_cell_angle_beta   109.46354829
_cell_angle_gamma   108.93497727
_symmetry_Int_Tables_number   1
_chemical_formula_structural   Ce2U3Bi8Pt6Pb
_chemical_formula_sum   'Ce2 U3 Bi8 Pt6 Pb1'
_cell_volume   508.33777322
_cell_formula_units_Z   1
loop_
 _symmetry_equiv_pos_site_id
 _symmetry_equiv_pos_as_xyz
  1  'x, y, z'
loop_
 _atom_site_type_symbol
 _atom_site_label
 _atom_site_symmetry_multiplicity
 _atom_site_fract_x
 _atom_site_fract_y
 _atom_site_fract_z
 _atom_site_occupancy
  Ce  Ce0  1  0.249914  0.620522  0.372671  1
  Ce  Ce1  1  0.747851  0.877243  0.127329  1
  U  U2  1  0.875029  0.125029  0.750000  1
  U  U3  1  0.380255  0.252753  0.628646  1
  U  U4  1  0.124107  0.751609  0.871354  1
  Bi  Bi5  1  0.178518  0.178781  0.182796  1
  Bi  Bi6  1  0.321654  0.502455  0.000411  1
  Bi  Bi7  1  0.002044  0.321244  0.499589  1
  Bi  Bi8  1  0.679404  0.678156  0.681016  1
  Bi  Bi9  1  0.495986  0.995722  0.317204  1
  Bi  Bi10  1  0.821870  0.504070  0.000841  1
  Bi  Bi11  1  0.497139  0.998387  0.818984  1
  Bi  Bi12  1  0.003229  0.821029  0.499159  1
  Pt  Pt13  1  0.127436  0.877436  0.250000  1
  Pt  Pt14  1  0.373501  0.623501  0.750000  1
  Pt  Pt15  1  0.877219  0.244578  0.107576  1
  Pt  Pt16  1  0.637002  0.769643  0.392424  1
  Pt  Pt17  1  0.231051  0.119408  0.866701  1
  Pt  Pt18  1  0.752708  0.364350  0.633299  1
  Pb  Pb19  1  0.624086  0.374086  0.250000  1
