# generated using pymatgen
data_TbGdYH9
_symmetry_space_group_name_H-M   'P 1'
_cell_length_a   6.39413910
_cell_length_b   6.39469394
_cell_length_c   6.65322901
_cell_angle_alpha   89.99536999
_cell_angle_beta   89.99632832
_cell_angle_gamma   120.01725357
_symmetry_Int_Tables_number   1
_chemical_formula_structural   TbGdYH9
_chemical_formula_sum   'Tb2 Gd2 Y2 H18'
_cell_volume   235.55341820
_cell_formula_units_Z   2
loop_
 _symmetry_equiv_pos_site_id
 _symmetry_equiv_pos_as_xyz
  1  'x, y, z'
loop_
 _atom_site_type_symbol
 _atom_site_label
 _atom_site_symmetry_multiplicity
 _atom_site_fract_x
 _atom_site_fract_y
 _atom_site_fract_z
 _atom_site_occupancy
  Tb  Tb0  1  0.338586  0.999934  0.249987  1
  Tb  Tb1  1  0.999442  0.337804  0.249992  1
  Gd  Gd2  1  0.999875  0.664977  0.749945  1
  Gd  Gd3  1  0.335019  0.335114  0.750003  1
  Y  Y4  1  0.661528  0.662005  0.250026  1
  Y  Y5  1  0.665006  0.999979  0.750055  1
  H  H6  1  0.999608  0.999225  0.250002  1
  H  H7  1  0.997877  0.000090  0.750000  1
  H  H8  1  0.333483  0.666349  0.178681  1
  H  H9  1  0.666682  0.334219  0.321322  1
  H  H10  1  0.666441  0.330901  0.811114  1
  H  H11  1  0.335539  0.669005  0.688885  1
  H  H12  1  0.359361  0.326162  0.093104  1
  H  H13  1  0.673860  0.031989  0.091773  1
  H  H14  1  0.966746  0.641138  0.093325  1
  H  H15  1  0.033450  0.673966  0.407040  1
  H  H16  1  0.642091  0.968085  0.407939  1
  H  H17  1  0.325891  0.358977  0.406823  1
  H  H18  1  0.658996  0.683644  0.907916  1
  H  H19  1  0.317466  0.976676  0.908287  1
  H  H20  1  0.024386  0.341733  0.908984  1
  H  H21  1  0.975307  0.316296  0.592455  1
  H  H22  1  0.340831  0.023430  0.591719  1
  H  H23  1  0.682530  0.658304  0.590623  1
