# generated using pymatgen
data_Dy2Ho10GaCo4Pb
_symmetry_space_group_name_H-M   'P 1'
_cell_length_a   8.30344598
_cell_length_b   8.30751772
_cell_length_c   8.30751712
_cell_angle_alpha   112.04880400
_cell_angle_beta   109.24560705
_cell_angle_gamma   107.17503486
_symmetry_Int_Tables_number   1
_chemical_formula_structural   Dy2Ho10GaCo4Pb
_chemical_formula_sum   'Dy2 Ho10 Ga1 Co4 Pb1'
_cell_volume   440.23433125
_cell_formula_units_Z   1
loop_
 _symmetry_equiv_pos_site_id
 _symmetry_equiv_pos_as_xyz
  1  'x, y, z'
loop_
 _atom_site_type_symbol
 _atom_site_label
 _atom_site_symmetry_multiplicity
 _atom_site_fract_x
 _atom_site_fract_y
 _atom_site_fract_z
 _atom_site_occupancy
  Dy  Dy0  1  0.968978  0.267369  0.701610  1
  Dy  Dy1  1  0.031022  0.732631  0.298390  1
  Ho  Ho2  1  0.675145  0.860110  0.184692  1
  Ho  Ho3  1  0.324855  0.509548  0.184964  1
  Ho  Ho4  1  0.324855  0.139890  0.815308  1
  Ho  Ho5  1  0.675145  0.490452  0.815036  1
  Ho  Ho6  1  0.565684  0.267338  0.298346  1
  Ho  Ho7  1  0.434316  0.732662  0.701654  1
  Ho  Ho8  1  0.179399  0.780373  0.959604  1
  Ho  Ho9  1  0.820601  0.780206  0.600975  1
  Ho  Ho10  1  0.179399  0.219794  0.399025  1
  Ho  Ho11  1  0.820601  0.219627  0.040396  1
  Ga  Ga12  1  0.000000  0.500000  0.500000  1
  Co  Co13  1  0.114443  0.114334  0.000110  1
  Co  Co14  1  0.885557  0.885666  0.999890  1
  Co  Co15  1  0.661463  0.499931  0.161532  1
  Co  Co16  1  0.338537  0.500069  0.838468  1
  Pb  Pb17  1  0.500000  0.000000  0.500000  1
