# generated using pymatgen
data_TmLu3(HfCo)4
_symmetry_space_group_name_H-M   'P 1'
_cell_length_a   4.42508400
_cell_length_b   6.70037186
_cell_length_c   7.99940531
_cell_angle_alpha   90.09160514
_cell_angle_beta   90.00000000
_cell_angle_gamma   90.00000000
_symmetry_Int_Tables_number   1
_chemical_formula_structural   TmLu3(HfCo)4
_chemical_formula_sum   'Tm1 Lu3 Hf4 Co4'
_cell_volume   237.17973073
_cell_formula_units_Z   1
loop_
 _symmetry_equiv_pos_site_id
 _symmetry_equiv_pos_as_xyz
  1  'x, y, z'
loop_
 _atom_site_type_symbol
 _atom_site_label
 _atom_site_symmetry_multiplicity
 _atom_site_fract_x
 _atom_site_fract_y
 _atom_site_fract_z
 _atom_site_occupancy
  Tm  Tm0  1  0.250000  0.016691  0.324502  1
  Lu  Lu1  1  0.250000  0.517664  0.175240  1
  Lu  Lu2  1  0.750000  0.482316  0.824499  1
  Lu  Lu3  1  0.750000  0.982581  0.675853  1
  Hf  Hf4  1  0.250000  0.640016  0.574658  1
  Hf  Hf5  1  0.750000  0.360625  0.426260  1
  Hf  Hf6  1  0.750000  0.859817  0.072595  1
  Hf  Hf7  1  0.250000  0.140381  0.925736  1
  Co  Co8  1  0.250000  0.767881  0.909943  1
  Co  Co9  1  0.750000  0.232250  0.089479  1
  Co  Co10  1  0.750000  0.731397  0.410484  1
  Co  Co11  1  0.250000  0.268382  0.590752  1
