# generated using pymatgen
data_Y2LuGa5Ir
_symmetry_space_group_name_H-M   'P 1'
_cell_length_a   6.93432829
_cell_length_b   6.93432858
_cell_length_c   4.25979600
_cell_angle_alpha   90.00000000
_cell_angle_beta   90.00000000
_cell_angle_gamma   119.52230966
_symmetry_Int_Tables_number   1
_chemical_formula_structural   Y2LuGa5Ir
_chemical_formula_sum   'Y2 Lu1 Ga5 Ir1'
_cell_volume   178.23733263
_cell_formula_units_Z   1
loop_
 _symmetry_equiv_pos_site_id
 _symmetry_equiv_pos_as_xyz
  1  'x, y, z'
loop_
 _atom_site_type_symbol
 _atom_site_label
 _atom_site_symmetry_multiplicity
 _atom_site_fract_x
 _atom_site_fract_y
 _atom_site_fract_z
 _atom_site_occupancy
  Y  Y0  1  0.586268  0.998909  0.000000  1
  Y  Y1  1  0.998909  0.586268  0.000000  1
  Lu  Lu2  1  0.407559  0.407559  0.000000  1
  Ga  Ga3  1  0.236612  0.998938  0.500000  1
  Ga  Ga4  1  0.998938  0.236612  0.500000  1
  Ga  Ga5  1  0.764689  0.764689  0.500000  1
  Ga  Ga6  1  0.335148  0.663797  0.500000  1
  Ga  Ga7  1  0.663797  0.335148  0.500000  1
  Ir  Ir8  1  0.008082  0.008082  0.000000  1
