# generated using pymatgen
data_LiTa3Co4(AsP)2
_symmetry_space_group_name_H-M   'P 1'
_cell_length_a   3.60481300
_cell_length_b   6.17501149
_cell_length_c   7.05336983
_cell_angle_alpha   90.09932458
_cell_angle_beta   90.00000000
_cell_angle_gamma   90.00000000
_symmetry_Int_Tables_number   1
_chemical_formula_structural   LiTa3Co4(AsP)2
_chemical_formula_sum   'Li1 Ta3 Co4 As2 P2'
_cell_volume   157.00609564
_cell_formula_units_Z   1
loop_
 _symmetry_equiv_pos_site_id
 _symmetry_equiv_pos_as_xyz
  1  'x, y, z'
loop_
 _atom_site_type_symbol
 _atom_site_label
 _atom_site_symmetry_multiplicity
 _atom_site_fract_x
 _atom_site_fract_y
 _atom_site_fract_z
 _atom_site_occupancy
  Li  Li0  1  0.250000  0.031763  0.827780  1
  Ta  Ta1  1  0.250000  0.526606  0.671688  1
  Ta  Ta2  1  0.750000  0.979135  0.178263  1
  Ta  Ta3  1  0.750000  0.471900  0.322310  1
  Co  Co4  1  0.250000  0.140913  0.427103  1
  Co  Co5  1  0.250000  0.632475  0.075449  1
  Co  Co6  1  0.750000  0.850177  0.548770  1
  Co  Co7  1  0.750000  0.362678  0.949039  1
  As  As8  1  0.750000  0.749073  0.875044  1
  As  As9  1  0.750000  0.217854  0.634703  1
  P  P10  1  0.250000  0.265470  0.113715  1
  P  P11  1  0.250000  0.771955  0.376136  1
