# generated using pymatgen
data_Gd2HoTm(B6Ru)2
_symmetry_space_group_name_H-M   'P 1'
_cell_length_a   3.65988200
_cell_length_b   9.13836644
_cell_length_c   11.52839356
_cell_angle_alpha   89.96429513
_cell_angle_beta   90.00000000
_cell_angle_gamma   90.00000000
_symmetry_Int_Tables_number   1
_chemical_formula_structural   Gd2HoTm(B6Ru)2
_chemical_formula_sum   'Gd4 Ho2 Tm2 B24 Ru4'
_cell_volume   385.57100032
_cell_formula_units_Z   2
loop_
 _symmetry_equiv_pos_site_id
 _symmetry_equiv_pos_as_xyz
  1  'x, y, z'
loop_
 _atom_site_type_symbol
 _atom_site_label
 _atom_site_symmetry_multiplicity
 _atom_site_fract_x
 _atom_site_fract_y
 _atom_site_fract_z
 _atom_site_occupancy
  Gd  Gd0  1  0.000000  0.322564  0.413934  1
  Gd  Gd1  1  0.000000  0.677436  0.586066  1
  Gd  Gd2  1  0.000000  0.822737  0.086138  1
  Gd  Gd3  1  0.000000  0.177263  0.913862  1
  Ho  Ho4  1  0.000000  0.443926  0.127797  1
  Ho  Ho5  1  0.000000  0.556074  0.872203  1
  Tm  Tm6  1  0.000000  0.944058  0.372715  1
  Tm  Tm7  1  0.000000  0.055942  0.627285  1
  B  B8  1  0.500000  0.554956  0.432407  1
  B  B9  1  0.500000  0.445044  0.567593  1
  B  B10  1  0.500000  0.054522  0.067835  1
  B  B11  1  0.500000  0.945478  0.932165  1
  B  B12  1  0.500000  0.749461  0.419305  1
  B  B13  1  0.500000  0.250539  0.580695  1
  B  B14  1  0.500000  0.248237  0.080882  1
  B  B15  1  0.500000  0.751763  0.919118  1
  B  B16  1  0.500000  0.791973  0.266587  1
  B  B17  1  0.500000  0.208027  0.733413  1
  B  B18  1  0.500000  0.290697  0.233920  1
  B  B19  1  0.500000  0.709303  0.766080  1
  B  B20  1  0.500000  0.632146  0.185281  1
  B  B21  1  0.500000  0.367854  0.814719  1
  B  B22  1  0.500000  0.131003  0.315419  1
  B  B23  1  0.500000  0.868997  0.684581  1
  B  B24  1  0.500000  0.983685  0.213779  1
  B  B25  1  0.500000  0.016315  0.786221  1
  B  B26  1  0.500000  0.484484  0.287048  1
  B  B27  1  0.500000  0.515516  0.712952  1
  B  B28  1  0.500000  0.607056  0.029399  1
  B  B29  1  0.500000  0.392944  0.970601  1
  B  B30  1  0.500000  0.104938  0.471127  1
  B  B31  1  0.500000  0.895062  0.528873  1
  Ru  Ru32  1  0.000000  0.639380  0.320676  1
  Ru  Ru33  1  0.000000  0.360620  0.679324  1
  Ru  Ru34  1  0.000000  0.137984  0.180019  1
  Ru  Ru35  1  0.000000  0.862016  0.819981  1
