# generated using pymatgen
data_Pr3Ho3(Sn3Hg2)2
_symmetry_space_group_name_H-M   'P 1'
_cell_length_a   6.47124706
_cell_length_b   6.47124822
_cell_length_c   10.27035400
_cell_angle_alpha   90.09585236
_cell_angle_beta   90.09585237
_cell_angle_gamma   102.86742955
_symmetry_Int_Tables_number   1
_chemical_formula_structural   Pr3Ho3(Sn3Hg2)2
_chemical_formula_sum   'Pr3 Ho3 Sn6 Hg4'
_cell_volume   419.29008150
_cell_formula_units_Z   1
loop_
 _symmetry_equiv_pos_site_id
 _symmetry_equiv_pos_as_xyz
  1  'x, y, z'
loop_
 _atom_site_type_symbol
 _atom_site_label
 _atom_site_symmetry_multiplicity
 _atom_site_fract_x
 _atom_site_fract_y
 _atom_site_fract_z
 _atom_site_occupancy
  Pr  Pr0  1  0.206393  0.793607  0.000000  1
  Pr  Pr1  1  0.203873  0.796127  0.500000  1
  Pr  Pr2  1  0.796341  0.203659  0.500000  1
  Ho  Ho3  1  0.622574  0.621992  0.250287  1
  Ho  Ho4  1  0.378008  0.377426  0.749713  1
  Ho  Ho5  1  0.794236  0.205764  0.000000  1
  Sn  Sn6  1  0.060351  0.488948  0.248311  1
  Sn  Sn7  1  0.934615  0.504487  0.752912  1
  Sn  Sn8  1  0.495513  0.065385  0.247088  1
  Sn  Sn9  1  0.511052  0.939649  0.751689  1
  Sn  Sn10  1  0.008666  0.011637  0.246273  1
  Sn  Sn11  1  0.988363  0.991334  0.753727  1
  Hg  Hg12  1  0.314442  0.314351  0.038379  1
  Hg  Hg13  1  0.685649  0.685558  0.961621  1
  Hg  Hg14  1  0.685201  0.685279  0.539951  1
  Hg  Hg15  1  0.314721  0.314799  0.460049  1
