# generated using pymatgen
data_SmLu19Ir12
_symmetry_space_group_name_H-M   'P 1'
_cell_length_a   10.68105236
_cell_length_b   10.68914343
_cell_length_c   6.27543721
_cell_angle_alpha   89.92873674
_cell_angle_beta   90.00218451
_cell_angle_gamma   90.02955726
_symmetry_Int_Tables_number   1
_chemical_formula_structural   SmLu19Ir12
_chemical_formula_sum   'Sm1 Lu19 Ir12'
_cell_volume   716.47417829
_cell_formula_units_Z   1
loop_
 _symmetry_equiv_pos_site_id
 _symmetry_equiv_pos_as_xyz
  1  'x, y, z'
loop_
 _atom_site_type_symbol
 _atom_site_label
 _atom_site_symmetry_multiplicity
 _atom_site_fract_x
 _atom_site_fract_y
 _atom_site_fract_z
 _atom_site_occupancy
  Sm  Sm0  1  0.088507  0.288557  0.125544  1
  Lu  Lu1  1  0.293347  0.085155  0.378580  1
  Lu  Lu2  1  0.291723  0.912800  0.878418  1
  Lu  Lu3  1  0.708238  0.087124  0.876733  1
  Lu  Lu4  1  0.708229  0.912685  0.377769  1
  Lu  Lu5  1  0.587178  0.791846  0.878001  1
  Lu  Lu6  1  0.587133  0.208273  0.377903  1
  Lu  Lu7  1  0.412849  0.791571  0.377510  1
  Lu  Lu8  1  0.413175  0.208172  0.877029  1
  Lu  Lu9  1  0.208648  0.414108  0.622264  1
  Lu  Lu10  1  0.208407  0.588996  0.122082  1
  Lu  Lu11  1  0.790526  0.413565  0.122441  1
  Lu  Lu12  1  0.790946  0.587794  0.622716  1
  Lu  Lu13  1  0.912375  0.708679  0.122784  1
  Lu  Lu14  1  0.911336  0.292346  0.622185  1
  Lu  Lu15  1  0.087415  0.709003  0.622664  1
  Lu  Lu16  1  0.999541  0.999631  0.499810  1
  Lu  Lu17  1  0.999052  0.998105  0.999060  1
  Lu  Lu18  1  0.500097  0.500369  0.999354  1
  Lu  Lu19  1  0.500512  0.500301  0.499963  1
  Ir  Ir20  1  0.843153  0.151757  0.251724  1
  Ir  Ir21  1  0.846282  0.845912  0.750044  1
  Ir  Ir22  1  0.154943  0.151350  0.743038  1
  Ir  Ir23  1  0.153600  0.846267  0.249596  1
  Ir  Ir24  1  0.653811  0.346250  0.750219  1
  Ir  Ir25  1  0.653762  0.653738  0.250040  1
  Ir  Ir26  1  0.350544  0.346721  0.252521  1
  Ir  Ir27  1  0.346541  0.653795  0.749920  1
  Ir  Ir28  1  0.500583  0.999867  0.121393  1
  Ir  Ir29  1  0.500107  0.999579  0.621866  1
  Ir  Ir30  1  0.998747  0.502899  0.875912  1
  Ir  Ir31  1  0.998694  0.502785  0.380919  1
