# generated using pymatgen
data_La9NdIr5Os
_symmetry_space_group_name_H-M   'P 1'
_cell_length_a   11.40549800
_cell_length_b   11.41775800
_cell_length_c   6.65696900
_cell_angle_alpha   90.00000000
_cell_angle_beta   90.00000000
_cell_angle_gamma   90.00000000
_symmetry_Int_Tables_number   1
_chemical_formula_structural   La9NdIr5Os
_chemical_formula_sum   'La18 Nd2 Ir10 Os2'
_cell_volume   866.90522615
_cell_formula_units_Z   2
loop_
 _symmetry_equiv_pos_site_id
 _symmetry_equiv_pos_as_xyz
  1  'x, y, z'
loop_
 _atom_site_type_symbol
 _atom_site_label
 _atom_site_symmetry_multiplicity
 _atom_site_fract_x
 _atom_site_fract_y
 _atom_site_fract_z
 _atom_site_occupancy
  La  La0  1  0.293909  0.088647  0.386891  1
  La  La1  1  0.293909  0.911353  0.886891  1
  La  La2  1  0.706091  0.088647  0.886891  1
  La  La3  1  0.706091  0.911353  0.386891  1
  La  La4  1  0.588995  0.795045  0.886511  1
  La  La5  1  0.588995  0.204955  0.386511  1
  La  La6  1  0.411005  0.795045  0.386511  1
  La  La7  1  0.411005  0.204955  0.886511  1
  La  La8  1  0.208153  0.408373  0.614830  1
  La  La9  1  0.208153  0.591627  0.114830  1
  La  La10  1  0.791847  0.408373  0.114830  1
  La  La11  1  0.791847  0.591627  0.614830  1
  La  La12  1  0.908695  0.709388  0.114289  1
  La  La13  1  0.908695  0.290612  0.614289  1
  La  La14  1  0.091305  0.709388  0.614289  1
  La  La15  1  0.091305  0.290612  0.114289  1
  La  La16  1  0.500000  0.500000  0.996352  1
  La  La17  1  0.500000  0.500000  0.496352  1
  Nd  Nd18  1  0.000000  0.000000  0.496539  1
  Nd  Nd19  1  0.000000  0.000000  0.996539  1
  Ir  Ir20  1  0.849165  0.154744  0.249577  1
  Ir  Ir21  1  0.849165  0.845256  0.749577  1
  Ir  Ir22  1  0.150835  0.154744  0.749577  1
  Ir  Ir23  1  0.150835  0.845256  0.249577  1
  Ir  Ir24  1  0.654765  0.349171  0.749754  1
  Ir  Ir25  1  0.654765  0.650829  0.249754  1
  Ir  Ir26  1  0.345235  0.349171  0.249754  1
  Ir  Ir27  1  0.345235  0.650829  0.749754  1
  Ir  Ir28  1  0.000000  0.500000  0.882152  1
  Ir  Ir29  1  0.000000  0.500000  0.382152  1
  Os  Os30  1  0.500000  0.000000  0.121244  1
  Os  Os31  1  0.500000  0.000000  0.621244  1
