# generated using pymatgen
data_Pr2Nd2Zn2As5
_symmetry_space_group_name_H-M   'P 1'
_cell_length_a   4.28377200
_cell_length_b   4.28377167
_cell_length_c   17.42757200
_cell_angle_alpha   90.00000000
_cell_angle_beta   90.00000000
_cell_angle_gamma   120.00000251
_symmetry_Int_Tables_number   1
_chemical_formula_structural   Pr2Nd2Zn2As5
_chemical_formula_sum   'Pr2 Nd2 Zn2 As5'
_cell_volume   276.96198872
_cell_formula_units_Z   1
loop_
 _symmetry_equiv_pos_site_id
 _symmetry_equiv_pos_as_xyz
  1  'x, y, z'
loop_
 _atom_site_type_symbol
 _atom_site_label
 _atom_site_symmetry_multiplicity
 _atom_site_fract_x
 _atom_site_fract_y
 _atom_site_fract_z
 _atom_site_occupancy
  Pr  Pr0  1  0.666667  0.333333  0.899801  1
  Pr  Pr1  1  0.333333  0.666667  0.100199  1
  Nd  Nd2  1  0.000000  0.000000  0.702151  1
  Nd  Nd3  1  0.000000  0.000000  0.297849  1
  Zn  Zn4  1  0.666667  0.333333  0.443669  1
  Zn  Zn5  1  0.333333  0.666667  0.556331  1
  As  As6  1  0.666667  0.333333  0.592943  1
  As  As7  1  0.333333  0.666667  0.407057  1
  As  As8  1  0.666667  0.333333  0.202535  1
  As  As9  1  0.333333  0.666667  0.797465  1
  As  As10  1  0.000000  0.000000  0.000000  1
