# generated using pymatgen
data_CsNa2Nb8Tl5(P2O17)2
_symmetry_space_group_name_H-M   'P 1'
_cell_length_a   11.93337000
_cell_length_b   11.93336973
_cell_length_c   7.47781500
_cell_angle_alpha   90.00000000
_cell_angle_beta   90.00000000
_cell_angle_gamma   130.05342638
_symmetry_Int_Tables_number   1
_chemical_formula_structural   CsNa2Nb8Tl5(P2O17)2
_chemical_formula_sum   'Cs1 Na2 Nb8 Tl5 P4 O34'
_cell_volume   815.10725403
_cell_formula_units_Z   1
loop_
 _symmetry_equiv_pos_site_id
 _symmetry_equiv_pos_as_xyz
  1  'x, y, z'
loop_
 _atom_site_type_symbol
 _atom_site_label
 _atom_site_symmetry_multiplicity
 _atom_site_fract_x
 _atom_site_fract_y
 _atom_site_fract_z
 _atom_site_occupancy
  Cs  Cs0  1  0.727276  0.317583  0.750000  1
  Na  Na1  1  0.632356  0.632350  0.999726  1
  Na  Na2  1  0.632356  0.632350  0.500274  1
  Nb  Nb3  1  0.038924  0.345815  0.499029  1
  Nb  Nb4  1  0.147020  0.674100  0.750000  1
  Nb  Nb5  1  0.038924  0.345815  0.000971  1
  Nb  Nb6  1  0.001400  0.001460  0.499865  1
  Nb  Nb7  1  0.345165  0.037592  0.000126  1
  Nb  Nb8  1  0.001400  0.001460  0.000135  1
  Nb  Nb9  1  0.345165  0.037592  0.499874  1
  Nb  Nb10  1  0.673006  0.146157  0.250000  1
  Tl  Tl11  1  0.965122  0.688795  0.250000  1
  Tl  Tl12  1  0.318001  0.712883  0.250000  1
  Tl  Tl13  1  0.310950  0.366778  0.250000  1
  Tl  Tl14  1  0.366697  0.310633  0.750000  1
  Tl  Tl15  1  0.687722  0.961060  0.750000  1
  P  P16  1  0.580594  0.351074  0.250000  1
  P  P17  1  0.863012  0.689811  0.750000  1
  P  P18  1  0.351492  0.581228  0.750000  1
  P  P19  1  0.686452  0.861682  0.250000  1
  O  O20  1  0.408123  0.110411  0.750000  1
  O  O21  1  0.513576  0.654068  0.750000  1
  O  O22  1  0.776377  0.899359  0.424119  1
  O  O23  1  0.190532  0.061349  0.959568  1
  O  O24  1  0.528943  0.073381  0.062101  1
  O  O25  1  0.190532  0.061349  0.540432  1
  O  O26  1  0.943934  0.001199  0.750000  1
  O  O27  1  0.484505  0.271974  0.079505  1
  O  O28  1  0.528943  0.073381  0.437899  1
  O  O29  1  0.776377  0.899359  0.075881  1
  O  O30  1  0.990753  0.285204  0.750000  1
  O  O31  1  0.117075  0.417760  0.250000  1
  O  O32  1  0.072676  0.528620  0.937020  1
  O  O33  1  0.840541  0.235749  0.068724  1
  O  O34  1  0.000177  0.944214  0.250000  1
  O  O35  1  0.272686  0.485064  0.579451  1
  O  O36  1  0.549834  0.699874  0.250000  1
  O  O37  1  0.060688  0.191368  0.457962  1
  O  O38  1  0.901620  0.779559  0.575216  1
  O  O39  1  0.901620  0.779559  0.924784  1
  O  O40  1  0.638857  0.957169  0.250000  1
  O  O41  1  0.336192  0.703782  0.750000  1
  O  O42  1  0.701021  0.556094  0.750000  1
  O  O43  1  0.282066  0.989649  0.250000  1
  O  O44  1  0.235704  0.839191  0.933332  1
  O  O45  1  0.060688  0.191368  0.042038  1
  O  O46  1  0.653206  0.513137  0.250000  1
  O  O47  1  0.484505  0.271974  0.420495  1
  O  O48  1  0.235704  0.839191  0.566668  1
  O  O49  1  0.840541  0.235749  0.431276  1
  O  O50  1  0.072676  0.528620  0.562980  1
  O  O51  1  0.959202  0.643082  0.750000  1
  O  O52  1  0.272686  0.485064  0.920549  1
  O  O53  1  0.703394  0.335892  0.250000  1
