# generated using pymatgen
data_Nd5PtPb2
_symmetry_space_group_name_H-M   'P 1'
_cell_length_a   8.32814900
_cell_length_b   9.24235200
_cell_length_c   12.87818700
_cell_angle_alpha   90.00000000
_cell_angle_beta   90.00000000
_cell_angle_gamma   90.00000000
_symmetry_Int_Tables_number   1
_chemical_formula_structural   Nd5PtPb2
_chemical_formula_sum   'Nd20 Pt4 Pb8'
_cell_volume   991.25574755
_cell_formula_units_Z   4
loop_
 _symmetry_equiv_pos_site_id
 _symmetry_equiv_pos_as_xyz
  1  'x, y, z'
loop_
 _atom_site_type_symbol
 _atom_site_label
 _atom_site_symmetry_multiplicity
 _atom_site_fract_x
 _atom_site_fract_y
 _atom_site_fract_z
 _atom_site_occupancy
  Nd  Nd0  1  0.681670  0.463475  0.925927  1
  Nd  Nd1  1  0.181670  0.963476  0.574073  1
  Nd  Nd2  1  0.681670  0.036525  0.925927  1
  Nd  Nd3  1  0.818330  0.463475  0.425927  1
  Nd  Nd4  1  0.948707  0.750000  0.998682  1
  Nd  Nd5  1  0.448707  0.250000  0.501318  1
  Nd  Nd6  1  0.051293  0.250000  0.001318  1
  Nd  Nd7  1  0.551293  0.750000  0.498682  1
  Nd  Nd8  1  0.318330  0.536524  0.074073  1
  Nd  Nd9  1  0.818330  0.036525  0.425927  1
  Nd  Nd10  1  0.318330  0.963476  0.074073  1
  Nd  Nd11  1  0.181670  0.536524  0.574073  1
  Nd  Nd12  1  0.364938  0.750000  0.805214  1
  Nd  Nd13  1  0.864938  0.250000  0.694786  1
  Nd  Nd14  1  0.635062  0.250000  0.194786  1
  Nd  Nd15  1  0.135062  0.750000  0.305214  1
  Nd  Nd16  1  0.833350  0.750000  0.712538  1
  Nd  Nd17  1  0.333350  0.250000  0.787462  1
  Nd  Nd18  1  0.166650  0.250000  0.287462  1
  Nd  Nd19  1  0.666650  0.750000  0.212538  1
  Pt  Pt20  1  0.573339  0.750000  0.992398  1
  Pt  Pt21  1  0.073339  0.250000  0.507602  1
  Pt  Pt22  1  0.426661  0.250000  0.007602  1
  Pt  Pt23  1  0.926661  0.750000  0.492398  1
  Pb  Pb24  1  0.563898  0.494474  0.673437  1
  Pb  Pb25  1  0.936102  0.005526  0.173437  1
  Pb  Pb26  1  0.436102  0.994474  0.326563  1
  Pb  Pb27  1  0.063898  0.505526  0.826563  1
  Pb  Pb28  1  0.436102  0.505526  0.326563  1
  Pb  Pb29  1  0.063898  0.994474  0.826563  1
  Pb  Pb30  1  0.563898  0.005526  0.673437  1
  Pb  Pb31  1  0.936102  0.494474  0.173437  1
