# generated using pymatgen
data_Sr3Tc2(Ni2P3)2
_symmetry_space_group_name_H-M   'P 1'
_cell_length_a   8.51122332
_cell_length_b   8.51697878
_cell_length_c   8.51697838
_cell_angle_alpha   153.70140638
_cell_angle_beta   93.40194044
_cell_angle_gamma   92.53516347
_symmetry_Int_Tables_number   1
_chemical_formula_structural   Sr3Tc2(Ni2P3)2
_chemical_formula_sum   'Sr3 Tc2 Ni4 P6'
_cell_volume   266.34609749
_cell_formula_units_Z   1
loop_
 _symmetry_equiv_pos_site_id
 _symmetry_equiv_pos_as_xyz
  1  'x, y, z'
loop_
 _atom_site_type_symbol
 _atom_site_label
 _atom_site_symmetry_multiplicity
 _atom_site_fract_x
 _atom_site_fract_y
 _atom_site_fract_z
 _atom_site_occupancy
  Sr  Sr0  1  0.324224  0.333331  0.990893  1
  Sr  Sr1  1  0.678299  0.667331  0.010968  1
  Sr  Sr2  1  0.991769  0.999525  0.992244  1
  Tc  Tc3  1  0.575886  0.831317  0.744568  1
  Tc  Tc4  1  0.247470  0.502707  0.744762  1
  Ni  Ni5  1  0.749261  0.496920  0.252341  1
  Ni  Ni6  1  0.091664  0.837562  0.254102  1
  Ni  Ni7  1  0.413843  0.167319  0.246524  1
  Ni  Ni8  1  0.918650  0.163905  0.754746  1
  P  P9  1  0.304844  0.667028  0.637815  1
  P  P10  1  0.688064  0.331720  0.356344  1
  P  P11  1  0.984030  0.328637  0.655393  1
  P  P12  1  0.359073  0.002772  0.356301  1
  P  P13  1  0.017618  0.666730  0.350888  1
  P  P14  1  0.655305  0.003194  0.652112  1
