# generated using pymatgen
data_NaNdGePt3
_symmetry_space_group_name_H-M   'P 1'
_cell_length_a   5.58824388
_cell_length_b   5.58824384
_cell_length_c   5.27302788
_cell_angle_alpha   58.00201026
_cell_angle_beta   58.00201467
_cell_angle_gamma   59.99999069
_symmetry_Int_Tables_number   1
_chemical_formula_structural   NaNdGePt3
_chemical_formula_sum   'Na1 Nd1 Ge1 Pt3'
_cell_volume   112.79703229
_cell_formula_units_Z   1
loop_
 _symmetry_equiv_pos_site_id
 _symmetry_equiv_pos_as_xyz
  1  'x, y, z'
loop_
 _atom_site_type_symbol
 _atom_site_label
 _atom_site_symmetry_multiplicity
 _atom_site_fract_x
 _atom_site_fract_y
 _atom_site_fract_z
 _atom_site_occupancy
  Na  Na0  1  0.752060  0.752060  0.743820  1
  Nd  Nd1  1  0.503814  0.503814  0.488558  1
  Ge  Ge2  1  0.122450  0.122450  0.632650  1
  Pt  Pt3  1  0.122933  0.122933  0.128324  1
  Pt  Pt4  1  0.625811  0.122933  0.128324  1
  Pt  Pt5  1  0.122933  0.625811  0.128324  1
