# generated using pymatgen
data_Tb2Ga2NiIr
_symmetry_space_group_name_H-M   'P 1'
_cell_length_a   4.32936300
_cell_length_b   6.82601500
_cell_length_c   7.64964100
_cell_angle_alpha   90.00000000
_cell_angle_beta   90.00000000
_cell_angle_gamma   90.00000000
_symmetry_Int_Tables_number   1
_chemical_formula_structural   Tb2Ga2NiIr
_chemical_formula_sum   'Tb4 Ga4 Ni2 Ir2'
_cell_volume   226.06446108
_cell_formula_units_Z   2
loop_
 _symmetry_equiv_pos_site_id
 _symmetry_equiv_pos_as_xyz
  1  'x, y, z'
loop_
 _atom_site_type_symbol
 _atom_site_label
 _atom_site_symmetry_multiplicity
 _atom_site_fract_x
 _atom_site_fract_y
 _atom_site_fract_z
 _atom_site_occupancy
  Tb  Tb0  1  0.250000  0.024020  0.811061  1
  Tb  Tb1  1  0.250000  0.524020  0.688939  1
  Tb  Tb2  1  0.750000  0.979485  0.191339  1
  Tb  Tb3  1  0.750000  0.479485  0.308661  1
  Ga  Ga4  1  0.250000  0.163641  0.438085  1
  Ga  Ga5  1  0.250000  0.663641  0.061915  1
  Ga  Ga6  1  0.750000  0.840515  0.577792  1
  Ga  Ga7  1  0.750000  0.340515  0.922208  1
  Ni  Ni8  1  0.750000  0.218288  0.609209  1
  Ni  Ni9  1  0.750000  0.718288  0.890791  1
  Ir  Ir10  1  0.250000  0.774050  0.391929  1
  Ir  Ir11  1  0.250000  0.274050  0.108071  1
