# generated using pymatgen
data_Ti4MnB2P
_symmetry_space_group_name_H-M   'P 1'
_cell_length_a   7.02087935
_cell_length_b   7.02087959
_cell_length_c   7.02087898
_cell_angle_alpha   130.77782796
_cell_angle_beta   130.77782537
_cell_angle_gamma   72.16630192
_symmetry_Int_Tables_number   1
_chemical_formula_structural   Ti4MnB2P
_chemical_formula_sum   'Ti8 Mn2 B4 P2'
_cell_volume   194.03196789
_cell_formula_units_Z   2
loop_
 _symmetry_equiv_pos_site_id
 _symmetry_equiv_pos_as_xyz
  1  'x, y, z'
loop_
 _atom_site_type_symbol
 _atom_site_label
 _atom_site_symmetry_multiplicity
 _atom_site_fract_x
 _atom_site_fract_y
 _atom_site_fract_z
 _atom_site_occupancy
  Ti  Ti0  1  0.190948  0.690948  0.150425  1
  Ti  Ti1  1  0.459477  0.959477  0.150425  1
  Ti  Ti2  1  0.540523  0.040523  0.849575  1
  Ti  Ti3  1  0.040523  0.190948  0.500000  1
  Ti  Ti4  1  0.690948  0.540523  0.500000  1
  Ti  Ti5  1  0.959477  0.809052  0.500000  1
  Ti  Ti6  1  0.309052  0.459477  0.500000  1
  Ti  Ti7  1  0.809052  0.309052  0.849575  1
  Mn  Mn8  1  0.000000  0.000000  0.000000  1
  Mn  Mn9  1  0.500000  0.500000  0.000000  1
  B  B10  1  0.885961  0.385961  0.271922  1
  B  B11  1  0.385961  0.114039  0.500000  1
  B  B12  1  0.614039  0.885961  0.500000  1
  B  B13  1  0.114039  0.614039  0.728078  1
  P  P14  1  0.750000  0.750000  0.000000  1
  P  P15  1  0.250000  0.250000  0.000000  1
