# generated using pymatgen
data_Ho4Zn28Cu5Ni
_symmetry_space_group_name_H-M   'P 1'
_cell_length_a   8.85222797
_cell_length_b   8.86196549
_cell_length_c   8.67264391
_cell_angle_alpha   90.00005079
_cell_angle_beta   90.08131413
_cell_angle_gamma   120.03542549
_symmetry_Int_Tables_number   1
_chemical_formula_structural   Ho4Zn28Cu5Ni
_chemical_formula_sum   'Ho4 Zn28 Cu5 Ni1'
_cell_volume   588.99155182
_cell_formula_units_Z   1
loop_
 _symmetry_equiv_pos_site_id
 _symmetry_equiv_pos_as_xyz
  1  'x, y, z'
loop_
 _atom_site_type_symbol
 _atom_site_label
 _atom_site_symmetry_multiplicity
 _atom_site_fract_x
 _atom_site_fract_y
 _atom_site_fract_z
 _atom_site_occupancy
  Ho  Ho0  1  0.000379  0.000192  0.751979  1
  Ho  Ho1  1  0.999621  0.999808  0.248021  1
  Ho  Ho2  1  0.668524  0.334254  0.249691  1
  Ho  Ho3  1  0.331476  0.665746  0.750309  1
  Zn  Zn4  1  0.671855  0.335919  0.596133  1
  Zn  Zn5  1  0.328145  0.664081  0.403867  1
  Zn  Zn6  1  0.333716  0.666869  0.096405  1
  Zn  Zn7  1  0.666284  0.333131  0.903595  1
  Zn  Zn8  1  0.667208  0.034729  0.750635  1
  Zn  Zn9  1  0.368780  0.333145  0.750284  1
  Zn  Zn10  1  0.964548  0.629923  0.748274  1
  Zn  Zn11  1  0.368745  0.035606  0.750285  1
  Zn  Zn12  1  0.964530  0.334643  0.748275  1
  Zn  Zn13  1  0.667221  0.632482  0.750636  1
  Zn  Zn14  1  0.332792  0.965271  0.249365  1
  Zn  Zn15  1  0.631220  0.666855  0.249716  1
  Zn  Zn16  1  0.035452  0.370077  0.251726  1
  Zn  Zn17  1  0.631255  0.964394  0.249715  1
  Zn  Zn18  1  0.035470  0.665357  0.251725  1
  Zn  Zn19  1  0.332779  0.367518  0.249364  1
  Zn  Zn20  1  0.835445  0.666871  0.479368  1
  Zn  Zn21  1  0.835467  0.168561  0.479390  1
  Zn  Zn22  1  0.328710  0.164359  0.479468  1
  Zn  Zn23  1  0.164555  0.333129  0.520632  1
  Zn  Zn24  1  0.164533  0.831439  0.520610  1
  Zn  Zn25  1  0.671290  0.835641  0.520532  1
  Zn  Zn26  1  0.164349  0.329862  0.979843  1
  Zn  Zn27  1  0.164326  0.834499  0.979866  1
  Zn  Zn28  1  0.670388  0.835190  0.979345  1
  Zn  Zn29  1  0.835651  0.670138  0.020157  1
  Zn  Zn30  1  0.835674  0.165501  0.020134  1
  Zn  Zn31  1  0.329612  0.164810  0.020655  1
  Cu  Cu32  1  0.500000  0.000000  0.500000  1
  Cu  Cu33  1  0.500000  0.500000  0.500000  1
  Cu  Cu34  1  0.500000  0.000000  0.000000  1
  Cu  Cu35  1  0.500000  0.500000  0.000000  1
  Cu  Cu36  1  0.000000  0.500000  0.000000  1
  Ni  Ni37  1  0.000000  0.500000  0.500000  1
