# generated using pymatgen
data_Tb2YTm5CdHgIr2
_symmetry_space_group_name_H-M   'P 1'
_cell_length_a   9.56008622
_cell_length_b   9.56499710
_cell_length_c   9.55824526
_cell_angle_alpha   59.98936260
_cell_angle_beta   60.04035033
_cell_angle_gamma   60.12329381
_symmetry_Int_Tables_number   1
_chemical_formula_structural   Tb2YTm5CdHgIr2
_chemical_formula_sum   'Tb4 Y2 Tm10 Cd2 Hg2 Ir4'
_cell_volume   618.74308885
_cell_formula_units_Z   2
loop_
 _symmetry_equiv_pos_site_id
 _symmetry_equiv_pos_as_xyz
  1  'x, y, z'
loop_
 _atom_site_type_symbol
 _atom_site_label
 _atom_site_symmetry_multiplicity
 _atom_site_fract_x
 _atom_site_fract_y
 _atom_site_fract_z
 _atom_site_occupancy
  Tb  Tb0  1  0.810064  0.188918  0.810608  1
  Tb  Tb1  1  0.188918  0.810064  0.190411  1
  Tb  Tb2  1  0.810212  0.810212  0.189788  1
  Tb  Tb3  1  0.189440  0.189440  0.810560  1
  Y  Y4  1  0.188618  0.810627  0.811094  1
  Y  Y5  1  0.810627  0.188618  0.189663  1
  Tm  Tm6  1  0.599153  0.599042  0.597401  1
  Tm  Tm7  1  0.599042  0.599153  0.204405  1
  Tm  Tm8  1  0.600791  0.200986  0.599140  1
  Tm  Tm9  1  0.200986  0.600791  0.599084  1
  Tm  Tm10  1  0.060714  0.437217  0.439710  1
  Tm  Tm11  1  0.437217  0.060714  0.062357  1
  Tm  Tm12  1  0.437406  0.060854  0.439603  1
  Tm  Tm13  1  0.060854  0.437406  0.062135  1
  Tm  Tm14  1  0.438145  0.438145  0.061855  1
  Tm  Tm15  1  0.060875  0.060875  0.439125  1
  Cd  Cd16  1  0.829788  0.508947  0.830834  1
  Cd  Cd17  1  0.508947  0.829788  0.830432  1
  Hg  Hg18  1  0.833277  0.832832  0.834626  1
  Hg  Hg19  1  0.832832  0.833277  0.499264  1
  Ir  Ir20  1  0.392350  0.392420  0.391371  1
  Ir  Ir21  1  0.392420  0.392350  0.823861  1
  Ir  Ir22  1  0.392340  0.824985  0.391202  1
  Ir  Ir23  1  0.824985  0.392340  0.391473  1
