# generated using pymatgen
data_YThNp6F30
_symmetry_space_group_name_H-M   'P 1'
_cell_length_a   8.69896238
_cell_length_b   8.69896182
_cell_length_c   8.72535188
_cell_angle_alpha   79.21699488
_cell_angle_beta   79.21698931
_cell_angle_gamma   99.84216117
_symmetry_Int_Tables_number   1
_chemical_formula_structural   YThNp6F30
_chemical_formula_sum   'Y1 Th1 Np6 F30'
_cell_volume   622.47544410
_cell_formula_units_Z   1
loop_
 _symmetry_equiv_pos_site_id
 _symmetry_equiv_pos_as_xyz
  1  'x, y, z'
loop_
 _atom_site_type_symbol
 _atom_site_label
 _atom_site_symmetry_multiplicity
 _atom_site_fract_x
 _atom_site_fract_y
 _atom_site_fract_z
 _atom_site_occupancy
  Y  Y0  1  0.823353  0.176647  0.750000  1
  Th  Th1  1  0.177978  0.822022  0.250000  1
  Np  Np2  1  0.751216  0.248784  0.250000  1
  Np  Np3  1  0.249309  0.750691  0.750000  1
  Np  Np4  1  0.748948  0.676086  0.681113  1
  Np  Np5  1  0.323914  0.251052  0.818887  1
  Np  Np6  1  0.247888  0.321915  0.324687  1
  Np  Np7  1  0.678085  0.752112  0.175313  1
  F  F8  1  0.321095  0.335707  0.054468  1
  F  F9  1  0.948469  0.819206  0.154034  1
  F  F10  1  0.839061  0.448097  0.683622  1
  F  F11  1  0.451987  0.853695  0.174606  1
  F  F12  1  0.813762  0.941834  0.665191  1
  F  F13  1  0.344740  0.326117  0.549213  1
  F  F14  1  0.673883  0.655260  0.950786  1
  F  F15  1  0.058166  0.186238  0.834809  1
  F  F16  1  0.146305  0.548013  0.325394  1
  F  F17  1  0.551903  0.160939  0.816378  1
  F  F18  1  0.180794  0.051531  0.345966  1
  F  F19  1  0.664293  0.678905  0.445532  1
  F  F20  1  0.779945  0.274964  0.994032  1
  F  F21  1  0.012580  0.279202  0.218511  1
  F  F22  1  0.780447  0.510657  0.217258  1
  F  F23  1  0.507977  0.779014  0.720291  1
  F  F24  1  0.280590  0.011747  0.718329  1
  F  F25  1  0.285174  0.777826  0.488173  1
  F  F26  1  0.222174  0.714826  0.011827  1
  F  F27  1  0.988253  0.719410  0.781671  1
  F  F28  1  0.220986  0.492023  0.779709  1
  F  F29  1  0.489343  0.219553  0.282742  1
  F  F30  1  0.720798  0.987420  0.281489  1
  F  F31  1  0.725036  0.220055  0.505968  1
  F  F32  1  0.460000  0.540000  0.250000  1
  F  F33  1  0.753273  0.964421  0.968686  1
  F  F34  1  0.035579  0.246727  0.531314  1
  F  F35  1  0.246512  0.034039  0.031331  1
  F  F36  1  0.965961  0.753488  0.468669  1
  F  F37  1  0.530224  0.469776  0.750000  1
