# generated using pymatgen
data_Pd4Se3Br4
_symmetry_space_group_name_H-M   'P 1'
_cell_length_a   8.38123262
_cell_length_b   8.87187550
_cell_length_c   9.19067254
_cell_angle_alpha   110.22597289
_cell_angle_beta   99.10145761
_cell_angle_gamma   90.63827305
_symmetry_Int_Tables_number   1
_chemical_formula_structural   Pd4Se3Br4
_chemical_formula_sum   'Pd8 Se6 Br8'
_cell_volume   631.57906400
_cell_formula_units_Z   2
loop_
 _symmetry_equiv_pos_site_id
 _symmetry_equiv_pos_as_xyz
  1  'x, y, z'
loop_
 _atom_site_type_symbol
 _atom_site_label
 _atom_site_symmetry_multiplicity
 _atom_site_fract_x
 _atom_site_fract_y
 _atom_site_fract_z
 _atom_site_occupancy
  Pd  Pd0  1  0.218447  0.566045  0.999133  1
  Pd  Pd1  1  0.433327  0.228210  0.988400  1
  Pd  Pd2  1  0.566673  0.771790  0.011600  1
  Pd  Pd3  1  0.781553  0.433955  0.000867  1
  Pd  Pd4  1  0.917864  0.809594  0.329957  1
  Pd  Pd5  1  0.479000  0.411988  0.715682  1
  Pd  Pd6  1  0.082136  0.190406  0.670043  1
  Pd  Pd7  1  0.521000  0.588012  0.284318  1
  Se  Se8  1  0.152468  0.287357  0.960754  1
  Se  Se9  1  0.198346  0.464247  0.717118  1
  Se  Se10  1  0.801654  0.535753  0.282882  1
  Se  Se11  1  0.378496  0.154204  0.707751  1
  Se  Se12  1  0.621504  0.845796  0.292249  1
  Se  Se13  1  0.847532  0.712643  0.039246  1
  Br  Br14  1  0.459397  0.307710  0.285229  1
  Br  Br15  1  0.540603  0.692290  0.714771  1
  Br  Br16  1  0.277091  0.851881  0.012073  1
  Br  Br17  1  0.219851  0.655374  0.297325  1
  Br  Br18  1  0.022410  0.098950  0.366325  1
  Br  Br19  1  0.977590  0.901050  0.633675  1
  Br  Br20  1  0.722909  0.148119  0.987927  1
  Br  Br21  1  0.780149  0.344626  0.702675  1
