# generated using pymatgen
data_NdDy3Er2Ta2O14
_symmetry_space_group_name_H-M   'P 1'
_cell_length_a   6.48971606
_cell_length_b   6.48851563
_cell_length_c   7.50828909
_cell_angle_alpha   90.05247888
_cell_angle_beta   89.88518696
_cell_angle_gamma   108.66757954
_symmetry_Int_Tables_number   1
_chemical_formula_structural   NdDy3Er2Ta2O14
_chemical_formula_sum   'Nd1 Dy3 Er2 Ta2 O14'
_cell_volume   299.53022321
_cell_formula_units_Z   1
loop_
 _symmetry_equiv_pos_site_id
 _symmetry_equiv_pos_as_xyz
  1  'x, y, z'
loop_
 _atom_site_type_symbol
 _atom_site_label
 _atom_site_symmetry_multiplicity
 _atom_site_fract_x
 _atom_site_fract_y
 _atom_site_fract_z
 _atom_site_occupancy
  Nd  Nd0  1  0.479703  0.478942  0.000934  1
  Dy  Dy1  1  0.538988  0.538021  0.499326  1
  Dy  Dy2  1  0.000602  0.465483  0.739738  1
  Dy  Dy3  1  0.534064  0.000738  0.754892  1
  Er  Er4  1  0.000950  0.534134  0.244944  1
  Er  Er5  1  0.465445  0.000034  0.260672  1
  Ta  Ta6  1  0.002492  0.002759  0.498960  1
  Ta  Ta7  1  0.998383  0.998757  0.001064  1
  O  O8  1  0.933190  0.066365  0.750047  1
  O  O9  1  0.640754  0.358839  0.741744  1
  O  O10  1  0.308595  0.050462  0.541788  1
  O  O11  1  0.941324  0.686586  0.958842  1
  O  O12  1  0.634007  0.366952  0.258223  1
  O  O13  1  0.918326  0.672350  0.523402  1
  O  O14  1  0.326539  0.076447  0.975693  1
  O  O15  1  0.075622  0.326278  0.027547  1
  O  O16  1  0.672637  0.918752  0.473359  1
  O  O17  1  0.368440  0.632622  0.741563  1
  O  O18  1  0.687889  0.944514  0.045222  1
  O  O19  1  0.047184  0.307183  0.454100  1
  O  O20  1  0.356276  0.642971  0.257998  1
  O  O21  1  0.068592  0.930808  0.249943  1
