# generated using pymatgen
data_Tm4Si3Ni4Ge
_symmetry_space_group_name_H-M   'P 1'
_cell_length_a   4.12601800
_cell_length_b   6.77957849
_cell_length_c   7.17681050
_cell_angle_alpha   89.95689218
_cell_angle_beta   90.00000000
_cell_angle_gamma   90.00000000
_symmetry_Int_Tables_number   1
_chemical_formula_structural   Tm4Si3Ni4Ge
_chemical_formula_sum   'Tm4 Si3 Ni4 Ge1'
_cell_volume   200.75444378
_cell_formula_units_Z   1
loop_
 _symmetry_equiv_pos_site_id
 _symmetry_equiv_pos_as_xyz
  1  'x, y, z'
loop_
 _atom_site_type_symbol
 _atom_site_label
 _atom_site_symmetry_multiplicity
 _atom_site_fract_x
 _atom_site_fract_y
 _atom_site_fract_z
 _atom_site_occupancy
  Tm  Tm0  1  0.250000  0.505706  0.702472  1
  Tm  Tm1  1  0.250000  0.009766  0.797733  1
  Tm  Tm2  1  0.750000  0.992831  0.202478  1
  Tm  Tm3  1  0.750000  0.490828  0.296379  1
  Si  Si4  1  0.750000  0.307316  0.911413  1
  Si  Si5  1  0.250000  0.191643  0.411041  1
  Si  Si6  1  0.250000  0.693178  0.088826  1
  Ni  Ni7  1  0.750000  0.197119  0.583749  1
  Ni  Ni8  1  0.250000  0.812394  0.407992  1
  Ni  Ni9  1  0.750000  0.683637  0.924771  1
  Ni  Ni10  1  0.250000  0.311320  0.082552  1
  Ge  Ge11  1  0.750000  0.804262  0.590593  1
