# generated using pymatgen
data_Dy10Ho10CoBi8Os3
_symmetry_space_group_name_H-M   'P 1'
_cell_length_a   7.96494150
_cell_length_b   9.00815200
_cell_length_c   12.45053937
_cell_angle_alpha   90.00000000
_cell_angle_beta   89.76204267
_cell_angle_gamma   90.00000000
_symmetry_Int_Tables_number   1
_chemical_formula_structural   Dy10Ho10CoBi8Os3
_chemical_formula_sum   'Dy10 Ho10 Co1 Bi8 Os3'
_cell_volume   893.31107173
_cell_formula_units_Z   1
loop_
 _symmetry_equiv_pos_site_id
 _symmetry_equiv_pos_as_xyz
  1  'x, y, z'
loop_
 _atom_site_type_symbol
 _atom_site_label
 _atom_site_symmetry_multiplicity
 _atom_site_fract_x
 _atom_site_fract_y
 _atom_site_fract_z
 _atom_site_occupancy
  Dy  Dy0  1  0.344652  0.750000  0.701549  1
  Dy  Dy1  1  0.658024  0.250000  0.292397  1
  Dy  Dy2  1  0.842532  0.250000  0.791299  1
  Dy  Dy3  1  0.156182  0.750000  0.206807  1
  Dy  Dy4  1  0.879247  0.750000  0.805846  1
  Dy  Dy5  1  0.120019  0.250000  0.193779  1
  Dy  Dy6  1  0.378599  0.250000  0.693096  1
  Dy  Dy7  1  0.616668  0.750000  0.312375  1
  Dy  Dy8  1  0.055247  0.750000  0.496838  1
  Dy  Dy9  1  0.442647  0.750000  0.995798  1
  Ho  Ho10  1  0.675518  0.541975  0.563672  1
  Ho  Ho11  1  0.325055  0.460531  0.436888  1
  Ho  Ho12  1  0.174923  0.457821  0.936052  1
  Ho  Ho13  1  0.325055  0.039469  0.436888  1
  Ho  Ho14  1  0.824456  0.542906  0.064203  1
  Ho  Ho15  1  0.675518  0.958025  0.563672  1
  Ho  Ho16  1  0.824456  0.957094  0.064203  1
  Ho  Ho17  1  0.174923  0.042179  0.936052  1
  Ho  Ho18  1  0.945066  0.250000  0.503148  1
  Ho  Ho19  1  0.557763  0.250000  0.003606  1
  Co  Co20  1  0.429700  0.750000  0.491209  1
  Bi  Bi21  1  0.570221  0.508609  0.827259  1
  Bi  Bi22  1  0.429629  0.492073  0.172988  1
  Bi  Bi23  1  0.071451  0.491844  0.671846  1
  Bi  Bi24  1  0.429629  0.007927  0.172988  1
  Bi  Bi25  1  0.929229  0.508837  0.328532  1
  Bi  Bi26  1  0.570221  0.991391  0.827259  1
  Bi  Bi27  1  0.929229  0.991163  0.328532  1
  Bi  Bi28  1  0.071451  0.008156  0.671846  1
  Os  Os29  1  0.075181  0.750000  0.989194  1
  Os  Os30  1  0.923965  0.250000  0.010187  1
  Os  Os31  1  0.573548  0.250000  0.509995  1
