# generated using pymatgen
data_Nb2ZnFe(BRu2)2
_symmetry_space_group_name_H-M   'P 1'
_cell_length_a   9.16755900
_cell_length_b   9.16755900
_cell_length_c   3.00921400
_cell_angle_alpha   90.00000000
_cell_angle_beta   90.00000000
_cell_angle_gamma   90.00000000
_symmetry_Int_Tables_number   1
_chemical_formula_structural   Nb2ZnFe(BRu2)2
_chemical_formula_sum   'Nb4 Zn2 Fe2 B4 Ru8'
_cell_volume   252.90679674
_cell_formula_units_Z   2
loop_
 _symmetry_equiv_pos_site_id
 _symmetry_equiv_pos_as_xyz
  1  'x, y, z'
loop_
 _atom_site_type_symbol
 _atom_site_label
 _atom_site_symmetry_multiplicity
 _atom_site_fract_x
 _atom_site_fract_y
 _atom_site_fract_z
 _atom_site_occupancy
  Nb  Nb0  1  0.827685  0.672315  0.000000  1
  Nb  Nb1  1  0.172315  0.327685  0.000000  1
  Nb  Nb2  1  0.327685  0.827685  0.000000  1
  Nb  Nb3  1  0.672315  0.172315  0.000000  1
  Zn  Zn4  1  0.500000  0.500000  0.000000  1
  Zn  Zn5  1  0.000000  0.000000  0.000000  1
  Fe  Fe6  1  0.500000  0.000000  0.500000  1
  Fe  Fe7  1  0.000000  0.500000  0.500000  1
  B  B8  1  0.618717  0.881283  0.000000  1
  B  B9  1  0.381283  0.118717  0.000000  1
  B  B10  1  0.118717  0.618717  0.000000  1
  B  B11  1  0.881283  0.381283  0.000000  1
  Ru  Ru12  1  0.565151  0.720397  0.500000  1
  Ru  Ru13  1  0.434849  0.279603  0.500000  1
  Ru  Ru14  1  0.065151  0.779603  0.500000  1
  Ru  Ru15  1  0.934849  0.220397  0.500000  1
  Ru  Ru16  1  0.279603  0.565151  0.500000  1
  Ru  Ru17  1  0.720397  0.434849  0.500000  1
  Ru  Ru18  1  0.220397  0.065151  0.500000  1
  Ru  Ru19  1  0.779603  0.934849  0.500000  1
