# generated using pymatgen
data_Tm8Ga3Ir
_symmetry_space_group_name_H-M   'P 1'
_cell_length_a   9.93619700
_cell_length_b   9.93619637
_cell_length_c   6.92052100
_cell_angle_alpha   90.00000000
_cell_angle_beta   90.00000000
_cell_angle_gamma   120.00000543
_symmetry_Int_Tables_number   1
_chemical_formula_structural   Tm8Ga3Ir
_chemical_formula_sum   'Tm16 Ga6 Ir2'
_cell_volume   591.71115676
_cell_formula_units_Z   2
loop_
 _symmetry_equiv_pos_site_id
 _symmetry_equiv_pos_as_xyz
  1  'x, y, z'
loop_
 _atom_site_type_symbol
 _atom_site_label
 _atom_site_symmetry_multiplicity
 _atom_site_fract_x
 _atom_site_fract_y
 _atom_site_fract_z
 _atom_site_occupancy
  Tm  Tm0  1  0.171279  0.828721  0.989943  1
  Tm  Tm1  1  0.342557  0.171279  0.489943  1
  Tm  Tm2  1  0.828721  0.657443  0.489943  1
  Tm  Tm3  1  0.171279  0.342557  0.989943  1
  Tm  Tm4  1  0.657443  0.828721  0.989943  1
  Tm  Tm5  1  0.828721  0.171279  0.489943  1
  Tm  Tm6  1  0.333333  0.666667  0.663041  1
  Tm  Tm7  1  0.666667  0.333333  0.163041  1
  Tm  Tm8  1  0.465703  0.534297  0.294623  1
  Tm  Tm9  1  0.931404  0.465703  0.794623  1
  Tm  Tm10  1  0.534297  0.068596  0.794623  1
  Tm  Tm11  1  0.465703  0.931404  0.294623  1
  Tm  Tm12  1  0.068596  0.534297  0.294623  1
  Tm  Tm13  1  0.534297  0.465703  0.794623  1
  Tm  Tm14  1  0.000000  0.000000  0.266720  1
  Tm  Tm15  1  0.000000  0.000000  0.766720  1
  Ga  Ga16  1  0.163401  0.836599  0.540474  1
  Ga  Ga17  1  0.326803  0.163401  0.040474  1
  Ga  Ga18  1  0.836599  0.673197  0.040474  1
  Ga  Ga19  1  0.163401  0.326803  0.540474  1
  Ga  Ga20  1  0.673197  0.836599  0.540474  1
  Ga  Ga21  1  0.836599  0.163401  0.040474  1
  Ir  Ir22  1  0.333333  0.666667  0.057120  1
  Ir  Ir23  1  0.666667  0.333333  0.557120  1
