# generated using pymatgen
data_SrLa2(OsO5)2
_symmetry_space_group_name_H-M   'P 1'
_cell_length_a   5.68767695
_cell_length_b   5.68767713
_cell_length_c   7.09350271
_cell_angle_alpha   72.06334388
_cell_angle_beta   72.06334929
_cell_angle_gamma   89.59927791
_symmetry_Int_Tables_number   1
_chemical_formula_structural   SrLa2(OsO5)2
_chemical_formula_sum   'Sr1 La2 Os2 O10'
_cell_volume   206.72813904
_cell_formula_units_Z   1
loop_
 _symmetry_equiv_pos_site_id
 _symmetry_equiv_pos_as_xyz
  1  'x, y, z'
loop_
 _atom_site_type_symbol
 _atom_site_label
 _atom_site_symmetry_multiplicity
 _atom_site_fract_x
 _atom_site_fract_y
 _atom_site_fract_z
 _atom_site_occupancy
  Sr  Sr0  1  0.500000  0.500000  0.000000  1
  La  La1  1  0.758501  0.241499  0.500000  1
  La  La2  1  0.241499  0.758501  0.500000  1
  Os  Os3  1  0.134178  0.134178  0.825217  1
  Os  Os4  1  0.865822  0.865822  0.174783  1
  O  O5  1  0.832966  0.832966  0.474303  1
  O  O6  1  0.167034  0.167034  0.525697  1
  O  O7  1  0.602262  0.602262  0.286470  1
  O  O8  1  0.397738  0.397738  0.713530  1
  O  O9  1  0.359665  0.897923  0.784193  1
  O  O10  1  0.855044  0.855044  0.905499  1
  O  O11  1  0.144956  0.144956  0.094501  1
  O  O12  1  0.897923  0.359665  0.784193  1
  O  O13  1  0.640335  0.102077  0.215807  1
  O  O14  1  0.102077  0.640335  0.215807  1
