# generated using pymatgen
data_Hf10Al2Bi3Pb
_symmetry_space_group_name_H-M   'P 1'
_cell_length_a   5.61377983
_cell_length_b   8.40574792
_cell_length_c   8.41520653
_cell_angle_alpha   83.60509289
_cell_angle_beta   70.51563119
_cell_angle_gamma   70.49281851
_symmetry_Int_Tables_number   1
_chemical_formula_structural   Hf10Al2Bi3Pb
_chemical_formula_sum   'Hf10 Al2 Bi3 Pb1'
_cell_volume   352.86800198
_cell_formula_units_Z   1
loop_
 _symmetry_equiv_pos_site_id
 _symmetry_equiv_pos_as_xyz
  1  'x, y, z'
loop_
 _atom_site_type_symbol
 _atom_site_label
 _atom_site_symmetry_multiplicity
 _atom_site_fract_x
 _atom_site_fract_y
 _atom_site_fract_z
 _atom_site_occupancy
  Hf  Hf0  1  0.073674  0.137460  0.715192  1
  Hf  Hf1  1  0.926296  0.862441  0.284966  1
  Hf  Hf2  1  0.788695  0.285517  0.137092  1
  Hf  Hf3  1  0.425649  0.285366  0.863336  1
  Hf  Hf4  1  0.211015  0.714634  0.863336  1
  Hf  Hf5  1  0.574213  0.714483  0.137092  1
  Hf  Hf6  1  0.711134  0.862540  0.715192  1
  Hf  Hf7  1  0.288737  0.137559  0.284966  1
  Hf  Hf8  1  0.248995  0.500000  0.499604  1
  Hf  Hf9  1  0.751402  0.500000  0.499604  1
  Al  Al10  1  0.250043  0.000000  0.999914  1
  Al  Al11  1  0.750043  0.000000  0.999914  1
  Bi  Bi12  1  0.835005  0.500000  0.829989  1
  Bi  Bi13  1  0.335082  0.829937  0.499899  1
  Bi  Bi14  1  0.665019  0.170063  0.499899  1
  Pb  Pb15  1  0.164997  0.500000  0.170006  1
