# generated using pymatgen
data_SrPRuF
_symmetry_space_group_name_H-M   'P 1'
_cell_length_a   4.07107600
_cell_length_b   4.07107600
_cell_length_c   8.63870900
_cell_angle_alpha   90.00000000
_cell_angle_beta   90.00000000
_cell_angle_gamma   90.00000000
_symmetry_Int_Tables_number   1
_chemical_formula_structural   SrPRuF
_chemical_formula_sum   'Sr2 P2 Ru2 F2'
_cell_volume   143.17502406
_cell_formula_units_Z   2
loop_
 _symmetry_equiv_pos_site_id
 _symmetry_equiv_pos_as_xyz
  1  'x, y, z'
loop_
 _atom_site_type_symbol
 _atom_site_label
 _atom_site_symmetry_multiplicity
 _atom_site_fract_x
 _atom_site_fract_y
 _atom_site_fract_z
 _atom_site_occupancy
  Sr  Sr0  1  0.000000  0.000000  0.165941  1
  Sr  Sr1  1  0.499999  0.499999  0.834061  1
  P  P2  1  0.499999  0.499999  0.364838  1
  P  P3  1  0.000000  0.000000  0.635162  1
  Ru  Ru4  1  0.499998  0.000000  0.500000  1
  Ru  Ru5  1  0.000000  0.499998  0.500000  1
  F  F6  1  0.499998  0.000000  0.000000  1
  F  F7  1  0.000000  0.499998  0.000000  1
