# generated using pymatgen
data_Ce4EuSi3H
_symmetry_space_group_name_H-M   'P 1'
_cell_length_a   8.67022409
_cell_length_b   8.67022373
_cell_length_c   8.64161100
_cell_angle_alpha   126.70459323
_cell_angle_beta   126.70458321
_cell_angle_gamma   78.96351890
_symmetry_Int_Tables_number   1
_chemical_formula_structural   Ce4EuSi3H
_chemical_formula_sum   'Ce8 Eu2 Si6 H2'
_cell_volume   403.42062143
_cell_formula_units_Z   2
loop_
 _symmetry_equiv_pos_site_id
 _symmetry_equiv_pos_as_xyz
  1  'x, y, z'
loop_
 _atom_site_type_symbol
 _atom_site_label
 _atom_site_symmetry_multiplicity
 _atom_site_fract_x
 _atom_site_fract_y
 _atom_site_fract_z
 _atom_site_occupancy
  Ce  Ce0  1  0.498026  0.498026  0.000000  1
  Ce  Ce1  1  0.998026  0.998026  0.000000  1
  Ce  Ce2  1  0.526117  0.026117  0.859701  1
  Ce  Ce3  1  0.166418  0.666418  0.140299  1
  Ce  Ce4  1  0.026564  0.177348  0.500000  1
  Ce  Ce5  1  0.677348  0.526564  0.500000  1
  Ce  Ce6  1  0.475239  0.975239  0.146577  1
  Ce  Ce7  1  0.828660  0.328660  0.853423  1
  Eu  Eu8  1  0.974266  0.826432  0.500000  1
  Eu  Eu9  1  0.326432  0.474266  0.500000  1
  Si  Si10  1  0.253105  0.253105  0.000000  1
  Si  Si11  1  0.753105  0.753105  0.000000  1
  Si  Si12  1  0.882496  0.382496  0.268273  1
  Si  Si13  1  0.114224  0.614224  0.731727  1
  Si  Si14  1  0.386492  0.110604  0.500000  1
  Si  Si15  1  0.610604  0.886492  0.500000  1
  H  H16  1  0.251341  0.751341  0.500000  1
  H  H17  1  0.751536  0.251536  0.500000  1
