# generated using pymatgen
data_K2RbAgPb4
_symmetry_space_group_name_H-M   'P 1'
_cell_length_a   7.05190600
_cell_length_b   7.07639000
_cell_length_c   12.94221300
_cell_angle_alpha   90.00000000
_cell_angle_beta   90.00000000
_cell_angle_gamma   90.00000000
_symmetry_Int_Tables_number   1
_chemical_formula_structural   K2RbAgPb4
_chemical_formula_sum   'K4 Rb2 Ag2 Pb8'
_cell_volume   645.84279327
_cell_formula_units_Z   2
loop_
 _symmetry_equiv_pos_site_id
 _symmetry_equiv_pos_as_xyz
  1  'x, y, z'
loop_
 _atom_site_type_symbol
 _atom_site_label
 _atom_site_symmetry_multiplicity
 _atom_site_fract_x
 _atom_site_fract_y
 _atom_site_fract_z
 _atom_site_occupancy
  K  K0  1  0.165766  0.000000  0.751315  1
  K  K1  1  0.165766  0.000000  0.248685  1
  K  K2  1  0.834234  0.500000  0.251315  1
  K  K3  1  0.834234  0.500000  0.748685  1
  Rb  Rb4  1  0.438003  0.500000  0.500000  1
  Rb  Rb5  1  0.561997  0.000000  0.000000  1
  Ag  Ag6  1  0.303456  0.000000  0.500000  1
  Ag  Ag7  1  0.696544  0.500000  0.000000  1
  Pb  Pb8  1  0.048676  0.260205  0.000000  1
  Pb  Pb9  1  0.048676  0.739795  0.000000  1
  Pb  Pb10  1  0.338375  0.500000  0.873142  1
  Pb  Pb11  1  0.338375  0.500000  0.126858  1
  Pb  Pb12  1  0.661625  0.000000  0.373142  1
  Pb  Pb13  1  0.661625  0.000000  0.626858  1
  Pb  Pb14  1  0.951324  0.760205  0.500000  1
  Pb  Pb15  1  0.951324  0.239795  0.500000  1
