# generated using pymatgen
data_Er4Pd3PtPb2
_symmetry_space_group_name_H-M   'P 1'
_cell_length_a   7.93544801
_cell_length_b   7.93544801
_cell_length_c   3.56040100
_cell_angle_alpha   90.00000000
_cell_angle_beta   90.00000000
_cell_angle_gamma   90.00657041
_symmetry_Int_Tables_number   1
_chemical_formula_structural   Er4Pd3PtPb2
_chemical_formula_sum   'Er4 Pd3 Pt1 Pb2'
_cell_volume   224.20320323
_cell_formula_units_Z   1
loop_
 _symmetry_equiv_pos_site_id
 _symmetry_equiv_pos_as_xyz
  1  'x, y, z'
loop_
 _atom_site_type_symbol
 _atom_site_label
 _atom_site_symmetry_multiplicity
 _atom_site_fract_x
 _atom_site_fract_y
 _atom_site_fract_z
 _atom_site_occupancy
  Er  Er0  1  0.660769  0.171888  0.500000  1
  Er  Er1  1  0.173972  0.326028  0.500000  1
  Er  Er2  1  0.833765  0.666235  0.500000  1
  Er  Er3  1  0.328112  0.839231  0.500000  1
  Pd  Pd4  1  0.128139  0.623992  0.000000  1
  Pd  Pd5  1  0.630597  0.869403  0.000000  1
  Pd  Pd6  1  0.876008  0.371861  0.000000  1
  Pt  Pt7  1  0.376938  0.123062  0.000000  1
  Pb  Pb8  1  0.991812  0.000111  0.000000  1
  Pb  Pb9  1  0.499889  0.508188  0.000000  1
