# generated using pymatgen
data_Ca11Nd8HoPb16
_symmetry_space_group_name_H-M   'P 1'
_cell_length_a   8.09279385
_cell_length_b   8.67158252
_cell_length_c   16.26315126
_cell_angle_alpha   90.05199728
_cell_angle_beta   90.08582406
_cell_angle_gamma   89.95619310
_symmetry_Int_Tables_number   1
_chemical_formula_structural   Ca11Nd8HoPb16
_chemical_formula_sum   'Ca11 Nd8 Ho1 Pb16'
_cell_volume   1141.30244520
_cell_formula_units_Z   1
loop_
 _symmetry_equiv_pos_site_id
 _symmetry_equiv_pos_as_xyz
  1  'x, y, z'
loop_
 _atom_site_type_symbol
 _atom_site_label
 _atom_site_symmetry_multiplicity
 _atom_site_fract_x
 _atom_site_fract_y
 _atom_site_fract_z
 _atom_site_occupancy
  Ca  Ca0  1  0.172192  0.334239  0.877316  1
  Ca  Ca1  1  0.328026  0.834024  0.122941  1
  Ca  Ca2  1  0.828541  0.665768  0.377181  1
  Ca  Ca3  1  0.327458  0.833758  0.376962  1
  Ca  Ca4  1  0.828158  0.665936  0.122941  1
  Ca  Ca5  1  0.671572  0.165886  0.877210  1
  Ca  Ca6  1  0.172034  0.333895  0.622446  1
  Ca  Ca7  1  0.842285  0.497307  0.750108  1
  Ca  Ca8  1  0.341856  0.002521  0.750178  1
  Ca  Ca9  1  0.158034  0.502715  0.249953  1
  Ca  Ca10  1  0.658081  0.997464  0.249997  1
  Nd  Nd11  1  0.505428  0.687066  0.594909  1
  Nd  Nd12  1  0.006413  0.811773  0.905737  1
  Nd  Nd13  1  0.494170  0.311744  0.095036  1
  Nd  Nd14  1  0.994623  0.188391  0.404689  1
  Nd  Nd15  1  0.493588  0.312192  0.404942  1
  Nd  Nd16  1  0.994338  0.188218  0.094966  1
  Nd  Nd17  1  0.505596  0.687672  0.905261  1
  Nd  Nd18  1  0.005790  0.811884  0.594316  1
  Ho  Ho19  1  0.671511  0.167544  0.623352  1
  Pb  Pb20  1  0.678324  0.964508  0.460572  1
  Pb  Pb21  1  0.177420  0.536680  0.040990  1
  Pb  Pb22  1  0.323184  0.036434  0.958914  1
  Pb  Pb23  1  0.820021  0.460668  0.541782  1
  Pb  Pb24  1  0.325742  0.037544  0.542092  1
  Pb  Pb25  1  0.822727  0.463433  0.958804  1
  Pb  Pb26  1  0.676973  0.963419  0.041021  1
  Pb  Pb27  1  0.178013  0.536837  0.458983  1
  Pb  Pb28  1  0.476363  0.393574  0.749188  1
  Pb  Pb29  1  0.972268  0.105180  0.748082  1
  Pb  Pb30  1  0.525011  0.603900  0.250074  1
  Pb  Pb31  1  0.025107  0.896571  0.249922  1
  Pb  Pb32  1  0.708915  0.851563  0.748921  1
  Pb  Pb33  1  0.209120  0.649627  0.749743  1
  Pb  Pb34  1  0.290382  0.149720  0.250240  1
  Pb  Pb35  1  0.790735  0.350344  0.250233  1
