# generated using pymatgen
data_Tm3Lu5Re2(B12Os)2
_symmetry_space_group_name_H-M   'P 1'
_cell_length_a   3.61512800
_cell_length_b   9.06056840
_cell_length_c   11.43007201
_cell_angle_alpha   90.12570318
_cell_angle_beta   90.00000000
_cell_angle_gamma   90.00000000
_symmetry_Int_Tables_number   1
_chemical_formula_structural   Tm3Lu5Re2(B12Os)2
_chemical_formula_sum   'Tm3 Lu5 Re2 B24 Os2'
_cell_volume   374.39241641
_cell_formula_units_Z   1
loop_
 _symmetry_equiv_pos_site_id
 _symmetry_equiv_pos_as_xyz
  1  'x, y, z'
loop_
 _atom_site_type_symbol
 _atom_site_label
 _atom_site_symmetry_multiplicity
 _atom_site_fract_x
 _atom_site_fract_y
 _atom_site_fract_z
 _atom_site_occupancy
  Tm  Tm0  1  0.000000  0.319997  0.412320  1
  Tm  Tm1  1  0.000000  0.679979  0.587704  1
  Tm  Tm2  1  0.000000  0.823940  0.084689  1
  Lu  Lu3  1  0.000000  0.175873  0.915473  1
  Lu  Lu4  1  0.000000  0.943685  0.370947  1
  Lu  Lu5  1  0.000000  0.056442  0.629070  1
  Lu  Lu6  1  0.000000  0.442666  0.128224  1
  Lu  Lu7  1  0.000000  0.557178  0.871645  1
  Re  Re8  1  0.000000  0.138744  0.179761  1
  Re  Re9  1  0.000000  0.861613  0.820106  1
  B  B10  1  0.500000  0.553597  0.433515  1
  B  B11  1  0.500000  0.446326  0.566563  1
  B  B12  1  0.500000  0.053101  0.066283  1
  B  B13  1  0.500000  0.947333  0.933474  1
  B  B14  1  0.500000  0.750048  0.419267  1
  B  B15  1  0.500000  0.249965  0.580834  1
  B  B16  1  0.500000  0.250003  0.080073  1
  B  B17  1  0.500000  0.750019  0.919505  1
  B  B18  1  0.500000  0.791806  0.265450  1
  B  B19  1  0.500000  0.208070  0.734812  1
  B  B20  1  0.500000  0.292798  0.234883  1
  B  B21  1  0.500000  0.707236  0.765009  1
  B  B22  1  0.500000  0.630336  0.185027  1
  B  B23  1  0.500000  0.369357  0.815168  1
  B  B24  1  0.500000  0.130781  0.315724  1
  B  B25  1  0.500000  0.869365  0.684280  1
  B  B26  1  0.500000  0.981431  0.212774  1
  B  B27  1  0.500000  0.019027  0.787329  1
  B  B28  1  0.500000  0.481897  0.287613  1
  B  B29  1  0.500000  0.517978  0.712417  1
  B  B30  1  0.500000  0.601697  0.028386  1
  B  B31  1  0.500000  0.397838  0.971442  1
  B  B32  1  0.500000  0.101798  0.472079  1
  B  B33  1  0.500000  0.898257  0.527953  1
  Os  Os34  1  0.000000  0.637895  0.321302  1
  Os  Os35  1  0.000000  0.361923  0.678900  1
