# generated using pymatgen
data_TmLu7B24OsW3
_symmetry_space_group_name_H-M   'P 1'
_cell_length_a   3.55391200
_cell_length_b   9.17427332
_cell_length_c   11.55127301
_cell_angle_alpha   89.92096813
_cell_angle_beta   90.00000000
_cell_angle_gamma   90.00000000
_symmetry_Int_Tables_number   1
_chemical_formula_structural   TmLu7B24OsW3
_chemical_formula_sum   'Tm1 Lu7 B24 Os1 W3'
_cell_volume   376.62381627
_cell_formula_units_Z   1
loop_
 _symmetry_equiv_pos_site_id
 _symmetry_equiv_pos_as_xyz
  1  'x, y, z'
loop_
 _atom_site_type_symbol
 _atom_site_label
 _atom_site_symmetry_multiplicity
 _atom_site_fract_x
 _atom_site_fract_y
 _atom_site_fract_z
 _atom_site_occupancy
  Tm  Tm0  1  0.000000  0.320587  0.413219  1
  Lu  Lu1  1  0.000000  0.678900  0.585955  1
  Lu  Lu2  1  0.000000  0.820678  0.085636  1
  Lu  Lu3  1  0.000000  0.178587  0.913408  1
  Lu  Lu4  1  0.000000  0.944099  0.373224  1
  Lu  Lu5  1  0.000000  0.054473  0.629550  1
  Lu  Lu6  1  0.000000  0.445552  0.126448  1
  Lu  Lu7  1  0.000000  0.558530  0.871555  1
  B  B8  1  0.500000  0.551053  0.435514  1
  B  B9  1  0.500000  0.448444  0.565264  1
  B  B10  1  0.500000  0.049921  0.062730  1
  B  B11  1  0.500000  0.945187  0.932436  1
  B  B12  1  0.500000  0.752302  0.423219  1
  B  B13  1  0.500000  0.246964  0.578424  1
  B  B14  1  0.500000  0.253516  0.076554  1
  B  B15  1  0.500000  0.750965  0.918966  1
  B  B16  1  0.500000  0.795912  0.264092  1
  B  B17  1  0.500000  0.203208  0.737969  1
  B  B18  1  0.500000  0.295273  0.235737  1
  B  B19  1  0.500000  0.708762  0.765229  1
  B  B20  1  0.500000  0.632007  0.181846  1
  B  B21  1  0.500000  0.369336  0.818793  1
  B  B22  1  0.500000  0.130320  0.317192  1
  B  B23  1  0.500000  0.868911  0.685618  1
  B  B24  1  0.500000  0.977276  0.212420  1
  B  B25  1  0.500000  0.016705  0.788235  1
  B  B26  1  0.500000  0.477967  0.286611  1
  B  B27  1  0.500000  0.523686  0.712844  1
  B  B28  1  0.500000  0.603156  0.026933  1
  B  B29  1  0.500000  0.400764  0.971591  1
  B  B30  1  0.500000  0.100127  0.472730  1
  B  B31  1  0.500000  0.897990  0.529991  1
  Os  Os32  1  0.000000  0.860981  0.820691  1
  W  W33  1  0.000000  0.639235  0.320384  1
  W  W34  1  0.000000  0.360267  0.681066  1
  W  W35  1  0.000000  0.138359  0.177931  1
