# generated using pymatgen
data_Cs7Au
_symmetry_space_group_name_H-M   'P 1'
_cell_length_a   28.02399480
_cell_length_b   5.16612643
_cell_length_c   28.03852638
_cell_angle_alpha   90.82268951
_cell_angle_beta   10.66983484
_cell_angle_gamma   90.42382829
_symmetry_Int_Tables_number   1
_chemical_formula_structural   Cs7Au
_chemical_formula_sum   'Cs7 Au1'
_cell_volume   751.00320078
_cell_formula_units_Z   1
loop_
 _symmetry_equiv_pos_site_id
 _symmetry_equiv_pos_as_xyz
  1  'x, y, z'
loop_
 _atom_site_type_symbol
 _atom_site_label
 _atom_site_symmetry_multiplicity
 _atom_site_fract_x
 _atom_site_fract_y
 _atom_site_fract_z
 _atom_site_occupancy
  Cs  Cs0  1  0.591802  0.707449  0.002044  1
  Cs  Cs1  1  0.473304  0.720422  0.821164  1
  Cs  Cs2  1  0.041225  0.206901  0.404090  1
  Cs  Cs3  1  0.157757  0.232337  0.581054  1
  Cs  Cs4  1  0.744673  0.846406  0.139429  1
  Cs  Cs5  1  0.894847  0.324731  0.252210  1
  Cs  Cs6  1  0.321391  0.357340  0.689330  1
  Au  Au7  1  0.833819  0.851464  0.212290  1
