# generated using pymatgen
data_Zr10InBi5Pb
_symmetry_space_group_name_H-M   'P 1'
_cell_length_a   6.03594304
_cell_length_b   8.80901588
_cell_length_c   8.79049600
_cell_angle_alpha   119.94513693
_cell_angle_beta   89.96635882
_cell_angle_gamma   89.97634945
_symmetry_Int_Tables_number   1
_chemical_formula_structural   Zr10InBi5Pb
_chemical_formula_sum   'Zr10 In1 Bi5 Pb1'
_cell_volume   405.00104848
_cell_formula_units_Z   1
loop_
 _symmetry_equiv_pos_site_id
 _symmetry_equiv_pos_as_xyz
  1  'x, y, z'
loop_
 _atom_site_type_symbol
 _atom_site_label
 _atom_site_symmetry_multiplicity
 _atom_site_fract_x
 _atom_site_fract_y
 _atom_site_fract_z
 _atom_site_occupancy
  Zr  Zr0  1  0.497312  0.332977  0.665663  1
  Zr  Zr1  1  0.497470  0.666499  0.334275  1
  Zr  Zr2  1  0.004274  0.666922  0.334900  1
  Zr  Zr3  1  0.004362  0.334797  0.666435  1
  Zr  Zr4  1  0.783087  0.266716  0.000179  1
  Zr  Zr5  1  0.793041  0.736093  0.735474  1
  Zr  Zr6  1  0.785358  0.000896  0.264869  1
  Zr  Zr7  1  0.213115  0.730955  0.996837  1
  Zr  Zr8  1  0.216065  0.269417  0.270989  1
  Zr  Zr9  1  0.213828  0.995244  0.730962  1
  In  In10  1  0.260574  0.613313  0.613969  1
  Bi  Bi11  1  0.738153  0.612319  0.999957  1
  Bi  Bi12  1  0.739495  0.391647  0.391549  1
  Bi  Bi13  1  0.740402  0.000016  0.610167  1
  Bi  Bi14  1  0.258236  0.384869  0.999729  1
  Bi  Bi15  1  0.496284  0.998174  0.999101  1
  Pb  Pb16  1  0.258945  0.999151  0.384944  1
