# generated using pymatgen
data_TbYTa5WO18
_symmetry_space_group_name_H-M   'P 1'
_cell_length_a   7.52778202
_cell_length_b   5.31587560
_cell_length_c   8.33543390
_cell_angle_alpha   87.64622458
_cell_angle_beta   90.13914964
_cell_angle_gamma   89.78176307
_symmetry_Int_Tables_number   1
_chemical_formula_structural   TbYTa5WO18
_chemical_formula_sum   'Tb1 Y1 Ta5 W1 O18'
_cell_volume   333.27203925
_cell_formula_units_Z   1
loop_
 _symmetry_equiv_pos_site_id
 _symmetry_equiv_pos_as_xyz
  1  'x, y, z'
loop_
 _atom_site_type_symbol
 _atom_site_label
 _atom_site_symmetry_multiplicity
 _atom_site_fract_x
 _atom_site_fract_y
 _atom_site_fract_z
 _atom_site_occupancy
  Tb  Tb0  1  0.247669  0.965100  0.435724  1
  Y  Y1  1  0.752427  0.035230  0.564232  1
  Ta  Ta2  1  0.499998  0.000035  0.999990  1
  Ta  Ta3  1  0.493865  0.526808  0.695980  1
  Ta  Ta4  1  0.007488  0.530167  0.696534  1
  Ta  Ta5  1  0.992411  0.469829  0.303466  1
  Ta  Ta6  1  0.506216  0.473205  0.304032  1
  W  W7  1  0.999991  0.000038  0.999977  1
  O  O8  1  0.246830  0.910289  0.978372  1
  O  O9  1  0.933330  0.853593  0.781298  1
  O  O10  1  0.561943  0.849145  0.787417  1
  O  O11  1  0.957160  0.741159  0.468459  1
  O  O12  1  0.542538  0.741451  0.468115  1
  O  O13  1  0.250630  0.662411  0.655825  1
  O  O14  1  0.947148  0.673934  0.123492  1
  O  O15  1  0.550602  0.677155  0.121021  1
  O  O16  1  0.250260  0.576023  0.314762  1
  O  O17  1  0.749736  0.423511  0.685241  1
  O  O18  1  0.052854  0.326056  0.876539  1
  O  O19  1  0.449395  0.322814  0.879010  1
  O  O20  1  0.749356  0.337320  0.344211  1
  O  O21  1  0.042668  0.259042  0.531578  1
  O  O22  1  0.457654  0.258712  0.531920  1
  O  O23  1  0.066586  0.146422  0.218624  1
  O  O24  1  0.438084  0.150856  0.212540  1
  O  O25  1  0.753160  0.089695  0.021642  1
