# generated using pymatgen
data_NdMnPt3Au
_symmetry_space_group_name_H-M   'P 1'
_cell_length_a   5.49964947
_cell_length_b   5.27004237
_cell_length_c   5.49965000
_cell_angle_alpha   58.54798962
_cell_angle_beta   59.99999681
_cell_angle_gamma   58.54797971
_symmetry_Int_Tables_number   1
_chemical_formula_structural   NdMnPt3Au
_chemical_formula_sum   'Nd1 Mn1 Pt3 Au1'
_cell_volume   110.17434560
_cell_formula_units_Z   1
loop_
 _symmetry_equiv_pos_site_id
 _symmetry_equiv_pos_as_xyz
  1  'x, y, z'
loop_
 _atom_site_type_symbol
 _atom_site_label
 _atom_site_symmetry_multiplicity
 _atom_site_fract_x
 _atom_site_fract_y
 _atom_site_fract_z
 _atom_site_occupancy
  Nd  Nd0  1  0.504081  0.487758  0.504081  1
  Mn  Mn1  1  0.122830  0.631509  0.122830  1
  Pt  Pt2  1  0.122895  0.128733  0.625477  1
  Pt  Pt3  1  0.625477  0.128733  0.122895  1
  Pt  Pt4  1  0.122895  0.128733  0.122895  1
  Au  Au5  1  0.751822  0.744534  0.751822  1
