# generated using pymatgen
data_Yb10HfReN10
_symmetry_space_group_name_H-M   'P 1'
_cell_length_a   6.80950397
_cell_length_b   6.80950274
_cell_length_c   8.75587900
_cell_angle_alpha   80.39490744
_cell_angle_beta   80.39490918
_cell_angle_gamma   59.76687797
_symmetry_Int_Tables_number   1
_chemical_formula_structural   Yb10HfReN10
_chemical_formula_sum   'Yb10 Hf1 Re1 N10'
_cell_volume   344.22437871
_cell_formula_units_Z   1
loop_
 _symmetry_equiv_pos_site_id
 _symmetry_equiv_pos_as_xyz
  1  'x, y, z'
loop_
 _atom_site_type_symbol
 _atom_site_label
 _atom_site_symmetry_multiplicity
 _atom_site_fract_x
 _atom_site_fract_y
 _atom_site_fract_z
 _atom_site_occupancy
  Yb  Yb0  1  0.876666  0.352628  0.829505  1
  Yb  Yb1  1  0.872103  0.872103  0.822272  1
  Yb  Yb2  1  0.737990  0.737990  0.534642  1
  Yb  Yb3  1  0.751103  0.246278  0.508319  1
  Yb  Yb4  1  0.631723  0.135955  0.152534  1
  Yb  Yb5  1  0.352628  0.876666  0.829505  1
  Yb  Yb6  1  0.246278  0.751103  0.508319  1
  Yb  Yb7  1  0.243214  0.243214  0.495399  1
  Yb  Yb8  1  0.140112  0.140112  0.161907  1
  Yb  Yb9  1  0.135955  0.631723  0.152534  1
  Hf  Hf10  1  0.369721  0.369721  0.779775  1
  Re  Re11  1  0.632376  0.632376  0.225703  1
  N  N12  1  0.906479  0.471944  0.317738  1
  N  N13  1  0.996882  0.996882  0.013658  1
  N  N14  1  0.677963  0.677963  0.015144  1
  N  N15  1  0.544485  0.544485  0.684069  1
  N  N16  1  0.471944  0.906479  0.317738  1
  N  N17  1  0.544505  0.073835  0.670796  1
  N  N18  1  0.473829  0.473829  0.297259  1
  N  N19  1  0.319137  0.319137  0.014244  1
  N  N20  1  0.063357  0.063357  0.643953  1
  N  N21  1  0.073835  0.544505  0.670796  1
