# generated using pymatgen
data_Y3Tm5(CdNi)2
_symmetry_space_group_name_H-M   'P 1'
_cell_length_a   9.49113387
_cell_length_b   9.49113462
_cell_length_c   9.49113400
_cell_angle_alpha   60.00000216
_cell_angle_beta   59.99999953
_cell_angle_gamma   59.99999829
_symmetry_Int_Tables_number   1
_chemical_formula_structural   Y3Tm5(CdNi)2
_chemical_formula_sum   'Y6 Tm10 Cd4 Ni4'
_cell_volume   604.55990261
_cell_formula_units_Z   2
loop_
 _symmetry_equiv_pos_site_id
 _symmetry_equiv_pos_as_xyz
  1  'x, y, z'
loop_
 _atom_site_type_symbol
 _atom_site_label
 _atom_site_symmetry_multiplicity
 _atom_site_fract_x
 _atom_site_fract_y
 _atom_site_fract_z
 _atom_site_occupancy
  Y  Y0  1  0.187860  0.812140  0.812140  1
  Y  Y1  1  0.812140  0.187860  0.187860  1
  Y  Y2  1  0.812140  0.187860  0.812140  1
  Y  Y3  1  0.187860  0.812140  0.187860  1
  Y  Y4  1  0.812140  0.812140  0.187860  1
  Y  Y5  1  0.187860  0.187860  0.812140  1
  Tm  Tm6  1  0.597960  0.597960  0.597960  1
  Tm  Tm7  1  0.597960  0.597960  0.206119  1
  Tm  Tm8  1  0.597960  0.206119  0.597960  1
  Tm  Tm9  1  0.206119  0.597960  0.597960  1
  Tm  Tm10  1  0.062181  0.437819  0.437819  1
  Tm  Tm11  1  0.437819  0.062181  0.062181  1
  Tm  Tm12  1  0.437819  0.062181  0.437819  1
  Tm  Tm13  1  0.062181  0.437819  0.062181  1
  Tm  Tm14  1  0.437819  0.437819  0.062181  1
  Tm  Tm15  1  0.062181  0.062181  0.437819  1
  Cd  Cd16  1  0.830596  0.830596  0.830596  1
  Cd  Cd17  1  0.830596  0.830596  0.508210  1
  Cd  Cd18  1  0.830596  0.508210  0.830596  1
  Cd  Cd19  1  0.508210  0.830596  0.830596  1
  Ni  Ni20  1  0.392260  0.392260  0.392260  1
  Ni  Ni21  1  0.392260  0.392260  0.823222  1
  Ni  Ni22  1  0.392260  0.823222  0.392260  1
  Ni  Ni23  1  0.823222  0.392260  0.392260  1
