# generated using pymatgen
data_Y4FeCoRu6
_symmetry_space_group_name_H-M   'P 1'
_cell_length_a   5.30507036
_cell_length_b   5.16699162
_cell_length_c   8.93150100
_cell_angle_alpha   90.00000000
_cell_angle_beta   90.00000000
_cell_angle_gamma   120.69579964
_symmetry_Int_Tables_number   1
_chemical_formula_structural   Y4FeCoRu6
_chemical_formula_sum   'Y4 Fe1 Co1 Ru6'
_cell_volume   210.52132863
_cell_formula_units_Z   1
loop_
 _symmetry_equiv_pos_site_id
 _symmetry_equiv_pos_as_xyz
  1  'x, y, z'
loop_
 _atom_site_type_symbol
 _atom_site_label
 _atom_site_symmetry_multiplicity
 _atom_site_fract_x
 _atom_site_fract_y
 _atom_site_fract_z
 _atom_site_occupancy
  Y  Y0  1  0.331135  0.663127  0.432738  1
  Y  Y1  1  0.665717  0.335054  0.565199  1
  Y  Y2  1  0.665717  0.335054  0.934801  1
  Y  Y3  1  0.331135  0.663127  0.067262  1
  Fe  Fe4  1  0.163896  0.327791  0.750000  1
  Co  Co5  1  0.341244  0.170006  0.250000  1
  Ru  Ru6  1  0.173863  0.825865  0.750000  1
  Ru  Ru7  1  0.836149  0.667286  0.250000  1
  Ru  Ru8  1  0.659816  0.831493  0.750000  1
  Ru  Ru9  1  0.999789  0.002176  0.000516  1
  Ru  Ru10  1  0.831746  0.176849  0.250000  1
  Ru  Ru11  1  0.999789  0.002176  0.499484  1
