# generated using pymatgen
data_CePr7Se12
_symmetry_space_group_name_H-M   'P 1'
_cell_length_a   7.91352802
_cell_length_b   4.24025000
_cell_length_c   16.49174605
_cell_angle_alpha   90.00000000
_cell_angle_beta   89.99089179
_cell_angle_gamma   90.00000000
_symmetry_Int_Tables_number   1
_chemical_formula_structural   CePr7Se12
_chemical_formula_sum   'Ce1 Pr7 Se12'
_cell_volume   553.38609293
_cell_formula_units_Z   1
loop_
 _symmetry_equiv_pos_site_id
 _symmetry_equiv_pos_as_xyz
  1  'x, y, z'
loop_
 _atom_site_type_symbol
 _atom_site_label
 _atom_site_symmetry_multiplicity
 _atom_site_fract_x
 _atom_site_fract_y
 _atom_site_fract_z
 _atom_site_occupancy
  Ce  Ce0  1  0.733206  0.499999  0.043204  1
  Pr  Pr1  1  0.141101  0.000000  0.204249  1
  Pr  Pr2  1  0.642083  0.000000  0.296241  1
  Pr  Pr3  1  0.234014  0.499999  0.456069  1
  Pr  Pr4  1  0.765991  0.000000  0.543744  1
  Pr  Pr5  1  0.358062  0.499999  0.703733  1
  Pr  Pr6  1  0.858284  0.499999  0.795481  1
  Pr  Pr7  1  0.265035  0.000000  0.956178  1
  Se  Se8  1  0.124296  0.499999  0.067298  1
  Se  Se9  1  0.510000  0.000000  0.108769  1
  Se  Se10  1  0.853036  0.499999  0.217823  1
  Se  Se11  1  0.353881  0.499999  0.281171  1
  Se  Se12  1  0.007020  0.000000  0.390126  1
  Se  Se13  1  0.624457  0.499999  0.432657  1
  Se  Se14  1  0.375736  0.000000  0.567490  1
  Se  Se15  1  0.993064  0.499999  0.609906  1
  Se  Se16  1  0.646081  0.000000  0.719002  1
  Se  Se17  1  0.146090  0.000000  0.781687  1
  Se  Se18  1  0.494474  0.499999  0.891371  1
  Se  Se19  1  0.874080  0.000000  0.933805  1
