# generated using pymatgen
data_Lu6Sn5
_symmetry_space_group_name_H-M   'P 1'
_cell_length_a   6.36612727
_cell_length_b   9.18084991
_cell_length_c   11.38889625
_cell_angle_alpha   113.76970681
_cell_angle_beta   106.22966826
_cell_angle_gamma   90.00000186
_symmetry_Int_Tables_number   1
_chemical_formula_structural   Lu6Sn5
_chemical_formula_sum   'Lu12 Sn10'
_cell_volume   580.07354722
_cell_formula_units_Z   2
loop_
 _symmetry_equiv_pos_site_id
 _symmetry_equiv_pos_as_xyz
  1  'x, y, z'
loop_
 _atom_site_type_symbol
 _atom_site_label
 _atom_site_symmetry_multiplicity
 _atom_site_fract_x
 _atom_site_fract_y
 _atom_site_fract_z
 _atom_site_occupancy
  Lu  Lu0  1  0.556414  0.306414  0.612827  1
  Lu  Lu1  1  0.443586  0.693586  0.387173  1
  Lu  Lu2  1  0.943586  0.693586  0.387173  1
  Lu  Lu3  1  0.056414  0.306414  0.612827  1
  Lu  Lu4  1  0.438650  0.678619  0.877300  1
  Lu  Lu5  1  0.561350  0.321381  0.122700  1
  Lu  Lu6  1  0.938650  0.198681  0.877300  1
  Lu  Lu7  1  0.061350  0.801319  0.122700  1
  Lu  Lu8  1  0.140204  0.256070  0.280409  1
  Lu  Lu9  1  0.859796  0.743930  0.719591  1
  Lu  Lu10  1  0.640204  0.024339  0.280409  1
  Lu  Lu11  1  0.359796  0.975661  0.719591  1
  Sn  Sn12  1  0.292023  0.596033  0.584046  1
  Sn  Sn13  1  0.707977  0.403967  0.415954  1
  Sn  Sn14  1  0.792023  0.988013  0.584046  1
  Sn  Sn15  1  0.207977  0.011987  0.415954  1
  Sn  Sn16  1  0.250000  0.000000  0.000000  1
  Sn  Sn17  1  0.750000  0.000000  0.000000  1
  Sn  Sn18  1  0.071905  0.477418  0.143810  1
  Sn  Sn19  1  0.928095  0.522582  0.856190  1
  Sn  Sn20  1  0.571905  0.666392  0.143810  1
  Sn  Sn21  1  0.428095  0.333608  0.856190  1
