# generated using pymatgen
data_Ho16In6RePt
_symmetry_space_group_name_H-M   'P 1'
_cell_length_a   10.39272300
_cell_length_b   10.39272400
_cell_length_c   7.03960900
_cell_angle_alpha   90.00000000
_cell_angle_beta   90.00000000
_cell_angle_gamma   120.00000000
_symmetry_Int_Tables_number   1
_chemical_formula_structural   Ho16In6RePt
_chemical_formula_sum   'Ho16 In6 Re1 Pt1'
_cell_volume   658.47291462
_cell_formula_units_Z   1
loop_
 _symmetry_equiv_pos_site_id
 _symmetry_equiv_pos_as_xyz
  1  'x, y, z'
loop_
 _atom_site_type_symbol
 _atom_site_label
 _atom_site_symmetry_multiplicity
 _atom_site_fract_x
 _atom_site_fract_y
 _atom_site_fract_z
 _atom_site_occupancy
  Ho  Ho0  1  0.529533  0.059066  0.508659  1
  Ho  Ho1  1  0.940934  0.470467  0.508659  1
  Ho  Ho2  1  0.529533  0.470467  0.508659  1
  Ho  Ho3  1  0.466987  0.933975  0.007560  1
  Ho  Ho4  1  0.066025  0.533013  0.007560  1
  Ho  Ho5  1  0.466987  0.533013  0.007560  1
  Ho  Ho6  1  0.176010  0.352020  0.715194  1
  Ho  Ho7  1  0.647980  0.823990  0.715194  1
  Ho  Ho8  1  0.176010  0.823990  0.715194  1
  Ho  Ho9  1  0.824773  0.649545  0.213523  1
  Ho  Ho10  1  0.350455  0.175227  0.213523  1
  Ho  Ho11  1  0.824773  0.175227  0.213523  1
  Ho  Ho12  1  0.666667  0.333333  0.883552  1
  Ho  Ho13  1  0.333333  0.666667  0.380938  1
  Ho  Ho14  1  0.000000  0.000000  0.490313  1
  Ho  Ho15  1  0.000000  0.000000  0.990524  1
  In  In16  1  0.836362  0.672725  0.752294  1
  In  In17  1  0.327275  0.163638  0.752294  1
  In  In18  1  0.836362  0.163638  0.752294  1
  In  In19  1  0.162947  0.325894  0.252873  1
  In  In20  1  0.674106  0.837053  0.252873  1
  In  In21  1  0.162947  0.837053  0.252873  1
  Re  Re22  1  0.333333  0.666667  0.780842  1
  Pt  Pt23  1  0.666667  0.333333  0.281554  1
