# generated using pymatgen
data_CsHoSb2Se5
_symmetry_space_group_name_H-M   'P 1'
_cell_length_a   4.10748300
_cell_length_b   12.32885300
_cell_length_c   22.85431600
_cell_angle_alpha   90.00000000
_cell_angle_beta   90.00000000
_cell_angle_gamma   90.00000000
_symmetry_Int_Tables_number   1
_chemical_formula_structural   CsHoSb2Se5
_chemical_formula_sum   'Cs4 Ho4 Sb8 Se20'
_cell_volume   1157.35522598
_cell_formula_units_Z   4
loop_
 _symmetry_equiv_pos_site_id
 _symmetry_equiv_pos_as_xyz
  1  'x, y, z'
loop_
 _atom_site_type_symbol
 _atom_site_label
 _atom_site_symmetry_multiplicity
 _atom_site_fract_x
 _atom_site_fract_y
 _atom_site_fract_z
 _atom_site_occupancy
  Cs  Cs0  1  0.250000  0.490920  0.210183  1
  Cs  Cs1  1  0.750000  0.509080  0.789817  1
  Cs  Cs2  1  0.750000  0.990920  0.289817  1
  Cs  Cs3  1  0.250000  0.009080  0.710183  1
  Ho  Ho4  1  0.250000  0.364132  0.022525  1
  Ho  Ho5  1  0.750000  0.635868  0.977475  1
  Ho  Ho6  1  0.750000  0.864132  0.477475  1
  Ho  Ho7  1  0.250000  0.135868  0.522525  1
  Sb  Sb8  1  0.250000  0.809555  0.120810  1
  Sb  Sb9  1  0.750000  0.190445  0.879190  1
  Sb  Sb10  1  0.750000  0.309555  0.379190  1
  Sb  Sb11  1  0.250000  0.690445  0.620810  1
  Sb  Sb12  1  0.250000  0.596450  0.428418  1
  Sb  Sb13  1  0.750000  0.403550  0.571582  1
  Sb  Sb14  1  0.750000  0.096450  0.071582  1
  Sb  Sb15  1  0.250000  0.903550  0.928418  1
  Se  Se16  1  0.250000  0.803898  0.393400  1
  Se  Se17  1  0.750000  0.196102  0.606600  1
  Se  Se18  1  0.750000  0.303898  0.106600  1
  Se  Se19  1  0.250000  0.696102  0.893400  1
  Se  Se20  1  0.250000  0.254905  0.305166  1
  Se  Se21  1  0.750000  0.745095  0.694834  1
  Se  Se22  1  0.750000  0.754905  0.194834  1
  Se  Se23  1  0.250000  0.245095  0.805166  1
  Se  Se24  1  0.250000  0.355670  0.482290  1
  Se  Se25  1  0.750000  0.644330  0.517710  1
  Se  Se26  1  0.750000  0.855670  0.017710  1
  Se  Se27  1  0.250000  0.144330  0.982290  1
  Se  Se28  1  0.250000  0.026045  0.152247  1
  Se  Se29  1  0.750000  0.973955  0.847753  1
  Se  Se30  1  0.750000  0.526045  0.347753  1
  Se  Se31  1  0.250000  0.473955  0.652247  1
  Se  Se32  1  0.250000  0.583172  0.058747  1
  Se  Se33  1  0.750000  0.416828  0.941253  1
  Se  Se34  1  0.750000  0.083172  0.441253  1
  Se  Se35  1  0.250000  0.916828  0.558747  1
