# generated using pymatgen
data_SrYb(CoO2)6
_symmetry_space_group_name_H-M   'P 1'
_cell_length_a   4.92487391
_cell_length_b   5.80148512
_cell_length_c   8.49461000
_cell_angle_alpha   89.99996050
_cell_angle_beta   89.99998837
_cell_angle_gamma   74.29965166
_symmetry_Int_Tables_number   1
_chemical_formula_structural   SrYb(CoO2)6
_chemical_formula_sum   'Sr1 Yb1 Co6 O12'
_cell_volume   233.64917376
_cell_formula_units_Z   1
loop_
 _symmetry_equiv_pos_site_id
 _symmetry_equiv_pos_as_xyz
  1  'x, y, z'
loop_
 _atom_site_type_symbol
 _atom_site_label
 _atom_site_symmetry_multiplicity
 _atom_site_fract_x
 _atom_site_fract_y
 _atom_site_fract_z
 _atom_site_occupancy
  Sr  Sr0  1  0.500001  0.500000  0.667328  1
  Yb  Yb1  1  0.000000  0.499999  0.167495  1
  Co  Co2  1  0.000000  0.000000  0.666506  1
  Co  Co3  1  0.500000  0.000000  0.836124  1
  Co  Co4  1  0.500000  0.000000  0.497035  1
  Co  Co5  1  0.500000  0.000000  0.166524  1
  Co  Co6  1  0.000000  0.000000  0.332032  1
  Co  Co7  1  0.000000  0.000000  0.001204  1
  O  O8  1  0.775380  0.181280  0.166589  1
  O  O9  1  0.273720  0.172351  0.666546  1
  O  O10  1  0.224619  0.818720  0.166590  1
  O  O11  1  0.726280  0.827649  0.666546  1
  O  O12  1  0.273653  0.181884  0.005658  1
  O  O13  1  0.779425  0.174701  0.499874  1
  O  O14  1  0.273744  0.181735  0.327556  1
  O  O15  1  0.779586  0.174332  0.833318  1
  O  O16  1  0.726256  0.818265  0.327556  1
  O  O17  1  0.220414  0.825669  0.833318  1
  O  O18  1  0.726347  0.818115  0.005658  1
  O  O19  1  0.220575  0.825300  0.499874  1
