# generated using pymatgen
data_SmSc3(BO3)4
_symmetry_space_group_name_H-M   'P 1'
_cell_length_a   6.27992406
_cell_length_b   6.27992383
_cell_length_c   6.27992411
_cell_angle_alpha   103.22315995
_cell_angle_beta   103.22316667
_cell_angle_gamma   103.22313584
_symmetry_Int_Tables_number   1
_chemical_formula_structural   SmSc3(BO3)4
_chemical_formula_sum   'Sm1 Sc3 B4 O12'
_cell_volume   224.14503260
_cell_formula_units_Z   1
loop_
 _symmetry_equiv_pos_site_id
 _symmetry_equiv_pos_as_xyz
  1  'x, y, z'
loop_
 _atom_site_type_symbol
 _atom_site_label
 _atom_site_symmetry_multiplicity
 _atom_site_fract_x
 _atom_site_fract_y
 _atom_site_fract_z
 _atom_site_occupancy
  Sm  Sm0  1  0.999974  0.999974  0.999974  1
  Sc  Sc1  1  0.452476  0.547517  0.000003  1
  Sc  Sc2  1  0.000004  0.452475  0.547516  1
  Sc  Sc3  1  0.547517  0.000004  0.452474  1
  B  B4  1  0.499994  0.048837  0.951150  1
  B  B5  1  0.951150  0.499993  0.048838  1
  B  B6  1  0.048837  0.951151  0.499993  1
  B  B7  1  0.500002  0.500002  0.500002  1
  O  O8  1  0.499992  0.640648  0.359362  1
  O  O9  1  0.359363  0.499992  0.640647  1
  O  O10  1  0.640648  0.359362  0.499993  1
  O  O11  1  0.500006  0.908170  0.091817  1
  O  O12  1  0.091817  0.500005  0.908172  1
  O  O13  1  0.908171  0.091818  0.500005  1
  O  O14  1  0.632944  0.032101  0.803264  1
  O  O15  1  0.803263  0.632944  0.032101  1
  O  O16  1  0.032101  0.803263  0.632943  1
  O  O17  1  0.967904  0.367037  0.196712  1
  O  O18  1  0.367037  0.196712  0.967904  1
  O  O19  1  0.196712  0.967904  0.367037  1
