# generated using pymatgen
data_La2Yb3Rh2
_symmetry_space_group_name_H-M   'P 1'
_cell_length_a   8.77876996
_cell_length_b   8.77877088
_cell_length_c   7.54384465
_cell_angle_alpha   83.59758965
_cell_angle_beta   83.59758724
_cell_angle_gamma   43.92007789
_symmetry_Int_Tables_number   1
_chemical_formula_structural   La2Yb3Rh2
_chemical_formula_sum   'La4 Yb6 Rh4'
_cell_volume   400.35120086
_cell_formula_units_Z   2
loop_
 _symmetry_equiv_pos_site_id
 _symmetry_equiv_pos_as_xyz
  1  'x, y, z'
loop_
 _atom_site_type_symbol
 _atom_site_label
 _atom_site_symmetry_multiplicity
 _atom_site_fract_x
 _atom_site_fract_y
 _atom_site_fract_z
 _atom_site_occupancy
  La  La0  1  0.020988  0.793639  0.916047  1
  La  La1  1  0.206361  0.979012  0.583953  1
  La  La2  1  0.979012  0.206361  0.083953  1
  La  La3  1  0.793639  0.020988  0.416047  1
  Yb  Yb4  1  0.371181  0.201096  0.818706  1
  Yb  Yb5  1  0.798904  0.628819  0.681294  1
  Yb  Yb6  1  0.628819  0.798904  0.181294  1
  Yb  Yb7  1  0.201096  0.371181  0.318706  1
  Yb  Yb8  1  0.579359  0.420641  0.750000  1
  Yb  Yb9  1  0.420641  0.579359  0.250000  1
  Rh  Rh10  1  0.164819  0.616414  0.588601  1
  Rh  Rh11  1  0.383586  0.835181  0.911399  1
  Rh  Rh12  1  0.835181  0.383586  0.411399  1
  Rh  Rh13  1  0.616414  0.164819  0.088601  1
