# generated using pymatgen
data_Ho2Tm2CoCu3
_symmetry_space_group_name_H-M   'P 1'
_cell_length_a   4.33590600
_cell_length_b   5.39462633
_cell_length_c   7.05252105
_cell_angle_alpha   90.36815838
_cell_angle_beta   90.00000000
_cell_angle_gamma   90.00000000
_symmetry_Int_Tables_number   1
_chemical_formula_structural   Ho2Tm2CoCu3
_chemical_formula_sum   'Ho2 Tm2 Co1 Cu3'
_cell_volume   164.95924180
_cell_formula_units_Z   1
loop_
 _symmetry_equiv_pos_site_id
 _symmetry_equiv_pos_as_xyz
  1  'x, y, z'
loop_
 _atom_site_type_symbol
 _atom_site_label
 _atom_site_symmetry_multiplicity
 _atom_site_fract_x
 _atom_site_fract_y
 _atom_site_fract_z
 _atom_site_occupancy
  Ho  Ho0  1  0.000000  0.874516  0.812252  1
  Ho  Ho1  1  0.500000  0.135123  0.194029  1
  Tm  Tm2  1  0.000000  0.629222  0.325650  1
  Tm  Tm3  1  0.500000  0.359125  0.669370  1
  Co  Co4  1  0.000000  0.129909  0.468301  1
  Cu  Cu5  1  0.000000  0.379292  0.964140  1
  Cu  Cu6  1  0.500000  0.868781  0.536284  1
  Cu  Cu7  1  0.500000  0.624029  0.029976  1
