# generated using pymatgen
data_Er2PaFe2
_symmetry_space_group_name_H-M   'P 1'
_cell_length_a   3.67730493
_cell_length_b   5.75262969
_cell_length_c   5.89557156
_cell_angle_alpha   119.20112747
_cell_angle_beta   108.17195440
_cell_angle_gamma   89.99999928
_symmetry_Int_Tables_number   1
_chemical_formula_structural   Er2PaFe2
_chemical_formula_sum   'Er2 Pa1 Fe2'
_cell_volume   101.68085425
_cell_formula_units_Z   1
loop_
 _symmetry_equiv_pos_site_id
 _symmetry_equiv_pos_as_xyz
  1  'x, y, z'
loop_
 _atom_site_type_symbol
 _atom_site_label
 _atom_site_symmetry_multiplicity
 _atom_site_fract_x
 _atom_site_fract_y
 _atom_site_fract_z
 _atom_site_occupancy
  Er  Er0  1  0.803228  0.303228  0.606457  1
  Er  Er1  1  0.196772  0.696772  0.393543  1
  Pa  Pa2  1  0.000000  0.000000  0.000000  1
  Fe  Fe3  1  0.500000  0.295247  0.000000  1
  Fe  Fe4  1  0.500000  0.704753  0.000000  1
