# generated using pymatgen
data_Mg2Zr12TiNb(Ir2N)4
_symmetry_space_group_name_H-M   'P 1'
_cell_length_a   8.70316869
_cell_length_b   8.70316845
_cell_length_c   8.66583300
_cell_angle_alpha   60.14180274
_cell_angle_beta   60.14180366
_cell_angle_gamma   60.09600556
_symmetry_Int_Tables_number   1
_chemical_formula_structural   Mg2Zr12TiNb(Ir2N)4
_chemical_formula_sum   'Mg2 Zr12 Ti1 Nb1 Ir8 N4'
_cell_volume   465.47150598
_cell_formula_units_Z   1
loop_
 _symmetry_equiv_pos_site_id
 _symmetry_equiv_pos_as_xyz
  1  'x, y, z'
loop_
 _atom_site_type_symbol
 _atom_site_label
 _atom_site_symmetry_multiplicity
 _atom_site_fract_x
 _atom_site_fract_y
 _atom_site_fract_z
 _atom_site_occupancy
  Mg  Mg0  1  0.125000  0.625000  0.625000  1
  Mg  Mg1  1  0.625000  0.125000  0.625000  1
  Zr  Zr2  1  0.811894  0.811894  0.189935  1
  Zr  Zr3  1  0.186303  0.186303  0.813466  1
  Zr  Zr4  1  0.809915  0.188122  0.810408  1
  Zr  Zr5  1  0.185284  0.810775  0.192164  1
  Zr  Zr6  1  0.188122  0.809915  0.810408  1
  Zr  Zr7  1  0.810775  0.185284  0.192164  1
  Zr  Zr8  1  0.438106  0.438106  0.060065  1
  Zr  Zr9  1  0.063697  0.063697  0.436534  1
  Zr  Zr10  1  0.440085  0.061878  0.439592  1
  Zr  Zr11  1  0.064716  0.439225  0.057836  1
  Zr  Zr12  1  0.061878  0.440085  0.439592  1
  Zr  Zr13  1  0.439225  0.064716  0.057836  1
  Ti  Ti14  1  0.625000  0.625000  0.625000  1
  Nb  Nb15  1  0.625000  0.625000  0.125000  1
  Ir  Ir16  1  0.756116  0.421336  0.413660  1
  Ir  Ir17  1  0.421336  0.756116  0.413660  1
  Ir  Ir18  1  0.419802  0.419802  0.752501  1
  Ir  Ir19  1  0.417829  0.417829  0.410579  1
  Ir  Ir20  1  0.493884  0.828664  0.836340  1
  Ir  Ir21  1  0.828664  0.493884  0.836340  1
  Ir  Ir22  1  0.830198  0.830198  0.497499  1
  Ir  Ir23  1  0.832171  0.832171  0.839421  1
  N  N24  1  0.625000  0.125000  0.125000  1
  N  N25  1  0.125000  0.625000  0.125000  1
  N  N26  1  0.125000  0.125000  0.625000  1
  N  N27  1  0.125000  0.125000  0.125000  1
