# generated using pymatgen
data_Pr3NdSn6
_symmetry_space_group_name_H-M   'P 1'
_cell_length_a   6.48655406
_cell_length_b   8.56188817
_cell_length_c   11.28282229
_cell_angle_alpha   107.26935388
_cell_angle_beta   96.68948874
_cell_angle_gamma   100.18093161
_symmetry_Int_Tables_number   1
_chemical_formula_structural   Pr3NdSn6
_chemical_formula_sum   'Pr6 Nd2 Sn12'
_cell_volume   579.35163800
_cell_formula_units_Z   2
loop_
 _symmetry_equiv_pos_site_id
 _symmetry_equiv_pos_as_xyz
  1  'x, y, z'
loop_
 _atom_site_type_symbol
 _atom_site_label
 _atom_site_symmetry_multiplicity
 _atom_site_fract_x
 _atom_site_fract_y
 _atom_site_fract_z
 _atom_site_occupancy
  Pr  Pr0  1  0.041398  0.748480  0.943212  1
  Pr  Pr1  1  0.958602  0.251520  0.056788  1
  Pr  Pr2  1  0.443313  0.569873  0.663334  1
  Pr  Pr3  1  0.556687  0.430127  0.336666  1
  Pr  Pr4  1  0.667683  0.967787  0.255564  1
  Pr  Pr5  1  0.332317  0.032213  0.744436  1
  Nd  Nd6  1  0.874845  0.245334  0.615276  1
  Nd  Nd7  1  0.125155  0.754666  0.384724  1
  Sn  Sn8  1  0.561938  0.829559  0.948798  1
  Sn  Sn9  1  0.438062  0.170441  0.051202  1
  Sn  Sn10  1  0.642908  0.834911  0.500859  1
  Sn  Sn11  1  0.357092  0.165089  0.499141  1
  Sn  Sn12  1  0.676660  0.397930  0.860672  1
  Sn  Sn13  1  0.323340  0.602070  0.139328  1
  Sn  Sn14  1  0.778264  0.594343  0.135871  1
  Sn  Sn15  1  0.221736  0.405657  0.864129  1
  Sn  Sn16  1  0.047804  0.354025  0.380070  1
  Sn  Sn17  1  0.952196  0.645975  0.619930  1
  Sn  Sn18  1  0.176796  0.036537  0.223111  1
  Sn  Sn19  1  0.823204  0.963463  0.776889  1
