# generated using pymatgen
data_Nd7Sm5(GaRh)8
_symmetry_space_group_name_H-M   'P 1'
_cell_length_a   5.66886984
_cell_length_b   8.15618040
_cell_length_c   13.62642746
_cell_angle_alpha   90.04766504
_cell_angle_beta   89.97730627
_cell_angle_gamma   90.14751186
_symmetry_Int_Tables_number   1
_chemical_formula_structural   Nd7Sm5(GaRh)8
_chemical_formula_sum   'Nd7 Sm5 Ga8 Rh8'
_cell_volume   630.03357527
_cell_formula_units_Z   1
loop_
 _symmetry_equiv_pos_site_id
 _symmetry_equiv_pos_as_xyz
  1  'x, y, z'
loop_
 _atom_site_type_symbol
 _atom_site_label
 _atom_site_symmetry_multiplicity
 _atom_site_fract_x
 _atom_site_fract_y
 _atom_site_fract_z
 _atom_site_occupancy
  Nd  Nd0  1  0.632241  0.259209  0.250577  1
  Nd  Nd1  1  0.368285  0.741952  0.749966  1
  Nd  Nd2  1  0.366457  0.758417  0.250565  1
  Nd  Nd3  1  0.633700  0.241034  0.749919  1
  Nd  Nd4  1  0.144921  0.396829  0.098338  1
  Nd  Nd5  1  0.855356  0.603665  0.901759  1
  Nd  Nd6  1  0.854910  0.602284  0.597448  1
  Sm  Sm7  1  0.852388  0.898817  0.402413  1
  Sm  Sm8  1  0.147177  0.396989  0.401442  1
  Sm  Sm9  1  0.147264  0.102200  0.596970  1
  Sm  Sm10  1  0.147781  0.101112  0.902940  1
  Sm  Sm11  1  0.851979  0.898354  0.098244  1
  Ga  Ga12  1  0.130876  0.108244  0.250461  1
  Ga  Ga13  1  0.869298  0.892957  0.749494  1
  Ga  Ga14  1  0.866370  0.611235  0.250617  1
  Ga  Ga15  1  0.135343  0.388396  0.750079  1
  Ga  Ga16  1  0.633875  0.249650  0.000955  1
  Ga  Ga17  1  0.366148  0.750417  0.999640  1
  Ga  Ga18  1  0.365911  0.749594  0.499713  1
  Ga  Ga19  1  0.633546  0.249890  0.499321  1
  Rh  Rh20  1  0.355983  0.032818  0.091848  1
  Rh  Rh21  1  0.643626  0.967293  0.908634  1
  Rh  Rh22  1  0.643278  0.966960  0.590605  1
  Rh  Rh23  1  0.641127  0.533060  0.408230  1
  Rh  Rh24  1  0.355327  0.033982  0.409085  1
  Rh  Rh25  1  0.355802  0.464534  0.590454  1
  Rh  Rh26  1  0.359868  0.464864  0.908370  1
  Rh  Rh27  1  0.641162  0.535242  0.091912  1
