# generated using pymatgen
data_Ta2Mn2FeOs
_symmetry_space_group_name_H-M   'P 1'
_cell_length_a   4.83148072
_cell_length_b   4.83331193
_cell_length_c   8.12785900
_cell_angle_alpha   90.00000000
_cell_angle_beta   90.00000000
_cell_angle_gamma   60.10201299
_symmetry_Int_Tables_number   1
_chemical_formula_structural   Ta2Mn2FeOs
_chemical_formula_sum   'Ta4 Mn4 Fe2 Os2'
_cell_volume   164.54223172
_cell_formula_units_Z   2
loop_
 _symmetry_equiv_pos_site_id
 _symmetry_equiv_pos_as_xyz
  1  'x, y, z'
loop_
 _atom_site_type_symbol
 _atom_site_label
 _atom_site_symmetry_multiplicity
 _atom_site_fract_x
 _atom_site_fract_y
 _atom_site_fract_z
 _atom_site_occupancy
  Ta  Ta0  1  0.333026  0.333047  0.568439  1
  Ta  Ta1  1  0.666391  0.666426  0.433745  1
  Ta  Ta2  1  0.666391  0.666426  0.066255  1
  Ta  Ta3  1  0.333026  0.333047  0.931561  1
  Mn  Mn4  1  0.824505  0.824496  0.750000  1
  Mn  Mn5  1  0.178328  0.643042  0.250000  1
  Mn  Mn6  1  0.643077  0.178281  0.250000  1
  Mn  Mn7  1  0.177305  0.177254  0.250000  1
  Fe  Fe8  1  0.826345  0.352208  0.750000  1
  Fe  Fe9  1  0.352100  0.826404  0.750000  1
  Os  Os10  1  0.999754  0.999684  0.501732  1
  Os  Os11  1  0.999754  0.999684  0.998268  1
