# generated using pymatgen
data_OsBr35
_symmetry_space_group_name_H-M   'P 1'
_cell_length_a   15.98197694
_cell_length_b   11.40028128
_cell_length_c   10.79188300
_cell_angle_alpha   88.81408278
_cell_angle_beta   66.02770512
_cell_angle_gamma   92.31545406
_symmetry_Int_Tables_number   1
_chemical_formula_structural   OsBr35
_chemical_formula_sum   'Os1 Br35'
_cell_volume   1793.71352310
_cell_formula_units_Z   1
loop_
 _symmetry_equiv_pos_site_id
 _symmetry_equiv_pos_as_xyz
  1  'x, y, z'
loop_
 _atom_site_type_symbol
 _atom_site_label
 _atom_site_symmetry_multiplicity
 _atom_site_fract_x
 _atom_site_fract_y
 _atom_site_fract_z
 _atom_site_occupancy
  Os  Os0  1  0.231752  0.445885  0.454962  1
  Br  Br1  1  0.517896  0.259190  0.516567  1
  Br  Br2  1  0.767259  0.576203  0.555319  1
  Br  Br3  1  0.492732  0.680222  0.746162  1
  Br  Br4  1  0.047975  0.887374  0.870421  1
  Br  Br5  1  0.891162  0.160219  0.004006  1
  Br  Br6  1  0.652782  0.319287  0.288800  1
  Br  Br7  1  0.620504  0.347022  0.841657  1
  Br  Br8  1  0.354794  0.749183  0.708356  1
  Br  Br9  1  0.332854  0.586674  0.239690  1
  Br  Br10  1  0.642942  0.143627  0.807642  1
  Br  Br11  1  0.906413  0.537377  0.351006  1
  Br  Br12  1  0.052862  0.954212  0.643169  1
  Br  Br13  1  0.895246  0.106298  0.240093  1
  Br  Br14  1  0.885105  0.217548  0.785340  1
  Br  Br15  1  0.652537  0.045777  0.230688  1
  Br  Br16  1  0.020017  0.815606  0.114783  1
  Br  Br17  1  0.370179  0.970772  0.721282  1
  Br  Br18  1  0.898613  0.315556  0.305734  1
  Br  Br19  1  0.869875  0.930199  0.717242  1
  Br  Br20  1  0.896677  0.662400  0.795341  1
  Br  Br21  1  0.319089  0.031073  0.289562  1
  Br  Br22  1  0.335531  0.314013  0.289860  1
  Br  Br23  1  0.630049  0.613201  0.788795  1
  Br  Br24  1  0.122370  0.416093  0.350941  1
  Br  Br25  1  0.703825  0.907957  0.791841  1
  Br  Br26  1  0.870511  0.453814  0.802674  1
  Br  Br27  1  0.492376  0.038757  0.259670  1
  Br  Br28  1  0.150086  0.301619  0.634008  1
  Br  Br29  1  0.671711  0.770459  0.269391  1
  Br  Br30  1  0.845667  0.795888  0.195625  1
  Br  Br31  1  0.382102  0.195688  0.733929  1
  Br  Br32  1  0.348896  0.482748  0.543934  1
  Br  Br33  1  0.655004  0.543125  0.268825  1
  Br  Br34  1  0.155833  0.619945  0.562955  1
  Br  Br35  1  0.316776  0.804988  0.279730  1
