# generated using pymatgen
data_Tb3Lu2ScFeTe2
_symmetry_space_group_name_H-M   'P 1'
_cell_length_a   8.13130168
_cell_length_b   8.22026033
_cell_length_c   3.98660300
_cell_angle_alpha   90.00000000
_cell_angle_beta   90.00000000
_cell_angle_gamma   120.36256241
_symmetry_Int_Tables_number   1
_chemical_formula_structural   Tb3Lu2ScFeTe2
_chemical_formula_sum   'Tb3 Lu2 Sc1 Fe1 Te2'
_cell_volume   229.92224160
_cell_formula_units_Z   1
loop_
 _symmetry_equiv_pos_site_id
 _symmetry_equiv_pos_as_xyz
  1  'x, y, z'
loop_
 _atom_site_type_symbol
 _atom_site_label
 _atom_site_symmetry_multiplicity
 _atom_site_fract_x
 _atom_site_fract_y
 _atom_site_fract_z
 _atom_site_occupancy
  Tb  Tb0  1  0.616925  0.002012  0.000000  1
  Tb  Tb1  1  0.383075  0.385086  0.000000  1
  Tb  Tb2  1  0.000000  0.602703  0.000000  1
  Lu  Lu3  1  0.228318  0.997496  0.500000  1
  Lu  Lu4  1  0.771682  0.769178  0.500000  1
  Sc  Sc5  1  0.000000  0.228058  0.500000  1
  Fe  Fe6  1  0.000000  0.019549  0.000000  1
  Te  Te7  1  0.329944  0.662931  0.500000  1
  Te  Te8  1  0.670056  0.332986  0.500000  1
