# generated using pymatgen
data_Ta6Mn5AlN2
_symmetry_space_group_name_H-M   'P 1'
_cell_length_a   8.05601846
_cell_length_b   8.06878510
_cell_length_c   8.03744100
_cell_angle_alpha   90.00000000
_cell_angle_beta   60.07625784
_cell_angle_gamma   120.05243597
_symmetry_Int_Tables_number   1
_chemical_formula_structural   Ta6Mn5AlN2
_chemical_formula_sum   'Ta12 Mn10 Al2 N4'
_cell_volume   369.56186839
_cell_formula_units_Z   2
loop_
 _symmetry_equiv_pos_site_id
 _symmetry_equiv_pos_as_xyz
  1  'x, y, z'
loop_
 _atom_site_type_symbol
 _atom_site_label
 _atom_site_symmetry_multiplicity
 _atom_site_fract_x
 _atom_site_fract_y
 _atom_site_fract_z
 _atom_site_occupancy
  Ta  Ta0  1  0.641831  0.820916  0.429084  1
  Ta  Ta1  1  0.861595  0.430798  0.819202  1
  Ta  Ta2  1  0.249560  0.820476  0.820889  1
  Ta  Ta3  1  0.249560  0.429085  0.429551  1
  Ta  Ta4  1  0.249560  0.429085  0.820889  1
  Ta  Ta5  1  0.249560  0.820476  0.429551  1
  Ta  Ta6  1  0.358169  0.179084  0.570916  1
  Ta  Ta7  1  0.138405  0.569202  0.180798  1
  Ta  Ta8  1  0.750440  0.179524  0.179111  1
  Ta  Ta9  1  0.750440  0.570915  0.570449  1
  Ta  Ta10  1  0.750440  0.570915  0.179111  1
  Ta  Ta11  1  0.750440  0.179524  0.570449  1
  Mn  Mn12  1  0.100577  0.888023  0.199712  1
  Mn  Mn13  1  0.100577  0.212554  0.199712  1
  Mn  Mn14  1  0.414410  0.207206  0.886819  1
  Mn  Mn15  1  0.414410  0.207206  0.198771  1
  Mn  Mn16  1  0.899423  0.111977  0.800288  1
  Mn  Mn17  1  0.899423  0.787446  0.800288  1
  Mn  Mn18  1  0.585590  0.792794  0.113181  1
  Mn  Mn19  1  0.585590  0.792794  0.801229  1
  Mn  Mn20  1  0.500000  0.500000  0.000000  1
  Mn  Mn21  1  0.500000  0.000000  0.000000  1
  Al  Al22  1  0.000000  0.000000  0.500000  1
  Al  Al23  1  0.000000  0.000000  0.000000  1
  N  N24  1  0.500000  0.000000  0.500000  1
  N  N25  1  0.500000  0.500000  0.500000  1
  N  N26  1  0.000000  0.500000  0.000000  1
  N  N27  1  0.000000  0.500000  0.500000  1
