# generated using pymatgen
data_La2Er6AlPd24
_symmetry_space_group_name_H-M   'P 1'
_cell_length_a   8.36555745
_cell_length_b   8.36555705
_cell_length_c   8.36555700
_cell_angle_alpha   90.14943186
_cell_angle_beta   89.85056815
_cell_angle_gamma   89.85056799
_symmetry_Int_Tables_number   1
_chemical_formula_structural   La2Er6AlPd24
_chemical_formula_sum   'La2 Er6 Al1 Pd24'
_cell_volume   585.43701167
_cell_formula_units_Z   1
loop_
 _symmetry_equiv_pos_site_id
 _symmetry_equiv_pos_as_xyz
  1  'x, y, z'
loop_
 _atom_site_type_symbol
 _atom_site_label
 _atom_site_symmetry_multiplicity
 _atom_site_fract_x
 _atom_site_fract_y
 _atom_site_fract_z
 _atom_site_occupancy
  La  La0  1  0.252933  0.747067  0.747067  1
  La  La1  1  0.747067  0.252933  0.252933  1
  Er  Er2  1  0.252214  0.251594  0.251594  1
  Er  Er3  1  0.747786  0.748406  0.748406  1
  Er  Er4  1  0.748406  0.747786  0.251594  1
  Er  Er5  1  0.748406  0.251594  0.747786  1
  Er  Er6  1  0.251594  0.252214  0.748406  1
  Er  Er7  1  0.251594  0.748406  0.252214  1
  Al  Al8  1  0.000000  0.000000  0.000000  1
  Pd  Pd9  1  0.259440  0.498117  0.004006  1
  Pd  Pd10  1  0.740560  0.501883  0.995994  1
  Pd  Pd11  1  0.004006  0.259440  0.501883  1
  Pd  Pd12  1  0.498117  0.259440  0.995994  1
  Pd  Pd13  1  0.995994  0.740560  0.498117  1
  Pd  Pd14  1  0.501883  0.740560  0.004006  1
  Pd  Pd15  1  0.498117  0.995994  0.259440  1
  Pd  Pd16  1  0.259440  0.004006  0.498117  1
  Pd  Pd17  1  0.501883  0.004006  0.740560  1
  Pd  Pd18  1  0.740560  0.995994  0.501883  1
  Pd  Pd19  1  0.004006  0.501883  0.259440  1
  Pd  Pd20  1  0.995994  0.498117  0.740560  1
  Pd  Pd21  1  0.252880  0.496794  0.496794  1
  Pd  Pd22  1  0.747120  0.503206  0.503206  1
  Pd  Pd23  1  0.496794  0.252880  0.503206  1
  Pd  Pd24  1  0.503206  0.747120  0.496794  1
  Pd  Pd25  1  0.496794  0.503206  0.252880  1
  Pd  Pd26  1  0.503206  0.496794  0.747120  1
  Pd  Pd27  1  0.288823  0.003493  0.003493  1
  Pd  Pd28  1  0.711177  0.996507  0.996507  1
  Pd  Pd29  1  0.003493  0.288823  0.996507  1
  Pd  Pd30  1  0.996507  0.711177  0.003493  1
  Pd  Pd31  1  0.003493  0.996507  0.288823  1
  Pd  Pd32  1  0.996507  0.003493  0.711177  1
