# generated using pymatgen
data_Er12Ni3BiOs2
_symmetry_space_group_name_H-M   'P 1'
_cell_length_a   8.30545746
_cell_length_b   8.30545775
_cell_length_c   8.30545700
_cell_angle_alpha   110.26217626
_cell_angle_beta   112.20921055
_cell_angle_gamma   106.00336539
_symmetry_Int_Tables_number   1
_chemical_formula_structural   Er12Ni3BiOs2
_chemical_formula_sum   'Er12 Ni3 Bi1 Os2'
_cell_volume   439.69280706
_cell_formula_units_Z   1
loop_
 _symmetry_equiv_pos_site_id
 _symmetry_equiv_pos_as_xyz
  1  'x, y, z'
loop_
 _atom_site_type_symbol
 _atom_site_label
 _atom_site_symmetry_multiplicity
 _atom_site_fract_x
 _atom_site_fract_y
 _atom_site_fract_z
 _atom_site_occupancy
  Er  Er0  1  0.271830  0.181459  0.453288  1
  Er  Er1  1  0.723832  0.825100  0.548932  1
  Er  Er2  1  0.276168  0.825100  0.101268  1
  Er  Er3  1  0.728170  0.181459  0.909629  1
  Er  Er4  1  0.631912  0.316962  0.309104  1
  Er  Er5  1  0.368088  0.677192  0.685050  1
  Er  Er6  1  0.007857  0.316962  0.685050  1
  Er  Er7  1  0.992143  0.677192  0.309104  1
  Er  Er8  1  0.224437  0.413633  0.189197  1
  Er  Er9  1  0.780640  0.586971  0.806330  1
  Er  Er10  1  0.219360  0.025690  0.806330  1
  Er  Er11  1  0.775563  0.964760  0.189197  1
  Ni  Ni12  1  0.000000  0.651828  0.651828  1
  Ni  Ni13  1  0.383514  0.885897  0.502382  1
  Ni  Ni14  1  0.616486  0.118868  0.502382  1
  Bi  Bi15  1  0.500000  0.498629  0.998629  1
  Os  Os16  1  0.000000  0.353056  0.353056  1
  Os  Os17  1  0.000000  0.999242  0.999242  1
