# generated using pymatgen
data_Dy(NbS2)5
_symmetry_space_group_name_H-M   'P 1'
_cell_length_a   5.85845643
_cell_length_b   7.81492920
_cell_length_c   8.55538297
_cell_angle_alpha   113.86605153
_cell_angle_beta   96.72604487
_cell_angle_gamma   104.27728007
_symmetry_Int_Tables_number   1
_chemical_formula_structural   Dy(NbS2)5
_chemical_formula_sum   'Dy1 Nb5 S10'
_cell_volume   336.58169186
_cell_formula_units_Z   1
loop_
 _symmetry_equiv_pos_site_id
 _symmetry_equiv_pos_as_xyz
  1  'x, y, z'
loop_
 _atom_site_type_symbol
 _atom_site_label
 _atom_site_symmetry_multiplicity
 _atom_site_fract_x
 _atom_site_fract_y
 _atom_site_fract_z
 _atom_site_occupancy
  Dy  Dy0  1  0.667933  0.508735  0.993733  1
  Nb  Nb1  1  0.003211  0.997807  0.000822  1
  Nb  Nb2  1  0.599075  0.202408  0.202271  1
  Nb  Nb3  1  0.198189  0.399574  0.398467  1
  Nb  Nb4  1  0.799167  0.599923  0.601986  1
  Nb  Nb5  1  0.401129  0.796971  0.799308  1
  S  S6  1  0.236524  0.064211  0.291477  1
  S  S7  1  0.046298  0.657986  0.893344  1
  S  S8  1  0.835639  0.262984  0.489453  1
  S  S9  1  0.636159  0.868352  0.099513  1
  S  S10  1  0.427274  0.450434  0.684483  1
  S  S11  1  0.897504  0.543626  0.310590  1
  S  S12  1  0.698046  0.135644  0.907636  1
  S  S13  1  0.495777  0.735841  0.511078  1
  S  S14  1  0.293429  0.338893  0.106116  1
  S  S15  1  0.097448  0.934209  0.711324  1
