# generated using pymatgen
data_La8PrSmOs2I15
_symmetry_space_group_name_H-M   'P 1'
_cell_length_a   10.25731836
_cell_length_b   11.16179968
_cell_length_c   11.92241499
_cell_angle_alpha   91.56486591
_cell_angle_beta   114.18782653
_cell_angle_gamma   110.61803721
_symmetry_Int_Tables_number   1
_chemical_formula_structural   La8PrSmOs2I15
_chemical_formula_sum   'La8 Pr1 Sm1 Os2 I15'
_cell_volume   1141.62878295
_cell_formula_units_Z   1
loop_
 _symmetry_equiv_pos_site_id
 _symmetry_equiv_pos_as_xyz
  1  'x, y, z'
loop_
 _atom_site_type_symbol
 _atom_site_label
 _atom_site_symmetry_multiplicity
 _atom_site_fract_x
 _atom_site_fract_y
 _atom_site_fract_z
 _atom_site_occupancy
  La  La0  1  0.297945  0.902675  0.273708  1
  La  La1  1  0.702076  0.097857  0.726656  1
  La  La2  1  0.085121  0.548704  0.322947  1
  La  La3  1  0.913598  0.450808  0.676737  1
  La  La4  1  0.829935  0.749786  0.179007  1
  La  La5  1  0.169946  0.249643  0.820579  1
  La  La6  1  0.975420  0.788718  0.910615  1
  La  La7  1  0.023218  0.210767  0.089076  1
  Pr  Pr8  1  0.230933  0.578329  0.050477  1
  Sm  Sm9  1  0.772083  0.422123  0.949840  1
  Os  Os10  1  0.030326  0.671473  0.118701  1
  Os  Os11  1  0.967156  0.327718  0.880781  1
  I  I12  1  0.338775  0.446403  0.297891  1
  I  I13  1  0.660817  0.551532  0.704504  1
  I  I14  1  0.213318  0.735804  0.820269  1
  I  I15  1  0.784905  0.265536  0.176863  1
  I  I16  1  0.141353  0.386348  0.580322  1
  I  I17  1  0.858354  0.613565  0.419744  1
  I  I18  1  0.387682  0.800810  0.533378  1
  I  I19  1  0.612052  0.199045  0.466324  1
  I  I20  1  0.263096  0.087656  0.054776  1
  I  I21  1  0.736506  0.912170  0.945118  1
  I  I22  1  0.561077  0.840599  0.224183  1
  I  I23  1  0.442772  0.162999  0.778164  1
  I  I24  1  0.091713  0.039765  0.334624  1
  I  I25  1  0.908224  0.960162  0.665366  1
  I  I26  1  0.501599  0.499005  0.999352  1
