# generated using pymatgen
data_PrEr2Sc2(In2Pt)2
_symmetry_space_group_name_H-M   'P 1'
_cell_length_a   3.58874400
_cell_length_b   8.07683900
_cell_length_c   17.96203200
_cell_angle_alpha   90.00000000
_cell_angle_beta   90.00000000
_cell_angle_gamma   90.00000000
_symmetry_Int_Tables_number   1
_chemical_formula_structural   PrEr2Sc2(In2Pt)2
_chemical_formula_sum   'Pr2 Er4 Sc4 In8 Pt4'
_cell_volume   520.64220566
_cell_formula_units_Z   2
loop_
 _symmetry_equiv_pos_site_id
 _symmetry_equiv_pos_as_xyz
  1  'x, y, z'
loop_
 _atom_site_type_symbol
 _atom_site_label
 _atom_site_symmetry_multiplicity
 _atom_site_fract_x
 _atom_site_fract_y
 _atom_site_fract_z
 _atom_site_occupancy
  Pr  Pr0  1  0.000000  0.000000  0.000000  1
  Pr  Pr1  1  0.000000  0.500000  0.500000  1
  Er  Er2  1  0.000000  0.238788  0.213736  1
  Er  Er3  1  0.000000  0.761212  0.786264  1
  Er  Er4  1  0.000000  0.261212  0.713736  1
  Er  Er5  1  0.000000  0.738788  0.286264  1
  Sc  Sc6  1  0.000000  0.121808  0.410955  1
  Sc  Sc7  1  0.000000  0.878192  0.589045  1
  Sc  Sc8  1  0.000000  0.378192  0.910955  1
  Sc  Sc9  1  0.000000  0.621808  0.089045  1
  In  In10  1  0.500000  0.408129  0.346218  1
  In  In11  1  0.500000  0.591871  0.653782  1
  In  In12  1  0.500000  0.091871  0.846218  1
  In  In13  1  0.500000  0.908129  0.153782  1
  In  In14  1  0.500000  0.320290  0.058686  1
  In  In15  1  0.500000  0.679710  0.941314  1
  In  In16  1  0.500000  0.179710  0.558686  1
  In  In17  1  0.500000  0.820290  0.441314  1
  Pt  Pt18  1  0.500000  0.029025  0.306114  1
  Pt  Pt19  1  0.500000  0.970975  0.693886  1
  Pt  Pt20  1  0.500000  0.470975  0.806114  1
  Pt  Pt21  1  0.500000  0.529025  0.193886  1
