# generated using pymatgen
data_Pr12Ga8RuRh7
_symmetry_space_group_name_H-M   'P 1'
_cell_length_a   5.74899343
_cell_length_b   8.25337129
_cell_length_c   13.69325186
_cell_angle_alpha   89.84673338
_cell_angle_beta   90.16148548
_cell_angle_gamma   90.03100787
_symmetry_Int_Tables_number   1
_chemical_formula_structural   Pr12Ga8RuRh7
_chemical_formula_sum   'Pr12 Ga8 Ru1 Rh7'
_cell_volume   649.72032249
_cell_formula_units_Z   1
loop_
 _symmetry_equiv_pos_site_id
 _symmetry_equiv_pos_as_xyz
  1  'x, y, z'
loop_
 _atom_site_type_symbol
 _atom_site_label
 _atom_site_symmetry_multiplicity
 _atom_site_fract_x
 _atom_site_fract_y
 _atom_site_fract_z
 _atom_site_occupancy
  Pr  Pr0  1  0.631672  0.258265  0.249921  1
  Pr  Pr1  1  0.367327  0.741198  0.749929  1
  Pr  Pr2  1  0.368398  0.761357  0.248214  1
  Pr  Pr3  1  0.636208  0.240449  0.750229  1
  Pr  Pr4  1  0.146067  0.395947  0.098141  1
  Pr  Pr5  1  0.855014  0.601061  0.902940  1
  Pr  Pr6  1  0.854955  0.600954  0.597650  1
  Pr  Pr7  1  0.854458  0.898796  0.401778  1
  Pr  Pr8  1  0.144599  0.399432  0.401961  1
  Pr  Pr9  1  0.145751  0.101355  0.597803  1
  Pr  Pr10  1  0.146320  0.100180  0.903313  1
  Pr  Pr11  1  0.853943  0.903028  0.098239  1
  Ga  Ga12  1  0.138112  0.108948  0.250483  1
  Ga  Ga13  1  0.863944  0.890373  0.749526  1
  Ga  Ga14  1  0.863235  0.609312  0.249335  1
  Ga  Ga15  1  0.140255  0.391125  0.750587  1
  Ga  Ga16  1  0.622566  0.248127  0.000525  1
  Ga  Ga17  1  0.373523  0.750951  0.001003  1
  Ga  Ga18  1  0.372701  0.750131  0.499855  1
  Ga  Ga19  1  0.626399  0.250323  0.500173  1
  Ru  Ru20  1  0.351755  0.030777  0.090471  1
  Rh  Rh21  1  0.642663  0.966526  0.907036  1
  Rh  Rh22  1  0.643755  0.968175  0.591290  1
  Rh  Rh23  1  0.643222  0.531882  0.408557  1
  Rh  Rh24  1  0.355446  0.031493  0.409938  1
  Rh  Rh25  1  0.356631  0.468942  0.591473  1
  Rh  Rh26  1  0.357844  0.471329  0.908209  1
  Rh  Rh27  1  0.643238  0.529563  0.091420  1
