# generated using pymatgen
data_Gd(S2O7)2
_symmetry_space_group_name_H-M   'P 1'
_cell_length_a   6.91544255
_cell_length_b   6.95776948
_cell_length_c   12.77373361
_cell_angle_alpha   77.93696970
_cell_angle_beta   77.63476161
_cell_angle_gamma   79.36736985
_symmetry_Int_Tables_number   1
_chemical_formula_structural   Gd(S2O7)2
_chemical_formula_sum   'Gd2 S8 O28'
_cell_volume   580.78906709
_cell_formula_units_Z   2
loop_
 _symmetry_equiv_pos_site_id
 _symmetry_equiv_pos_as_xyz
  1  'x, y, z'
loop_
 _atom_site_type_symbol
 _atom_site_label
 _atom_site_symmetry_multiplicity
 _atom_site_fract_x
 _atom_site_fract_y
 _atom_site_fract_z
 _atom_site_occupancy
  Gd  Gd0  1  0.993660  0.003885  0.753641  1
  Gd  Gd1  1  0.005680  0.994274  0.251364  1
  S  S2  1  0.447603  0.966373  0.849438  1
  S  S3  1  0.980834  0.444382  0.342964  1
  S  S4  1  0.189899  0.716740  0.003787  1
  S  S5  1  0.272361  0.807781  0.502056  1
  S  S6  1  0.727866  0.190972  0.503789  1
  S  S7  1  0.812220  0.272978  0.001596  1
  S  S8  1  0.168346  0.509337  0.688691  1
  S  S9  1  0.552235  0.025255  0.158354  1
  O  O10  1  0.662768  0.923107  0.811054  1
  O  O11  1  0.935968  0.659620  0.311039  1
  O  O12  1  0.334653  0.965893  0.763775  1
  O  O13  1  0.410941  0.752113  0.935979  1
  O  O14  1  0.623949  0.859685  0.103132  1
  O  O15  1  0.850783  0.179554  0.904503  1
  O  O16  1  0.487039  0.764711  0.490518  1
  O  O17  1  0.955093  0.338481  0.259499  1
  O  O18  1  0.184118  0.951726  0.575176  1
  O  O19  1  0.775593  0.408763  0.441508  1
  O  O20  1  0.047142  0.813011  0.931693  1
  O  O21  1  0.200629  0.860571  0.398759  1
  O  O22  1  0.797773  0.485472  0.974397  1
  O  O23  1  0.818402  0.146408  0.601954  1
  O  O24  1  0.369156  0.471563  0.708786  1
  O  O25  1  0.204053  0.504107  0.030776  1
  O  O26  1  0.953492  0.176771  0.074488  1
  O  O27  1  0.033603  0.662990  0.743707  1
  O  O28  1  0.175069  0.605430  0.555868  1
  O  O29  1  0.820796  0.049614  0.430231  1
  O  O30  1  0.155317  0.810414  0.100457  1
  O  O31  1  0.512970  0.212345  0.529512  1
  O  O32  1  0.377257  0.124700  0.910105  1
  O  O33  1  0.661275  0.034654  0.244162  1
  O  O34  1  0.591727  0.235123  0.067182  1
  O  O35  1  0.069882  0.337582  0.695860  1
  O  O36  1  0.153633  0.368245  0.391845  1
  O  O37  1  0.336383  0.073103  0.192463  1
