# generated using pymatgen
data_TbDy3AlRu7
_symmetry_space_group_name_H-M   'P 1'
_cell_length_a   5.38104024
_cell_length_b   5.38104065
_cell_length_c   8.60602501
_cell_angle_alpha   90.01333607
_cell_angle_beta   89.98666292
_cell_angle_gamma   119.95914150
_symmetry_Int_Tables_number   1
_chemical_formula_structural   TbDy3AlRu7
_chemical_formula_sum   'Tb1 Dy3 Al1 Ru7'
_cell_volume   215.89589872
_cell_formula_units_Z   1
loop_
 _symmetry_equiv_pos_site_id
 _symmetry_equiv_pos_as_xyz
  1  'x, y, z'
loop_
 _atom_site_type_symbol
 _atom_site_label
 _atom_site_symmetry_multiplicity
 _atom_site_fract_x
 _atom_site_fract_y
 _atom_site_fract_z
 _atom_site_occupancy
  Tb  Tb0  1  0.666696  0.333304  0.569889  1
  Dy  Dy1  1  0.333304  0.666696  0.430053  1
  Dy  Dy2  1  0.333267  0.666733  0.064883  1
  Dy  Dy3  1  0.666737  0.333263  0.935126  1
  Al  Al4  1  0.999997  0.000003  0.499972  1
  Ru  Ru5  1  0.999996  0.000004  0.999982  1
  Ru  Ru6  1  0.171325  0.342424  0.748852  1
  Ru  Ru7  1  0.171118  0.828882  0.748795  1
  Ru  Ru8  1  0.657576  0.828675  0.748852  1
  Ru  Ru9  1  0.828715  0.657662  0.251177  1
  Ru  Ru10  1  0.828932  0.171068  0.251243  1
  Ru  Ru11  1  0.342338  0.171285  0.251177  1
