# generated using pymatgen
data_Tb4Y4GePd24
_symmetry_space_group_name_H-M   'P 1'
_cell_length_a   8.37295800
_cell_length_b   8.37293100
_cell_length_c   8.37293100
_cell_angle_alpha   90.00008212
_cell_angle_beta   89.99995894
_cell_angle_gamma   89.99995894
_symmetry_Int_Tables_number   1
_chemical_formula_structural   Tb4Y4GePd24
_chemical_formula_sum   'Tb4 Y4 Ge1 Pd24'
_cell_volume   586.99437192
_cell_formula_units_Z   1
loop_
 _symmetry_equiv_pos_site_id
 _symmetry_equiv_pos_as_xyz
  1  'x, y, z'
loop_
 _atom_site_type_symbol
 _atom_site_label
 _atom_site_symmetry_multiplicity
 _atom_site_fract_x
 _atom_site_fract_y
 _atom_site_fract_z
 _atom_site_occupancy
  Tb  Tb0  1  0.253270  0.253271  0.253271  1
  Tb  Tb1  1  0.746730  0.746732  0.746732  1
  Tb  Tb2  1  0.746727  0.746728  0.253270  1
  Tb  Tb3  1  0.746727  0.253270  0.746728  1
  Y  Y4  1  0.253238  0.253242  0.746761  1
  Y  Y5  1  0.253238  0.746761  0.253242  1
  Y  Y6  1  0.253241  0.746755  0.746755  1
  Y  Y7  1  0.746760  0.253240  0.253240  1
  Ge  Ge8  1  0.000025  0.000000  0.000000  1
  Pd  Pd9  1  0.259949  0.499995  0.000000  1
  Pd  Pd10  1  0.740048  0.500005  0.000001  1
  Pd  Pd11  1  0.000012  0.259950  0.500000  1
  Pd  Pd12  1  0.499987  0.259951  0.000001  1
  Pd  Pd13  1  0.000015  0.740050  0.499999  1
  Pd  Pd14  1  0.499994  0.740050  0.000001  1
  Pd  Pd15  1  0.499987  0.000001  0.259951  1
  Pd  Pd16  1  0.259949  0.000000  0.499995  1
  Pd  Pd17  1  0.499994  0.000001  0.740050  1
  Pd  Pd18  1  0.740048  0.000001  0.500005  1
  Pd  Pd19  1  0.000012  0.500000  0.259950  1
  Pd  Pd20  1  0.000015  0.499999  0.740050  1
  Pd  Pd21  1  0.253459  0.499995  0.499995  1
  Pd  Pd22  1  0.746531  0.500004  0.500004  1
  Pd  Pd23  1  0.499990  0.253464  0.499999  1
  Pd  Pd24  1  0.499997  0.746536  0.499999  1
  Pd  Pd25  1  0.499990  0.499999  0.253464  1
  Pd  Pd26  1  0.499997  0.499999  0.746536  1
  Pd  Pd27  1  0.289032  0.999993  0.999993  1
  Pd  Pd28  1  0.710946  0.000009  0.000009  1
  Pd  Pd29  1  0.000015  0.289042  0.000000  1
  Pd  Pd30  1  0.000031  0.710958  0.000001  1
  Pd  Pd31  1  0.000015  0.000000  0.289042  1
  Pd  Pd32  1  0.000031  0.000001  0.710958  1
