# generated using pymatgen
data_CsPrSiO4
_symmetry_space_group_name_H-M   'P 1'
_cell_length_a   5.85868357
_cell_length_b   5.86689300
_cell_length_c   8.14577798
_cell_angle_alpha   90.00000000
_cell_angle_beta   107.65114490
_cell_angle_gamma   90.00000000
_symmetry_Int_Tables_number   1
_chemical_formula_structural   CsPrSiO4
_chemical_formula_sum   'Cs2 Pr2 Si2 O8'
_cell_volume   266.80710682
_cell_formula_units_Z   2
loop_
 _symmetry_equiv_pos_site_id
 _symmetry_equiv_pos_as_xyz
  1  'x, y, z'
loop_
 _atom_site_type_symbol
 _atom_site_label
 _atom_site_symmetry_multiplicity
 _atom_site_fract_x
 _atom_site_fract_y
 _atom_site_fract_z
 _atom_site_occupancy
  Cs  Cs0  1  0.802782  0.222826  0.073289  1
  Cs  Cs1  1  0.197218  0.722826  0.926710  1
  Pr  Pr2  1  0.270924  0.689936  0.455928  1
  Pr  Pr3  1  0.729076  0.189936  0.544072  1
  Si  Si4  1  0.727737  0.724105  0.341850  1
  Si  Si5  1  0.272264  0.224107  0.658150  1
  O  O6  1  0.899385  0.714487  0.216062  1
  O  O7  1  0.522235  0.928512  0.306773  1
  O  O8  1  0.570409  0.488595  0.341668  1
  O  O9  1  0.091500  0.283549  0.462096  1
  O  O10  1  0.908500  0.783550  0.537904  1
  O  O11  1  0.429591  0.988593  0.658332  1
  O  O12  1  0.477765  0.428512  0.693226  1
  O  O13  1  0.100614  0.214487  0.783938  1
