# generated using pymatgen
data_Hf18CrRe7SiSe
_symmetry_space_group_name_H-M   'P 1'
_cell_length_a   8.60417300
_cell_length_b   8.60417204
_cell_length_c   8.58749000
_cell_angle_alpha   90.00000000
_cell_angle_beta   90.00000000
_cell_angle_gamma   120.00000753
_symmetry_Int_Tables_number   1
_chemical_formula_structural   Hf18CrRe7SiSe
_chemical_formula_sum   'Hf18 Cr1 Re7 Si1 Se1'
_cell_volume   550.57319357
_cell_formula_units_Z   1
loop_
 _symmetry_equiv_pos_site_id
 _symmetry_equiv_pos_as_xyz
  1  'x, y, z'
loop_
 _atom_site_type_symbol
 _atom_site_label
 _atom_site_symmetry_multiplicity
 _atom_site_fract_x
 _atom_site_fract_y
 _atom_site_fract_z
 _atom_site_occupancy
  Hf  Hf0  1  0.191561  0.808439  0.452982  1
  Hf  Hf1  1  0.191561  0.383122  0.452982  1
  Hf  Hf2  1  0.616878  0.808439  0.452982  1
  Hf  Hf3  1  0.807254  0.192746  0.548922  1
  Hf  Hf4  1  0.807254  0.614509  0.548922  1
  Hf  Hf5  1  0.385491  0.192746  0.548922  1
  Hf  Hf6  1  0.805860  0.194140  0.951910  1
  Hf  Hf7  1  0.805860  0.611720  0.951910  1
  Hf  Hf8  1  0.388280  0.194140  0.951910  1
  Hf  Hf9  1  0.193048  0.806952  0.045902  1
  Hf  Hf10  1  0.193048  0.386097  0.045902  1
  Hf  Hf11  1  0.613903  0.806952  0.045902  1
  Hf  Hf12  1  0.543889  0.456111  0.250456  1
  Hf  Hf13  1  0.543889  0.087776  0.250456  1
  Hf  Hf14  1  0.912224  0.456111  0.250456  1
  Hf  Hf15  1  0.460881  0.539119  0.749368  1
  Hf  Hf16  1  0.460881  0.921763  0.749368  1
  Hf  Hf17  1  0.078237  0.539119  0.749368  1
  Cr  Cr18  1  0.000000  0.000000  0.500116  1
  Re  Re19  1  0.891751  0.108249  0.254120  1
  Re  Re20  1  0.891751  0.783501  0.254120  1
  Re  Re21  1  0.216499  0.108249  0.254120  1
  Re  Re22  1  0.108057  0.891943  0.746272  1
  Re  Re23  1  0.108057  0.216114  0.746272  1
  Re  Re24  1  0.783886  0.891943  0.746272  1
  Re  Re25  1  0.000000  0.000000  0.000211  1
  Si  Si26  1  0.666667  0.333333  0.749089  1
  Se  Se27  1  0.333333  0.666667  0.250790  1
