# generated using pymatgen
data_Lu8Ga12CoCu3
_symmetry_space_group_name_H-M   'P 1'
_cell_length_a   8.72141400
_cell_length_b   8.72141393
_cell_length_c   6.79601100
_cell_angle_alpha   90.00000000
_cell_angle_beta   90.00000000
_cell_angle_gamma   120.00000027
_symmetry_Int_Tables_number   1
_chemical_formula_structural   Lu8Ga12CoCu3
_chemical_formula_sum   'Lu8 Ga12 Co1 Cu3'
_cell_volume   447.67052964
_cell_formula_units_Z   1
loop_
 _symmetry_equiv_pos_site_id
 _symmetry_equiv_pos_as_xyz
  1  'x, y, z'
loop_
 _atom_site_type_symbol
 _atom_site_label
 _atom_site_symmetry_multiplicity
 _atom_site_fract_x
 _atom_site_fract_y
 _atom_site_fract_z
 _atom_site_occupancy
  Lu  Lu0  1  0.000000  0.000000  0.249877  1
  Lu  Lu1  1  0.000000  0.000000  0.745996  1
  Lu  Lu2  1  0.523237  0.046474  0.256628  1
  Lu  Lu3  1  0.523237  0.476763  0.256628  1
  Lu  Lu4  1  0.953526  0.476763  0.256628  1
  Lu  Lu5  1  0.485523  0.971045  0.749509  1
  Lu  Lu6  1  0.485523  0.514477  0.749509  1
  Lu  Lu7  1  0.028955  0.514477  0.749509  1
  Ga  Ga8  1  0.170673  0.341346  0.041177  1
  Ga  Ga9  1  0.169791  0.830209  0.461838  1
  Ga  Ga10  1  0.660417  0.830209  0.461838  1
  Ga  Ga11  1  0.658654  0.829327  0.041177  1
  Ga  Ga12  1  0.170673  0.829327  0.041177  1
  Ga  Ga13  1  0.831241  0.662482  0.960952  1
  Ga  Ga14  1  0.831241  0.168759  0.960952  1
  Ga  Ga15  1  0.337518  0.168759  0.960952  1
  Ga  Ga16  1  0.169791  0.339583  0.461838  1
  Ga  Ga17  1  0.345471  0.172735  0.542137  1
  Ga  Ga18  1  0.827265  0.654529  0.542137  1
  Ga  Ga19  1  0.827265  0.172735  0.542137  1
  Co  Co20  1  0.666667  0.333333  0.513170  1
  Cu  Cu21  1  0.333333  0.666667  0.039761  1
  Cu  Cu22  1  0.333333  0.666667  0.461955  1
  Cu  Cu23  1  0.666667  0.333333  0.952516  1
