# generated using pymatgen
data_Th4C2O
_symmetry_space_group_name_H-M   'P 1'
_cell_length_a   12.41746955
_cell_length_b   12.41746946
_cell_length_c   12.41746834
_cell_angle_alpha   17.20078631
_cell_angle_beta   17.20078848
_cell_angle_gamma   17.20079033
_symmetry_Int_Tables_number   1
_chemical_formula_structural   Th4C2O
_chemical_formula_sum   'Th4 C2 O1'
_cell_volume   146.09787694
_cell_formula_units_Z   1
loop_
 _symmetry_equiv_pos_site_id
 _symmetry_equiv_pos_as_xyz
  1  'x, y, z'
loop_
 _atom_site_type_symbol
 _atom_site_label
 _atom_site_symmetry_multiplicity
 _atom_site_fract_x
 _atom_site_fract_y
 _atom_site_fract_z
 _atom_site_occupancy
  Th  Th0  1  0.625749  0.625749  0.625749  1
  Th  Th1  1  0.374251  0.374251  0.374251  1
  Th  Th2  1  0.880956  0.880956  0.880956  1
  Th  Th3  1  0.119044  0.119044  0.119044  1
  C  C4  1  0.748281  0.748281  0.748281  1
  C  C5  1  0.251720  0.251719  0.251719  1
  O  O6  1  0.000000  0.000000  0.000000  1
