# generated using pymatgen
data_Tb3Th11Ru6
_symmetry_space_group_name_H-M   'P 1'
_cell_length_a   9.82822930
_cell_length_b   9.90161188
_cell_length_c   6.40097025
_cell_angle_alpha   90.05874635
_cell_angle_beta   90.00355561
_cell_angle_gamma   120.33902776
_symmetry_Int_Tables_number   1
_chemical_formula_structural   Tb3Th11Ru6
_chemical_formula_sum   'Tb3 Th11 Ru6'
_cell_volume   537.60520663
_cell_formula_units_Z   1
loop_
 _symmetry_equiv_pos_site_id
 _symmetry_equiv_pos_as_xyz
  1  'x, y, z'
loop_
 _atom_site_type_symbol
 _atom_site_label
 _atom_site_symmetry_multiplicity
 _atom_site_fract_x
 _atom_site_fract_y
 _atom_site_fract_z
 _atom_site_occupancy
  Tb  Tb0  1  0.461165  0.536544  0.295412  1
  Tb  Tb1  1  0.073960  0.536154  0.299851  1
  Tb  Tb2  1  0.925254  0.461912  0.798634  1
  Th  Th3  1  0.248918  0.125734  0.510345  1
  Th  Th4  1  0.542355  0.083656  0.796410  1
  Th  Th5  1  0.748134  0.873798  0.011861  1
  Th  Th6  1  0.665553  0.333166  0.279993  1
  Th  Th7  1  0.125269  0.870908  0.007851  1
  Th  Th8  1  0.459812  0.917372  0.297311  1
  Th  Th9  1  0.539243  0.462997  0.797657  1
  Th  Th10  1  0.876475  0.128309  0.510973  1
  Th  Th11  1  0.124344  0.251801  0.012813  1
  Th  Th12  1  0.874393  0.749422  0.508516  1
  Th  Th13  1  0.334690  0.666673  0.776791  1
  Ru  Ru14  1  0.811343  0.631222  0.047460  1
  Ru  Ru15  1  0.813619  0.180976  0.046238  1
  Ru  Ru16  1  0.631703  0.816373  0.546535  1
  Ru  Ru17  1  0.370472  0.187573  0.042255  1
  Ru  Ru18  1  0.184254  0.365498  0.552878  1
  Ru  Ru19  1  0.189044  0.819914  0.544211  1
