# generated using pymatgen
data_Tb2DyPa(Co5P3)4
_symmetry_space_group_name_H-M   'P 1'
_cell_length_a   3.66800100
_cell_length_b   10.30920527
_cell_length_c   11.72211007
_cell_angle_alpha   89.98065926
_cell_angle_beta   90.00000000
_cell_angle_gamma   90.00000000
_symmetry_Int_Tables_number   1
_chemical_formula_structural   Tb2DyPa(Co5P3)4
_chemical_formula_sum   'Tb2 Dy1 Pa1 Co20 P12'
_cell_volume   443.26189918
_cell_formula_units_Z   1
loop_
 _symmetry_equiv_pos_site_id
 _symmetry_equiv_pos_as_xyz
  1  'x, y, z'
loop_
 _atom_site_type_symbol
 _atom_site_label
 _atom_site_symmetry_multiplicity
 _atom_site_fract_x
 _atom_site_fract_y
 _atom_site_fract_z
 _atom_site_occupancy
  Tb  Tb0  1  0.250000  0.916564  0.201700  1
  Tb  Tb1  1  0.750000  0.416863  0.298997  1
  Dy  Dy2  1  0.750000  0.083102  0.797472  1
  Pa  Pa3  1  0.250000  0.582674  0.702922  1
  Co  Co4  1  0.250000  0.716283  0.989420  1
  Co  Co5  1  0.250000  0.782144  0.491762  1
  Co  Co6  1  0.750000  0.282673  0.005423  1
  Co  Co7  1  0.750000  0.216261  0.506009  1
  Co  Co8  1  0.250000  0.408129  0.489369  1
  Co  Co9  1  0.250000  0.092708  0.988199  1
  Co  Co10  1  0.750000  0.593183  0.517581  1
  Co  Co11  1  0.750000  0.905823  0.010588  1
  Co  Co12  1  0.250000  0.221539  0.176088  1
  Co  Co13  1  0.250000  0.278362  0.677477  1
  Co  Co14  1  0.750000  0.776564  0.821800  1
  Co  Co15  1  0.750000  0.720675  0.324749  1
  Co  Co16  1  0.250000  0.882829  0.698341  1
  Co  Co17  1  0.250000  0.617501  0.198602  1
  Co  Co18  1  0.750000  0.116380  0.300476  1
  Co  Co19  1  0.750000  0.387913  0.800163  1
  Co  Co20  1  0.250000  0.467724  0.931554  1
  Co  Co21  1  0.250000  0.031656  0.431548  1
  Co  Co22  1  0.750000  0.530563  0.069828  1
  Co  Co23  1  0.750000  0.970603  0.567862  1
  P  P24  1  0.250000  0.418463  0.113338  1
  P  P25  1  0.250000  0.082000  0.612224  1
  P  P26  1  0.750000  0.583182  0.892036  1
  P  P27  1  0.750000  0.918647  0.387689  1
  P  P28  1  0.250000  0.270205  0.870878  1
  P  P29  1  0.250000  0.227836  0.369168  1
  P  P30  1  0.750000  0.728108  0.129975  1
  P  P31  1  0.750000  0.776179  0.628956  1
  P  P32  1  0.250000  0.602443  0.390731  1
  P  P33  1  0.250000  0.899102  0.891324  1
  P  P34  1  0.750000  0.393193  0.607906  1
  P  P35  1  0.750000  0.101926  0.107841  1
