# generated using pymatgen
data_Tb4PrCd3InPd2
_symmetry_space_group_name_H-M   'P 1'
_cell_length_a   8.16751900
_cell_length_b   18.65505530
_cell_length_c   3.63394200
_cell_angle_alpha   90.00000000
_cell_angle_beta   90.00000000
_cell_angle_gamma   89.59818038
_symmetry_Int_Tables_number   1
_chemical_formula_structural   Tb4PrCd3InPd2
_chemical_formula_sum   'Tb8 Pr2 Cd6 In2 Pd4'
_cell_volume   553.67384167
_cell_formula_units_Z   2
loop_
 _symmetry_equiv_pos_site_id
 _symmetry_equiv_pos_as_xyz
  1  'x, y, z'
loop_
 _atom_site_type_symbol
 _atom_site_label
 _atom_site_symmetry_multiplicity
 _atom_site_fract_x
 _atom_site_fract_y
 _atom_site_fract_z
 _atom_site_occupancy
  Tb  Tb0  1  0.742069  0.280883  0.000000  1
  Tb  Tb1  1  0.257931  0.719117  0.000000  1
  Tb  Tb2  1  0.754953  0.779520  0.000000  1
  Tb  Tb3  1  0.245047  0.220480  0.000000  1
  Tb  Tb4  1  0.617603  0.084693  0.000000  1
  Tb  Tb5  1  0.382397  0.915307  0.000000  1
  Tb  Tb6  1  0.884157  0.584761  0.000000  1
  Tb  Tb7  1  0.115843  0.415239  0.000000  1
  Pr  Pr8  1  0.500000  0.500000  0.000000  1
  Pr  Pr9  1  0.000000  0.000000  0.000000  1
  Cd  Cd10  1  0.706863  0.929220  0.500000  1
  Cd  Cd11  1  0.293137  0.070780  0.500000  1
  Cd  Cd12  1  0.793132  0.429842  0.500000  1
  Cd  Cd13  1  0.206868  0.570158  0.500000  1
  Cd  Cd14  1  0.575763  0.650370  0.500000  1
  Cd  Cd15  1  0.424237  0.349630  0.500000  1
  In  In16  1  0.926903  0.151614  0.500000  1
  In  In17  1  0.073097  0.848386  0.500000  1
  Pd  Pd18  1  0.527796  0.195605  0.500000  1
  Pd  Pd19  1  0.472204  0.804395  0.500000  1
  Pd  Pd20  1  0.973366  0.696402  0.500000  1
  Pd  Pd21  1  0.026634  0.303598  0.500000  1
