# generated using pymatgen
data_Os5RuCl30
_symmetry_space_group_name_H-M   'P 1'
_cell_length_a   13.32418917
_cell_length_b   13.35897285
_cell_length_c   6.34157221
_cell_angle_alpha   89.44695632
_cell_angle_beta   89.29844676
_cell_angle_gamma   85.93881614
_symmetry_Int_Tables_number   1
_chemical_formula_structural   Os5RuCl30
_chemical_formula_sum   'Os5 Ru1 Cl30'
_cell_volume   1125.82141870
_cell_formula_units_Z   1
loop_
 _symmetry_equiv_pos_site_id
 _symmetry_equiv_pos_as_xyz
  1  'x, y, z'
loop_
 _atom_site_type_symbol
 _atom_site_label
 _atom_site_symmetry_multiplicity
 _atom_site_fract_x
 _atom_site_fract_y
 _atom_site_fract_z
 _atom_site_occupancy
  Os  Os0  1  0.436370  0.230104  0.474166  1
  Os  Os1  1  0.769233  0.564429  0.525899  1
  Os  Os2  1  0.563933  0.769083  0.525605  1
  Os  Os3  1  0.102515  0.897820  0.999843  1
  Os  Os4  1  0.897422  0.102620  0.999854  1
  Ru  Ru5  1  0.229273  0.437218  0.474786  1
  Cl  Cl6  1  0.526172  0.329411  0.256995  1
  Cl  Cl7  1  0.668892  0.475590  0.742744  1
  Cl  Cl8  1  0.474213  0.669734  0.742604  1
  Cl  Cl9  1  0.329741  0.525296  0.259164  1
  Cl  Cl10  1  0.569146  0.199767  0.687989  1
  Cl  Cl11  1  0.799665  0.432031  0.312374  1
  Cl  Cl12  1  0.867444  0.234743  0.781910  1
  Cl  Cl13  1  0.764593  0.132705  0.217652  1
  Cl  Cl14  1  0.132533  0.765808  0.218084  1
  Cl  Cl15  1  0.235263  0.867737  0.781840  1
  Cl  Cl16  1  0.997139  0.191821  0.208588  1
  Cl  Cl17  1  0.808195  0.002785  0.791163  1
  Cl  Cl18  1  0.003238  0.808115  0.791157  1
  Cl  Cl19  1  0.191631  0.997745  0.208296  1
  Cl  Cl20  1  0.048566  0.048376  0.793514  1
  Cl  Cl21  1  0.951227  0.951894  0.206020  1
  Cl  Cl22  1  0.286539  0.284210  0.274027  1
  Cl  Cl23  1  0.715053  0.715334  0.727454  1
  Cl  Cl24  1  0.097451  0.466382  0.261322  1
  Cl  Cl25  1  0.534402  0.901500  0.739398  1
  Cl  Cl26  1  0.901786  0.534469  0.738933  1
  Cl  Cl27  1  0.465833  0.097665  0.259209  1
  Cl  Cl28  1  0.140869  0.337067  0.690254  1
  Cl  Cl29  1  0.664261  0.857997  0.308646  1
  Cl  Cl30  1  0.859088  0.663485  0.308652  1
  Cl  Cl31  1  0.336335  0.141140  0.691386  1
  Cl  Cl32  1  0.382509  0.379939  0.674527  1
  Cl  Cl33  1  0.618188  0.618226  0.324062  1
  Cl  Cl34  1  0.199825  0.568562  0.689663  1
  Cl  Cl35  1  0.431455  0.799193  0.312221  1
