# generated using pymatgen
data_Tb3Y4(ErIn4)5
_symmetry_space_group_name_H-M   'P 1'
_cell_length_a   6.50597211
_cell_length_b   10.42572091
_cell_length_c   12.27764519
_cell_angle_alpha   90.04716070
_cell_angle_beta   89.95004358
_cell_angle_gamma   89.98979143
_symmetry_Int_Tables_number   1
_chemical_formula_structural   Tb3Y4(ErIn4)5
_chemical_formula_sum   'Tb3 Y4 Er5 In20'
_cell_volume   832.78530222
_cell_formula_units_Z   1
loop_
 _symmetry_equiv_pos_site_id
 _symmetry_equiv_pos_as_xyz
  1  'x, y, z'
loop_
 _atom_site_type_symbol
 _atom_site_label
 _atom_site_symmetry_multiplicity
 _atom_site_fract_x
 _atom_site_fract_y
 _atom_site_fract_z
 _atom_site_occupancy
  Tb  Tb0  1  0.609487  0.006329  0.642224  1
  Tb  Tb1  1  0.109429  0.993414  0.857915  1
  Tb  Tb2  1  0.390662  0.506531  0.357715  1
  Y  Y3  1  0.109158  0.506484  0.858397  1
  Y  Y4  1  0.390694  0.993539  0.357563  1
  Y  Y5  1  0.890473  0.006546  0.142394  1
  Y  Y6  1  0.609443  0.493543  0.642191  1
  Er  Er7  1  0.348970  0.750151  0.056204  1
  Er  Er8  1  0.150046  0.750039  0.556060  1
  Er  Er9  1  0.650305  0.250219  0.944081  1
  Er  Er10  1  0.849739  0.249873  0.443837  1
  Er  Er11  1  0.891049  0.493454  0.141676  1
  In  In12  1  0.615812  0.749791  0.504593  1
  In  In13  1  0.883758  0.749097  0.005744  1
  In  In14  1  0.384212  0.249956  0.495220  1
  In  In15  1  0.115257  0.250238  0.995382  1
  In  In16  1  0.650876  0.749257  0.245139  1
  In  In17  1  0.849819  0.749892  0.745763  1
  In  In18  1  0.349916  0.250087  0.754446  1
  In  In19  1  0.150096  0.250605  0.254200  1
  In  In20  1  0.125621  0.749916  0.284684  1
  In  In21  1  0.374315  0.749885  0.784647  1
  In  In22  1  0.874353  0.250131  0.715286  1
  In  In23  1  0.626960  0.250967  0.214990  1
  In  In24  1  0.875866  0.543414  0.400638  1
  In  In25  1  0.624722  0.956168  0.901691  1
  In  In26  1  0.124348  0.043813  0.598438  1
  In  In27  1  0.374944  0.456544  0.098657  1
  In  In28  1  0.124271  0.456294  0.598522  1
  In  In29  1  0.375531  0.043972  0.098556  1
  In  In30  1  0.875544  0.956137  0.401444  1
  In  In31  1  0.624325  0.543708  0.901702  1
