# generated using pymatgen
data_SrNdCo17Si8Ni
_symmetry_space_group_name_H-M   'P 1'
_cell_length_a   7.98732809
_cell_length_b   7.95957816
_cell_length_c   7.96672470
_cell_angle_alpha   121.52177222
_cell_angle_beta   121.62640466
_cell_angle_gamma   87.33244145
_symmetry_Int_Tables_number   1
_chemical_formula_structural   SrNdCo17Si8Ni
_chemical_formula_sum   'Sr1 Nd1 Co17 Si8 Ni1'
_cell_volume   349.08810050
_cell_formula_units_Z   1
loop_
 _symmetry_equiv_pos_site_id
 _symmetry_equiv_pos_as_xyz
  1  'x, y, z'
loop_
 _atom_site_type_symbol
 _atom_site_label
 _atom_site_symmetry_multiplicity
 _atom_site_fract_x
 _atom_site_fract_y
 _atom_site_fract_z
 _atom_site_occupancy
  Sr  Sr0  1  0.750034  0.749716  0.000090  1
  Nd  Nd1  1  0.249213  0.249105  0.999210  1
  Co  Co2  1  0.448097  0.950802  0.758069  1
  Co  Co3  1  0.192127  0.690412  0.241841  1
  Co  Co4  1  0.550444  0.052958  0.242473  1
  Co  Co5  1  0.952195  0.191567  0.502210  1
  Co  Co6  1  0.199714  0.931342  0.129350  1
  Co  Co7  1  0.801031  0.069184  0.869060  1
  Co  Co8  1  0.431670  0.699366  0.130839  1
  Co  Co9  1  0.569502  0.301615  0.870789  1
  Co  Co10  1  0.698036  0.568377  0.268340  1
  Co  Co11  1  0.301376  0.430947  0.732355  1
  Co  Co12  1  0.930836  0.801445  0.732312  1
  Co  Co13  1  0.304805  0.549951  0.497710  1
  Co  Co14  1  0.810034  0.308022  0.757760  1
  Co  Co15  1  0.999772  0.499801  0.500148  1
  Co  Co16  1  0.500327  0.001020  0.500035  1
  Co  Co17  1  0.069323  0.198900  0.267230  1
  Co  Co18  1  0.051318  0.809549  0.502437  1
  Si  Si19  1  0.290312  0.791232  0.837429  1
  Si  Si20  1  0.050647  0.545206  0.838512  1
  Si  Si21  1  0.543803  0.710569  0.498898  1
  Si  Si22  1  0.790652  0.954465  0.500603  1
  Si  Si23  1  0.450827  0.289631  0.498760  1
  Si  Si24  1  0.953642  0.452991  0.162718  1
  Si  Si25  1  0.711239  0.207841  0.161657  1
  Si  Si26  1  0.210248  0.046570  0.500786  1
  Ni  Ni27  1  0.688780  0.447415  0.498382  1
