# generated using pymatgen
data_Ho8Tc3B24Ru
_symmetry_space_group_name_H-M   'P 1'
_cell_length_a   3.66817700
_cell_length_b   9.13590841
_cell_length_c   11.51805499
_cell_angle_alpha   89.91712594
_cell_angle_beta   90.00000000
_cell_angle_gamma   90.00000000
_symmetry_Int_Tables_number   1
_chemical_formula_structural   Ho8Tc3B24Ru
_chemical_formula_sum   'Ho8 Tc3 B24 Ru1'
_cell_volume   385.99414194
_cell_formula_units_Z   1
loop_
 _symmetry_equiv_pos_site_id
 _symmetry_equiv_pos_as_xyz
  1  'x, y, z'
loop_
 _atom_site_type_symbol
 _atom_site_label
 _atom_site_symmetry_multiplicity
 _atom_site_fract_x
 _atom_site_fract_y
 _atom_site_fract_z
 _atom_site_occupancy
  Ho  Ho0  1  0.000000  0.323664  0.413980  1
  Ho  Ho1  1  0.000000  0.675081  0.584171  1
  Ho  Ho2  1  0.000000  0.823232  0.087303  1
  Ho  Ho3  1  0.000000  0.177812  0.914452  1
  Ho  Ho4  1  0.000000  0.942786  0.370364  1
  Ho  Ho5  1  0.000000  0.057558  0.630622  1
  Ho  Ho6  1  0.000000  0.443179  0.129929  1
  Ho  Ho7  1  0.000000  0.557697  0.869245  1
  Tc  Tc8  1  0.000000  0.638555  0.320442  1
  Tc  Tc9  1  0.000000  0.361623  0.679948  1
  Tc  Tc10  1  0.000000  0.138026  0.178322  1
  B  B11  1  0.500000  0.553045  0.432871  1
  B  B12  1  0.500000  0.446662  0.566723  1
  B  B13  1  0.500000  0.052992  0.066747  1
  B  B14  1  0.500000  0.946136  0.932899  1
  B  B15  1  0.500000  0.748570  0.419013  1
  B  B16  1  0.500000  0.250779  0.581135  1
  B  B17  1  0.500000  0.249160  0.080944  1
  B  B18  1  0.500000  0.751441  0.918703  1
  B  B19  1  0.500000  0.791965  0.265570  1
  B  B20  1  0.500000  0.208281  0.735111  1
  B  B21  1  0.500000  0.291900  0.234624  1
  B  B22  1  0.500000  0.709089  0.765268  1
  B  B23  1  0.500000  0.631317  0.185443  1
  B  B24  1  0.500000  0.368816  0.815071  1
  B  B25  1  0.500000  0.130730  0.314193  1
  B  B26  1  0.500000  0.868625  0.685609  1
  B  B27  1  0.500000  0.981865  0.211863  1
  B  B28  1  0.500000  0.016608  0.788349  1
  B  B29  1  0.500000  0.482213  0.287923  1
  B  B30  1  0.500000  0.517621  0.711654  1
  B  B31  1  0.500000  0.602662  0.028185  1
  B  B32  1  0.500000  0.398999  0.971457  1
  B  B33  1  0.500000  0.101985  0.471937  1
  B  B34  1  0.500000  0.897755  0.528904  1
  Ru  Ru35  1  0.000000  0.861572  0.821026  1
