# generated using pymatgen
data_Lu2PtRhF14
_symmetry_space_group_name_H-M   'P 1'
_cell_length_a   5.43062578
_cell_length_b   8.73217295
_cell_length_c   11.81436478
_cell_angle_alpha   62.63055512
_cell_angle_beta   90.11229127
_cell_angle_gamma   89.98526357
_symmetry_Int_Tables_number   1
_chemical_formula_structural   Lu2PtRhF14
_chemical_formula_sum   'Lu4 Pt2 Rh2 F28'
_cell_volume   497.53543613
_cell_formula_units_Z   2
loop_
 _symmetry_equiv_pos_site_id
 _symmetry_equiv_pos_as_xyz
  1  'x, y, z'
loop_
 _atom_site_type_symbol
 _atom_site_label
 _atom_site_symmetry_multiplicity
 _atom_site_fract_x
 _atom_site_fract_y
 _atom_site_fract_z
 _atom_site_occupancy
  Lu  Lu0  1  0.260885  0.815737  0.262380  1
  Lu  Lu1  1  0.739115  0.184263  0.737620  1
  Lu  Lu2  1  0.761994  0.183365  0.234973  1
  Lu  Lu3  1  0.238006  0.816635  0.765027  1
  Pt  Pt4  1  0.259438  0.272425  0.457476  1
  Pt  Pt5  1  0.740562  0.727575  0.542524  1
  Rh  Rh6  1  0.758732  0.726263  0.042829  1
  Rh  Rh7  1  0.241268  0.273737  0.957171  1
  F  F8  1  0.939443  0.704942  0.412355  1
  F  F9  1  0.060557  0.295058  0.587645  1
  F  F10  1  0.441050  0.292586  0.087725  1
  F  F11  1  0.558950  0.707414  0.912275  1
  F  F12  1  0.462871  0.729666  0.135964  1
  F  F13  1  0.537129  0.270334  0.864036  1
  F  F14  1  0.960638  0.274339  0.362472  1
  F  F15  1  0.039362  0.725661  0.637528  1
  F  F16  1  0.954287  0.744746  0.175717  1
  F  F17  1  0.045713  0.255254  0.824283  1
  F  F18  1  0.453930  0.258222  0.321843  1
  F  F19  1  0.546070  0.741778  0.678157  1
  F  F20  1  0.769256  0.478043  0.140206  1
  F  F21  1  0.230744  0.521957  0.859794  1
  F  F22  1  0.270633  0.525035  0.357234  1
  F  F23  1  0.729367  0.474965  0.642766  1
  F  F24  1  0.938051  0.279551  0.045711  1
  F  F25  1  0.061949  0.720449  0.954289  1
  F  F26  1  0.435011  0.719971  0.455120  1
  F  F27  1  0.564989  0.280029  0.544880  1
  F  F28  1  0.739751  0.980057  0.447783  1
  F  F29  1  0.260249  0.019943  0.552217  1
  F  F30  1  0.239167  0.025334  0.051112  1
  F  F31  1  0.760833  0.974666  0.948888  1
  F  F32  1  0.587963  0.968742  0.231371  1
  F  F33  1  0.412037  0.031258  0.768629  1
  F  F34  1  0.089013  0.030634  0.268466  1
  F  F35  1  0.910987  0.969366  0.731534  1
