# generated using pymatgen
data_Li2(ZrSe2)5
_symmetry_space_group_name_H-M   'P 1'
_cell_length_a   6.51673556
_cell_length_b   10.06742129
_cell_length_c   7.65474368
_cell_angle_alpha   66.93385830
_cell_angle_beta   64.82062303
_cell_angle_gamma   90.00863113
_symmetry_Int_Tables_number   1
_chemical_formula_structural   Li2(ZrSe2)5
_chemical_formula_sum   'Li2 Zr5 Se10'
_cell_volume   409.66836015
_cell_formula_units_Z   1
loop_
 _symmetry_equiv_pos_site_id
 _symmetry_equiv_pos_as_xyz
  1  'x, y, z'
loop_
 _atom_site_type_symbol
 _atom_site_label
 _atom_site_symmetry_multiplicity
 _atom_site_fract_x
 _atom_site_fract_y
 _atom_site_fract_z
 _atom_site_occupancy
  Li  Li0  1  0.794216  0.089345  0.410739  1
  Li  Li1  1  0.005784  0.510655  0.989261  1
  Zr  Zr2  1  0.400000  0.800000  0.200000  1
  Zr  Zr3  1  0.798705  0.601155  0.404363  1
  Zr  Zr4  1  0.199707  0.399176  0.593538  1
  Zr  Zr5  1  0.600293  0.200824  0.806462  1
  Zr  Zr6  1  0.001295  0.998845  0.995637  1
  Se  Se7  1  0.969396  0.849730  0.395291  1
  Se  Se8  1  0.568176  0.048344  0.198480  1
  Se  Se9  1  0.165711  0.250242  0.995897  1
  Se  Se10  1  0.768665  0.450081  0.798457  1
  Se  Se11  1  0.367079  0.648851  0.595011  1
  Se  Se12  1  0.432921  0.951149  0.804989  1
  Se  Se13  1  0.031335  0.149919  0.601543  1
  Se  Se14  1  0.634289  0.349758  0.404103  1
  Se  Se15  1  0.231824  0.551656  0.201520  1
  Se  Se16  1  0.830604  0.750270  0.004709  1
