# generated using pymatgen
data_Dy6Y13Sc(Cd3Ru)2
_symmetry_space_group_name_H-M   'P 1'
_cell_length_a   9.58237800
_cell_length_b   9.58255835
_cell_length_c   9.81925900
_cell_angle_alpha   89.99849033
_cell_angle_beta   89.99904316
_cell_angle_gamma   119.99741047
_symmetry_Int_Tables_number   1
_chemical_formula_structural   Dy6Y13Sc(Cd3Ru)2
_chemical_formula_sum   'Dy6 Y13 Sc1 Cd6 Ru2'
_cell_volume   780.86408723
_cell_formula_units_Z   1
loop_
 _symmetry_equiv_pos_site_id
 _symmetry_equiv_pos_as_xyz
  1  'x, y, z'
loop_
 _atom_site_type_symbol
 _atom_site_label
 _atom_site_symmetry_multiplicity
 _atom_site_fract_x
 _atom_site_fract_y
 _atom_site_fract_z
 _atom_site_occupancy
  Dy  Dy0  1  0.210172  0.789824  0.440462  1
  Dy  Dy1  1  0.210171  0.420348  0.440464  1
  Dy  Dy2  1  0.579651  0.789825  0.440456  1
  Dy  Dy3  1  0.789825  0.210181  0.559542  1
  Dy  Dy4  1  0.789822  0.579645  0.559537  1
  Dy  Dy5  1  0.420350  0.210176  0.559546  1
  Y  Y6  1  0.999998  0.999999  0.499994  1
  Y  Y7  1  0.791905  0.208087  0.940188  1
  Y  Y8  1  0.791908  0.583820  0.940188  1
  Y  Y9  1  0.416193  0.208099  0.940196  1
  Y  Y10  1  0.208095  0.791907  0.059810  1
  Y  Y11  1  0.208094  0.416180  0.059812  1
  Y  Y12  1  0.583802  0.791902  0.059809  1
  Y  Y13  1  0.541037  0.458946  0.250679  1
  Y  Y14  1  0.541049  0.082105  0.250680  1
  Y  Y15  1  0.917886  0.458937  0.250677  1
  Y  Y16  1  0.458957  0.541058  0.749318  1
  Y  Y17  1  0.458948  0.917891  0.749316  1
  Y  Y18  1  0.082113  0.541064  0.749320  1
  Sc  Sc19  1  0.000029  0.000006  0.000002  1
  Cd  Cd20  1  0.887249  0.112763  0.244999  1
  Cd  Cd21  1  0.887247  0.774489  0.245000  1
  Cd  Cd22  1  0.225520  0.112763  0.245003  1
  Cd  Cd23  1  0.112749  0.887235  0.754994  1
  Cd  Cd24  1  0.112747  0.225506  0.754996  1
  Cd  Cd25  1  0.774483  0.887239  0.754993  1
  Ru  Ru26  1  0.333340  0.666673  0.251868  1
  Ru  Ru27  1  0.666660  0.333331  0.748150  1
