# generated using pymatgen
data_Tm2MgAl3SiAu2
_symmetry_space_group_name_H-M   'P 1'
_cell_length_a   6.82703194
_cell_length_b   7.00751258
_cell_length_c   4.18426100
_cell_angle_alpha   90.00000000
_cell_angle_beta   90.00000000
_cell_angle_gamma   120.11997820
_symmetry_Int_Tables_number   1
_chemical_formula_structural   Tm2MgAl3SiAu2
_chemical_formula_sum   'Tm2 Mg1 Al3 Si1 Au2'
_cell_volume   173.14856424
_cell_formula_units_Z   1
loop_
 _symmetry_equiv_pos_site_id
 _symmetry_equiv_pos_as_xyz
  1  'x, y, z'
loop_
 _atom_site_type_symbol
 _atom_site_label
 _atom_site_symmetry_multiplicity
 _atom_site_fract_x
 _atom_site_fract_y
 _atom_site_fract_z
 _atom_site_occupancy
  Tm  Tm0  1  0.427424  0.423031  0.500000  1
  Tm  Tm1  1  0.579327  0.006179  0.500000  1
  Mg  Mg2  1  0.003466  0.584626  0.500000  1
  Al  Al3  1  0.752520  0.756965  0.000000  1
  Al  Al4  1  0.244352  0.998106  0.000000  1
  Al  Al5  1  0.003495  0.246017  0.000000  1
  Si  Si6  1  0.667612  0.332987  0.000000  1
  Au  Au7  1  0.322590  0.663486  0.000000  1
  Au  Au8  1  0.999214  0.988603  0.500000  1
