# generated using pymatgen
data_Dy2Er10Co5Sn
_symmetry_space_group_name_H-M   'P 1'
_cell_length_a   8.21264061
_cell_length_b   8.21263985
_cell_length_c   8.20836616
_cell_angle_alpha   106.85722954
_cell_angle_beta   110.68921865
_cell_angle_gamma   110.91902400
_symmetry_Int_Tables_number   1
_chemical_formula_structural   Dy2Er10Co5Sn
_chemical_formula_sum   'Dy2 Er10 Co5 Sn1'
_cell_volume   425.41344195
_cell_formula_units_Z   1
loop_
 _symmetry_equiv_pos_site_id
 _symmetry_equiv_pos_as_xyz
  1  'x, y, z'
loop_
 _atom_site_type_symbol
 _atom_site_label
 _atom_site_symmetry_multiplicity
 _atom_site_fract_x
 _atom_site_fract_y
 _atom_site_fract_z
 _atom_site_occupancy
  Dy  Dy0  1  0.194115  0.789028  0.983142  1
  Dy  Dy1  1  0.805885  0.210972  0.016858  1
  Er  Er2  1  0.473780  0.289597  0.184973  1
  Er  Er3  1  0.104624  0.288808  0.815027  1
  Er  Er4  1  0.895376  0.711192  0.184973  1
  Er  Er5  1  0.526220  0.710403  0.815027  1
  Er  Er6  1  0.305838  0.619235  0.314804  1
  Er  Er7  1  0.304430  0.991035  0.685196  1
  Er  Er8  1  0.694162  0.380765  0.685196  1
  Er  Er9  1  0.695570  0.008965  0.314804  1
  Er  Er10  1  0.194696  0.211177  0.405873  1
  Er  Er11  1  0.805304  0.788823  0.594127  1
  Co  Co12  1  0.500637  0.612566  0.113203  1
  Co  Co13  1  0.499363  0.387434  0.886797  1
  Co  Co14  1  0.376832  0.000540  0.377372  1
  Co  Co15  1  0.623168  0.999460  0.622628  1
  Co  Co16  1  0.000000  0.000000  0.000000  1
  Sn  Sn17  1  0.000000  0.500000  0.500000  1
