# generated using pymatgen
data_LaGd2Zn3Ir2Pd
_symmetry_space_group_name_H-M   'P 1'
_cell_length_a   7.30247400
_cell_length_b   7.30694021
_cell_length_c   3.94568500
_cell_angle_alpha   90.00000000
_cell_angle_beta   90.00000000
_cell_angle_gamma   120.02023756
_symmetry_Int_Tables_number   1
_chemical_formula_structural   LaGd2Zn3Ir2Pd
_chemical_formula_sum   'La1 Gd2 Zn3 Ir2 Pd1'
_cell_volume   182.29300955
_cell_formula_units_Z   1
loop_
 _symmetry_equiv_pos_site_id
 _symmetry_equiv_pos_as_xyz
  1  'x, y, z'
loop_
 _atom_site_type_symbol
 _atom_site_label
 _atom_site_symmetry_multiplicity
 _atom_site_fract_x
 _atom_site_fract_y
 _atom_site_fract_z
 _atom_site_occupancy
  La  La0  1  0.000000  0.579183  0.500000  1
  Gd  Gd1  1  0.416755  0.416044  0.500000  1
  Gd  Gd2  1  0.583245  0.999290  0.500000  1
  Zn  Zn3  1  0.749102  0.755997  0.000000  1
  Zn  Zn4  1  0.250898  0.006895  0.000000  1
  Zn  Zn5  1  0.000000  0.239434  0.000000  1
  Ir  Ir6  1  0.660335  0.330689  0.000000  1
  Ir  Ir7  1  0.339665  0.670356  0.000000  1
  Pd  Pd8  1  0.000000  0.002112  0.500000  1
