# generated using pymatgen
data_Tb3Si2(PPd5)4
_symmetry_space_group_name_H-M   'P 1'
_cell_length_a   8.71881364
_cell_length_b   8.69683556
_cell_length_c   8.69683584
_cell_angle_alpha   60.16725927
_cell_angle_beta   59.91636722
_cell_angle_gamma   59.91637238
_symmetry_Int_Tables_number   1
_chemical_formula_structural   Tb3Si2(PPd5)4
_chemical_formula_sum   'Tb3 Si2 P4 Pd20'
_cell_volume   466.29350204
_cell_formula_units_Z   1
loop_
 _symmetry_equiv_pos_site_id
 _symmetry_equiv_pos_as_xyz
  1  'x, y, z'
loop_
 _atom_site_type_symbol
 _atom_site_label
 _atom_site_symmetry_multiplicity
 _atom_site_fract_x
 _atom_site_fract_y
 _atom_site_fract_z
 _atom_site_occupancy
  Tb  Tb0  1  0.250000  0.250000  0.250000  1
  Tb  Tb1  1  0.750000  0.750000  0.750000  1
  Tb  Tb2  1  0.000000  0.000000  0.000000  1
  Si  Si3  1  0.734775  0.265225  0.265225  1
  Si  Si4  1  0.265225  0.734775  0.734775  1
  P  P5  1  0.263974  0.736026  0.263974  1
  P  P6  1  0.736026  0.263974  0.736026  1
  P  P7  1  0.263974  0.263974  0.736026  1
  P  P8  1  0.736026  0.736026  0.263974  1
  Pd  Pd9  1  0.383700  0.385078  0.385078  1
  Pd  Pd10  1  0.616300  0.614922  0.614922  1
  Pd  Pd11  1  0.385078  0.383700  0.846144  1
  Pd  Pd12  1  0.385078  0.846144  0.383700  1
  Pd  Pd13  1  0.614922  0.616300  0.153856  1
  Pd  Pd14  1  0.614922  0.153856  0.616300  1
  Pd  Pd15  1  0.846144  0.385078  0.385078  1
  Pd  Pd16  1  0.153856  0.614922  0.614922  1
  Pd  Pd17  1  0.344245  0.000000  0.000000  1
  Pd  Pd18  1  0.655755  0.000000  0.000000  1
  Pd  Pd19  1  0.000000  0.344245  0.655755  1
  Pd  Pd20  1  0.000000  0.655755  0.344245  1
  Pd  Pd21  1  0.000619  0.346335  0.999381  1
  Pd  Pd22  1  0.653665  0.999381  0.346335  1
  Pd  Pd23  1  0.999381  0.653665  0.000619  1
  Pd  Pd24  1  0.346335  0.000619  0.653665  1
  Pd  Pd25  1  0.000619  0.999381  0.346335  1
  Pd  Pd26  1  0.999381  0.000619  0.653665  1
  Pd  Pd27  1  0.653665  0.346335  0.999381  1
  Pd  Pd28  1  0.346335  0.653665  0.000619  1
