# generated using pymatgen
data_Sm8Zr12Si15Sn
_symmetry_space_group_name_H-M   'P 1'
_cell_length_a   7.23159775
_cell_length_b   7.41839411
_cell_length_c   14.15189618
_cell_angle_alpha   90.00792612
_cell_angle_beta   89.57732068
_cell_angle_gamma   90.02602929
_symmetry_Int_Tables_number   1
_chemical_formula_structural   Sm8Zr12Si15Sn
_chemical_formula_sum   'Sm8 Zr12 Si15 Sn1'
_cell_volume   759.18379698
_cell_formula_units_Z   1
loop_
 _symmetry_equiv_pos_site_id
 _symmetry_equiv_pos_as_xyz
  1  'x, y, z'
loop_
 _atom_site_type_symbol
 _atom_site_label
 _atom_site_symmetry_multiplicity
 _atom_site_fract_x
 _atom_site_fract_y
 _atom_site_fract_z
 _atom_site_occupancy
  Sm  Sm0  1  0.014087  0.175467  0.096853  1
  Sm  Sm1  1  0.985573  0.825842  0.904092  1
  Sm  Sm2  1  0.487233  0.674713  0.904214  1
  Sm  Sm3  1  0.986833  0.832092  0.598871  1
  Sm  Sm4  1  0.512950  0.324853  0.097061  1
  Sm  Sm5  1  0.007048  0.168897  0.399157  1
  Sm  Sm6  1  0.513811  0.323576  0.399986  1
  Sm  Sm7  1  0.499004  0.681926  0.600578  1
  Zr  Zr8  1  0.158446  0.496614  0.755805  1
  Zr  Zr9  1  0.841166  0.503452  0.248801  1
  Zr  Zr10  1  0.340982  0.997583  0.249161  1
  Zr  Zr11  1  0.659503  0.001868  0.751789  1
  Zr  Zr12  1  0.342629  0.163524  0.630791  1
  Zr  Zr13  1  0.666417  0.824184  0.372397  1
  Zr  Zr14  1  0.165511  0.684034  0.369171  1
  Zr  Zr15  1  0.668992  0.823341  0.123955  1
  Zr  Zr16  1  0.820324  0.321809  0.626617  1
  Zr  Zr17  1  0.329393  0.176373  0.875834  1
  Zr  Zr18  1  0.829604  0.324460  0.876000  1
  Zr  Zr19  1  0.170240  0.675940  0.124717  1
  Si  Si20  1  0.034374  0.123372  0.750778  1
  Si  Si21  1  0.962743  0.880073  0.246869  1
  Si  Si22  1  0.465167  0.621092  0.248474  1
  Si  Si23  1  0.533538  0.379484  0.752332  1
  Si  Si24  1  0.284316  0.873322  0.752467  1
  Si  Si25  1  0.713946  0.122194  0.247927  1
  Si  Si26  1  0.214346  0.377665  0.249242  1
  Si  Si27  1  0.788461  0.622487  0.751128  1
  Si  Si28  1  0.835950  0.537256  0.456903  1
  Si  Si29  1  0.344252  0.965260  0.459325  1
  Si  Si30  1  0.846536  0.533054  0.041330  1
  Si  Si31  1  0.656898  0.035871  0.537894  1
  Si  Si32  1  0.153510  0.466863  0.959951  1
  Si  Si33  1  0.651564  0.034023  0.958714  1
  Si  Si34  1  0.347007  0.966249  0.041309  1
  Sn  Sn35  1  0.167646  0.461187  0.539508  1
