# generated using pymatgen
data_Zr6Mn4Ga11Sb
_symmetry_space_group_name_H-M   'P 1'
_cell_length_a   8.84199800
_cell_length_b   5.42466400
_cell_length_c   7.80203000
_cell_angle_alpha   90.00000000
_cell_angle_beta   90.00000000
_cell_angle_gamma   90.00000000
_symmetry_Int_Tables_number   1
_chemical_formula_structural   Zr6Mn4Ga11Sb
_chemical_formula_sum   'Zr6 Mn4 Ga11 Sb1'
_cell_volume   374.22334094
_cell_formula_units_Z   1
loop_
 _symmetry_equiv_pos_site_id
 _symmetry_equiv_pos_as_xyz
  1  'x, y, z'
loop_
 _atom_site_type_symbol
 _atom_site_label
 _atom_site_symmetry_multiplicity
 _atom_site_fract_x
 _atom_site_fract_y
 _atom_site_fract_z
 _atom_site_occupancy
  Zr  Zr0  1  0.525632  0.250000  0.146520  1
  Zr  Zr1  1  0.974368  0.250000  0.146520  1
  Zr  Zr2  1  0.749999  0.749999  0.277498  1
  Zr  Zr3  1  0.250000  0.250000  0.719028  1
  Zr  Zr4  1  0.028879  0.749999  0.845994  1
  Zr  Zr5  1  0.471122  0.749999  0.845994  1
  Mn  Mn6  1  0.004060  0.996679  0.503012  1
  Mn  Mn7  1  0.495940  0.996679  0.503012  1
  Mn  Mn8  1  0.004060  0.503321  0.503012  1
  Mn  Mn9  1  0.495940  0.503321  0.503012  1
  Ga  Ga10  1  0.250000  0.007302  0.042231  1
  Ga  Ga11  1  0.250000  0.492697  0.042231  1
  Ga  Ga12  1  0.062886  0.749999  0.236348  1
  Ga  Ga13  1  0.437114  0.749999  0.236348  1
  Ga  Ga14  1  0.250000  0.250000  0.368461  1
  Ga  Ga15  1  0.250000  0.749999  0.565171  1
  Ga  Ga16  1  0.749999  0.749999  0.634728  1
  Ga  Ga17  1  0.557662  0.250000  0.768696  1
  Ga  Ga18  1  0.942338  0.250000  0.768696  1
  Ga  Ga19  1  0.749999  0.507908  0.956181  1
  Ga  Ga20  1  0.749999  0.992091  0.956181  1
  Sb  Sb21  1  0.749999  0.250000  0.431124  1
