# generated using pymatgen
data_Tb3Pr17Si15Cl
_symmetry_space_group_name_H-M   'P 1'
_cell_length_a   7.94215838
_cell_length_b   7.85655013
_cell_length_c   15.23431394
_cell_angle_alpha   89.53380726
_cell_angle_beta   89.10459891
_cell_angle_gamma   90.91888001
_symmetry_Int_Tables_number   1
_chemical_formula_structural   Tb3Pr17Si15Cl
_chemical_formula_sum   'Tb3 Pr17 Si15 Cl1'
_cell_volume   950.31844608
_cell_formula_units_Z   1
loop_
 _symmetry_equiv_pos_site_id
 _symmetry_equiv_pos_as_xyz
  1  'x, y, z'
loop_
 _atom_site_type_symbol
 _atom_site_label
 _atom_site_symmetry_multiplicity
 _atom_site_fract_x
 _atom_site_fract_y
 _atom_site_fract_z
 _atom_site_occupancy
  Tb  Tb0  1  0.313777  0.311226  0.998360  1
  Tb  Tb1  1  0.186359  0.807773  0.249327  1
  Tb  Tb2  1  0.796038  0.189801  0.753778  1
  Pr  Pr3  1  0.687661  0.688165  0.498171  1
  Pr  Pr4  1  0.380376  0.003113  0.442753  1
  Pr  Pr5  1  0.498889  0.860765  0.702175  1
  Pr  Pr6  1  0.510374  0.123489  0.196847  1
  Pr  Pr7  1  0.873439  0.483326  0.299275  1
  Pr  Pr8  1  0.124475  0.518971  0.801748  1
  Pr  Pr9  1  0.636627  0.986267  0.952771  1
  Pr  Pr10  1  0.996153  0.381299  0.545669  1
  Pr  Pr11  1  0.994716  0.624566  0.052119  1
  Pr  Pr12  1  0.143604  0.990982  0.873151  1
  Pr  Pr13  1  0.519650  0.631242  0.124524  1
  Pr  Pr14  1  0.473261  0.360807  0.632672  1
  Pr  Pr15  1  0.638146  0.521619  0.876649  1
  Pr  Pr16  1  0.365957  0.475434  0.375337  1
  Pr  Pr17  1  0.871267  0.019670  0.377599  1
  Pr  Pr18  1  0.984092  0.126155  0.122434  1
  Pr  Pr19  1  0.019716  0.874288  0.621351  1
  Si  Si20  1  0.332970  0.696323  0.949534  1
  Si  Si21  1  0.660795  0.303198  0.454306  1
  Si  Si22  1  0.700523  0.333692  0.049773  1
  Si  Si23  1  0.303124  0.665123  0.551372  1
  Si  Si24  1  0.808173  0.829228  0.203717  1
  Si  Si25  1  0.169483  0.189439  0.294527  1
  Si  Si26  1  0.843210  0.809918  0.796843  1
  Si  Si27  1  0.288942  0.924594  0.060139  1
  Si  Si28  1  0.572268  0.784495  0.307450  1
  Si  Si29  1  0.455767  0.206651  0.824655  1
  Si  Si30  1  0.790862  0.574718  0.688743  1
  Si  Si31  1  0.212273  0.425093  0.187863  1
  Si  Si32  1  0.706422  0.076199  0.564411  1
  Si  Si33  1  0.931761  0.290532  0.937887  1
  Si  Si34  1  0.078374  0.712376  0.438093  1
  Cl  Cl35  1  0.130477  0.199464  0.693980  1
