# generated using pymatgen
data_Nb6Al8ZnCu3
_symmetry_space_group_name_H-M   'P 1'
_cell_length_a   8.75927500
_cell_length_b   8.81712883
_cell_length_c   8.26753500
_cell_angle_alpha   90.00000000
_cell_angle_beta   90.00000000
_cell_angle_gamma   120.96082110
_symmetry_Int_Tables_number   1
_chemical_formula_structural   Nb6Al8ZnCu3
_chemical_formula_sum   'Nb12 Al16 Zn2 Cu6'
_cell_volume   547.53928585
_cell_formula_units_Z   2
loop_
 _symmetry_equiv_pos_site_id
 _symmetry_equiv_pos_as_xyz
  1  'x, y, z'
loop_
 _atom_site_type_symbol
 _atom_site_label
 _atom_site_symmetry_multiplicity
 _atom_site_fract_x
 _atom_site_fract_y
 _atom_site_fract_z
 _atom_site_occupancy
  Nb  Nb0  1  0.328317  0.991864  0.062986  1
  Nb  Nb1  1  0.671683  0.008136  0.937014  1
  Nb  Nb2  1  0.997794  0.329234  0.065675  1
  Nb  Nb3  1  0.671683  0.008136  0.562986  1
  Nb  Nb4  1  0.997794  0.329234  0.434325  1
  Nb  Nb5  1  0.002206  0.670766  0.934325  1
  Nb  Nb6  1  0.328317  0.991864  0.437014  1
  Nb  Nb7  1  0.002206  0.670766  0.565675  1
  Nb  Nb8  1  0.667085  0.663429  0.062538  1
  Nb  Nb9  1  0.332915  0.336571  0.937462  1
  Nb  Nb10  1  0.332915  0.336571  0.562538  1
  Nb  Nb11  1  0.667085  0.663429  0.437462  1
  Al  Al12  1  0.345771  0.847216  0.750000  1
  Al  Al13  1  0.652174  0.503270  0.750000  1
  Al  Al14  1  0.654229  0.152784  0.250000  1
  Al  Al15  1  0.347826  0.496730  0.250000  1
  Al  Al16  1  0.844405  0.343864  0.750000  1
  Al  Al17  1  0.155595  0.656136  0.250000  1
  Al  Al18  1  0.339744  0.665104  0.505302  1
  Al  Al19  1  0.660256  0.334896  0.494698  1
  Al  Al20  1  0.660256  0.334896  0.005302  1
  Al  Al21  1  0.339744  0.665104  0.994698  1
  Al  Al22  1  0.183627  0.010932  0.750000  1
  Al  Al23  1  0.816373  0.989068  0.250000  1
  Al  Al24  1  0.010488  0.184807  0.750000  1
  Al  Al25  1  0.989512  0.815193  0.250000  1
  Al  Al26  1  0.820918  0.831687  0.750000  1
  Al  Al27  1  0.179082  0.168313  0.250000  1
  Zn  Zn28  1  0.000000  0.000000  0.500000  1
  Zn  Zn29  1  0.000000  0.000000  0.000000  1
  Cu  Cu30  1  0.166831  0.503963  0.750000  1
  Cu  Cu31  1  0.833169  0.496037  0.250000  1
  Cu  Cu32  1  0.503315  0.670957  0.750000  1
  Cu  Cu33  1  0.505711  0.170764  0.750000  1
  Cu  Cu34  1  0.496685  0.329043  0.250000  1
  Cu  Cu35  1  0.494289  0.829236  0.250000  1
