# generated using pymatgen
data_Ho16NiAg4Rh3
_symmetry_space_group_name_H-M   'P 1'
_cell_length_a   9.46976520
_cell_length_b   9.46670038
_cell_length_c   9.46976600
_cell_angle_alpha   59.98928715
_cell_angle_beta   59.99999721
_cell_angle_gamma   59.98929212
_symmetry_Int_Tables_number   1
_chemical_formula_structural   Ho16NiAg4Rh3
_chemical_formula_sum   'Ho16 Ni1 Ag4 Rh3'
_cell_volume   600.19414966
_cell_formula_units_Z   1
loop_
 _symmetry_equiv_pos_site_id
 _symmetry_equiv_pos_as_xyz
  1  'x, y, z'
loop_
 _atom_site_type_symbol
 _atom_site_label
 _atom_site_symmetry_multiplicity
 _atom_site_fract_x
 _atom_site_fract_y
 _atom_site_fract_z
 _atom_site_occupancy
  Ho  Ho0  1  0.185522  0.187283  0.813598  1
  Ho  Ho1  1  0.600262  0.609344  0.190131  1
  Ho  Ho2  1  0.437345  0.061057  0.437345  1
  Ho  Ho3  1  0.436306  0.438432  0.062631  1
  Ho  Ho4  1  0.813598  0.187283  0.813598  1
  Ho  Ho5  1  0.184173  0.815402  0.184173  1
  Ho  Ho6  1  0.437345  0.061057  0.064254  1
  Ho  Ho7  1  0.184173  0.815402  0.816253  1
  Ho  Ho8  1  0.062631  0.438432  0.062631  1
  Ho  Ho9  1  0.816253  0.815402  0.184173  1
  Ho  Ho10  1  0.190131  0.609344  0.600262  1
  Ho  Ho11  1  0.062631  0.438432  0.436306  1
  Ho  Ho12  1  0.064254  0.061057  0.437345  1
  Ho  Ho13  1  0.813598  0.187283  0.185522  1
  Ho  Ho14  1  0.607247  0.178259  0.607247  1
  Ho  Ho15  1  0.600262  0.609344  0.600262  1
  Ni  Ni16  1  0.392791  0.821628  0.392791  1
  Ag  Ag17  1  0.834164  0.828635  0.834164  1
  Ag  Ag18  1  0.834164  0.828635  0.503038  1
  Ag  Ag19  1  0.503038  0.828635  0.834164  1
  Ag  Ag20  1  0.832117  0.503650  0.832117  1
  Rh  Rh21  1  0.395869  0.392001  0.395869  1
  Rh  Rh22  1  0.816261  0.392001  0.395869  1
  Rh  Rh23  1  0.395869  0.392001  0.816261  1
