# generated using pymatgen
data_Th3CuPd4
_symmetry_space_group_name_H-M   'P 1'
_cell_length_a   7.16357400
_cell_length_b   7.16357221
_cell_length_c   3.94679000
_cell_angle_alpha   90.00000000
_cell_angle_beta   90.00000000
_cell_angle_gamma   120.00000826
_symmetry_Int_Tables_number   1
_chemical_formula_structural   Th3CuPd4
_chemical_formula_sum   'Th3 Cu1 Pd4'
_cell_volume   175.40178523
_cell_formula_units_Z   1
loop_
 _symmetry_equiv_pos_site_id
 _symmetry_equiv_pos_as_xyz
  1  'x, y, z'
loop_
 _atom_site_type_symbol
 _atom_site_label
 _atom_site_symmetry_multiplicity
 _atom_site_fract_x
 _atom_site_fract_y
 _atom_site_fract_z
 _atom_site_occupancy
  Th  Th0  1  0.645379  0.998657  0.500000  1
  Th  Th1  1  0.001343  0.646722  0.500000  1
  Th  Th2  1  0.353278  0.354621  0.500000  1
  Cu  Cu3  1  0.666667  0.333333  0.000000  1
  Pd  Pd4  1  0.247117  0.014103  0.000000  1
  Pd  Pd5  1  0.985897  0.233014  0.000000  1
  Pd  Pd6  1  0.766986  0.752883  0.000000  1
  Pd  Pd7  1  0.333333  0.666667  0.000000  1
