# generated using pymatgen
data_Dy8Lu2In8PtRh3
_symmetry_space_group_name_H-M   'P 1'
_cell_length_a   3.62340700
_cell_length_b   8.06459839
_cell_length_c   18.24157716
_cell_angle_alpha   90.04123443
_cell_angle_beta   90.00000000
_cell_angle_gamma   90.00000000
_symmetry_Int_Tables_number   1
_chemical_formula_structural   Dy8Lu2In8PtRh3
_chemical_formula_sum   'Dy8 Lu2 In8 Pt1 Rh3'
_cell_volume   533.04286675
_cell_formula_units_Z   1
loop_
 _symmetry_equiv_pos_site_id
 _symmetry_equiv_pos_as_xyz
  1  'x, y, z'
loop_
 _atom_site_type_symbol
 _atom_site_label
 _atom_site_symmetry_multiplicity
 _atom_site_fract_x
 _atom_site_fract_y
 _atom_site_fract_z
 _atom_site_occupancy
  Dy  Dy0  1  0.000000  0.383226  0.910505  1
  Dy  Dy1  1  0.000000  0.618288  0.086038  1
  Dy  Dy2  1  0.000000  0.239141  0.222561  1
  Dy  Dy3  1  0.000000  0.755003  0.777901  1
  Dy  Dy4  1  0.000000  0.254442  0.720356  1
  Dy  Dy5  1  0.000000  0.750512  0.280787  1
  Dy  Dy6  1  0.000000  0.000142  0.999501  1
  Dy  Dy7  1  0.000000  0.500453  0.500246  1
  Lu  Lu8  1  0.000000  0.115295  0.412190  1
  Lu  Lu9  1  0.000000  0.883931  0.589636  1
  In  In10  1  0.500000  0.421470  0.352495  1
  In  In11  1  0.500000  0.574737  0.649227  1
  In  In12  1  0.500000  0.071049  0.848698  1
  In  In13  1  0.500000  0.929313  0.150533  1
  In  In14  1  0.500000  0.291841  0.066539  1
  In  In15  1  0.500000  0.707044  0.931222  1
  In  In16  1  0.500000  0.202162  0.565960  1
  In  In17  1  0.500000  0.797883  0.434699  1
  Pt  Pt18  1  0.500000  0.524077  0.197145  1
  Rh  Rh19  1  0.500000  0.023763  0.307303  1
  Rh  Rh20  1  0.500000  0.977943  0.692894  1
  Rh  Rh21  1  0.500000  0.478282  0.803565  1
