# generated using pymatgen
data_Tb4SmTe9
_symmetry_space_group_name_H-M   'P 1'
_cell_length_a   13.20993536
_cell_length_b   13.21844838
_cell_length_c   10.89627000
_cell_angle_alpha   79.67342408
_cell_angle_beta   79.67277587
_cell_angle_gamma   26.74649254
_symmetry_Int_Tables_number   1
_chemical_formula_structural   Tb4SmTe9
_chemical_formula_sum   'Tb8 Sm2 Te18'
_cell_volume   841.61438924
_cell_formula_units_Z   2
loop_
 _symmetry_equiv_pos_site_id
 _symmetry_equiv_pos_as_xyz
  1  'x, y, z'
loop_
 _atom_site_type_symbol
 _atom_site_label
 _atom_site_symmetry_multiplicity
 _atom_site_fract_x
 _atom_site_fract_y
 _atom_site_fract_z
 _atom_site_occupancy
  Tb  Tb0  1  0.345562  0.450352  0.437272  1
  Tb  Tb1  1  0.538124  0.653978  0.036492  1
  Tb  Tb2  1  0.755349  0.834154  0.637881  1
  Tb  Tb3  1  0.346291  0.461648  0.963255  1
  Tb  Tb4  1  0.550014  0.654259  0.562491  1
  Tb  Tb5  1  0.752589  0.853038  0.157980  1
  Tb  Tb6  1  0.955578  0.053179  0.758392  1
  Tb  Tb7  1  0.165624  0.244701  0.362570  1
  Sm  Sm8  1  0.945797  0.046153  0.241863  1
  Sm  Sm9  1  0.146989  0.247524  0.842066  1
  Te  Te10  1  0.474316  0.571406  0.822234  1
  Te  Te11  1  0.070724  0.178439  0.619351  1
  Te  Te12  1  0.869667  0.978789  0.019506  1
  Te  Te13  1  0.681251  0.763784  0.423272  1
  Te  Te14  1  0.273304  0.376429  0.221950  1
  Te  Te15  1  0.021012  0.129409  0.978273  1
  Te  Te16  1  0.623468  0.726398  0.777041  1
  Te  Te17  1  0.427708  0.526086  0.177299  1
  Te  Te18  1  0.236611  0.319370  0.575396  1
  Te  Te19  1  0.820843  0.927830  0.379877  1
  Te  Te20  1  0.698486  0.301168  0.501771  1
  Te  Te21  1  0.302030  0.899440  0.300134  1
  Te  Te22  1  0.098910  0.700431  0.700181  1
  Te  Te23  1  0.892338  0.493010  0.116114  1
  Te  Te24  1  0.507804  0.107497  0.885096  1
  Te  Te25  1  0.001075  0.602805  0.896726  1
  Te  Te26  1  0.199536  0.800573  0.500976  1
  Te  Te27  1  0.398995  0.998154  0.104541  1
