# generated using pymatgen
data_Dy2Y7Th3Ru4
_symmetry_space_group_name_H-M   'P 1'
_cell_length_a   6.39085677
_cell_length_b   7.25489404
_cell_length_c   9.57572264
_cell_angle_alpha   89.96937328
_cell_angle_beta   90.02835736
_cell_angle_gamma   89.55371885
_symmetry_Int_Tables_number   1
_chemical_formula_structural   Dy2Y7Th3Ru4
_chemical_formula_sum   'Dy2 Y7 Th3 Ru4'
_cell_volume   443.96468585
_cell_formula_units_Z   1
loop_
 _symmetry_equiv_pos_site_id
 _symmetry_equiv_pos_as_xyz
  1  'x, y, z'
loop_
 _atom_site_type_symbol
 _atom_site_label
 _atom_site_symmetry_multiplicity
 _atom_site_fract_x
 _atom_site_fract_y
 _atom_site_fract_z
 _atom_site_occupancy
  Dy  Dy0  1  0.859939  0.538529  0.249989  1
  Dy  Dy1  1  0.170536  0.175138  0.067641  1
  Y  Y2  1  0.832476  0.824012  0.935942  1
  Y  Y3  1  0.666637  0.324689  0.934855  1
  Y  Y4  1  0.832271  0.823842  0.564079  1
  Y  Y5  1  0.328579  0.675647  0.068844  1
  Y  Y6  1  0.170188  0.175359  0.432953  1
  Y  Y7  1  0.328684  0.675731  0.431177  1
  Y  Y8  1  0.666718  0.324911  0.565167  1
  Th  Th9  1  0.653864  0.049526  0.249939  1
  Th  Th10  1  0.346589  0.950336  0.750193  1
  Th  Th11  1  0.150060  0.452417  0.750131  1
  Ru  Ru12  1  0.466353  0.366395  0.249535  1
  Ru  Ru13  1  0.526980  0.628900  0.750024  1
  Ru  Ru14  1  0.973273  0.131025  0.750101  1
  Ru  Ru15  1  0.026857  0.883541  0.249431  1
