# generated using pymatgen
data_Sc5Nb3SiP11Ir16
_symmetry_space_group_name_H-M   'P 1'
_cell_length_a   12.72307326
_cell_length_b   12.68595738
_cell_length_c   3.91929000
_cell_angle_alpha   90.00000000
_cell_angle_beta   90.00000000
_cell_angle_gamma   119.93115836
_symmetry_Int_Tables_number   1
_chemical_formula_structural   Sc5Nb3SiP11Ir16
_chemical_formula_sum   'Sc5 Nb3 Si1 P11 Ir16'
_cell_volume   548.21909273
_cell_formula_units_Z   1
loop_
 _symmetry_equiv_pos_site_id
 _symmetry_equiv_pos_as_xyz
  1  'x, y, z'
loop_
 _atom_site_type_symbol
 _atom_site_label
 _atom_site_symmetry_multiplicity
 _atom_site_fract_x
 _atom_site_fract_y
 _atom_site_fract_z
 _atom_site_occupancy
  Sc  Sc0  1  0.331865  0.665621  0.000000  1
  Sc  Sc1  1  0.667219  0.332903  0.000000  1
  Sc  Sc2  1  0.812285  0.999689  0.500000  1
  Sc  Sc3  1  0.000793  0.813743  0.500000  1
  Sc  Sc4  1  0.186435  0.186793  0.500000  1
  Nb  Nb5  1  0.451113  0.000205  0.000000  1
  Nb  Nb6  1  0.998422  0.450089  0.000000  1
  Nb  Nb7  1  0.551765  0.549417  0.000000  1
  Si  Si8  1  0.169261  0.483983  0.500000  1
  P  P9  1  0.175829  0.002068  0.000000  1
  P  P10  1  0.000233  0.175424  0.000000  1
  P  P11  1  0.825329  0.825768  0.000000  1
  P  P12  1  0.515824  0.683400  0.500000  1
  P  P13  1  0.313785  0.830543  0.500000  1
  P  P14  1  0.685695  0.516740  0.500000  1
  P  P15  1  0.831150  0.314023  0.500000  1
  P  P16  1  0.483973  0.168395  0.500000  1
  P  P17  1  0.642970  0.999378  0.000000  1
  P  P18  1  0.001997  0.645352  0.000000  1
  P  P19  1  0.356272  0.358272  0.000000  1
  Ir  Ir20  1  0.359209  0.490666  0.500000  1
  Ir  Ir21  1  0.504660  0.860221  0.500000  1
  Ir  Ir22  1  0.133892  0.646391  0.500000  1
  Ir  Ir23  1  0.860557  0.505052  0.500000  1
  Ir  Ir24  1  0.643601  0.137100  0.500000  1
  Ir  Ir25  1  0.496274  0.355825  0.500000  1
  Ir  Ir26  1  0.178146  0.370216  0.000000  1
  Ir  Ir27  1  0.630092  0.808712  0.000000  1
  Ir  Ir28  1  0.192101  0.823899  0.000000  1
  Ir  Ir29  1  0.810830  0.631604  0.000000  1
  Ir  Ir30  1  0.819601  0.190481  0.000000  1
  Ir  Ir31  1  0.369809  0.180243  0.000000  1
  Ir  Ir32  1  0.280086  0.001476  0.500000  1
  Ir  Ir33  1  0.997225  0.274672  0.500000  1
  Ir  Ir34  1  0.721435  0.721426  0.500000  1
  Ir  Ir35  1  0.000266  0.000211  0.000000  1
