# generated using pymatgen
data_Tb10RhPb6Cl
_symmetry_space_group_name_H-M   'P 1'
_cell_length_a   9.21280900
_cell_length_b   9.21280907
_cell_length_c   6.78988900
_cell_angle_alpha   90.00000000
_cell_angle_beta   90.00000000
_cell_angle_gamma   119.99999617
_symmetry_Int_Tables_number   1
_chemical_formula_structural   Tb10RhPb6Cl
_chemical_formula_sum   'Tb10 Rh1 Pb6 Cl1'
_cell_volume   499.08838293
_cell_formula_units_Z   1
loop_
 _symmetry_equiv_pos_site_id
 _symmetry_equiv_pos_as_xyz
  1  'x, y, z'
loop_
 _atom_site_type_symbol
 _atom_site_label
 _atom_site_symmetry_multiplicity
 _atom_site_fract_x
 _atom_site_fract_y
 _atom_site_fract_z
 _atom_site_occupancy
  Tb  Tb0  1  0.246660  0.246660  0.759407  1
  Tb  Tb1  1  0.000000  0.753340  0.759407  1
  Tb  Tb2  1  0.246660  0.000000  0.240593  1
  Tb  Tb3  1  0.753340  0.000000  0.759407  1
  Tb  Tb4  1  0.333333  0.666667  0.500000  1
  Tb  Tb5  1  0.666667  0.333333  0.500000  1
  Tb  Tb6  1  0.753340  0.753340  0.240593  1
  Tb  Tb7  1  0.000000  0.246660  0.240593  1
  Tb  Tb8  1  0.333333  0.666667  0.000000  1
  Tb  Tb9  1  0.666667  0.333333  0.000000  1
  Rh  Rh10  1  0.000000  0.000000  0.000000  1
  Pb  Pb11  1  0.603999  0.000000  0.251313  1
  Pb  Pb12  1  0.000000  0.603999  0.251313  1
  Pb  Pb13  1  0.603999  0.603999  0.748687  1
  Pb  Pb14  1  0.396001  0.396001  0.251313  1
  Pb  Pb15  1  0.000000  0.396001  0.748687  1
  Pb  Pb16  1  0.396001  0.000000  0.748687  1
  Cl  Cl17  1  0.000000  0.000000  0.500000  1
