# generated using pymatgen
data_Nd(TcO4)3
_symmetry_space_group_name_H-M   'P 1'
_cell_length_a   10.16679900
_cell_length_b   10.16679877
_cell_length_c   6.41141400
_cell_angle_alpha   90.00000000
_cell_angle_beta   90.00000000
_cell_angle_gamma   120.00000570
_symmetry_Int_Tables_number   1
_chemical_formula_structural   Nd(TcO4)3
_chemical_formula_sum   'Nd2 Tc6 O24'
_cell_volume   573.92202674
_cell_formula_units_Z   2
loop_
 _symmetry_equiv_pos_site_id
 _symmetry_equiv_pos_as_xyz
  1  'x, y, z'
loop_
 _atom_site_type_symbol
 _atom_site_label
 _atom_site_symmetry_multiplicity
 _atom_site_fract_x
 _atom_site_fract_y
 _atom_site_fract_z
 _atom_site_occupancy
  Nd  Nd0  1  0.666667  0.333333  0.750000  1
  Nd  Nd1  1  0.333333  0.666667  0.250000  1
  Tc  Tc2  1  0.605095  0.702422  0.750000  1
  Tc  Tc3  1  0.097327  0.394905  0.750000  1
  Tc  Tc4  1  0.297578  0.902673  0.750000  1
  Tc  Tc5  1  0.394905  0.297578  0.250000  1
  Tc  Tc6  1  0.902673  0.605095  0.250000  1
  Tc  Tc7  1  0.702422  0.097327  0.250000  1
  O  O8  1  0.560958  0.512709  0.750000  1
  O  O9  1  0.951750  0.439042  0.750000  1
  O  O10  1  0.487291  0.048250  0.750000  1
  O  O11  1  0.439042  0.487291  0.250000  1
  O  O12  1  0.048250  0.560958  0.250000  1
  O  O13  1  0.512709  0.951750  0.250000  1
  O  O14  1  0.471380  0.260067  0.027317  1
  O  O15  1  0.788686  0.528620  0.027317  1
  O  O16  1  0.739933  0.211314  0.027317  1
  O  O17  1  0.528620  0.739933  0.527317  1
  O  O18  1  0.211314  0.471380  0.527317  1
  O  O19  1  0.260067  0.788686  0.527317  1
  O  O20  1  0.528620  0.739933  0.972683  1
  O  O21  1  0.211314  0.471380  0.972683  1
  O  O22  1  0.260067  0.788686  0.972683  1
  O  O23  1  0.471380  0.260067  0.472683  1
  O  O24  1  0.788686  0.528620  0.472683  1
  O  O25  1  0.739933  0.211314  0.472683  1
  O  O26  1  0.797288  0.817805  0.750000  1
  O  O27  1  0.020517  0.202712  0.750000  1
  O  O28  1  0.182195  0.979483  0.750000  1
  O  O29  1  0.202712  0.182195  0.250000  1
  O  O30  1  0.979483  0.797288  0.250000  1
  O  O31  1  0.817805  0.020517  0.250000  1
