# generated using pymatgen
data_Ta2MnBeB
_symmetry_space_group_name_H-M   'P 1'
_cell_length_a   6.02090500
_cell_length_b   6.03025900
_cell_length_c   3.26094200
_cell_angle_alpha   90.00000000
_cell_angle_beta   90.00000000
_cell_angle_gamma   90.00000000
_symmetry_Int_Tables_number   1
_chemical_formula_structural   Ta2MnBeB
_chemical_formula_sum   'Ta4 Mn2 Be2 B2'
_cell_volume   118.39703177
_cell_formula_units_Z   2
loop_
 _symmetry_equiv_pos_site_id
 _symmetry_equiv_pos_as_xyz
  1  'x, y, z'
loop_
 _atom_site_type_symbol
 _atom_site_label
 _atom_site_symmetry_multiplicity
 _atom_site_fract_x
 _atom_site_fract_y
 _atom_site_fract_z
 _atom_site_occupancy
  Ta  Ta0  1  0.318910  0.828285  0.500000  1
  Ta  Ta1  1  0.818910  0.671715  0.500000  1
  Ta  Ta2  1  0.178865  0.315682  0.500000  1
  Ta  Ta3  1  0.678865  0.184318  0.500000  1
  Mn  Mn4  1  0.002029  0.006221  0.000000  1
  Mn  Mn5  1  0.502029  0.493779  0.000000  1
  Be  Be6  1  0.116527  0.614949  0.000000  1
  Be  Be7  1  0.616527  0.885051  0.000000  1
  B  B8  1  0.383669  0.117396  0.000000  1
  B  B9  1  0.883669  0.382604  0.000000  1
