# generated using pymatgen
data_Er4WI4
_symmetry_space_group_name_H-M   'P 1'
_cell_length_a   11.31781916
_cell_length_b   11.31781908
_cell_length_c   5.92793461
_cell_angle_alpha   90.41048378
_cell_angle_beta   90.41047958
_cell_angle_gamma   89.97935101
_symmetry_Int_Tables_number   1
_chemical_formula_structural   Er4WI4
_chemical_formula_sum   'Er8 W2 I8'
_cell_volume   759.28809430
_cell_formula_units_Z   2
loop_
 _symmetry_equiv_pos_site_id
 _symmetry_equiv_pos_as_xyz
  1  'x, y, z'
loop_
 _atom_site_type_symbol
 _atom_site_label
 _atom_site_symmetry_multiplicity
 _atom_site_fract_x
 _atom_site_fract_y
 _atom_site_fract_z
 _atom_site_occupancy
  Er  Er0  1  0.206051  0.915440  0.002837  1
  Er  Er1  1  0.793949  0.084560  0.997163  1
  Er  Er2  1  0.084560  0.793949  0.497163  1
  Er  Er3  1  0.915440  0.206051  0.502837  1
  Er  Er4  1  0.793915  0.915454  0.496373  1
  Er  Er5  1  0.206085  0.084546  0.503627  1
  Er  Er6  1  0.084546  0.206085  0.003627  1
  Er  Er7  1  0.915454  0.793915  0.996373  1
  W  W8  1  0.999749  0.000251  0.250000  1
  W  W9  1  0.000251  0.999749  0.750000  1
  I  I10  1  0.359982  0.848165  0.494611  1
  I  I11  1  0.640018  0.151835  0.505389  1
  I  I12  1  0.151835  0.640018  0.005389  1
  I  I13  1  0.848165  0.359982  0.994611  1
  I  I14  1  0.359749  0.152166  0.013886  1
  I  I15  1  0.640251  0.847834  0.986114  1
  I  I16  1  0.847834  0.640251  0.486114  1
  I  I17  1  0.152166  0.359749  0.513886  1
