# generated using pymatgen
data_CaEr(Si7Rh3)2
_symmetry_space_group_name_H-M   'P 1'
_cell_length_a   7.99029866
_cell_length_b   7.99029743
_cell_length_c   7.99029822
_cell_angle_alpha   57.09953233
_cell_angle_beta   57.09953445
_cell_angle_gamma   57.09952239
_symmetry_Int_Tables_number   1
_chemical_formula_structural   CaEr(Si7Rh3)2
_chemical_formula_sum   'Ca1 Er1 Si14 Rh6'
_cell_volume   336.61051993
_cell_formula_units_Z   1
loop_
 _symmetry_equiv_pos_site_id
 _symmetry_equiv_pos_as_xyz
  1  'x, y, z'
loop_
 _atom_site_type_symbol
 _atom_site_label
 _atom_site_symmetry_multiplicity
 _atom_site_fract_x
 _atom_site_fract_y
 _atom_site_fract_z
 _atom_site_occupancy
  Ca  Ca0  1  0.000000  0.000000  0.000000  1
  Er  Er1  1  0.500000  0.500000  0.500000  1
  Si  Si2  1  0.749985  0.749985  0.749985  1
  Si  Si3  1  0.250015  0.250015  0.250015  1
  Si  Si4  1  0.851349  0.066161  0.672512  1
  Si  Si5  1  0.672512  0.851349  0.066161  1
  Si  Si6  1  0.066161  0.672512  0.851349  1
  Si  Si7  1  0.648829  0.827785  0.434337  1
  Si  Si8  1  0.434337  0.648829  0.827785  1
  Si  Si9  1  0.827785  0.434337  0.648829  1
  Si  Si10  1  0.172215  0.565663  0.351171  1
  Si  Si11  1  0.565663  0.351171  0.172215  1
  Si  Si12  1  0.351171  0.172215  0.565663  1
  Si  Si13  1  0.933839  0.327488  0.148651  1
  Si  Si14  1  0.327488  0.148651  0.933839  1
  Si  Si15  1  0.148651  0.933839  0.327488  1
  Rh  Rh16  1  0.072368  0.431440  0.747898  1
  Rh  Rh17  1  0.252102  0.927632  0.568560  1
  Rh  Rh18  1  0.568560  0.252102  0.927632  1
  Rh  Rh19  1  0.927632  0.568560  0.252102  1
  Rh  Rh20  1  0.431440  0.747898  0.072368  1
  Rh  Rh21  1  0.747898  0.072368  0.431440  1
