# generated using pymatgen
data_TlOs3RhPb3O13
_symmetry_space_group_name_H-M   'P 1'
_cell_length_a   7.35261918
_cell_length_b   7.35261889
_cell_length_c   7.35261991
_cell_angle_alpha   60.64271939
_cell_angle_beta   60.64272138
_cell_angle_gamma   60.64272570
_symmetry_Int_Tables_number   1
_chemical_formula_structural   TlOs3RhPb3O13
_chemical_formula_sum   'Tl1 Os3 Rh1 Pb3 O13'
_cell_volume   285.14671307
_cell_formula_units_Z   1
loop_
 _symmetry_equiv_pos_site_id
 _symmetry_equiv_pos_as_xyz
  1  'x, y, z'
loop_
 _atom_site_type_symbol
 _atom_site_label
 _atom_site_symmetry_multiplicity
 _atom_site_fract_x
 _atom_site_fract_y
 _atom_site_fract_z
 _atom_site_occupancy
  Tl  Tl0  1  0.993551  0.993551  0.993551  1
  Os  Os1  1  0.000207  0.501566  0.501566  1
  Os  Os2  1  0.501566  0.501566  0.000207  1
  Os  Os3  1  0.501566  0.000207  0.501566  1
  Rh  Rh4  1  0.500649  0.500649  0.500649  1
  Pb  Pb5  1  0.502674  0.003017  0.003017  1
  Pb  Pb6  1  0.003017  0.003017  0.502674  1
  Pb  Pb7  1  0.003017  0.502674  0.003017  1
  O  O8  1  0.835973  0.421548  0.421548  1
  O  O9  1  0.431999  0.811936  0.811936  1
  O  O10  1  0.421548  0.421548  0.835973  1
  O  O11  1  0.811936  0.811936  0.431999  1
  O  O12  1  0.811936  0.431999  0.811936  1
  O  O13  1  0.421548  0.835973  0.421548  1
  O  O14  1  0.170955  0.573358  0.573358  1
  O  O15  1  0.568653  0.184697  0.184697  1
  O  O16  1  0.573358  0.573358  0.170955  1
  O  O17  1  0.184697  0.184697  0.568653  1
  O  O18  1  0.184697  0.568653  0.184697  1
  O  O19  1  0.573358  0.170955  0.573358  1
  O  O20  1  0.128096  0.128096  0.128096  1
