# generated using pymatgen
data_Tb7Hf(Ta3Ge4)4
_symmetry_space_group_name_H-M   'P 1'
_cell_length_a   6.98873290
_cell_length_b   7.15382460
_cell_length_c   13.50666271
_cell_angle_alpha   90.10616999
_cell_angle_beta   90.04661538
_cell_angle_gamma   90.30535055
_symmetry_Int_Tables_number   1
_chemical_formula_structural   Tb7Hf(Ta3Ge4)4
_chemical_formula_sum   'Tb7 Hf1 Ta12 Ge16'
_cell_volume   675.27041734
_cell_formula_units_Z   1
loop_
 _symmetry_equiv_pos_site_id
 _symmetry_equiv_pos_as_xyz
  1  'x, y, z'
loop_
 _atom_site_type_symbol
 _atom_site_label
 _atom_site_symmetry_multiplicity
 _atom_site_fract_x
 _atom_site_fract_y
 _atom_site_fract_z
 _atom_site_occupancy
  Tb  Tb0  1  0.493177  0.674844  0.593714  1
  Tb  Tb1  1  0.994466  0.826513  0.906368  1
  Tb  Tb2  1  0.505859  0.326617  0.094131  1
  Tb  Tb3  1  0.006013  0.172988  0.407172  1
  Tb  Tb4  1  0.505307  0.325719  0.407193  1
  Tb  Tb5  1  0.005554  0.174202  0.094115  1
  Tb  Tb6  1  0.493797  0.674267  0.904643  1
  Hf  Hf7  1  0.989599  0.822871  0.595759  1
  Ta  Ta8  1  0.661574  0.165322  0.625422  1
  Ta  Ta9  1  0.158265  0.331649  0.871601  1
  Ta  Ta10  1  0.341922  0.831561  0.126491  1
  Ta  Ta11  1  0.844125  0.671696  0.375922  1
  Ta  Ta12  1  0.341628  0.831711  0.373815  1
  Ta  Ta13  1  0.841399  0.668332  0.126936  1
  Ta  Ta14  1  0.660942  0.167324  0.872457  1
  Ta  Ta15  1  0.158711  0.330897  0.625293  1
  Ta  Ta16  1  0.835998  0.487529  0.747933  1
  Ta  Ta17  1  0.333094  0.012678  0.748323  1
  Ta  Ta18  1  0.165404  0.515027  0.250909  1
  Ta  Ta19  1  0.665987  0.986750  0.251274  1
  Ge  Ge20  1  0.680740  0.959408  0.460173  1
  Ge  Ge21  1  0.176775  0.539725  0.041866  1
  Ge  Ge22  1  0.324074  0.041023  0.957391  1
  Ge  Ge23  1  0.824961  0.463546  0.542746  1
  Ge  Ge24  1  0.313380  0.034684  0.542722  1
  Ge  Ge25  1  0.822524  0.459474  0.957697  1
  Ge  Ge26  1  0.676460  0.959776  0.042207  1
  Ge  Ge27  1  0.175896  0.543062  0.460146  1
  Ge  Ge28  1  0.459861  0.378230  0.748955  1
  Ge  Ge29  1  0.959584  0.117784  0.748354  1
  Ge  Ge30  1  0.542102  0.621293  0.250713  1
  Ge  Ge31  1  0.041599  0.879984  0.249933  1
  Ge  Ge32  1  0.695365  0.857161  0.748826  1
  Ge  Ge33  1  0.190670  0.645163  0.747499  1
  Ge  Ge34  1  0.306662  0.142035  0.250280  1
  Ge  Ge35  1  0.806527  0.359159  0.251025  1
