# generated using pymatgen
data_Tb6GaNiOs
_symmetry_space_group_name_H-M   'P 1'
_cell_length_a   8.39788890
_cell_length_b   8.39788940
_cell_length_c   8.39788995
_cell_angle_alpha   105.24642517
_cell_angle_beta   110.08306580
_cell_angle_gamma   113.18159989
_symmetry_Int_Tables_number   1
_chemical_formula_structural   Tb6GaNiOs
_chemical_formula_sum   'Tb12 Ga2 Ni2 Os2'
_cell_volume   453.71898689
_cell_formula_units_Z   2
loop_
 _symmetry_equiv_pos_site_id
 _symmetry_equiv_pos_as_xyz
  1  'x, y, z'
loop_
 _atom_site_type_symbol
 _atom_site_label
 _atom_site_symmetry_multiplicity
 _atom_site_fract_x
 _atom_site_fract_y
 _atom_site_fract_z
 _atom_site_occupancy
  Tb  Tb0  1  0.693238  0.259158  0.952396  1
  Tb  Tb1  1  0.306762  0.740842  0.047604  1
  Tb  Tb2  1  0.693238  0.740842  0.434081  1
  Tb  Tb3  1  0.306762  0.259158  0.565919  1
  Tb  Tb4  1  0.811802  0.142226  0.330423  1
  Tb  Tb5  1  0.811802  0.481380  0.669577  1
  Tb  Tb6  1  0.188198  0.857774  0.669577  1
  Tb  Tb7  1  0.188198  0.518620  0.330423  1
  Tb  Tb8  1  0.598271  0.778770  0.819502  1
  Tb  Tb9  1  0.959267  0.778770  0.180498  1
  Tb  Tb10  1  0.040733  0.221230  0.819502  1
  Tb  Tb11  1  0.401729  0.221230  0.180498  1
  Ga  Ga12  1  0.500000  0.500000  0.000000  1
  Ga  Ga13  1  0.500000  0.000000  0.500000  1
  Ni  Ni14  1  0.000000  0.116195  0.116195  1
  Ni  Ni15  1  0.000000  0.883805  0.883805  1
  Os  Os16  1  0.830034  0.500000  0.330034  1
  Os  Os17  1  0.169966  0.500000  0.669966  1
