# generated using pymatgen
data_Tm4Cd2Si3Ge
_symmetry_space_group_name_H-M   'P 1'
_cell_length_a   7.13324766
_cell_length_b   7.13324766
_cell_length_c   4.14857400
_cell_angle_alpha   90.00000000
_cell_angle_beta   90.00000000
_cell_angle_gamma   90.14433894
_symmetry_Int_Tables_number   1
_chemical_formula_structural   Tm4Cd2Si3Ge
_chemical_formula_sum   'Tm4 Cd2 Si3 Ge1'
_cell_volume   211.09214266
_cell_formula_units_Z   1
loop_
 _symmetry_equiv_pos_site_id
 _symmetry_equiv_pos_as_xyz
  1  'x, y, z'
loop_
 _atom_site_type_symbol
 _atom_site_label
 _atom_site_symmetry_multiplicity
 _atom_site_fract_x
 _atom_site_fract_y
 _atom_site_fract_z
 _atom_site_occupancy
  Tm  Tm0  1  0.679115  0.176932  0.500000  1
  Tm  Tm1  1  0.323068  0.820885  0.500000  1
  Tm  Tm2  1  0.175214  0.324786  0.500000  1
  Tm  Tm3  1  0.823282  0.676718  0.500000  1
  Cd  Cd4  1  0.500850  0.502415  0.000000  1
  Cd  Cd5  1  0.997585  0.999150  0.000000  1
  Si  Si6  1  0.118062  0.618121  0.000000  1
  Si  Si7  1  0.881879  0.381938  0.000000  1
  Si  Si8  1  0.620935  0.879065  0.000000  1
  Ge  Ge9  1  0.380010  0.119990  0.000000  1
