# generated using pymatgen
data_LiAcCr4O14
_symmetry_space_group_name_H-M   'P 1'
_cell_length_a   7.51682550
_cell_length_b   7.51682506
_cell_length_c   7.51682500
_cell_angle_alpha   108.93029947
_cell_angle_beta   108.93029834
_cell_angle_gamma   110.55856914
_symmetry_Int_Tables_number   1
_chemical_formula_structural   LiAcCr4O14
_chemical_formula_sum   'Li1 Ac1 Cr4 O14'
_cell_volume   326.86157191
_cell_formula_units_Z   1
loop_
 _symmetry_equiv_pos_site_id
 _symmetry_equiv_pos_as_xyz
  1  'x, y, z'
loop_
 _atom_site_type_symbol
 _atom_site_label
 _atom_site_symmetry_multiplicity
 _atom_site_fract_x
 _atom_site_fract_y
 _atom_site_fract_z
 _atom_site_occupancy
  Li  Li0  1  0.514206  0.514206  0.000000  1
  Ac  Ac1  1  0.017161  0.017161  0.000000  1
  Cr  Cr2  1  0.812304  0.368474  0.778915  1
  Cr  Cr3  1  0.033390  0.812304  0.443831  1
  Cr  Cr4  1  0.368474  0.589560  0.556169  1
  Cr  Cr5  1  0.589560  0.033390  0.221085  1
  O  O6  1  0.200804  0.700804  0.500000  1
  O  O7  1  0.700804  0.200804  0.500000  1
  O  O8  1  0.949066  0.626250  0.846196  1
  O  O9  1  0.102869  0.949066  0.322816  1
  O  O10  1  0.626250  0.780053  0.677184  1
  O  O11  1  0.780053  0.102869  0.153804  1
  O  O12  1  0.491823  0.779059  0.160646  1
  O  O13  1  0.331177  0.491823  0.712765  1
  O  O14  1  0.779059  0.618412  0.287235  1
  O  O15  1  0.618412  0.331177  0.839354  1
  O  O16  1  0.394345  0.067765  0.088465  1
  O  O17  1  0.305880  0.394345  0.326581  1
  O  O18  1  0.067765  0.979299  0.673419  1
  O  O19  1  0.979299  0.305880  0.911535  1
