# generated using pymatgen
data_Nd3ErSb10
_symmetry_space_group_name_H-M   'P 1'
_cell_length_a   4.28967500
_cell_length_b   13.45179161
_cell_length_c   15.05530771
_cell_angle_alpha   77.86747328
_cell_angle_beta   90.00000000
_cell_angle_gamma   90.00000000
_symmetry_Int_Tables_number   1
_chemical_formula_structural   Nd3ErSb10
_chemical_formula_sum   'Nd6 Er2 Sb20'
_cell_volume   849.34437660
_cell_formula_units_Z   2
loop_
 _symmetry_equiv_pos_site_id
 _symmetry_equiv_pos_as_xyz
  1  'x, y, z'
loop_
 _atom_site_type_symbol
 _atom_site_label
 _atom_site_symmetry_multiplicity
 _atom_site_fract_x
 _atom_site_fract_y
 _atom_site_fract_z
 _atom_site_occupancy
  Nd  Nd0  1  0.750000  0.335631  0.142721  1
  Nd  Nd1  1  0.250000  0.949216  0.361037  1
  Nd  Nd2  1  0.250000  0.664369  0.857279  1
  Nd  Nd3  1  0.250000  0.667776  0.576122  1
  Nd  Nd4  1  0.750000  0.050784  0.638963  1
  Nd  Nd5  1  0.750000  0.332224  0.423878  1
  Er  Er6  1  0.250000  0.397334  0.772048  1
  Er  Er7  1  0.750000  0.602666  0.227952  1
  Sb  Sb8  1  0.750000  0.850998  0.819738  1
  Sb  Sb9  1  0.250000  0.862206  0.675043  1
  Sb  Sb10  1  0.250000  0.143603  0.478308  1
  Sb  Sb11  1  0.750000  0.284892  0.933606  1
  Sb  Sb12  1  0.250000  0.147469  0.781386  1
  Sb  Sb13  1  0.750000  0.575043  0.440923  1
  Sb  Sb14  1  0.750000  0.137794  0.324957  1
  Sb  Sb15  1  0.250000  0.705184  0.349852  1
  Sb  Sb16  1  0.750000  0.294816  0.650148  1
  Sb  Sb17  1  0.750000  0.852531  0.218614  1
  Sb  Sb18  1  0.250000  0.419799  0.972051  1
  Sb  Sb19  1  0.250000  0.424957  0.559077  1
  Sb  Sb20  1  0.750000  0.570846  0.737116  1
  Sb  Sb21  1  0.250000  0.429154  0.262884  1
  Sb  Sb22  1  0.750000  0.856397  0.521692  1
  Sb  Sb23  1  0.750000  0.032764  0.890956  1
  Sb  Sb24  1  0.250000  0.715108  0.066394  1
  Sb  Sb25  1  0.250000  0.967236  0.109044  1
  Sb  Sb26  1  0.250000  0.149002  0.180262  1
  Sb  Sb27  1  0.750000  0.580201  0.027949  1
