# generated using pymatgen
data_Cr4InTc2Se7
_symmetry_space_group_name_H-M   'P 1'
_cell_length_a   9.56723898
_cell_length_b   9.60446744
_cell_length_c   9.56008900
_cell_angle_alpha   61.27517278
_cell_angle_beta   61.58063916
_cell_angle_gamma   61.57048578
_symmetry_Int_Tables_number   1
_chemical_formula_structural   Cr4InTc2Se7
_chemical_formula_sum   'Cr8 In2 Tc4 Se14'
_cell_volume   641.72989159
_cell_formula_units_Z   2
loop_
 _symmetry_equiv_pos_site_id
 _symmetry_equiv_pos_as_xyz
  1  'x, y, z'
loop_
 _atom_site_type_symbol
 _atom_site_label
 _atom_site_symmetry_multiplicity
 _atom_site_fract_x
 _atom_site_fract_y
 _atom_site_fract_z
 _atom_site_occupancy
  Cr  Cr0  1  0.288881  0.125028  0.995600  1
  Cr  Cr1  1  0.188587  0.898953  0.052597  1
  Cr  Cr2  1  0.894994  0.053997  0.191159  1
  Cr  Cr3  1  0.946837  0.810299  0.104450  1
  Cr  Cr4  1  0.806498  0.104566  0.947181  1
  Cr  Cr5  1  0.102011  0.948807  0.809379  1
  Cr  Cr6  1  0.997503  0.288300  0.124625  1
  Cr  Cr7  1  0.875107  0.004408  0.711489  1
  In  In8  1  0.364826  0.369877  0.385915  1
  In  In9  1  0.624756  0.625696  0.621898  1
  Tc  Tc10  1  0.125848  0.994184  0.291532  1
  Tc  Tc11  1  0.010003  0.706517  0.874455  1
  Tc  Tc12  1  0.706232  0.873144  0.008349  1
  Tc  Tc13  1  0.051270  0.196146  0.890444  1
  Se  Se14  1  0.959325  0.243014  0.651687  1
  Se  Se15  1  0.245967  0.659335  0.966619  1
  Se  Se16  1  0.656296  0.965082  0.246308  1
  Se  Se17  1  0.032388  0.756151  0.344135  1
  Se  Se18  1  0.752827  0.344816  0.038297  1
  Se  Se19  1  0.347505  0.033137  0.756261  1
  Se  Se20  1  0.169282  0.415296  0.821150  1
  Se  Se21  1  0.415261  0.816927  0.158367  1
  Se  Se22  1  0.821717  0.160898  0.415448  1
  Se  Se23  1  0.844959  0.578220  0.183976  1
  Se  Se24  1  0.583987  0.176194  0.838848  1
  Se  Se25  1  0.182893  0.844034  0.583885  1
  Se  Se26  1  0.779553  0.781082  0.770976  1
  Se  Se27  1  0.224690  0.225894  0.214971  1
