# generated using pymatgen
data_TbYHo2(CuPt)2
_symmetry_space_group_name_H-M   'P 1'
_cell_length_a   4.44586200
_cell_length_b   5.51676946
_cell_length_c   7.14123966
_cell_angle_alpha   89.89280618
_cell_angle_beta   90.00000000
_cell_angle_gamma   90.00000000
_symmetry_Int_Tables_number   1
_chemical_formula_structural   TbYHo2(CuPt)2
_chemical_formula_sum   'Tb1 Y1 Ho2 Cu2 Pt2'
_cell_volume   175.15141981
_cell_formula_units_Z   1
loop_
 _symmetry_equiv_pos_site_id
 _symmetry_equiv_pos_as_xyz
  1  'x, y, z'
loop_
 _atom_site_type_symbol
 _atom_site_label
 _atom_site_symmetry_multiplicity
 _atom_site_fract_x
 _atom_site_fract_y
 _atom_site_fract_z
 _atom_site_occupancy
  Tb  Tb0  1  0.500000  0.607322  0.816608  1
  Y  Y1  1  0.000000  0.117501  0.683484  1
  Ho  Ho2  1  0.000000  0.882784  0.183303  1
  Ho  Ho3  1  0.500000  0.393037  0.316786  1
  Cu  Cu4  1  0.500000  0.890320  0.459457  1
  Cu  Cu5  1  0.500000  0.108028  0.967782  1
  Pt  Pt6  1  0.000000  0.617526  0.532559  1
  Pt  Pt7  1  0.000000  0.383482  0.040024  1
