# generated using pymatgen
data_PrNd4MoRuO12
_symmetry_space_group_name_H-M   'P 1'
_cell_length_a   7.08001456
_cell_length_b   7.08001474
_cell_length_c   7.83344483
_cell_angle_alpha   73.78178294
_cell_angle_beta   73.78178007
_cell_angle_gamma   49.08985953
_symmetry_Int_Tables_number   1
_chemical_formula_structural   PrNd4MoRuO12
_chemical_formula_sum   'Pr1 Nd4 Mo1 Ru1 O12'
_cell_volume   282.41667842
_cell_formula_units_Z   1
loop_
 _symmetry_equiv_pos_site_id
 _symmetry_equiv_pos_as_xyz
  1  'x, y, z'
loop_
 _atom_site_type_symbol
 _atom_site_label
 _atom_site_symmetry_multiplicity
 _atom_site_fract_x
 _atom_site_fract_y
 _atom_site_fract_z
 _atom_site_occupancy
  Pr  Pr0  1  0.991496  0.008504  0.500000  1
  Nd  Nd1  1  0.293464  0.320820  0.356435  1
  Nd  Nd2  1  0.679180  0.706536  0.643565  1
  Nd  Nd3  1  0.681416  0.693363  0.169844  1
  Nd  Nd4  1  0.306637  0.318584  0.830156  1
  Mo  Mo5  1  0.800496  0.199504  0.000000  1
  Ru  Ru6  1  0.238206  0.761794  0.000000  1
  O  O7  1  0.085015  0.597561  0.580554  1
  O  O8  1  0.004806  0.993715  0.195299  1
  O  O9  1  0.402439  0.914985  0.419446  1
  O  O10  1  0.509338  0.489303  0.169741  1
  O  O11  1  0.089112  0.579455  0.080309  1
  O  O12  1  0.892381  0.414585  0.425299  1
  O  O13  1  0.006285  0.995194  0.804701  1
  O  O14  1  0.585415  0.107618  0.574701  1
  O  O15  1  0.510697  0.490662  0.830259  1
  O  O16  1  0.597352  0.094281  0.077053  1
  O  O17  1  0.420545  0.910888  0.919691  1
  O  O18  1  0.905719  0.402648  0.922947  1
