# generated using pymatgen
data_Er2AlZn16
_symmetry_space_group_name_H-M   'P 1'
_cell_length_a   6.79088352
_cell_length_b   6.79088335
_cell_length_c   6.79088342
_cell_angle_alpha   82.82117534
_cell_angle_beta   82.82117595
_cell_angle_gamma   82.82116319
_symmetry_Int_Tables_number   1
_chemical_formula_structural   Er2AlZn16
_chemical_formula_sum   'Er2 Al1 Zn16'
_cell_volume   306.37043625
_cell_formula_units_Z   1
loop_
 _symmetry_equiv_pos_site_id
 _symmetry_equiv_pos_as_xyz
  1  'x, y, z'
loop_
 _atom_site_type_symbol
 _atom_site_label
 _atom_site_symmetry_multiplicity
 _atom_site_fract_x
 _atom_site_fract_y
 _atom_site_fract_z
 _atom_site_occupancy
  Er  Er0  1  0.664407  0.664407  0.664407  1
  Er  Er1  1  0.335907  0.335907  0.335907  1
  Al  Al2  1  0.099458  0.099458  0.099458  1
  Zn  Zn3  1  0.351321  0.839171  0.351321  1
  Zn  Zn4  1  0.351321  0.351321  0.839171  1
  Zn  Zn5  1  0.839171  0.351321  0.351321  1
  Zn  Zn6  1  0.649486  0.160828  0.649486  1
  Zn  Zn7  1  0.649486  0.649486  0.160828  1
  Zn  Zn8  1  0.160828  0.649486  0.649486  1
  Zn  Zn9  1  0.299866  0.700258  0.999876  1
  Zn  Zn10  1  0.999876  0.299866  0.700258  1
  Zn  Zn11  1  0.700258  0.999876  0.299866  1
  Zn  Zn12  1  0.999876  0.700258  0.299866  1
  Zn  Zn13  1  0.299866  0.999876  0.700258  1
  Zn  Zn14  1  0.700258  0.299866  0.999876  1
  Zn  Zn15  1  0.999397  0.999397  0.502003  1
  Zn  Zn16  1  0.502003  0.999397  0.999397  1
  Zn  Zn17  1  0.999397  0.502003  0.999397  1
  Zn  Zn18  1  0.897820  0.897820  0.897820  1
