# generated using pymatgen
data_Mn4Al2Pd7Pt3
_symmetry_space_group_name_H-M   'P 1'
_cell_length_a   4.10730000
_cell_length_b   5.46340701
_cell_length_c   10.70973402
_cell_angle_alpha   89.99234701
_cell_angle_beta   90.00000000
_cell_angle_gamma   90.00000000
_symmetry_Int_Tables_number   1
_chemical_formula_structural   Mn4Al2Pd7Pt3
_chemical_formula_sum   'Mn4 Al2 Pd7 Pt3'
_cell_volume   240.32484025
_cell_formula_units_Z   1
loop_
 _symmetry_equiv_pos_site_id
 _symmetry_equiv_pos_as_xyz
  1  'x, y, z'
loop_
 _atom_site_type_symbol
 _atom_site_label
 _atom_site_symmetry_multiplicity
 _atom_site_fract_x
 _atom_site_fract_y
 _atom_site_fract_z
 _atom_site_occupancy
  Mn  Mn0  1  0.500000  0.176015  0.362035  1
  Mn  Mn1  1  0.500000  0.823598  0.637935  1
  Mn  Mn2  1  0.500000  0.675996  0.137859  1
  Mn  Mn3  1  0.500000  0.323931  0.862350  1
  Al  Al4  1  0.000000  0.000020  0.000006  1
  Al  Al5  1  0.000000  0.500433  0.499849  1
  Pd  Pd6  1  0.500000  0.315540  0.608452  1
  Pd  Pd7  1  0.000000  0.000697  0.500065  1
  Pd  Pd8  1  0.000000  0.499889  0.999880  1
  Pd  Pd9  1  0.000000  0.917848  0.240107  1
  Pd  Pd10  1  0.000000  0.082534  0.759836  1
  Pd  Pd11  1  0.000000  0.417580  0.260112  1
  Pd  Pd12  1  0.000000  0.582089  0.739494  1
  Pt  Pt13  1  0.500000  0.184506  0.108324  1
  Pt  Pt14  1  0.500000  0.815559  0.891478  1
  Pt  Pt15  1  0.500000  0.683763  0.392218  1
