# generated using pymatgen
data_YTm2Lu3(Al3Ru)8
_symmetry_space_group_name_H-M   'P 1'
_cell_length_a   8.75646610
_cell_length_b   8.75646456
_cell_length_c   9.56623500
_cell_angle_alpha   90.00000000
_cell_angle_beta   90.00000000
_cell_angle_gamma   119.99104563
_symmetry_Int_Tables_number   1
_chemical_formula_structural   YTm2Lu3(Al3Ru)8
_chemical_formula_sum   'Y1 Tm2 Lu3 Al24 Ru8'
_cell_volume   635.28488365
_cell_formula_units_Z   1
loop_
 _symmetry_equiv_pos_site_id
 _symmetry_equiv_pos_as_xyz
  1  'x, y, z'
loop_
 _atom_site_type_symbol
 _atom_site_label
 _atom_site_symmetry_multiplicity
 _atom_site_fract_x
 _atom_site_fract_y
 _atom_site_fract_z
 _atom_site_occupancy
  Y  Y0  1  0.806965  0.193035  0.750000  1
  Tm  Tm1  1  0.388908  0.194603  0.750000  1
  Tm  Tm2  1  0.805397  0.611092  0.750000  1
  Lu  Lu3  1  0.194453  0.805547  0.250000  1
  Lu  Lu4  1  0.610917  0.805568  0.250000  1
  Lu  Lu5  1  0.194432  0.389083  0.250000  1
  Al  Al6  1  0.666525  0.333475  0.981933  1
  Al  Al7  1  0.333240  0.666760  0.020211  1
  Al  Al8  1  0.333240  0.666760  0.479789  1
  Al  Al9  1  0.666525  0.333475  0.518067  1
  Al  Al10  1  0.837403  0.162597  0.420814  1
  Al  Al11  1  0.162591  0.837409  0.577121  1
  Al  Al12  1  0.324921  0.162409  0.421585  1
  Al  Al13  1  0.162591  0.837409  0.922879  1
  Al  Al14  1  0.674197  0.836764  0.576815  1
  Al  Al15  1  0.837403  0.162597  0.079186  1
  Al  Al16  1  0.837591  0.675079  0.421585  1
  Al  Al17  1  0.674197  0.836764  0.923185  1
  Al  Al18  1  0.163236  0.325803  0.576815  1
  Al  Al19  1  0.324921  0.162409  0.078415  1
  Al  Al20  1  0.163236  0.325803  0.923185  1
  Al  Al21  1  0.837591  0.675079  0.078415  1
  Al  Al22  1  0.438660  0.561340  0.750000  1
  Al  Al23  1  0.560762  0.439238  0.250000  1
  Al  Al24  1  0.123426  0.562317  0.750000  1
  Al  Al25  1  0.878252  0.439308  0.250000  1
  Al  Al26  1  0.437683  0.876574  0.750000  1
  Al  Al27  1  0.560692  0.121748  0.250000  1
  Al  Al28  1  0.001407  0.998593  0.750000  1
  Al  Al29  1  0.999930  0.000070  0.250000  1
  Ru  Ru30  1  0.499690  0.500310  0.000451  1
  Ru  Ru31  1  0.000730  0.500851  0.000836  1
  Ru  Ru32  1  0.499690  0.500310  0.499549  1
  Ru  Ru33  1  0.499149  0.999270  0.000836  1
  Ru  Ru34  1  0.000730  0.500851  0.499164  1
  Ru  Ru35  1  0.499149  0.999270  0.499164  1
  Ru  Ru36  1  0.999785  0.000215  0.999669  1
  Ru  Ru37  1  0.999785  0.000215  0.500331  1
