# generated using pymatgen
data_Zr10Sn5GeBi
_symmetry_space_group_name_H-M   'P 1'
_cell_length_a   5.92084699
_cell_length_b   8.66248161
_cell_length_c   8.65906351
_cell_angle_alpha   120.01307389
_cell_angle_beta   89.96562549
_cell_angle_gamma   90.06871688
_symmetry_Int_Tables_number   1
_chemical_formula_structural   Zr10Sn5GeBi
_chemical_formula_sum   'Zr10 Sn5 Ge1 Bi1'
_cell_volume   384.56537453
_cell_formula_units_Z   1
loop_
 _symmetry_equiv_pos_site_id
 _symmetry_equiv_pos_as_xyz
  1  'x, y, z'
loop_
 _atom_site_type_symbol
 _atom_site_label
 _atom_site_symmetry_multiplicity
 _atom_site_fract_x
 _atom_site_fract_y
 _atom_site_fract_z
 _atom_site_occupancy
  Zr  Zr0  1  0.498742  0.331871  0.664748  1
  Zr  Zr1  1  0.498742  0.667124  0.335252  1
  Zr  Zr2  1  0.001695  0.667039  0.335747  1
  Zr  Zr3  1  0.001695  0.331292  0.664253  1
  Zr  Zr4  1  0.759367  0.254320  0.000000  1
  Zr  Zr5  1  0.759031  0.744302  0.740497  1
  Zr  Zr6  1  0.759031  0.003804  0.259503  1
  Zr  Zr7  1  0.241762  0.743844  0.000000  1
  Zr  Zr8  1  0.240813  0.257235  0.257240  1
  Zr  Zr9  1  0.240813  0.999996  0.742760  1
  Sn  Sn10  1  0.747247  0.391302  0.391027  1
  Sn  Sn11  1  0.747247  0.000275  0.608973  1
  Sn  Sn12  1  0.252358  0.389493  0.000000  1
  Sn  Sn13  1  0.252495  0.609065  0.609283  1
  Sn  Sn14  1  0.252495  0.999782  0.390717  1
  Ge  Ge15  1  0.499575  0.999897  0.000000  1
  Bi  Bi16  1  0.746892  0.609358  0.000000  1
