# generated using pymatgen
data_Dy9LuIn8(CoPt)2
_symmetry_space_group_name_H-M   'P 1'
_cell_length_a   3.61260900
_cell_length_b   8.07127635
_cell_length_c   18.05766323
_cell_angle_alpha   90.11092973
_cell_angle_beta   90.00000000
_cell_angle_gamma   90.00000000
_symmetry_Int_Tables_number   1
_chemical_formula_structural   Dy9LuIn8(CoPt)2
_chemical_formula_sum   'Dy9 Lu1 In8 Co2 Pt2'
_cell_volume   526.53095951
_cell_formula_units_Z   1
loop_
 _symmetry_equiv_pos_site_id
 _symmetry_equiv_pos_as_xyz
  1  'x, y, z'
loop_
 _atom_site_type_symbol
 _atom_site_label
 _atom_site_symmetry_multiplicity
 _atom_site_fract_x
 _atom_site_fract_y
 _atom_site_fract_z
 _atom_site_occupancy
  Dy  Dy0  1  0.000000  0.112363  0.409623  1
  Dy  Dy1  1  0.000000  0.886519  0.589702  1
  Dy  Dy2  1  0.000000  0.381274  0.913423  1
  Dy  Dy3  1  0.000000  0.618943  0.087239  1
  Dy  Dy4  1  0.000000  0.234263  0.223665  1
  Dy  Dy5  1  0.000000  0.765864  0.776298  1
  Dy  Dy6  1  0.000000  0.243576  0.719805  1
  Dy  Dy7  1  0.000000  0.999948  0.000267  1
  Dy  Dy8  1  0.000000  0.499886  0.499923  1
  Lu  Lu9  1  0.000000  0.756637  0.279747  1
  In  In10  1  0.500000  0.425894  0.351287  1
  In  In11  1  0.500000  0.575435  0.648538  1
  In  In12  1  0.500000  0.069514  0.848109  1
  In  In13  1  0.500000  0.929161  0.152775  1
  In  In14  1  0.500000  0.292394  0.068122  1
  In  In15  1  0.500000  0.708105  0.932183  1
  In  In16  1  0.500000  0.204952  0.568267  1
  In  In17  1  0.500000  0.794199  0.430051  1
  Co  Co18  1  0.500000  0.016679  0.304547  1
  Co  Co19  1  0.500000  0.980024  0.695051  1
  Pt  Pt20  1  0.500000  0.477883  0.802681  1
  Pt  Pt21  1  0.500000  0.526487  0.198696  1
