# generated using pymatgen
data_Dy6Sc4Si5As
_symmetry_space_group_name_H-M   'P 1'
_cell_length_a   8.28586100
_cell_length_b   8.29686667
_cell_length_c   6.00733900
_cell_angle_alpha   90.00000000
_cell_angle_beta   90.00000000
_cell_angle_gamma   119.95611001
_symmetry_Int_Tables_number   1
_chemical_formula_structural   Dy6Sc4Si5As
_chemical_formula_sum   'Dy6 Sc4 Si5 As1'
_cell_volume   357.81325905
_cell_formula_units_Z   1
loop_
 _symmetry_equiv_pos_site_id
 _symmetry_equiv_pos_as_xyz
  1  'x, y, z'
loop_
 _atom_site_type_symbol
 _atom_site_label
 _atom_site_symmetry_multiplicity
 _atom_site_fract_x
 _atom_site_fract_y
 _atom_site_fract_z
 _atom_site_occupancy
  Dy  Dy0  1  0.996208  0.749840  0.750000  1
  Dy  Dy1  1  0.000588  0.247584  0.250000  1
  Dy  Dy2  1  0.753004  0.752416  0.250000  1
  Dy  Dy3  1  0.753505  0.000000  0.750000  1
  Dy  Dy4  1  0.246369  0.250160  0.750000  1
  Dy  Dy5  1  0.247892  0.000000  0.250000  1
  Sc  Sc6  1  0.332876  0.664095  0.498133  1
  Sc  Sc7  1  0.668782  0.335905  0.001867  1
  Sc  Sc8  1  0.668782  0.335905  0.498133  1
  Sc  Sc9  1  0.332876  0.664095  0.001867  1
  Si  Si10  1  0.398537  0.397266  0.250000  1
  Si  Si11  1  0.001270  0.602734  0.250000  1
  Si  Si12  1  0.999460  0.398142  0.750000  1
  Si  Si13  1  0.601317  0.601858  0.750000  1
  Si  Si14  1  0.603960  0.000000  0.250000  1
  As  As15  1  0.394575  0.000000  0.750000  1
