# generated using pymatgen
data_Pr2SiNiI
_symmetry_space_group_name_H-M   'P 1'
_cell_length_a   4.18137800
_cell_length_b   4.18137837
_cell_length_c   17.12188300
_cell_angle_alpha   90.00000000
_cell_angle_beta   90.00000000
_cell_angle_gamma   119.99999706
_symmetry_Int_Tables_number   1
_chemical_formula_structural   Pr2SiNiI
_chemical_formula_sum   'Pr4 Si2 Ni2 I2'
_cell_volume   259.25137474
_cell_formula_units_Z   2
loop_
 _symmetry_equiv_pos_site_id
 _symmetry_equiv_pos_as_xyz
  1  'x, y, z'
loop_
 _atom_site_type_symbol
 _atom_site_label
 _atom_site_symmetry_multiplicity
 _atom_site_fract_x
 _atom_site_fract_y
 _atom_site_fract_z
 _atom_site_occupancy
  Pr  Pr0  1  0.000000  0.000000  0.609174  1
  Pr  Pr1  1  0.000000  0.000000  0.394759  1
  Pr  Pr2  1  0.000000  0.000000  0.109174  1
  Pr  Pr3  1  0.000000  0.000000  0.894759  1
  Si  Si4  1  0.666667  0.333333  0.506232  1
  Si  Si5  1  0.333333  0.666667  0.006232  1
  Ni  Ni6  1  0.666667  0.333333  0.991094  1
  Ni  Ni7  1  0.333333  0.666667  0.491094  1
  I  I8  1  0.666667  0.333333  0.248741  1
  I  I9  1  0.333333  0.666667  0.748741  1
