# generated using pymatgen
data_Tb15Er5Sn11Pb5
_symmetry_space_group_name_H-M   'P 1'
_cell_length_a   8.07674208
_cell_length_b   8.22392327
_cell_length_c   15.56346362
_cell_angle_alpha   90.05649303
_cell_angle_beta   89.98460556
_cell_angle_gamma   90.04616914
_symmetry_Int_Tables_number   1
_chemical_formula_structural   Tb15Er5Sn11Pb5
_chemical_formula_sum   'Tb15 Er5 Sn11 Pb5'
_cell_volume   1033.76339810
_cell_formula_units_Z   1
loop_
 _symmetry_equiv_pos_site_id
 _symmetry_equiv_pos_as_xyz
  1  'x, y, z'
loop_
 _atom_site_type_symbol
 _atom_site_label
 _atom_site_symmetry_multiplicity
 _atom_site_fract_x
 _atom_site_fract_y
 _atom_site_fract_z
 _atom_site_occupancy
  Tb  Tb0  1  0.868172  0.661519  0.623848  1
  Tb  Tb1  1  0.631236  0.161265  0.376353  1
  Tb  Tb2  1  0.131718  0.338031  0.122753  1
  Tb  Tb3  1  0.633890  0.164288  0.123670  1
  Tb  Tb4  1  0.134098  0.336896  0.377838  1
  Tb  Tb5  1  0.365548  0.837189  0.622686  1
  Tb  Tb6  1  0.867169  0.659998  0.877227  1
  Tb  Tb7  1  0.523765  0.322908  0.900605  1
  Tb  Tb8  1  0.024950  0.179485  0.599052  1
  Tb  Tb9  1  0.475716  0.679779  0.401368  1
  Tb  Tb10  1  0.976947  0.818686  0.100061  1
  Tb  Tb11  1  0.481212  0.676885  0.099091  1
  Tb  Tb12  1  0.982387  0.821689  0.400905  1
  Tb  Tb13  1  0.517312  0.322173  0.599300  1
  Tb  Tb14  1  0.020445  0.180215  0.900220  1
  Er  Er15  1  0.366014  0.839023  0.874906  1
  Er  Er16  1  0.198859  0.502817  0.748777  1
  Er  Er17  1  0.697659  0.997413  0.749874  1
  Er  Er18  1  0.801930  0.497234  0.248744  1
  Er  Er19  1  0.301726  0.002377  0.251328  1
  Sn  Sn20  1  0.206522  0.537101  0.542256  1
  Sn  Sn21  1  0.292883  0.036482  0.457831  1
  Sn  Sn22  1  0.792783  0.462955  0.042240  1
  Sn  Sn23  1  0.563184  0.620283  0.750418  1
  Sn  Sn24  1  0.063144  0.881134  0.750833  1
  Sn  Sn25  1  0.435998  0.381390  0.250257  1
  Sn  Sn26  1  0.936812  0.118845  0.249906  1
  Sn  Sn27  1  0.329565  0.148622  0.750726  1
  Sn  Sn28  1  0.829419  0.350653  0.749374  1
  Sn  Sn29  1  0.670209  0.850657  0.250298  1
  Sn  Sn30  1  0.170962  0.648301  0.249833  1
  Pb  Pb31  1  0.292219  0.034936  0.040959  1
  Pb  Pb32  1  0.790885  0.463052  0.458544  1
  Pb  Pb33  1  0.709081  0.963471  0.541934  1
  Pb  Pb34  1  0.210130  0.539462  0.957952  1
  Pb  Pb35  1  0.705454  0.962786  0.958033  1
