# generated using pymatgen
data_Ca11NdGa4(GeRh2)4
_symmetry_space_group_name_H-M   'P 1'
_cell_length_a   5.74779475
_cell_length_b   7.90517167
_cell_length_c   13.68725593
_cell_angle_alpha   89.95915882
_cell_angle_beta   90.20873704
_cell_angle_gamma   89.98848656
_symmetry_Int_Tables_number   1
_chemical_formula_structural   Ca11NdGa4(GeRh2)4
_chemical_formula_sum   'Ca11 Nd1 Ga4 Ge4 Rh8'
_cell_volume   621.90771438
_cell_formula_units_Z   1
loop_
 _symmetry_equiv_pos_site_id
 _symmetry_equiv_pos_as_xyz
  1  'x, y, z'
loop_
 _atom_site_type_symbol
 _atom_site_label
 _atom_site_symmetry_multiplicity
 _atom_site_fract_x
 _atom_site_fract_y
 _atom_site_fract_z
 _atom_site_occupancy
  Ca  Ca0  1  0.632868  0.250535  0.251300  1
  Ca  Ca1  1  0.365602  0.751915  0.750049  1
  Ca  Ca2  1  0.363200  0.745317  0.252391  1
  Ca  Ca3  1  0.636293  0.254192  0.749583  1
  Ca  Ca4  1  0.141830  0.398393  0.098571  1
  Ca  Ca5  1  0.854992  0.598721  0.898457  1
  Ca  Ca6  1  0.856809  0.602615  0.599393  1
  Ca  Ca7  1  0.855595  0.898345  0.400945  1
  Ca  Ca8  1  0.142887  0.397458  0.401673  1
  Ca  Ca9  1  0.143202  0.101328  0.599534  1
  Ca  Ca10  1  0.150283  0.104356  0.898613  1
  Nd  Nd11  1  0.849194  0.896601  0.096386  1
  Ga  Ga12  1  0.611216  0.252416  0.999351  1
  Ga  Ga13  1  0.382139  0.747018  0.998651  1
  Ga  Ga14  1  0.394224  0.749435  0.500052  1
  Ga  Ga15  1  0.605554  0.249783  0.500689  1
  Ge  Ge16  1  0.148266  0.095685  0.250501  1
  Ge  Ge17  1  0.853173  0.903914  0.750550  1
  Ge  Ge18  1  0.850752  0.599301  0.251253  1
  Ge  Ge19  1  0.149492  0.403483  0.748956  1
  Rh  Rh20  1  0.366231  0.027349  0.094574  1
  Rh  Rh21  1  0.645018  0.969163  0.908251  1
  Rh  Rh22  1  0.637303  0.971375  0.595284  1
  Rh  Rh23  1  0.640602  0.528119  0.406748  1
  Rh  Rh24  1  0.360401  0.028961  0.406387  1
  Rh  Rh25  1  0.360742  0.470843  0.593565  1
  Rh  Rh26  1  0.360367  0.470135  0.905626  1
  Rh  Rh27  1  0.641766  0.533246  0.092669  1
