# generated using pymatgen
data_Dy20Ir3Ru8Au
_symmetry_space_group_name_H-M   'P 1'
_cell_length_a   10.86445531
_cell_length_b   10.86445514
_cell_length_c   6.39098122
_cell_angle_alpha   89.96273426
_cell_angle_beta   89.96273205
_cell_angle_gamma   89.39817543
_symmetry_Int_Tables_number   1
_chemical_formula_structural   Dy20Ir3Ru8Au
_chemical_formula_sum   'Dy20 Ir3 Ru8 Au1'
_cell_volume   754.32640456
_cell_formula_units_Z   1
loop_
 _symmetry_equiv_pos_site_id
 _symmetry_equiv_pos_as_xyz
  1  'x, y, z'
loop_
 _atom_site_type_symbol
 _atom_site_label
 _atom_site_symmetry_multiplicity
 _atom_site_fract_x
 _atom_site_fract_y
 _atom_site_fract_z
 _atom_site_occupancy
  Dy  Dy0  1  0.289227  0.086264  0.379166  1
  Dy  Dy1  1  0.295073  0.913347  0.877292  1
  Dy  Dy2  1  0.701832  0.081935  0.863405  1
  Dy  Dy3  1  0.704391  0.905693  0.382476  1
  Dy  Dy4  1  0.586964  0.790295  0.881357  1
  Dy  Dy5  1  0.576154  0.207669  0.375604  1
  Dy  Dy6  1  0.413235  0.792451  0.377720  1
  Dy  Dy7  1  0.411123  0.207714  0.881034  1
  Dy  Dy8  1  0.209705  0.413036  0.618643  1
  Dy  Dy9  1  0.207549  0.586765  0.122280  1
  Dy  Dy10  1  0.792331  0.423846  0.124396  1
  Dy  Dy11  1  0.792286  0.588877  0.618966  1
  Dy  Dy12  1  0.913736  0.710773  0.120834  1
  Dy  Dy13  1  0.918065  0.298168  0.636595  1
  Dy  Dy14  1  0.086653  0.704927  0.622708  1
  Dy  Dy15  1  0.094307  0.295609  0.117524  1
  Dy  Dy16  1  0.002142  0.995864  0.503226  1
  Dy  Dy17  1  0.004136  0.997858  0.996774  1
  Dy  Dy18  1  0.499565  0.498536  0.999768  1
  Dy  Dy19  1  0.501464  0.500435  0.500232  1
  Ir  Ir20  1  0.154853  0.845147  0.250000  1
  Ir  Ir21  1  0.655707  0.344293  0.750000  1
  Ir  Ir22  1  0.345988  0.654012  0.750000  1
  Ru  Ru23  1  0.850045  0.850079  0.750500  1
  Ru  Ru24  1  0.149921  0.149955  0.749500  1
  Ru  Ru25  1  0.651193  0.650848  0.249563  1
  Ru  Ru26  1  0.349152  0.348807  0.250437  1
  Ru  Ru27  1  0.499831  0.999329  0.124445  1
  Ru  Ru28  1  0.499206  0.999172  0.622759  1
  Ru  Ru29  1  0.000828  0.500794  0.877241  1
  Ru  Ru30  1  0.000671  0.500169  0.375555  1
  Au  Au31  1  0.842670  0.157330  0.250000  1
