# generated using pymatgen
data_TaZn5(GaRh2)6
_symmetry_space_group_name_H-M   'P 1'
_cell_length_a   4.30632000
_cell_length_b   6.09767200
_cell_length_c   12.92396500
_cell_angle_alpha   90.00000000
_cell_angle_beta   89.99874957
_cell_angle_gamma   90.00000000
_symmetry_Int_Tables_number   1
_chemical_formula_structural   TaZn5(GaRh2)6
_chemical_formula_sum   'Ta1 Zn5 Ga6 Rh12'
_cell_volume   339.36428240
_cell_formula_units_Z   1
loop_
 _symmetry_equiv_pos_site_id
 _symmetry_equiv_pos_as_xyz
  1  'x, y, z'
loop_
 _atom_site_type_symbol
 _atom_site_label
 _atom_site_symmetry_multiplicity
 _atom_site_fract_x
 _atom_site_fract_y
 _atom_site_fract_z
 _atom_site_occupancy
  Ta  Ta0  1  0.000000  0.500000  0.000000  1
  Zn  Zn1  1  0.499834  0.000000  0.169086  1
  Zn  Zn2  1  0.999824  0.500000  0.334532  1
  Zn  Zn3  1  0.500000  0.000000  0.500000  1
  Zn  Zn4  1  0.000176  0.500000  0.665468  1
  Zn  Zn5  1  0.500166  0.000000  0.830914  1
  Ga  Ga6  1  0.000000  0.000000  0.000000  1
  Ga  Ga7  1  0.499808  0.500000  0.169910  1
  Ga  Ga8  1  0.999845  0.000000  0.339261  1
  Ga  Ga9  1  0.500000  0.500000  0.500000  1
  Ga  Ga10  1  0.000155  0.000000  0.660740  1
  Ga  Ga11  1  0.500192  0.500000  0.830091  1
  Rh  Rh12  1  0.500000  0.246823  0.000000  1
  Rh  Rh13  1  0.500000  0.753176  0.000000  1
  Rh  Rh14  1  0.999850  0.249040  0.166489  1
  Rh  Rh15  1  0.999850  0.750959  0.166489  1
  Rh  Rh16  1  0.499862  0.250018  0.332572  1
  Rh  Rh17  1  0.499862  0.749983  0.332572  1
  Rh  Rh18  1  0.000000  0.252141  0.500000  1
  Rh  Rh19  1  0.000000  0.747860  0.500000  1
  Rh  Rh20  1  0.500138  0.250018  0.667428  1
  Rh  Rh21  1  0.500138  0.749983  0.667428  1
  Rh  Rh22  1  0.000149  0.249040  0.833511  1
  Rh  Rh23  1  0.000149  0.750959  0.833511  1
