# generated using pymatgen
data_LiYb2AgAs2
_symmetry_space_group_name_H-M   'P 1'
_cell_length_a   4.29485700
_cell_length_b   7.26198000
_cell_length_c   8.04492900
_cell_angle_alpha   90.00000000
_cell_angle_beta   90.00000000
_cell_angle_gamma   90.00000000
_symmetry_Int_Tables_number   1
_chemical_formula_structural   LiYb2AgAs2
_chemical_formula_sum   'Li2 Yb4 Ag2 As4'
_cell_volume   250.91462312
_cell_formula_units_Z   2
loop_
 _symmetry_equiv_pos_site_id
 _symmetry_equiv_pos_as_xyz
  1  'x, y, z'
loop_
 _atom_site_type_symbol
 _atom_site_label
 _atom_site_symmetry_multiplicity
 _atom_site_fract_x
 _atom_site_fract_y
 _atom_site_fract_z
 _atom_site_occupancy
  Li  Li0  1  0.750000  0.863060  0.058812  1
  Li  Li1  1  0.750000  0.363060  0.441188  1
  Yb  Yb2  1  0.250000  0.019210  0.307880  1
  Yb  Yb3  1  0.250000  0.519210  0.192120  1
  Yb  Yb4  1  0.750000  0.973165  0.687689  1
  Yb  Yb5  1  0.750000  0.473165  0.812311  1
  Ag  Ag6  1  0.250000  0.143769  0.932564  1
  Ag  Ag7  1  0.250000  0.643769  0.567436  1
  As  As8  1  0.250000  0.260257  0.607090  1
  As  As9  1  0.250000  0.760257  0.892910  1
  As  As10  1  0.750000  0.740539  0.377783  1
  As  As11  1  0.750000  0.240539  0.122217  1
