# generated using pymatgen
data_Zr3Nb7(Ga3C)2
_symmetry_space_group_name_H-M   'P 1'
_cell_length_a   7.93102619
_cell_length_b   7.88116539
_cell_length_c   5.48146100
_cell_angle_alpha   90.00000000
_cell_angle_beta   90.00000000
_cell_angle_gamma   120.52775261
_symmetry_Int_Tables_number   1
_chemical_formula_structural   Zr3Nb7(Ga3C)2
_chemical_formula_sum   'Zr3 Nb7 Ga6 C2'
_cell_volume   295.12945905
_cell_formula_units_Z   1
loop_
 _symmetry_equiv_pos_site_id
 _symmetry_equiv_pos_as_xyz
  1  'x, y, z'
loop_
 _atom_site_type_symbol
 _atom_site_label
 _atom_site_symmetry_multiplicity
 _atom_site_fract_x
 _atom_site_fract_y
 _atom_site_fract_z
 _atom_site_occupancy
  Zr  Zr0  1  0.239966  0.001489  0.250000  1
  Zr  Zr1  1  0.759050  0.997324  0.750000  1
  Zr  Zr2  1  0.004368  0.235479  0.250000  1
  Nb  Nb3  1  0.996952  0.768588  0.750000  1
  Nb  Nb4  1  0.778025  0.775718  0.250000  1
  Nb  Nb5  1  0.222941  0.223875  0.750000  1
  Nb  Nb6  1  0.332960  0.667141  0.999893  1
  Nb  Nb7  1  0.666629  0.333812  0.999936  1
  Nb  Nb8  1  0.666629  0.333812  0.500064  1
  Nb  Nb9  1  0.332960  0.667141  0.500107  1
  Ga  Ga10  1  0.598472  0.998799  0.250000  1
  Ga  Ga11  1  0.398056  0.000271  0.750000  1
  Ga  Ga12  1  0.998810  0.594945  0.250000  1
  Ga  Ga13  1  0.000633  0.409065  0.750000  1
  Ga  Ga14  1  0.416196  0.415952  0.250000  1
  Ga  Ga15  1  0.587465  0.586599  0.750000  1
  C  C16  1  0.999943  0.994994  0.996492  1
  C  C17  1  0.999943  0.994994  0.503508  1
