# generated using pymatgen
data_Th(Sn3Ru2)2
_symmetry_space_group_name_H-M   'P 1'
_cell_length_a   6.97181595
_cell_length_b   6.97181563
_cell_length_c   6.97181613
_cell_angle_alpha   120.28862485
_cell_angle_beta   120.28862724
_cell_angle_gamma   89.50081071
_symmetry_Int_Tables_number   1
_chemical_formula_structural   Th(Sn3Ru2)2
_chemical_formula_sum   'Th1 Sn6 Ru4'
_cell_volume   238.56463718
_cell_formula_units_Z   1
loop_
 _symmetry_equiv_pos_site_id
 _symmetry_equiv_pos_as_xyz
  1  'x, y, z'
loop_
 _atom_site_type_symbol
 _atom_site_label
 _atom_site_symmetry_multiplicity
 _atom_site_fract_x
 _atom_site_fract_y
 _atom_site_fract_z
 _atom_site_occupancy
  Th  Th0  1  0.000000  0.000000  0.000000  1
  Sn  Sn1  1  0.878918  0.528869  0.000000  1
  Sn  Sn2  1  0.528869  0.878918  0.000000  1
  Sn  Sn3  1  0.121082  0.121082  0.649951  1
  Sn  Sn4  1  0.000000  0.500000  0.500000  1
  Sn  Sn5  1  0.471131  0.471131  0.350049  1
  Sn  Sn6  1  0.500000  0.000000  0.500000  1
  Ru  Ru7  1  0.246222  0.600478  0.000000  1
  Ru  Ru8  1  0.399522  0.399522  0.645745  1
  Ru  Ru9  1  0.600478  0.246222  0.000000  1
  Ru  Ru10  1  0.753778  0.753778  0.354255  1
