# generated using pymatgen
data_Dy9Ho(SnBi2)2
_symmetry_space_group_name_H-M   'P 1'
_cell_length_a   9.11827614
_cell_length_b   9.08779274
_cell_length_c   6.43911200
_cell_angle_alpha   90.00383229
_cell_angle_beta   89.99809122
_cell_angle_gamma   119.88947407
_symmetry_Int_Tables_number   1
_chemical_formula_structural   Dy9Ho(SnBi2)2
_chemical_formula_sum   'Dy9 Ho1 Sn2 Bi4'
_cell_volume   462.60505645
_cell_formula_units_Z   1
loop_
 _symmetry_equiv_pos_site_id
 _symmetry_equiv_pos_as_xyz
  1  'x, y, z'
loop_
 _atom_site_type_symbol
 _atom_site_label
 _atom_site_symmetry_multiplicity
 _atom_site_fract_x
 _atom_site_fract_y
 _atom_site_fract_z
 _atom_site_occupancy
  Dy  Dy0  1  0.994333  0.758667  0.750040  1
  Dy  Dy1  1  0.994333  0.235666  0.249960  1
  Dy  Dy2  1  0.756676  0.761735  0.249950  1
  Dy  Dy3  1  0.756676  0.994941  0.750050  1
  Dy  Dy4  1  0.245041  0.245199  0.750013  1
  Dy  Dy5  1  0.245041  0.999842  0.249987  1
  Dy  Dy6  1  0.340579  0.670290  0.500000  1
  Dy  Dy7  1  0.664994  0.332496  0.000000  1
  Dy  Dy8  1  0.664949  0.332473  0.500000  1
  Ho  Ho9  1  0.340834  0.670417  0.000000  1
  Sn  Sn10  1  0.608553  0.606638  0.750186  1
  Sn  Sn11  1  0.608553  0.001916  0.249814  1
  Bi  Bi12  1  0.388390  0.998702  0.750153  1
  Bi  Bi13  1  0.388390  0.389688  0.249847  1
  Bi  Bi14  1  0.001329  0.609601  0.249853  1
  Bi  Bi15  1  0.001329  0.391729  0.750147  1
