# generated using pymatgen
data_Tm5Lu11(Ga3Os)2
_symmetry_space_group_name_H-M   'P 1'
_cell_length_a   9.82973689
_cell_length_b   9.82973681
_cell_length_c   6.92971983
_cell_angle_alpha   90.04856390
_cell_angle_beta   89.95143568
_cell_angle_gamma   120.00000040
_symmetry_Int_Tables_number   1
_chemical_formula_structural   Tm5Lu11(Ga3Os)2
_chemical_formula_sum   'Tm5 Lu11 Ga6 Os2'
_cell_volume   579.86898561
_cell_formula_units_Z   1
loop_
 _symmetry_equiv_pos_site_id
 _symmetry_equiv_pos_as_xyz
  1  'x, y, z'
loop_
 _atom_site_type_symbol
 _atom_site_label
 _atom_site_symmetry_multiplicity
 _atom_site_fract_x
 _atom_site_fract_y
 _atom_site_fract_z
 _atom_site_occupancy
  Tm  Tm0  1  0.467020  0.933892  0.293755  1
  Tm  Tm1  1  0.066108  0.532980  0.293755  1
  Tm  Tm2  1  0.533146  0.466854  0.793730  1
  Tm  Tm3  1  0.999984  0.000016  0.264500  1
  Tm  Tm4  1  0.999981  0.000019  0.764562  1
  Lu  Lu5  1  0.171817  0.828183  0.990063  1
  Lu  Lu6  1  0.343722  0.171899  0.490429  1
  Lu  Lu7  1  0.828101  0.656278  0.490429  1
  Lu  Lu8  1  0.171865  0.343804  0.990385  1
  Lu  Lu9  1  0.656196  0.828135  0.990385  1
  Lu  Lu10  1  0.828043  0.171957  0.490715  1
  Lu  Lu11  1  0.333321  0.666679  0.659139  1
  Lu  Lu12  1  0.666660  0.333340  0.158861  1
  Lu  Lu13  1  0.466764  0.533236  0.293739  1
  Lu  Lu14  1  0.933411  0.466611  0.793703  1
  Lu  Lu15  1  0.533389  0.066589  0.793703  1
  Ga  Ga16  1  0.163948  0.836052  0.543696  1
  Ga  Ga17  1  0.327934  0.163902  0.043575  1
  Ga  Ga18  1  0.836098  0.672066  0.043575  1
  Ga  Ga19  1  0.163990  0.327890  0.543644  1
  Ga  Ga20  1  0.672110  0.836010  0.543644  1
  Ga  Ga21  1  0.836021  0.163979  0.043596  1
  Os  Os22  1  0.333530  0.666470  0.055087  1
  Os  Os23  1  0.666842  0.333158  0.555332  1
