# generated using pymatgen
data_U4Al2Cu2IrRu3
_symmetry_space_group_name_H-M   'P 1'
_cell_length_a   5.69392934
_cell_length_b   5.29327531
_cell_length_c   7.86625400
_cell_angle_alpha   90.00000000
_cell_angle_beta   90.00000000
_cell_angle_gamma   122.23122126
_symmetry_Int_Tables_number   1
_chemical_formula_structural   U4Al2Cu2IrRu3
_chemical_formula_sum   'U4 Al2 Cu2 Ir1 Ru3'
_cell_volume   200.55103922
_cell_formula_units_Z   1
loop_
 _symmetry_equiv_pos_site_id
 _symmetry_equiv_pos_as_xyz
  1  'x, y, z'
loop_
 _atom_site_type_symbol
 _atom_site_label
 _atom_site_symmetry_multiplicity
 _atom_site_fract_x
 _atom_site_fract_y
 _atom_site_fract_z
 _atom_site_occupancy
  U  U0  1  0.349963  0.696635  0.416122  1
  U  U1  1  0.651806  0.303742  0.919183  1
  U  U2  1  0.651806  0.303742  0.580817  1
  U  U3  1  0.349963  0.696635  0.083878  1
  Al  Al4  1  0.999480  0.000161  0.499558  1
  Al  Al5  1  0.999480  0.000161  0.000442  1
  Cu  Cu6  1  0.161979  0.324414  0.750000  1
  Cu  Cu7  1  0.838016  0.675947  0.250000  1
  Ir  Ir8  1  0.152582  0.805121  0.750000  1
  Ru  Ru9  1  0.348129  0.194096  0.250000  1
  Ru  Ru10  1  0.845745  0.194265  0.250000  1
  Ru  Ru11  1  0.651050  0.805082  0.750000  1
