# generated using pymatgen
data_Pa6Co6Bi7Sb
_symmetry_space_group_name_H-M   'P 1'
_cell_length_a   8.27157008
_cell_length_b   8.27156932
_cell_length_c   8.27157101
_cell_angle_alpha   109.46834898
_cell_angle_beta   109.46834686
_cell_angle_gamma   109.46833689
_symmetry_Int_Tables_number   1
_chemical_formula_structural   Pa6Co6Bi7Sb
_chemical_formula_sum   'Pa6 Co6 Bi7 Sb1'
_cell_volume   435.70066274
_cell_formula_units_Z   1
loop_
 _symmetry_equiv_pos_site_id
 _symmetry_equiv_pos_as_xyz
  1  'x, y, z'
loop_
 _atom_site_type_symbol
 _atom_site_label
 _atom_site_symmetry_multiplicity
 _atom_site_fract_x
 _atom_site_fract_y
 _atom_site_fract_z
 _atom_site_occupancy
  Pa  Pa0  1  0.881299  0.248885  0.126418  1
  Pa  Pa1  1  0.621956  0.745912  0.374213  1
  Pa  Pa2  1  0.248885  0.126418  0.881299  1
  Pa  Pa3  1  0.745912  0.374213  0.621956  1
  Pa  Pa4  1  0.126418  0.881299  0.248885  1
  Pa  Pa5  1  0.374213  0.621956  0.745912  1
  Co  Co6  1  0.377469  0.253436  0.616716  1
  Co  Co7  1  0.124988  0.752536  0.875360  1
  Co  Co8  1  0.253436  0.616716  0.377469  1
  Co  Co9  1  0.752536  0.875360  0.124988  1
  Co  Co10  1  0.616716  0.377469  0.253436  1
  Co  Co11  1  0.875360  0.124988  0.752536  1
  Bi  Bi12  1  0.667369  0.498098  0.000500  1
  Bi  Bi13  1  0.498098  0.000500  0.667369  1
  Bi  Bi14  1  0.000500  0.667369  0.498098  1
  Bi  Bi15  1  0.830787  0.830787  0.830787  1
  Bi  Bi16  1  0.501710  0.999831  0.166476  1
  Bi  Bi17  1  0.166476  0.501710  0.999831  1
  Bi  Bi18  1  0.999831  0.166476  0.501710  1
  Sb  Sb19  1  0.336038  0.336038  0.336038  1
