# generated using pymatgen
data_RbAgCO3
_symmetry_space_group_name_H-M   'P 1'
_cell_length_a   9.77565100
_cell_length_b   4.10970547
_cell_length_c   5.72888024
_cell_angle_alpha   90.27315078
_cell_angle_beta   90.00000000
_cell_angle_gamma   90.00000000
_symmetry_Int_Tables_number   1
_chemical_formula_structural   RbAgCO3
_chemical_formula_sum   'Rb2 Ag2 C2 O6'
_cell_volume   230.15541392
_cell_formula_units_Z   2
loop_
 _symmetry_equiv_pos_site_id
 _symmetry_equiv_pos_as_xyz
  1  'x, y, z'
loop_
 _atom_site_type_symbol
 _atom_site_label
 _atom_site_symmetry_multiplicity
 _atom_site_fract_x
 _atom_site_fract_y
 _atom_site_fract_z
 _atom_site_occupancy
  Rb  Rb0  1  0.385091  0.558398  0.311781  1
  Rb  Rb1  1  0.885091  0.441602  0.688219  1
  Ag  Ag2  1  0.563102  0.983577  0.842944  1
  Ag  Ag3  1  0.063102  0.016423  0.157056  1
  C  C4  1  0.259872  0.110646  0.773399  1
  C  C5  1  0.759872  0.889354  0.226601  1
  O  O6  1  0.878568  0.927219  0.333856  1
  O  O7  1  0.378568  0.072781  0.666144  1
  O  O8  1  0.258295  0.062730  0.001629  1
  O  O9  1  0.758295  0.937270  0.998371  1
  O  O10  1  0.655073  0.809063  0.342673  1
  O  O11  1  0.155073  0.190937  0.657327  1
