# generated using pymatgen
data_Dy5AsP11Ru10Rh9
_symmetry_space_group_name_H-M   'P 1'
_cell_length_a   12.64347358
_cell_length_b   12.62783798
_cell_length_c   3.93951400
_cell_angle_alpha   90.00000000
_cell_angle_beta   90.00000000
_cell_angle_gamma   119.75264382
_symmetry_Int_Tables_number   1
_chemical_formula_structural   Dy5AsP11Ru10Rh9
_chemical_formula_sum   'Dy5 As1 P11 Ru10 Rh9'
_cell_volume   546.06682001
_cell_formula_units_Z   1
loop_
 _symmetry_equiv_pos_site_id
 _symmetry_equiv_pos_as_xyz
  1  'x, y, z'
loop_
 _atom_site_type_symbol
 _atom_site_label
 _atom_site_symmetry_multiplicity
 _atom_site_fract_x
 _atom_site_fract_y
 _atom_site_fract_z
 _atom_site_occupancy
  Dy  Dy0  1  0.666247  0.333371  0.000000  1
  Dy  Dy1  1  0.332112  0.665879  0.000000  1
  Dy  Dy2  1  0.816931  0.000730  0.500000  1
  Dy  Dy3  1  0.185608  0.187703  0.500000  1
  Dy  Dy4  1  0.999927  0.813040  0.500000  1
  As  As5  1  0.634208  0.998037  0.000000  1
  P  P6  1  0.366049  0.371823  0.000000  1
  P  P7  1  0.006092  0.633963  0.000000  1
  P  P8  1  0.687107  0.519097  0.500000  1
  P  P9  1  0.832611  0.310362  0.500000  1
  P  P10  1  0.313053  0.832003  0.500000  1
  P  P11  1  0.517207  0.683591  0.500000  1
  P  P12  1  0.179556  0.001423  0.000000  1
  P  P13  1  0.819609  0.818091  0.000000  1
  P  P14  1  0.997635  0.181889  0.000000  1
  P  P15  1  0.477446  0.164913  0.500000  1
  P  P16  1  0.168371  0.483315  0.500000  1
  Ru  Ru17  1  0.126702  0.641776  0.500000  1
  Ru  Ru18  1  0.360418  0.486093  0.500000  1
  Ru  Ru19  1  0.507955  0.866546  0.500000  1
  Ru  Ru20  1  0.717152  0.714012  0.500000  1
  Ru  Ru21  1  0.002845  0.286742  0.500000  1
  Ru  Ru22  1  0.446082  0.003206  0.000000  1
  Ru  Ru23  1  0.553421  0.546130  0.000000  1
  Ru  Ru24  1  0.002618  0.451362  0.000000  1
  Ru  Ru25  1  0.821912  0.201862  0.000000  1
  Ru  Ru26  1  0.282253  0.001350  0.500000  1
  Rh  Rh27  1  0.622012  0.796681  0.000000  1
  Rh  Rh28  1  0.181665  0.376179  0.000000  1
  Rh  Rh29  1  0.374009  0.184080  0.000000  1
  Rh  Rh30  1  0.195106  0.821634  0.000000  1
  Rh  Rh31  1  0.809128  0.623835  0.000000  1
  Rh  Rh32  1  0.870615  0.508083  0.500000  1
  Rh  Rh33  1  0.490161  0.359261  0.500000  1
  Rh  Rh34  1  0.637603  0.131720  0.500000  1
  Rh  Rh35  1  0.998578  0.000215  0.000000  1
