# generated using pymatgen
data_Tm8Sc4Co4TcSn
_symmetry_space_group_name_H-M   'P 1'
_cell_length_a   8.00295034
_cell_length_b   8.00295099
_cell_length_c   8.00295065
_cell_angle_alpha   110.89903794
_cell_angle_beta   111.50835708
_cell_angle_gamma   106.05981069
_symmetry_Int_Tables_number   1
_chemical_formula_structural   Tm8Sc4Co4TcSn
_chemical_formula_sum   'Tm8 Sc4 Co4 Tc1 Sn1'
_cell_volume   393.52114566
_cell_formula_units_Z   1
loop_
 _symmetry_equiv_pos_site_id
 _symmetry_equiv_pos_as_xyz
  1  'x, y, z'
loop_
 _atom_site_type_symbol
 _atom_site_label
 _atom_site_symmetry_multiplicity
 _atom_site_fract_x
 _atom_site_fract_y
 _atom_site_fract_z
 _atom_site_occupancy
  Tm  Tm0  1  0.187285  0.278220  0.465505  1
  Tm  Tm1  1  0.812715  0.721780  0.534495  1
  Tm  Tm2  1  0.187285  0.721780  0.909064  1
  Tm  Tm3  1  0.812715  0.278220  0.090936  1
  Tm  Tm4  1  0.310593  0.613045  0.302451  1
  Tm  Tm5  1  0.689407  0.386955  0.697549  1
  Tm  Tm6  1  0.310593  0.008141  0.697549  1
  Tm  Tm7  1  0.689407  0.991859  0.302451  1
  Sc  Sc8  1  0.413999  0.218836  0.195164  1
  Sc  Sc9  1  0.586001  0.781164  0.804836  1
  Sc  Sc10  1  0.023671  0.218836  0.804836  1
  Sc  Sc11  1  0.976329  0.781164  0.195164  1
  Co  Co12  1  0.369726  0.000000  0.369726  1
  Co  Co13  1  0.630274  0.000000  0.630274  1
  Co  Co14  1  0.113008  0.613008  0.500000  1
  Co  Co15  1  0.886992  0.386992  0.500000  1
  Tc  Tc16  1  0.000000  0.000000  0.000000  1
  Sn  Sn17  1  0.500000  0.500000  0.000000  1
