# generated using pymatgen
data_NaCa2IrO6
_symmetry_space_group_name_H-M   'P 1'
_cell_length_a   5.53182213
_cell_length_b   5.87385851
_cell_length_c   7.95665868
_cell_angle_alpha   90.04353870
_cell_angle_beta   90.82815798
_cell_angle_gamma   90.01850970
_symmetry_Int_Tables_number   1
_chemical_formula_structural   NaCa2IrO6
_chemical_formula_sum   'Na2 Ca4 Ir2 O12'
_cell_volume   258.50973288
_cell_formula_units_Z   2
loop_
 _symmetry_equiv_pos_site_id
 _symmetry_equiv_pos_as_xyz
  1  'x, y, z'
loop_
 _atom_site_type_symbol
 _atom_site_label
 _atom_site_symmetry_multiplicity
 _atom_site_fract_x
 _atom_site_fract_y
 _atom_site_fract_z
 _atom_site_occupancy
  Na  Na0  1  0.000000  0.000000  0.000000  1
  Na  Na1  1  0.500001  0.500000  0.500001  1
  Ca  Ca2  1  0.022878  0.570747  0.244793  1
  Ca  Ca3  1  0.477501  0.070859  0.256437  1
  Ca  Ca4  1  0.522498  0.929140  0.743563  1
  Ca  Ca5  1  0.977123  0.429254  0.755207  1
  Ir  Ir6  1  0.500000  0.500000  0.000001  1
  Ir  Ir7  1  0.999998  0.000000  0.500000  1
  O  O8  1  0.216290  0.326293  0.054855  1
  O  O9  1  0.340612  0.772987  0.073818  1
  O  O10  1  0.623447  0.447862  0.223587  1
  O  O11  1  0.876676  0.947708  0.276015  1
  O  O12  1  0.159976  0.273280  0.426714  1
  O  O13  1  0.284116  0.825611  0.445269  1
  O  O14  1  0.715884  0.174390  0.554731  1
  O  O15  1  0.840024  0.726719  0.573286  1
  O  O16  1  0.123325  0.052293  0.723986  1
  O  O17  1  0.376553  0.552138  0.776413  1
  O  O18  1  0.659389  0.227012  0.926182  1
  O  O19  1  0.783711  0.673706  0.945145  1
