# generated using pymatgen
data_As3Pb5O9F
_symmetry_space_group_name_H-M   'P 1'
_cell_length_a   10.27680300
_cell_length_b   10.27680371
_cell_length_c   6.99168900
_cell_angle_alpha   90.00000000
_cell_angle_beta   90.00000000
_cell_angle_gamma   120.00000651
_symmetry_Int_Tables_number   1
_chemical_formula_structural   As3Pb5O9F
_chemical_formula_sum   'As6 Pb10 O18 F2'
_cell_volume   639.48269743
_cell_formula_units_Z   2
loop_
 _symmetry_equiv_pos_site_id
 _symmetry_equiv_pos_as_xyz
  1  'x, y, z'
loop_
 _atom_site_type_symbol
 _atom_site_label
 _atom_site_symmetry_multiplicity
 _atom_site_fract_x
 _atom_site_fract_y
 _atom_site_fract_z
 _atom_site_occupancy
  As  As0  1  0.413346  0.405246  0.250000  1
  As  As1  1  0.008101  0.413346  0.750000  1
  As  As2  1  0.405246  0.991899  0.750000  1
  As  As3  1  0.594754  0.008101  0.250000  1
  As  As4  1  0.991899  0.586654  0.250000  1
  As  As5  1  0.586654  0.594754  0.750000  1
  Pb  Pb6  1  0.333333  0.666667  0.992588  1
  Pb  Pb7  1  0.666667  0.333333  0.492588  1
  Pb  Pb8  1  0.666667  0.333333  0.007412  1
  Pb  Pb9  1  0.333333  0.666667  0.507412  1
  Pb  Pb10  1  0.247390  0.037468  0.250000  1
  Pb  Pb11  1  0.209923  0.247390  0.750000  1
  Pb  Pb12  1  0.037468  0.790077  0.750000  1
  Pb  Pb13  1  0.962532  0.209923  0.250000  1
  Pb  Pb14  1  0.790077  0.752610  0.250000  1
  Pb  Pb15  1  0.752610  0.962532  0.750000  1
  O  O16  1  0.615503  0.471999  0.250000  1
  O  O17  1  0.143503  0.615503  0.750000  1
  O  O18  1  0.471999  0.856497  0.750000  1
  O  O19  1  0.528001  0.143503  0.250000  1
  O  O20  1  0.856497  0.384497  0.250000  1
  O  O21  1  0.384497  0.528001  0.750000  1
  O  O22  1  0.366597  0.276292  0.055416  1
  O  O23  1  0.090305  0.366597  0.555416  1
  O  O24  1  0.276292  0.909695  0.555416  1
  O  O25  1  0.723708  0.090305  0.055416  1
  O  O26  1  0.909695  0.633403  0.055416  1
  O  O27  1  0.633403  0.723708  0.555416  1
  O  O28  1  0.633403  0.723708  0.944584  1
  O  O29  1  0.909695  0.633403  0.444584  1
  O  O30  1  0.723708  0.090305  0.444584  1
  O  O31  1  0.276292  0.909695  0.944584  1
  O  O32  1  0.090305  0.366597  0.944584  1
  O  O33  1  0.366597  0.276292  0.444584  1
  F  F34  1  0.000000  0.000000  0.000000  1
  F  F35  1  0.000000  0.000000  0.500000  1
