# generated using pymatgen
data_Ti6MnFe2Co7B4
_symmetry_space_group_name_H-M   'P 1'
_cell_length_a   8.56872981
_cell_length_b   8.55681834
_cell_length_c   2.94512300
_cell_angle_alpha   90.00000000
_cell_angle_beta   90.00000000
_cell_angle_gamma   89.26521278
_symmetry_Int_Tables_number   1
_chemical_formula_structural   Ti6MnFe2Co7B4
_chemical_formula_sum   'Ti6 Mn1 Fe2 Co7 B4'
_cell_volume   215.92179584
_cell_formula_units_Z   1
loop_
 _symmetry_equiv_pos_site_id
 _symmetry_equiv_pos_as_xyz
  1  'x, y, z'
loop_
 _atom_site_type_symbol
 _atom_site_label
 _atom_site_symmetry_multiplicity
 _atom_site_fract_x
 _atom_site_fract_y
 _atom_site_fract_z
 _atom_site_occupancy
  Ti  Ti0  1  0.999715  0.000652  0.000000  1
  Ti  Ti1  1  0.499899  0.499135  0.000000  1
  Ti  Ti2  1  0.829201  0.323534  0.000000  1
  Ti  Ti3  1  0.324063  0.166773  0.000000  1
  Ti  Ti4  1  0.669406  0.829584  0.000000  1
  Ti  Ti5  1  0.175377  0.677436  0.000000  1
  Mn  Mn6  1  0.501634  0.999852  0.500000  1
  Fe  Fe7  1  0.070356  0.221545  0.500000  1
  Fe  Fe8  1  0.216196  0.923347  0.500000  1
  Co  Co9  1  0.000496  0.502620  0.500000  1
  Co  Co10  1  0.782443  0.075336  0.500000  1
  Co  Co11  1  0.925717  0.779910  0.500000  1
  Co  Co12  1  0.428947  0.715250  0.500000  1
  Co  Co13  1  0.574237  0.283005  0.500000  1
  Co  Co14  1  0.721132  0.569383  0.500000  1
  Co  Co15  1  0.279790  0.430984  0.500000  1
  B  B16  1  0.622765  0.122498  0.000000  1
  B  B17  1  0.122929  0.378325  0.000000  1
  B  B18  1  0.877890  0.623458  0.000000  1
  B  B19  1  0.377807  0.877373  0.000000  1
