# generated using pymatgen
data_Rb4TaSbCl12
_symmetry_space_group_name_H-M   'P 1'
_cell_length_a   10.49707797
_cell_length_b   10.53632881
_cell_length_c   12.98518855
_cell_angle_alpha   113.93536225
_cell_angle_beta   113.84075100
_cell_angle_gamma   90.00000378
_symmetry_Int_Tables_number   1
_chemical_formula_structural   Rb4TaSbCl12
_chemical_formula_sum   'Rb8 Ta2 Sb2 Cl24'
_cell_volume   1177.33437287
_cell_formula_units_Z   2
loop_
 _symmetry_equiv_pos_site_id
 _symmetry_equiv_pos_as_xyz
  1  'x, y, z'
loop_
 _atom_site_type_symbol
 _atom_site_label
 _atom_site_symmetry_multiplicity
 _atom_site_fract_x
 _atom_site_fract_y
 _atom_site_fract_z
 _atom_site_occupancy
  Rb  Rb0  1  0.285356  0.000053  0.000059  1
  Rb  Rb1  1  0.714644  0.999947  0.999941  1
  Rb  Rb2  1  0.285356  0.500006  0.000059  1
  Rb  Rb3  1  0.714644  0.499994  0.999941  1
  Rb  Rb4  1  0.000000  0.214708  0.499999  1
  Rb  Rb5  1  0.000000  0.785291  0.499999  1
  Rb  Rb6  1  0.500000  0.214669  0.499999  1
  Rb  Rb7  1  0.500000  0.785330  0.499999  1
  Ta  Ta8  1  0.125112  0.375099  0.250198  1
  Ta  Ta9  1  0.874888  0.624901  0.749803  1
  Sb  Sb10  1  0.624899  0.874935  0.249870  1
  Sb  Sb11  1  0.375101  0.125065  0.750131  1
  Cl  Cl12  1  0.013648  0.263640  0.027280  1
  Cl  Cl13  1  0.499286  0.749342  0.998685  1
  Cl  Cl14  1  0.351623  0.375683  0.251368  1
  Cl  Cl15  1  0.899772  0.375688  0.251377  1
  Cl  Cl16  1  0.628715  0.131881  0.257442  1
  Cl  Cl17  1  0.628715  0.625561  0.257442  1
  Cl  Cl18  1  0.367164  0.871190  0.242381  1
  Cl  Cl19  1  0.875153  0.871205  0.242413  1
  Cl  Cl20  1  0.124432  0.149211  0.248805  1
  Cl  Cl21  1  0.124432  0.599594  0.248805  1
  Cl  Cl22  1  0.750456  0.000450  0.500898  1
  Cl  Cl23  1  0.236369  0.486389  0.472779  1
  Cl  Cl24  1  0.763631  0.513611  0.527221  1
  Cl  Cl25  1  0.249545  0.999551  0.499102  1
  Cl  Cl26  1  0.875568  0.400406  0.751194  1
  Cl  Cl27  1  0.875568  0.850788  0.751194  1
  Cl  Cl28  1  0.124847  0.128795  0.757588  1
  Cl  Cl29  1  0.632836  0.128810  0.757620  1
  Cl  Cl30  1  0.371285  0.374438  0.742557  1
  Cl  Cl31  1  0.371285  0.868119  0.742557  1
  Cl  Cl32  1  0.100229  0.624312  0.748623  1
  Cl  Cl33  1  0.648377  0.624317  0.748632  1
  Cl  Cl34  1  0.500714  0.250658  0.001314  1
  Cl  Cl35  1  0.986352  0.736360  0.972720  1
