# generated using pymatgen
data_SmHo2Rh9
_symmetry_space_group_name_H-M   'P 1'
_cell_length_a   5.29426400
_cell_length_b   5.29422153
_cell_length_c   17.45553000
_cell_angle_alpha   90.00000000
_cell_angle_beta   90.00000000
_cell_angle_gamma   120.00499601
_symmetry_Int_Tables_number   1
_chemical_formula_structural   SmHo2Rh9
_chemical_formula_sum   'Sm2 Ho4 Rh18'
_cell_volume   423.69126368
_cell_formula_units_Z   2
loop_
 _symmetry_equiv_pos_site_id
 _symmetry_equiv_pos_as_xyz
  1  'x, y, z'
loop_
 _atom_site_type_symbol
 _atom_site_label
 _atom_site_symmetry_multiplicity
 _atom_site_fract_x
 _atom_site_fract_y
 _atom_site_fract_z
 _atom_site_occupancy
  Sm  Sm0  1  0.333334  0.666676  0.750000  1
  Sm  Sm1  1  0.666666  0.333324  0.250000  1
  Ho  Ho2  1  0.333336  0.666666  0.958778  1
  Ho  Ho3  1  0.666664  0.333334  0.041222  1
  Ho  Ho4  1  0.666664  0.333334  0.458778  1
  Ho  Ho5  1  0.333336  0.666666  0.541222  1
  Rh  Rh6  1  0.167663  0.832344  0.375109  1
  Rh  Rh7  1  0.167660  0.335336  0.375126  1
  Rh  Rh8  1  0.664675  0.832348  0.375127  1
  Rh  Rh9  1  0.832337  0.167656  0.624891  1
  Rh  Rh10  1  0.832340  0.664664  0.624874  1
  Rh  Rh11  1  0.335325  0.167652  0.624873  1
  Rh  Rh12  1  0.832337  0.167656  0.875109  1
  Rh  Rh13  1  0.832340  0.664664  0.875126  1
  Rh  Rh14  1  0.335325  0.167652  0.875127  1
  Rh  Rh15  1  0.167663  0.832344  0.124891  1
  Rh  Rh16  1  0.167660  0.335336  0.124874  1
  Rh  Rh17  1  0.664675  0.832348  0.124873  1
  Rh  Rh18  1  0.333358  0.666690  0.250000  1
  Rh  Rh19  1  0.666642  0.333310  0.750000  1
  Rh  Rh20  1  0.999992  0.999990  0.250000  1
  Rh  Rh21  1  0.000008  0.000010  0.750000  1
  Rh  Rh22  1  0.000000  0.000000  0.500000  1
  Rh  Rh23  1  0.000000  0.000000  0.000000  1
