# generated using pymatgen
data_Tb19NdSi15Ir
_symmetry_space_group_name_H-M   'P 1'
_cell_length_a   7.54248794
_cell_length_b   7.71651428
_cell_length_c   14.70266156
_cell_angle_alpha   89.60512246
_cell_angle_beta   89.76694601
_cell_angle_gamma   90.14907226
_symmetry_Int_Tables_number   1
_chemical_formula_structural   Tb19NdSi15Ir
_chemical_formula_sum   'Tb19 Nd1 Si15 Ir1'
_cell_volume   855.68977077
_cell_formula_units_Z   1
loop_
 _symmetry_equiv_pos_site_id
 _symmetry_equiv_pos_as_xyz
  1  'x, y, z'
loop_
 _atom_site_type_symbol
 _atom_site_label
 _atom_site_symmetry_multiplicity
 _atom_site_fract_x
 _atom_site_fract_y
 _atom_site_fract_z
 _atom_site_occupancy
  Tb  Tb0  1  0.137985  0.510278  0.747576  1
  Tb  Tb1  1  0.811735  0.333672  0.617352  1
  Tb  Tb2  1  0.460965  0.684980  0.898033  1
  Tb  Tb3  1  0.960315  0.815481  0.898296  1
  Tb  Tb4  1  0.184718  0.682198  0.121994  1
  Tb  Tb5  1  0.690751  0.820763  0.121450  1
  Tb  Tb6  1  0.307968  0.176164  0.876319  1
  Tb  Tb7  1  0.183500  0.675351  0.379823  1
  Tb  Tb8  1  0.039967  0.186705  0.102491  1
  Tb  Tb9  1  0.312978  0.178100  0.622588  1
  Tb  Tb10  1  0.856231  0.489987  0.259304  1
  Tb  Tb11  1  0.363146  0.008096  0.253197  1
  Tb  Tb12  1  0.539805  0.320906  0.399834  1
  Tb  Tb13  1  0.812943  0.318908  0.877762  1
  Tb  Tb14  1  0.964723  0.813669  0.597835  1
  Tb  Tb15  1  0.464407  0.684024  0.601599  1
  Tb  Tb16  1  0.038085  0.188044  0.401026  1
  Tb  Tb17  1  0.691632  0.813270  0.383840  1
  Tb  Tb18  1  0.638719  0.994963  0.748514  1
  Nd  Nd19  1  0.536918  0.318155  0.098767  1
  Si  Si20  1  0.478767  0.610642  0.246714  1
  Si  Si21  1  0.245137  0.375882  0.248363  1
  Si  Si22  1  0.514617  0.395827  0.751388  1
  Si  Si23  1  0.636057  0.023139  0.956198  1
  Si  Si24  1  0.011415  0.105538  0.748572  1
  Si  Si25  1  0.753673  0.627305  0.751658  1
  Si  Si26  1  0.745339  0.121090  0.249767  1
  Si  Si27  1  0.360022  0.969933  0.460661  1
  Si  Si28  1  0.986055  0.897693  0.248517  1
  Si  Si29  1  0.358883  0.970336  0.040067  1
  Si  Si30  1  0.639161  0.024171  0.544208  1
  Si  Si31  1  0.143145  0.471710  0.958759  1
  Si  Si32  1  0.149760  0.473798  0.542796  1
  Si  Si33  1  0.864664  0.528854  0.039579  1
  Si  Si34  1  0.253990  0.873679  0.750416  1
  Ir  Ir35  1  0.861822  0.516689  0.454736  1
