# generated using pymatgen
data_Ga6Fe5NiRh12
_symmetry_space_group_name_H-M   'P 1'
_cell_length_a   4.29852801
_cell_length_b   6.00679700
_cell_length_c   12.82681902
_cell_angle_alpha   90.00000000
_cell_angle_beta   90.00695421
_cell_angle_gamma   90.00000000
_symmetry_Int_Tables_number   1
_chemical_formula_structural   Ga6Fe5NiRh12
_chemical_formula_sum   'Ga6 Fe5 Ni1 Rh12'
_cell_volume   331.19340490
_cell_formula_units_Z   1
loop_
 _symmetry_equiv_pos_site_id
 _symmetry_equiv_pos_as_xyz
  1  'x, y, z'
loop_
 _atom_site_type_symbol
 _atom_site_label
 _atom_site_symmetry_multiplicity
 _atom_site_fract_x
 _atom_site_fract_y
 _atom_site_fract_z
 _atom_site_occupancy
  Ga  Ga0  1  0.000000  0.000000  0.000000  1
  Ga  Ga1  1  0.499709  0.500000  0.163798  1
  Ga  Ga2  1  0.999773  0.000000  0.332303  1
  Ga  Ga3  1  0.500001  0.500000  0.500000  1
  Ga  Ga4  1  0.000226  0.000000  0.667697  1
  Ga  Ga5  1  0.500290  0.500000  0.836202  1
  Fe  Fe6  1  0.499627  0.000000  0.164372  1
  Fe  Fe7  1  0.999573  0.500000  0.332407  1
  Fe  Fe8  1  0.500001  0.000000  0.500000  1
  Fe  Fe9  1  0.000428  0.500000  0.667593  1
  Fe  Fe10  1  0.500374  0.000000  0.835628  1
  Ni  Ni11  1  0.000000  0.500000  0.000000  1
  Rh  Rh12  1  0.500001  0.250289  0.000000  1
  Rh  Rh13  1  0.500001  0.749711  0.000000  1
  Rh  Rh14  1  0.999663  0.251909  0.167874  1
  Rh  Rh15  1  0.999663  0.748092  0.167874  1
  Rh  Rh16  1  0.499726  0.250074  0.333674  1
  Rh  Rh17  1  0.499726  0.749924  0.333674  1
  Rh  Rh18  1  0.000000  0.250028  0.500000  1
  Rh  Rh19  1  0.000000  0.749972  0.500000  1
  Rh  Rh20  1  0.500275  0.250074  0.666326  1
  Rh  Rh21  1  0.500275  0.749924  0.666326  1
  Rh  Rh22  1  0.000339  0.251909  0.832126  1
  Rh  Rh23  1  0.000339  0.748092  0.832126  1
