# generated using pymatgen
data_CaEu4Pb3
_symmetry_space_group_name_H-M   'P 1'
_cell_length_a   9.92295081
_cell_length_b   9.92295074
_cell_length_c   9.92295155
_cell_angle_alpha   129.86103771
_cell_angle_beta   129.86104677
_cell_angle_gamma   73.62901031
_symmetry_Int_Tables_number   1
_chemical_formula_structural   CaEu4Pb3
_chemical_formula_sum   'Ca2 Eu8 Pb6'
_cell_volume   561.74449639
_cell_formula_units_Z   2
loop_
 _symmetry_equiv_pos_site_id
 _symmetry_equiv_pos_as_xyz
  1  'x, y, z'
loop_
 _atom_site_type_symbol
 _atom_site_label
 _atom_site_symmetry_multiplicity
 _atom_site_fract_x
 _atom_site_fract_y
 _atom_site_fract_z
 _atom_site_occupancy
  Ca  Ca0  1  0.000000  0.000000  0.000000  1
  Ca  Ca1  1  0.500000  0.500000  0.000000  1
  Eu  Eu2  1  0.817586  0.317586  0.839849  1
  Eu  Eu3  1  0.182414  0.682414  0.160151  1
  Eu  Eu4  1  0.477737  0.977737  0.160151  1
  Eu  Eu5  1  0.317586  0.477737  0.500000  1
  Eu  Eu6  1  0.022263  0.182414  0.500000  1
  Eu  Eu7  1  0.522263  0.022263  0.839849  1
  Eu  Eu8  1  0.682414  0.522263  0.500000  1
  Eu  Eu9  1  0.977737  0.817586  0.500000  1
  Pb  Pb10  1  0.130028  0.630028  0.760057  1
  Pb  Pb11  1  0.869972  0.369972  0.239943  1
  Pb  Pb12  1  0.630028  0.869972  0.500000  1
  Pb  Pb13  1  0.369972  0.130028  0.500000  1
  Pb  Pb14  1  0.250000  0.250000  0.000000  1
  Pb  Pb15  1  0.750000  0.750000  0.000000  1
