# generated using pymatgen
data_Sm2ErNb(Co4P3)2
_symmetry_space_group_name_H-M   'P 1'
_cell_length_a   3.72699900
_cell_length_b   10.66426400
_cell_length_c   12.38968100
_cell_angle_alpha   90.00000000
_cell_angle_beta   90.00000000
_cell_angle_gamma   90.00000000
_symmetry_Int_Tables_number   1
_chemical_formula_structural   Sm2ErNb(Co4P3)2
_chemical_formula_sum   'Sm4 Er2 Nb2 Co16 P12'
_cell_volume   492.43655978
_cell_formula_units_Z   2
loop_
 _symmetry_equiv_pos_site_id
 _symmetry_equiv_pos_as_xyz
  1  'x, y, z'
loop_
 _atom_site_type_symbol
 _atom_site_label
 _atom_site_symmetry_multiplicity
 _atom_site_fract_x
 _atom_site_fract_y
 _atom_site_fract_z
 _atom_site_occupancy
  Sm  Sm0  1  0.000000  0.500000  0.525750  1
  Sm  Sm1  1  0.500000  0.000000  0.472725  1
  Sm  Sm2  1  0.000000  0.680377  0.794738  1
  Sm  Sm3  1  0.000000  0.319623  0.794738  1
  Er  Er4  1  0.500000  0.820335  0.204831  1
  Er  Er5  1  0.500000  0.179665  0.204831  1
  Nb  Nb6  1  0.500000  0.500000  0.156190  1
  Nb  Nb7  1  0.000000  0.000000  0.844928  1
  Co  Co8  1  0.500000  0.500000  0.702916  1
  Co  Co9  1  0.000000  0.000000  0.295406  1
  Co  Co10  1  0.000000  0.500000  0.988298  1
  Co  Co11  1  0.500000  0.000000  0.016194  1
  Co  Co12  1  0.500000  0.331414  0.994210  1
  Co  Co13  1  0.500000  0.668586  0.994210  1
  Co  Co14  1  0.000000  0.166936  0.010562  1
  Co  Co15  1  0.000000  0.833064  0.010562  1
  Co  Co16  1  0.500000  0.294670  0.429785  1
  Co  Co17  1  0.500000  0.705330  0.429785  1
  Co  Co18  1  0.000000  0.204244  0.566067  1
  Co  Co19  1  0.000000  0.795756  0.566067  1
  Co  Co20  1  0.500000  0.878937  0.704390  1
  Co  Co21  1  0.500000  0.121063  0.704390  1
  Co  Co22  1  0.000000  0.622902  0.293152  1
  Co  Co23  1  0.000000  0.377098  0.293152  1
  P  P24  1  0.500000  0.500000  0.885683  1
  P  P25  1  0.000000  0.000000  0.118796  1
  P  P26  1  0.500000  0.500000  0.352874  1
  P  P27  1  0.000000  0.000000  0.646510  1
  P  P28  1  0.500000  0.307919  0.613431  1
  P  P29  1  0.500000  0.692081  0.613431  1
  P  P30  1  0.000000  0.190419  0.381902  1
  P  P31  1  0.000000  0.809581  0.381902  1
  P  P32  1  0.500000  0.842863  0.896030  1
  P  P33  1  0.500000  0.157137  0.896030  1
  P  P34  1  0.000000  0.659326  0.107767  1
  P  P35  1  0.000000  0.340674  0.107767  1
