# generated using pymatgen
data_YbY(MnB4)2
_symmetry_space_group_name_H-M   'P 1'
_cell_length_a   3.38303700
_cell_length_b   5.90291704
_cell_length_c   11.41445408
_cell_angle_alpha   90.01388312
_cell_angle_beta   90.00000000
_cell_angle_gamma   90.00000000
_symmetry_Int_Tables_number   1
_chemical_formula_structural   YbY(MnB4)2
_chemical_formula_sum   'Yb2 Y2 Mn4 B16'
_cell_volume   227.94420741
_cell_formula_units_Z   2
loop_
 _symmetry_equiv_pos_site_id
 _symmetry_equiv_pos_as_xyz
  1  'x, y, z'
loop_
 _atom_site_type_symbol
 _atom_site_label
 _atom_site_symmetry_multiplicity
 _atom_site_fract_x
 _atom_site_fract_y
 _atom_site_fract_z
 _atom_site_occupancy
  Yb  Yb0  1  0.500000  0.124782  0.650246  1
  Yb  Yb1  1  0.500000  0.875218  0.349754  1
  Y  Y2  1  0.500000  0.374086  0.151655  1
  Y  Y3  1  0.500000  0.625914  0.848345  1
  Mn  Mn4  1  0.500000  0.377926  0.420452  1
  Mn  Mn5  1  0.500000  0.622074  0.579548  1
  Mn  Mn6  1  0.500000  0.125891  0.917555  1
  Mn  Mn7  1  0.500000  0.874109  0.082445  1
  B  B8  1  0.000000  0.111860  0.046733  1
  B  B9  1  0.000000  0.888140  0.953267  1
  B  B10  1  0.000000  0.386085  0.546433  1
  B  B11  1  0.000000  0.613915  0.453567  1
  B  B12  1  0.000000  0.137906  0.467339  1
  B  B13  1  0.000000  0.862094  0.532661  1
  B  B14  1  0.000000  0.361492  0.967772  1
  B  B15  1  0.000000  0.638508  0.032228  1
  B  B16  1  0.000000  0.024936  0.191541  1
  B  B17  1  0.000000  0.975064  0.808459  1
  B  B18  1  0.000000  0.475325  0.690056  1
  B  B19  1  0.000000  0.524675  0.309944  1
  B  B20  1  0.000000  0.219850  0.317791  1
  B  B21  1  0.000000  0.780150  0.682209  1
  B  B22  1  0.000000  0.278854  0.816013  1
  B  B23  1  0.000000  0.721146  0.183987  1
