# generated using pymatgen
data_Li3Dy3ZnSn4
_symmetry_space_group_name_H-M   'P 1'
_cell_length_a   8.66970919
_cell_length_b   8.56296322
_cell_length_c   8.56296286
_cell_angle_alpha   149.11578341
_cell_angle_beta   130.90923039
_cell_angle_gamma   59.01491992
_symmetry_Int_Tables_number   1
_chemical_formula_structural   Li3Dy3ZnSn4
_chemical_formula_sum   'Li3 Dy3 Zn1 Sn4'
_cell_volume   244.77520029
_cell_formula_units_Z   1
loop_
 _symmetry_equiv_pos_site_id
 _symmetry_equiv_pos_as_xyz
  1  'x, y, z'
loop_
 _atom_site_type_symbol
 _atom_site_label
 _atom_site_symmetry_multiplicity
 _atom_site_fract_x
 _atom_site_fract_y
 _atom_site_fract_z
 _atom_site_occupancy
  Li  Li0  1  0.014313  0.326661  0.687653  1
  Li  Li1  1  0.983540  0.670234  0.313306  1
  Li  Li2  1  0.638650  0.327490  0.311161  1
  Dy  Dy3  1  0.995007  0.999870  0.995137  1
  Dy  Dy4  1  0.384209  0.874377  0.509833  1
  Dy  Dy5  1  0.619939  0.127050  0.492889  1
  Zn  Zn6  1  0.371846  0.675147  0.696699  1
  Sn  Sn7  1  0.213065  0.215331  0.997733  1
  Sn  Sn8  1  0.699965  0.499902  0.200062  1
  Sn  Sn9  1  0.292986  0.498471  0.794515  1
  Sn  Sn10  1  0.786480  0.785469  0.001011  1
