# generated using pymatgen
data_Li3LuSb2
_symmetry_space_group_name_H-M   'P 1'
_cell_length_a   4.52131000
_cell_length_b   4.52130972
_cell_length_c   7.06240300
_cell_angle_alpha   90.00000000
_cell_angle_beta   90.00000000
_cell_angle_gamma   120.00000202
_symmetry_Int_Tables_number   1
_chemical_formula_structural   Li3LuSb2
_chemical_formula_sum   'Li3 Lu1 Sb2'
_cell_volume   125.02926052
_cell_formula_units_Z   1
loop_
 _symmetry_equiv_pos_site_id
 _symmetry_equiv_pos_as_xyz
  1  'x, y, z'
loop_
 _atom_site_type_symbol
 _atom_site_label
 _atom_site_symmetry_multiplicity
 _atom_site_fract_x
 _atom_site_fract_y
 _atom_site_fract_z
 _atom_site_occupancy
  Li  Li0  1  0.666667  0.333333  0.350272  1
  Li  Li1  1  0.333333  0.666667  0.649728  1
  Li  Li2  1  0.000000  0.000000  0.500000  1
  Lu  Lu3  1  0.000000  0.000000  0.000000  1
  Sb  Sb4  1  0.666667  0.333333  0.756487  1
  Sb  Sb5  1  0.333333  0.666667  0.243513  1
