# generated using pymatgen
data_Tb8Er7Tm5Pt16
_symmetry_space_group_name_H-M   'P 1'
_cell_length_a   7.42450200
_cell_length_b   7.51895706
_cell_length_c   14.63221800
_cell_angle_alpha   89.99422391
_cell_angle_beta   90.00057878
_cell_angle_gamma   89.99606805
_symmetry_Int_Tables_number   1
_chemical_formula_structural   Tb8Er7Tm5Pt16
_chemical_formula_sum   'Tb8 Er7 Tm5 Pt16'
_cell_volume   816.83641886
_cell_formula_units_Z   1
loop_
 _symmetry_equiv_pos_site_id
 _symmetry_equiv_pos_as_xyz
  1  'x, y, z'
loop_
 _atom_site_type_symbol
 _atom_site_label
 _atom_site_symmetry_multiplicity
 _atom_site_fract_x
 _atom_site_fract_y
 _atom_site_fract_z
 _atom_site_occupancy
  Tb  Tb0  1  0.500786  0.678895  0.592960  1
  Tb  Tb1  1  0.000943  0.820871  0.906923  1
  Tb  Tb2  1  0.499059  0.320883  0.093019  1
  Tb  Tb3  1  0.999201  0.179211  0.407204  1
  Tb  Tb4  1  0.499091  0.320902  0.407064  1
  Tb  Tb5  1  0.999128  0.179160  0.093013  1
  Tb  Tb6  1  0.500952  0.679152  0.906967  1
  Tb  Tb7  1  0.001005  0.820866  0.592936  1
  Er  Er8  1  0.656594  0.167662  0.622674  1
  Er  Er9  1  0.156652  0.332437  0.877423  1
  Er  Er10  1  0.343349  0.832406  0.122557  1
  Er  Er11  1  0.843453  0.667551  0.377330  1
  Er  Er12  1  0.343288  0.832342  0.377378  1
  Er  Er13  1  0.843385  0.667588  0.122570  1
  Er  Er14  1  0.656635  0.167633  0.877379  1
  Tm  Tm15  1  0.156495  0.332400  0.622840  1
  Tm  Tm16  1  0.819460  0.510529  0.749873  1
  Tm  Tm17  1  0.319252  0.989452  0.749871  1
  Tm  Tm18  1  0.180681  0.489368  0.250046  1
  Tm  Tm19  1  0.680678  0.010628  0.250043  1
  Pt  Pt20  1  0.682746  0.966321  0.457907  1
  Pt  Pt21  1  0.182870  0.533656  0.042170  1
  Pt  Pt22  1  0.317110  0.033741  0.958006  1
  Pt  Pt23  1  0.817901  0.465997  0.542122  1
  Pt  Pt24  1  0.316626  0.034609  0.542138  1
  Pt  Pt25  1  0.817084  0.466247  0.958015  1
  Pt  Pt26  1  0.682885  0.966341  0.042182  1
  Pt  Pt27  1  0.182814  0.533152  0.458320  1
  Pt  Pt28  1  0.453509  0.384989  0.749636  1
  Pt  Pt29  1  0.954375  0.115320  0.749622  1
  Pt  Pt30  1  0.546024  0.614811  0.250059  1
  Pt  Pt31  1  0.045995  0.885226  0.250069  1
  Pt  Pt32  1  0.682220  0.856997  0.749852  1
  Pt  Pt33  1  0.182111  0.642717  0.749620  1
  Pt  Pt34  1  0.317780  0.143069  0.250097  1
  Pt  Pt35  1  0.817865  0.356871  0.250116  1
