# generated using pymatgen
data_Dy2LuIn3Pt2Rh
_symmetry_space_group_name_H-M   'P 1'
_cell_length_a   7.66221674
_cell_length_b   7.66221626
_cell_length_c   3.80908200
_cell_angle_alpha   90.00000000
_cell_angle_beta   90.00000000
_cell_angle_gamma   119.80811643
_symmetry_Int_Tables_number   1
_chemical_formula_structural   Dy2LuIn3Pt2Rh
_chemical_formula_sum   'Dy2 Lu1 In3 Pt2 Rh1'
_cell_volume   194.04223891
_cell_formula_units_Z   1
loop_
 _symmetry_equiv_pos_site_id
 _symmetry_equiv_pos_as_xyz
  1  'x, y, z'
loop_
 _atom_site_type_symbol
 _atom_site_label
 _atom_site_symmetry_multiplicity
 _atom_site_fract_x
 _atom_site_fract_y
 _atom_site_fract_z
 _atom_site_occupancy
  Dy  Dy0  1  0.000124  0.597221  0.500000  1
  Dy  Dy1  1  0.597221  0.000124  0.500000  1
  Lu  Lu2  1  0.402523  0.402523  0.500000  1
  In  In3  1  0.001420  0.258927  0.000000  1
  In  In4  1  0.258927  0.001420  0.000000  1
  In  In5  1  0.740291  0.740291  0.000000  1
  Pt  Pt6  1  0.663747  0.333918  0.000000  1
  Pt  Pt7  1  0.333918  0.663747  0.000000  1
  Rh  Rh8  1  0.001829  0.001829  0.500000  1
