# generated using pymatgen
data_PrBi3Pt3RhF28
_symmetry_space_group_name_H-M   'P 1'
_cell_length_a   5.65256520
_cell_length_b   9.20924323
_cell_length_c   12.25333344
_cell_angle_alpha   61.85239356
_cell_angle_beta   90.19746251
_cell_angle_gamma   89.94626892
_symmetry_Int_Tables_number   1
_chemical_formula_structural   PrBi3Pt3RhF28
_chemical_formula_sum   'Pr1 Bi3 Pt3 Rh1 F28'
_cell_volume   562.41583659
_cell_formula_units_Z   1
loop_
 _symmetry_equiv_pos_site_id
 _symmetry_equiv_pos_as_xyz
  1  'x, y, z'
loop_
 _atom_site_type_symbol
 _atom_site_label
 _atom_site_symmetry_multiplicity
 _atom_site_fract_x
 _atom_site_fract_y
 _atom_site_fract_z
 _atom_site_occupancy
  Pr  Pr0  1  0.739032  0.808582  0.264508  1
  Bi  Bi1  1  0.765705  0.818787  0.760914  1
  Bi  Bi2  1  0.266068  0.188005  0.739425  1
  Bi  Bi3  1  0.230076  0.184281  0.235855  1
  Pt  Pt4  1  0.256975  0.728290  0.543025  1
  Pt  Pt5  1  0.242976  0.728787  0.039296  1
  Pt  Pt6  1  0.741782  0.270733  0.459411  1
  Rh  Rh7  1  0.759360  0.272525  0.957182  1
  F  F8  1  0.430713  0.706613  0.913030  1
  F  F9  1  0.930108  0.292511  0.587140  1
  F  F10  1  0.574130  0.288708  0.082644  1
  F  F11  1  0.068908  0.707399  0.414939  1
  F  F12  1  0.445254  0.278405  0.542412  1
  F  F13  1  0.943314  0.720450  0.958450  1
  F  F14  1  0.551749  0.720026  0.460418  1
  F  F15  1  0.057636  0.278551  0.042843  1
  F  F16  1  0.770205  0.508659  0.861174  1
  F  F17  1  0.265642  0.486680  0.640100  1
  F  F18  1  0.235429  0.488374  0.136976  1
  F  F19  1  0.730681  0.512359  0.362556  1
  F  F20  1  0.756230  0.033837  0.050274  1
  F  F21  1  0.257759  0.971725  0.449771  1
  F  F22  1  0.241934  0.973277  0.947706  1
  F  F23  1  0.743063  0.027189  0.551380  1
  F  F24  1  0.965372  0.728680  0.630336  1
  F  F25  1  0.467763  0.271522  0.866136  1
  F  F26  1  0.032139  0.271713  0.370895  1
  F  F27  1  0.534081  0.729546  0.127525  1
  F  F28  1  0.060184  0.744749  0.170287  1
  F  F29  1  0.558629  0.255878  0.327632  1
  F  F30  1  0.941853  0.254759  0.829100  1
  F  F31  1  0.440244  0.743473  0.674439  1
  F  F32  1  0.397537  0.972190  0.228069  1
  F  F33  1  0.907094  0.033370  0.271783  1
  F  F34  1  0.596409  0.029886  0.771225  1
  F  F35  1  0.093968  0.969478  0.731145  1
