# generated using pymatgen
data_LaNd7(SiI6)2
_symmetry_space_group_name_H-M   'P 1'
_cell_length_a   4.36005100
_cell_length_b   14.50398949
_cell_length_c   15.30739204
_cell_angle_alpha   89.88430997
_cell_angle_beta   90.00000000
_cell_angle_gamma   90.00000000
_symmetry_Int_Tables_number   1
_chemical_formula_structural   LaNd7(SiI6)2
_chemical_formula_sum   'La1 Nd7 Si2 I12'
_cell_volume   968.00893372
_cell_formula_units_Z   1
loop_
 _symmetry_equiv_pos_site_id
 _symmetry_equiv_pos_as_xyz
  1  'x, y, z'
loop_
 _atom_site_type_symbol
 _atom_site_label
 _atom_site_symmetry_multiplicity
 _atom_site_fract_x
 _atom_site_fract_y
 _atom_site_fract_z
 _atom_site_occupancy
  La  La0  1  0.500000  0.383261  0.843714  1
  Nd  Nd1  1  0.500000  0.115013  0.346577  1
  Nd  Nd2  1  0.500000  0.885490  0.653736  1
  Nd  Nd3  1  0.500000  0.614988  0.153962  1
  Nd  Nd4  1  0.000000  0.111889  0.575051  1
  Nd  Nd5  1  0.000000  0.887421  0.424525  1
  Nd  Nd6  1  0.000000  0.613466  0.925169  1
  Nd  Nd7  1  0.000000  0.387573  0.076324  1
  Si  Si8  1  0.500000  0.999910  0.499921  1
  Si  Si9  1  0.500000  0.500042  0.000077  1
  I  I10  1  0.500000  0.244556  0.161927  1
  I  I11  1  0.500000  0.755030  0.837679  1
  I  I12  1  0.500000  0.745334  0.338644  1
  I  I13  1  0.500000  0.253918  0.660571  1
  I  I14  1  0.000000  0.257791  0.414975  1
  I  I15  1  0.000000  0.742963  0.585405  1
  I  I16  1  0.000000  0.758199  0.085730  1
  I  I17  1  0.000000  0.238337  0.917487  1
  I  I18  1  0.000000  0.998836  0.241639  1
  I  I19  1  0.000000  0.001601  0.758824  1
  I  I20  1  0.000000  0.498618  0.259180  1
  I  I21  1  0.000000  0.505761  0.738883  1
