# generated using pymatgen
data_Ho16Lu4Si15Rh
_symmetry_space_group_name_H-M   'P 1'
_cell_length_a   7.35710056
_cell_length_b   7.61239310
_cell_length_c   14.49355049
_cell_angle_alpha   89.70553969
_cell_angle_beta   89.68408483
_cell_angle_gamma   90.19884224
_symmetry_Int_Tables_number   1
_chemical_formula_structural   Ho16Lu4Si15Rh
_chemical_formula_sum   'Ho16 Lu4 Si15 Rh1'
_cell_volume   811.68532038
_cell_formula_units_Z   1
loop_
 _symmetry_equiv_pos_site_id
 _symmetry_equiv_pos_as_xyz
  1  'x, y, z'
loop_
 _atom_site_type_symbol
 _atom_site_label
 _atom_site_symmetry_multiplicity
 _atom_site_fract_x
 _atom_site_fract_y
 _atom_site_fract_z
 _atom_site_occupancy
  Ho  Ho0  1  0.975032  0.816219  0.097814  1
  Ho  Ho1  1  0.473241  0.681884  0.401773  1
  Ho  Ho2  1  0.527756  0.323432  0.900693  1
  Ho  Ho3  1  0.027495  0.183504  0.598959  1
  Ho  Ho4  1  0.026370  0.185066  0.901846  1
  Ho  Ho5  1  0.527956  0.318800  0.598404  1
  Ho  Ho6  1  0.475667  0.681138  0.099022  1
  Ho  Ho7  1  0.971865  0.817676  0.400982  1
  Ho  Ho8  1  0.682893  0.811179  0.881815  1
  Ho  Ho9  1  0.178205  0.680839  0.622209  1
  Ho  Ho10  1  0.818011  0.334069  0.118810  1
  Ho  Ho11  1  0.317121  0.177579  0.375650  1
  Ho  Ho12  1  0.321598  0.179077  0.123880  1
  Ho  Ho13  1  0.820030  0.320125  0.376930  1
  Ho  Ho14  1  0.175331  0.674739  0.878032  1
  Ho  Ho15  1  0.682240  0.819461  0.622899  1
  Lu  Lu16  1  0.649371  0.992380  0.248916  1
  Lu  Lu17  1  0.149422  0.510345  0.247814  1
  Lu  Lu18  1  0.847185  0.487389  0.757257  1
  Lu  Lu19  1  0.351505  0.010450  0.751800  1
  Si  Si20  1  0.768037  0.631608  0.251846  1
  Si  Si21  1  0.269150  0.869631  0.250703  1
  Si  Si22  1  0.730086  0.125526  0.748843  1
  Si  Si23  1  0.232552  0.370391  0.746829  1
  Si  Si24  1  0.017958  0.105429  0.248747  1
  Si  Si25  1  0.521722  0.397016  0.251377  1
  Si  Si26  1  0.473558  0.605311  0.747153  1
  Si  Si27  1  0.978683  0.898690  0.748803  1
  Si  Si28  1  0.352704  0.972027  0.539911  1
  Si  Si29  1  0.648202  0.028336  0.041844  1
  Si  Si30  1  0.149213  0.470337  0.459893  1
  Si  Si31  1  0.156163  0.472429  0.041759  1
  Si  Si32  1  0.645190  0.028355  0.459338  1
  Si  Si33  1  0.352005  0.970021  0.960836  1
  Si  Si34  1  0.852296  0.528595  0.539300  1
  Rh  Rh35  1  0.854188  0.520945  0.957315  1
