# generated using pymatgen
data_BaV2PbO8
_symmetry_space_group_name_H-M   'P 1'
_cell_length_a   5.33030634
_cell_length_b   5.33030596
_cell_length_c   7.99595247
_cell_angle_alpha   92.47195104
_cell_angle_beta   92.47194910
_cell_angle_gamma   66.80915073
_symmetry_Int_Tables_number   1
_chemical_formula_structural   BaV2PbO8
_chemical_formula_sum   'Ba1 V2 Pb1 O8'
_cell_volume   208.54668643
_cell_formula_units_Z   1
loop_
 _symmetry_equiv_pos_site_id
 _symmetry_equiv_pos_as_xyz
  1  'x, y, z'
loop_
 _atom_site_type_symbol
 _atom_site_label
 _atom_site_symmetry_multiplicity
 _atom_site_fract_x
 _atom_site_fract_y
 _atom_site_fract_z
 _atom_site_occupancy
  Ba  Ba0  1  0.000000  0.000000  0.000000  1
  V  V1  1  0.626417  0.626417  0.285645  1
  V  V2  1  0.373582  0.373582  0.714355  1
  Pb  Pb3  1  0.000000  0.000000  0.500000  1
  O  O4  1  0.700090  0.700090  0.095550  1
  O  O5  1  0.768027  0.262443  0.295435  1
  O  O6  1  0.262443  0.768027  0.295435  1
  O  O7  1  0.757539  0.757539  0.452129  1
  O  O8  1  0.242461  0.242461  0.547871  1
  O  O9  1  0.737556  0.231972  0.704565  1
  O  O10  1  0.231972  0.737556  0.704565  1
  O  O11  1  0.299909  0.299909  0.904450  1
