# generated using pymatgen
data_Cs3K(Al3Se5)4
_symmetry_space_group_name_H-M   'P 1'
_cell_length_a   13.53576413
_cell_length_b   7.60631244
_cell_length_c   11.23541030
_cell_angle_alpha   76.57018310
_cell_angle_beta   90.36917125
_cell_angle_gamma   89.79645588
_symmetry_Int_Tables_number   1
_chemical_formula_structural   Cs3K(Al3Se5)4
_chemical_formula_sum   'Cs3 K1 Al12 Se20'
_cell_volume   1125.09681834
_cell_formula_units_Z   1
loop_
 _symmetry_equiv_pos_site_id
 _symmetry_equiv_pos_as_xyz
  1  'x, y, z'
loop_
 _atom_site_type_symbol
 _atom_site_label
 _atom_site_symmetry_multiplicity
 _atom_site_fract_x
 _atom_site_fract_y
 _atom_site_fract_z
 _atom_site_occupancy
  Cs  Cs0  1  0.110717  0.168198  0.102380  1
  Cs  Cs1  1  0.391676  0.162972  0.598859  1
  Cs  Cs2  1  0.887000  0.834131  0.898087  1
  K  K3  1  0.633331  0.833795  0.367517  1
  Al  Al4  1  0.921183  0.794350  0.400865  1
  Al  Al5  1  0.574228  0.797134  0.904453  1
  Al  Al6  1  0.426667  0.199878  0.099876  1
  Al  Al7  1  0.398326  0.560896  0.810219  1
  Al  Al8  1  0.100606  0.564856  0.308734  1
  Al  Al9  1  0.339574  0.707583  0.126933  1
  Al  Al10  1  0.599493  0.437702  0.194910  1
  Al  Al11  1  0.074820  0.206330  0.598024  1
  Al  Al12  1  0.662752  0.292653  0.877525  1
  Al  Al13  1  0.895107  0.438145  0.689386  1
  Al  Al14  1  0.161798  0.710898  0.624942  1
  Al  Al15  1  0.834891  0.291235  0.376183  1
  Se  Se16  1  0.826379  0.715361  0.581070  1
  Se  Se17  1  0.102038  0.813710  0.413284  1
  Se  Se18  1  0.664734  0.716962  0.090152  1
  Se  Se19  1  0.393095  0.810698  0.914176  1
  Se  Se20  1  0.335055  0.279609  0.915417  1
  Se  Se21  1  0.662666  0.349082  0.398821  1
  Se  Se22  1  0.578588  0.574933  0.772388  1
  Se  Se23  1  0.607967  0.190386  0.089717  1
  Se  Se24  1  0.893669  0.186069  0.587236  1
  Se  Se25  1  0.634316  0.062670  0.767727  1
  Se  Se26  1  0.378800  0.928126  0.240760  1
  Se  Se27  1  0.164877  0.283741  0.413862  1
  Se  Se28  1  0.075879  0.431103  0.728070  1
  Se  Se29  1  0.919616  0.571415  0.268969  1
  Se  Se30  1  0.861116  0.062531  0.263789  1
  Se  Se31  1  0.133782  0.939229  0.736181  1
  Se  Se32  1  0.836047  0.347558  0.894543  1
  Se  Se33  1  0.334087  0.652321  0.606326  1
  Se  Se34  1  0.419774  0.421888  0.231882  1
  Se  Se35  1  0.165345  0.661855  0.106737  1
