# generated using pymatgen
data_Ba2NaB2Pt7
_symmetry_space_group_name_H-M   'P 1'
_cell_length_a   8.51185503
_cell_length_b   8.51185366
_cell_length_c   8.51185379
_cell_angle_alpha   38.78825489
_cell_angle_beta   38.78824676
_cell_angle_gamma   38.78824821
_symmetry_Int_Tables_number   1
_chemical_formula_structural   Ba2NaB2Pt7
_chemical_formula_sum   'Ba2 Na1 B2 Pt7'
_cell_volume   217.55879180
_cell_formula_units_Z   1
loop_
 _symmetry_equiv_pos_site_id
 _symmetry_equiv_pos_as_xyz
  1  'x, y, z'
loop_
 _atom_site_type_symbol
 _atom_site_label
 _atom_site_symmetry_multiplicity
 _atom_site_fract_x
 _atom_site_fract_y
 _atom_site_fract_z
 _atom_site_occupancy
  Ba  Ba0  1  0.861776  0.861776  0.861776  1
  Ba  Ba1  1  0.138224  0.138224  0.138224  1
  Na  Na2  1  0.000000  0.000000  0.000000  1
  B  B3  1  0.668973  0.668973  0.668973  1
  B  B4  1  0.331027  0.331027  0.331027  1
  Pt  Pt5  1  0.440180  0.934044  0.440180  1
  Pt  Pt6  1  0.440180  0.440180  0.934044  1
  Pt  Pt7  1  0.934044  0.440180  0.440180  1
  Pt  Pt8  1  0.559820  0.065956  0.559820  1
  Pt  Pt9  1  0.559820  0.559820  0.065956  1
  Pt  Pt10  1  0.065956  0.559820  0.559820  1
  Pt  Pt11  1  0.500000  0.500000  0.500000  1
