# generated using pymatgen
data_Y4Tm3Lu(B6Ru)4
_symmetry_space_group_name_H-M   'P 1'
_cell_length_a   3.63454400
_cell_length_b   9.09783203
_cell_length_c   11.48541703
_cell_angle_alpha   89.99118169
_cell_angle_beta   90.00000000
_cell_angle_gamma   90.00000000
_symmetry_Int_Tables_number   1
_chemical_formula_structural   Y4Tm3Lu(B6Ru)4
_chemical_formula_sum   'Y4 Tm3 Lu1 B24 Ru4'
_cell_volume   379.78220256
_cell_formula_units_Z   1
loop_
 _symmetry_equiv_pos_site_id
 _symmetry_equiv_pos_as_xyz
  1  'x, y, z'
loop_
 _atom_site_type_symbol
 _atom_site_label
 _atom_site_symmetry_multiplicity
 _atom_site_fract_x
 _atom_site_fract_y
 _atom_site_fract_z
 _atom_site_occupancy
  Y  Y0  1  0.000000  0.321679  0.414221  1
  Y  Y1  1  0.000000  0.678280  0.585507  1
  Y  Y2  1  0.000000  0.821922  0.085863  1
  Y  Y3  1  0.000000  0.178041  0.914341  1
  Tm  Tm4  1  0.000000  0.056199  0.627491  1
  Tm  Tm5  1  0.000000  0.443685  0.127961  1
  Tm  Tm6  1  0.000000  0.556305  0.872196  1
  Lu  Lu7  1  0.000000  0.943678  0.372109  1
  B  B8  1  0.500000  0.554916  0.432783  1
  B  B9  1  0.500000  0.445457  0.567086  1
  B  B10  1  0.500000  0.054518  0.067379  1
  B  B11  1  0.500000  0.945393  0.932873  1
  B  B12  1  0.500000  0.749699  0.419046  1
  B  B13  1  0.500000  0.250798  0.580772  1
  B  B14  1  0.500000  0.248904  0.080991  1
  B  B15  1  0.500000  0.750946  0.919131  1
  B  B16  1  0.500000  0.792193  0.266055  1
  B  B17  1  0.500000  0.208277  0.734071  1
  B  B18  1  0.500000  0.291337  0.234275  1
  B  B19  1  0.500000  0.708365  0.765814  1
  B  B20  1  0.500000  0.631323  0.184764  1
  B  B21  1  0.500000  0.368868  0.815367  1
  B  B22  1  0.500000  0.130570  0.315602  1
  B  B23  1  0.500000  0.868959  0.684457  1
  B  B24  1  0.500000  0.982859  0.213805  1
  B  B25  1  0.500000  0.016850  0.786593  1
  B  B26  1  0.500000  0.483366  0.286742  1
  B  B27  1  0.500000  0.516806  0.713317  1
  B  B28  1  0.500000  0.605092  0.028907  1
  B  B29  1  0.500000  0.394935  0.971204  1
  B  B30  1  0.500000  0.104095  0.470915  1
  B  B31  1  0.500000  0.895480  0.528224  1
  Ru  Ru32  1  0.000000  0.638866  0.320407  1
  Ru  Ru33  1  0.000000  0.361695  0.679488  1
  Ru  Ru34  1  0.000000  0.137825  0.179957  1
  Ru  Ru35  1  0.000000  0.861819  0.820286  1
