# generated using pymatgen
data_PrNdZn6(As2P)2
_symmetry_space_group_name_H-M   'P 1'
_cell_length_a   4.14868200
_cell_length_b   4.15164225
_cell_length_c   20.50891400
_cell_angle_alpha   89.99876332
_cell_angle_beta   90.00101665
_cell_angle_gamma   119.97748768
_symmetry_Int_Tables_number   1
_chemical_formula_structural   PrNdZn6(As2P)2
_chemical_formula_sum   'Pr1 Nd1 Zn6 As4 P2'
_cell_volume   305.98620020
_cell_formula_units_Z   1
loop_
 _symmetry_equiv_pos_site_id
 _symmetry_equiv_pos_as_xyz
  1  'x, y, z'
loop_
 _atom_site_type_symbol
 _atom_site_label
 _atom_site_symmetry_multiplicity
 _atom_site_fract_x
 _atom_site_fract_y
 _atom_site_fract_z
 _atom_site_occupancy
  Pr  Pr0  1  0.997960  0.000866  0.999989  1
  Nd  Nd1  1  0.997945  0.000863  0.500009  1
  Zn  Zn2  1  0.668831  0.335906  0.132625  1
  Zn  Zn3  1  0.334810  0.666596  0.867362  1
  Zn  Zn4  1  0.334811  0.666598  0.632546  1
  Zn  Zn5  1  0.668830  0.335907  0.367461  1
  Zn  Zn6  1  0.631591  0.359542  0.749995  1
  Zn  Zn7  1  0.272936  0.633147  0.250003  1
  As  As8  1  0.666870  0.333831  0.588863  1
  As  As9  1  0.333711  0.668461  0.411171  1
  As  As10  1  0.333742  0.668402  0.089470  1
  As  As11  1  0.666844  0.333855  0.910507  1
  P  P12  1  0.294653  0.696170  0.749975  1
  P  P13  1  0.599362  0.295951  0.250023  1
