# generated using pymatgen
data_TmLu3(Si2Tc)2
_symmetry_space_group_name_H-M   'P 1'
_cell_length_a   5.69160487
_cell_length_b   5.69160394
_cell_length_c   9.90197849
_cell_angle_alpha   63.92201562
_cell_angle_beta   63.92201931
_cell_angle_gamma   42.75102631
_symmetry_Int_Tables_number   1
_chemical_formula_structural   TmLu3(Si2Tc)2
_chemical_formula_sum   'Tm1 Lu3 Si4 Tc2'
_cell_volume   191.95321195
_cell_formula_units_Z   1
loop_
 _symmetry_equiv_pos_site_id
 _symmetry_equiv_pos_as_xyz
  1  'x, y, z'
loop_
 _atom_site_type_symbol
 _atom_site_label
 _atom_site_symmetry_multiplicity
 _atom_site_fract_x
 _atom_site_fract_y
 _atom_site_fract_z
 _atom_site_occupancy
  Tm  Tm0  1  0.188040  0.188040  0.891762  1
  Lu  Lu1  1  0.003515  0.003515  0.323600  1
  Lu  Lu2  1  0.996535  0.996535  0.676232  1
  Lu  Lu3  1  0.812860  0.812860  0.109487  1
  Si  Si4  1  0.639610  0.639610  0.439100  1
  Si  Si5  1  0.360225  0.360225  0.560265  1
  Si  Si6  1  0.504264  0.504264  0.121876  1
  Si  Si7  1  0.495285  0.495285  0.878441  1
  Tc  Tc8  1  0.728078  0.728078  0.630380  1
  Tc  Tc9  1  0.271588  0.271588  0.368856  1
