# generated using pymatgen
data_HoPa4Ga15
_symmetry_space_group_name_H-M   'P 1'
_cell_length_a   12.49076191
_cell_length_b   12.49076203
_cell_length_c   12.49075993
_cell_angle_alpha   28.47876096
_cell_angle_beta   28.47876241
_cell_angle_gamma   28.47875987
_symmetry_Int_Tables_number   1
_chemical_formula_structural   HoPa4Ga15
_chemical_formula_sum   'Ho1 Pa4 Ga15'
_cell_volume   391.62468451
_cell_formula_units_Z   1
loop_
 _symmetry_equiv_pos_site_id
 _symmetry_equiv_pos_as_xyz
  1  'x, y, z'
loop_
 _atom_site_type_symbol
 _atom_site_label
 _atom_site_symmetry_multiplicity
 _atom_site_fract_x
 _atom_site_fract_y
 _atom_site_fract_z
 _atom_site_occupancy
  Ho  Ho0  1  0.599547  0.599547  0.599547  1
  Pa  Pa1  1  0.130798  0.130798  0.130798  1
  Pa  Pa2  1  0.870102  0.870102  0.870102  1
  Pa  Pa3  1  0.400392  0.400392  0.400392  1
  Pa  Pa4  1  0.999007  0.999007  0.999007  1
  Ga  Ga5  1  0.432410  0.882581  0.882581  1
  Ga  Ga6  1  0.882581  0.882581  0.432410  1
  Ga  Ga7  1  0.882581  0.432410  0.882581  1
  Ga  Ga8  1  0.118519  0.563635  0.118519  1
  Ga  Ga9  1  0.118519  0.118519  0.563635  1
  Ga  Ga10  1  0.563635  0.118519  0.118519  1
  Ga  Ga11  1  0.129815  0.636403  0.636403  1
  Ga  Ga12  1  0.636403  0.636403  0.129815  1
  Ga  Ga13  1  0.636403  0.129815  0.636403  1
  Ga  Ga14  1  0.364572  0.871871  0.364572  1
  Ga  Ga15  1  0.364572  0.364572  0.871871  1
  Ga  Ga16  1  0.871871  0.364572  0.364572  1
  Ga  Ga17  1  0.499860  0.499860  0.998555  1
  Ga  Ga18  1  0.499860  0.998555  0.499860  1
  Ga  Ga19  1  0.998555  0.499860  0.499860  1
