# generated using pymatgen
data_NdTm2Ga8Ag3
_symmetry_space_group_name_H-M   'P 1'
_cell_length_a   4.34751975
_cell_length_b   8.38177977
_cell_length_c   8.38178054
_cell_angle_alpha   69.14684771
_cell_angle_beta   74.96889264
_cell_angle_gamma   74.96889079
_symmetry_Int_Tables_number   1
_chemical_formula_structural   NdTm2Ga8Ag3
_chemical_formula_sum   'Nd1 Tm2 Ga8 Ag3'
_cell_volume   270.89731168
_cell_formula_units_Z   1
loop_
 _symmetry_equiv_pos_site_id
 _symmetry_equiv_pos_as_xyz
  1  'x, y, z'
loop_
 _atom_site_type_symbol
 _atom_site_label
 _atom_site_symmetry_multiplicity
 _atom_site_fract_x
 _atom_site_fract_y
 _atom_site_fract_z
 _atom_site_occupancy
  Nd  Nd0  1  0.500000  0.500000  0.500000  1
  Tm  Tm1  1  0.199904  0.800096  0.800096  1
  Tm  Tm2  1  0.800096  0.199904  0.199904  1
  Ga  Ga3  1  0.354984  0.361109  0.928923  1
  Ga  Ga4  1  0.645016  0.638891  0.071077  1
  Ga  Ga5  1  0.354984  0.928923  0.361109  1
  Ga  Ga6  1  0.645016  0.071077  0.638891  1
  Ga  Ga7  1  0.160774  0.471488  0.206964  1
  Ga  Ga8  1  0.839226  0.528512  0.793036  1
  Ga  Ga9  1  0.160774  0.206964  0.471488  1
  Ga  Ga10  1  0.839226  0.793036  0.528512  1
  Ag  Ag11  1  0.500000  0.000000  0.000000  1
  Ag  Ag12  1  0.000000  0.806863  0.193137  1
  Ag  Ag13  1  0.000000  0.193137  0.806863  1
