# generated using pymatgen
data_TmTa4Nb(ReSi)6
_symmetry_space_group_name_H-M   'P 1'
_cell_length_a   7.63282682
_cell_length_b   7.59096843
_cell_length_c   7.63282798
_cell_angle_alpha   127.06910896
_cell_angle_beta   124.85457424
_cell_angle_gamma   80.10108753
_symmetry_Int_Tables_number   1
_chemical_formula_structural   TmTa4Nb(ReSi)6
_chemical_formula_sum   'Tm1 Ta4 Nb1 Re6 Si6'
_cell_volume   279.33262380
_cell_formula_units_Z   1
loop_
 _symmetry_equiv_pos_site_id
 _symmetry_equiv_pos_as_xyz
  1  'x, y, z'
loop_
 _atom_site_type_symbol
 _atom_site_label
 _atom_site_symmetry_multiplicity
 _atom_site_fract_x
 _atom_site_fract_y
 _atom_site_fract_z
 _atom_site_occupancy
  Tm  Tm0  1  0.534793  0.061808  0.027016  1
  Ta  Ta1  1  0.944526  0.483580  0.039054  1
  Ta  Ta2  1  0.054730  0.102919  0.548189  1
  Ta  Ta3  1  0.744734  0.906417  0.661683  1
  Ta  Ta4  1  0.252847  0.910509  0.157661  1
  Nb  Nb5  1  0.462650  0.496956  0.534305  1
  Re  Re6  1  0.484971  0.246625  0.730208  1
  Re  Re7  1  0.016418  0.246625  0.261654  1
  Re  Re8  1  0.082658  0.749204  0.582170  1
  Re  Re9  1  0.902451  0.498357  0.651196  1
  Re  Re10  1  0.667034  0.749204  0.166546  1
  Re  Re11  1  0.347161  0.498357  0.095905  1
  Si  Si12  1  0.731235  0.475453  0.244219  1
  Si  Si13  1  0.279864  0.548750  0.768886  1
  Si  Si14  1  0.320187  0.822432  0.478573  1
  Si  Si15  1  0.673530  0.161284  0.504932  1
  Si  Si16  1  0.843858  0.822432  0.002244  1
  Si  Si17  1  0.156352  0.161284  0.987755  1
