# generated using pymatgen
data_Th8Cu3Si12Pd
_symmetry_space_group_name_H-M   'P 1'
_cell_length_a   8.14090900
_cell_length_b   8.14090838
_cell_length_c   8.57654100
_cell_angle_alpha   90.00000000
_cell_angle_beta   90.00000000
_cell_angle_gamma   120.00000658
_symmetry_Int_Tables_number   1
_chemical_formula_structural   Th8Cu3Si12Pd
_chemical_formula_sum   'Th8 Cu3 Si12 Pd1'
_cell_volume   492.25318896
_cell_formula_units_Z   1
loop_
 _symmetry_equiv_pos_site_id
 _symmetry_equiv_pos_as_xyz
  1  'x, y, z'
loop_
 _atom_site_type_symbol
 _atom_site_label
 _atom_site_symmetry_multiplicity
 _atom_site_fract_x
 _atom_site_fract_y
 _atom_site_fract_z
 _atom_site_occupancy
  Th  Th0  1  0.500226  0.000450  0.248155  1
  Th  Th1  1  0.500495  0.000992  0.751909  1
  Th  Th2  1  0.999550  0.499774  0.248155  1
  Th  Th3  1  0.999008  0.499505  0.751909  1
  Th  Th4  1  0.500226  0.499774  0.248155  1
  Th  Th5  1  0.500495  0.499505  0.751909  1
  Th  Th6  1  0.000000  0.000000  0.249266  1
  Th  Th7  1  0.000000  0.000000  0.750631  1
  Cu  Cu8  1  0.333333  0.666667  0.000518  1
  Cu  Cu9  1  0.666667  0.333333  0.999993  1
  Cu  Cu10  1  0.666667  0.333333  0.498834  1
  Si  Si11  1  0.169204  0.338408  0.999339  1
  Si  Si12  1  0.830698  0.661395  0.000580  1
  Si  Si13  1  0.661592  0.830796  0.999339  1
  Si  Si14  1  0.830288  0.660576  0.500455  1
  Si  Si15  1  0.338605  0.169302  0.000580  1
  Si  Si16  1  0.164581  0.329162  0.499355  1
  Si  Si17  1  0.169204  0.830796  0.999339  1
  Si  Si18  1  0.339424  0.169712  0.500455  1
  Si  Si19  1  0.830698  0.169302  0.000580  1
  Si  Si20  1  0.670838  0.835419  0.499355  1
  Si  Si21  1  0.830288  0.169712  0.500455  1
  Si  Si22  1  0.164581  0.835419  0.499355  1
  Pd  Pd23  1  0.333333  0.666667  0.501379  1
