# generated using pymatgen
data_Mg2Sc4B4Ir9Ru
_symmetry_space_group_name_H-M   'P 1'
_cell_length_a   3.04480100
_cell_length_b   9.52180430
_cell_length_c   9.52180430
_cell_angle_alpha   90.46174661
_cell_angle_beta   90.00000000
_cell_angle_gamma   90.00000000
_symmetry_Int_Tables_number   1
_chemical_formula_structural   Mg2Sc4B4Ir9Ru
_chemical_formula_sum   'Mg2 Sc4 B4 Ir9 Ru1'
_cell_volume   276.04717876
_cell_formula_units_Z   1
loop_
 _symmetry_equiv_pos_site_id
 _symmetry_equiv_pos_as_xyz
  1  'x, y, z'
loop_
 _atom_site_type_symbol
 _atom_site_label
 _atom_site_symmetry_multiplicity
 _atom_site_fract_x
 _atom_site_fract_y
 _atom_site_fract_z
 _atom_site_occupancy
  Mg  Mg0  1  0.000000  0.000000  0.000000  1
  Mg  Mg1  1  0.000000  0.500000  0.500000  1
  Sc  Sc2  1  0.000000  0.173676  0.673676  1
  Sc  Sc3  1  0.000000  0.826324  0.326324  1
  Sc  Sc4  1  0.000000  0.321006  0.178994  1
  Sc  Sc5  1  0.000000  0.678994  0.821006  1
  B  B6  1  0.000000  0.626131  0.126131  1
  B  B7  1  0.000000  0.373869  0.873869  1
  B  B8  1  0.000000  0.878154  0.621846  1
  B  B9  1  0.000000  0.121846  0.378154  1
  Ir  Ir10  1  0.500000  0.069838  0.220039  1
  Ir  Ir11  1  0.500000  0.930162  0.779961  1
  Ir  Ir12  1  0.500000  0.779918  0.070398  1
  Ir  Ir13  1  0.500000  0.429602  0.720082  1
  Ir  Ir14  1  0.500000  0.220082  0.929602  1
  Ir  Ir15  1  0.500000  0.570398  0.279918  1
  Ir  Ir16  1  0.500000  0.720039  0.569838  1
  Ir  Ir17  1  0.500000  0.279961  0.430162  1
  Ir  Ir18  1  0.500000  0.500000  0.000000  1
  Ru  Ru19  1  0.500000  0.000000  0.500000  1
