# generated using pymatgen
data_Ca2La2CdIr
_symmetry_space_group_name_H-M   'P 1'
_cell_length_a   10.08744442
_cell_length_b   10.08654703
_cell_length_c   10.13750390
_cell_angle_alpha   59.87403238
_cell_angle_beta   59.87419620
_cell_angle_gamma   60.44815753
_symmetry_Int_Tables_number   1
_chemical_formula_structural   Ca2La2CdIr
_chemical_formula_sum   'Ca8 La8 Cd4 Ir4'
_cell_volume   730.38933139
_cell_formula_units_Z   4
loop_
 _symmetry_equiv_pos_site_id
 _symmetry_equiv_pos_as_xyz
  1  'x, y, z'
loop_
 _atom_site_type_symbol
 _atom_site_label
 _atom_site_symmetry_multiplicity
 _atom_site_fract_x
 _atom_site_fract_y
 _atom_site_fract_z
 _atom_site_occupancy
  Ca  Ca0  1  0.194845  0.194937  0.804856  1
  Ca  Ca1  1  0.803166  0.803196  0.196783  1
  Ca  Ca2  1  0.939448  0.561393  0.560766  1
  Ca  Ca3  1  0.559338  0.938930  0.939794  1
  Ca  Ca4  1  0.561358  0.939499  0.560762  1
  Ca  Ca5  1  0.938864  0.559336  0.939838  1
  Ca  Ca6  1  0.556095  0.556083  0.944585  1
  Ca  Ca7  1  0.944526  0.944446  0.555060  1
  La  La8  1  0.344254  0.344262  0.349096  1
  La  La9  1  0.343217  0.343224  0.964939  1
  La  La10  1  0.348769  0.963808  0.343542  1
  La  La11  1  0.963777  0.348737  0.343562  1
  La  La12  1  0.807624  0.190738  0.191770  1
  La  La13  1  0.192599  0.806895  0.808408  1
  La  La14  1  0.190796  0.807618  0.191767  1
  La  La15  1  0.806940  0.192546  0.808366  1
  Cd  Cd16  1  0.579175  0.579202  0.576738  1
  Cd  Cd17  1  0.578760  0.578769  0.264575  1
  Cd  Cd18  1  0.578912  0.265044  0.577814  1
  Cd  Cd19  1  0.265042  0.578928  0.577792  1
  Ir  Ir20  1  0.134119  0.134085  0.151975  1
  Ir  Ir21  1  0.133550  0.133527  0.579798  1
  Ir  Ir22  1  0.154442  0.580362  0.133715  1
  Ir  Ir23  1  0.580383  0.154431  0.133699  1
