# generated using pymatgen
data_ErLu5OsRu
_symmetry_space_group_name_H-M   'P 1'
_cell_length_a   7.34053100
_cell_length_b   8.86505000
_cell_length_c   6.17676300
_cell_angle_alpha   90.00000000
_cell_angle_beta   90.00000000
_cell_angle_gamma   90.00000000
_symmetry_Int_Tables_number   1
_chemical_formula_structural   ErLu5OsRu
_chemical_formula_sum   'Er2 Lu10 Os2 Ru2'
_cell_volume   401.94775233
_cell_formula_units_Z   2
loop_
 _symmetry_equiv_pos_site_id
 _symmetry_equiv_pos_as_xyz
  1  'x, y, z'
loop_
 _atom_site_type_symbol
 _atom_site_label
 _atom_site_symmetry_multiplicity
 _atom_site_fract_x
 _atom_site_fract_y
 _atom_site_fract_z
 _atom_site_occupancy
  Er  Er0  1  0.539857  0.250000  0.874395  1
  Er  Er1  1  0.039857  0.250000  0.625605  1
  Lu  Lu2  1  0.674382  0.061035  0.338264  1
  Lu  Lu3  1  0.174382  0.438965  0.161736  1
  Lu  Lu4  1  0.324819  0.563939  0.664754  1
  Lu  Lu5  1  0.824819  0.936061  0.835246  1
  Lu  Lu6  1  0.324819  0.936061  0.664754  1
  Lu  Lu7  1  0.824819  0.563939  0.835246  1
  Lu  Lu8  1  0.674382  0.438965  0.338264  1
  Lu  Lu9  1  0.174382  0.061035  0.161736  1
  Lu  Lu10  1  0.460598  0.750000  0.128376  1
  Lu  Lu11  1  0.960598  0.750000  0.371624  1
  Os  Os12  1  0.118388  0.750000  0.960740  1
  Os  Os13  1  0.618388  0.750000  0.539260  1
  Ru  Ru14  1  0.882755  0.250000  0.040432  1
  Ru  Ru15  1  0.382755  0.250000  0.459568  1
