# generated using pymatgen
data_LiHf5Ge2(As2Ru3)2
_symmetry_space_group_name_H-M   'P 1'
_cell_length_a   7.65488800
_cell_length_b   7.65773603
_cell_length_c   7.65488881
_cell_angle_alpha   128.07032628
_cell_angle_beta   120.76892601
_cell_angle_gamma   82.62361534
_symmetry_Int_Tables_number   1
_chemical_formula_structural   LiHf5Ge2(As2Ru3)2
_chemical_formula_sum   'Li1 Hf5 Ge2 As4 Ru6'
_cell_volume   291.69585121
_cell_formula_units_Z   1
loop_
 _symmetry_equiv_pos_site_id
 _symmetry_equiv_pos_as_xyz
  1  'x, y, z'
loop_
 _atom_site_type_symbol
 _atom_site_label
 _atom_site_symmetry_multiplicity
 _atom_site_fract_x
 _atom_site_fract_y
 _atom_site_fract_z
 _atom_site_occupancy
  Li  Li0  1  0.478577  0.717576  0.738999  1
  Hf  Hf1  1  0.524410  0.257566  0.233157  1
  Hf  Hf2  1  0.750132  0.833991  0.583860  1
  Hf  Hf3  1  0.248894  0.834576  0.085680  1
  Hf  Hf4  1  0.053710  0.255574  0.701864  1
  Hf  Hf5  1  0.946034  0.646619  0.200585  1
  Ge  Ge6  1  0.287781  0.291216  0.503436  1
  Ge  Ge7  1  0.719762  0.216250  0.996488  1
  As  As8  1  0.330844  0.589333  0.260072  1
  As  As9  1  0.667304  0.913546  0.244869  1
  As  As10  1  0.168676  0.913546  0.746241  1
  As  As11  1  0.829261  0.589333  0.758489  1
  Ru  Ru12  1  0.497259  0.494816  0.998718  1
  Ru  Ru13  1  0.996099  0.494816  0.497557  1
  Ru  Ru14  1  0.089085  0.246022  0.091403  1
  Ru  Ru15  1  0.913247  0.009400  0.165092  1
  Ru  Ru16  1  0.344308  0.009400  0.596153  1
  Ru  Ru17  1  0.654618  0.246022  0.656936  1
