# generated using pymatgen
data_DyZn3InRu
_symmetry_space_group_name_H-M   'P 1'
_cell_length_a   5.30252008
_cell_length_b   5.30251876
_cell_length_c   5.32300854
_cell_angle_alpha   60.12723918
_cell_angle_beta   60.12725607
_cell_angle_gamma   59.99998638
_symmetry_Int_Tables_number   1
_chemical_formula_structural   DyZn3InRu
_chemical_formula_sum   'Dy1 Zn3 In1 Ru1'
_cell_volume   106.03256877
_cell_formula_units_Z   1
loop_
 _symmetry_equiv_pos_site_id
 _symmetry_equiv_pos_as_xyz
  1  'x, y, z'
loop_
 _atom_site_type_symbol
 _atom_site_label
 _atom_site_symmetry_multiplicity
 _atom_site_fract_x
 _atom_site_fract_y
 _atom_site_fract_z
 _atom_site_occupancy
  Dy  Dy0  1  0.997632  0.997632  0.007103  1
  Zn  Zn1  1  0.625380  0.124424  0.624816  1
  Zn  Zn2  1  0.124424  0.625380  0.624816  1
  Zn  Zn3  1  0.625380  0.625380  0.624816  1
  In  In4  1  0.252430  0.252430  0.242710  1
  Ru  Ru5  1  0.624754  0.624754  0.125739  1
