# generated using pymatgen
data_Nd5Si2SnO
_symmetry_space_group_name_H-M   'P 1'
_cell_length_a   9.13606406
_cell_length_b   9.13606435
_cell_length_c   9.13602328
_cell_angle_alpha   126.98800638
_cell_angle_beta   126.98799904
_cell_angle_gamma   78.27038359
_symmetry_Int_Tables_number   1
_chemical_formula_structural   Nd5Si2SnO
_chemical_formula_sum   'Nd10 Si4 Sn2 O2'
_cell_volume   471.24146147
_cell_formula_units_Z   2
loop_
 _symmetry_equiv_pos_site_id
 _symmetry_equiv_pos_as_xyz
  1  'x, y, z'
loop_
 _atom_site_type_symbol
 _atom_site_label
 _atom_site_symmetry_multiplicity
 _atom_site_fract_x
 _atom_site_fract_y
 _atom_site_fract_z
 _atom_site_occupancy
  Nd  Nd0  1  0.490249  0.297281  0.500002  1
  Nd  Nd1  1  0.797281  0.990249  0.500002  1
  Nd  Nd2  1  0.990250  0.490250  0.192970  1
  Nd  Nd3  1  0.297280  0.797280  0.807029  1
  Nd  Nd4  1  0.511963  0.705004  0.499999  1
  Nd  Nd5  1  0.205004  0.011963  0.499999  1
  Nd  Nd6  1  0.011961  0.511961  0.806956  1
  Nd  Nd7  1  0.705004  0.205004  0.193042  1
  Nd  Nd8  1  0.502435  0.502435  0.000001  1
  Nd  Nd9  1  0.002435  0.002435  0.000001  1
  Si  Si10  1  0.138464  0.363422  0.500000  1
  Si  Si11  1  0.863422  0.638464  0.500000  1
  Si  Si12  1  0.638464  0.138464  0.775042  1
  Si  Si13  1  0.363422  0.863422  0.224958  1
  Sn  Sn14  1  0.751640  0.751640  0.000001  1
  Sn  Sn15  1  0.251640  0.251640  0.000001  1
  O  O16  1  0.750960  0.250960  0.499996  1
  O  O17  1  0.250966  0.750966  0.499999  1
