# generated using pymatgen
data_LiCo3N2
_symmetry_space_group_name_H-M   'P 1'
_cell_length_a   2.79710900
_cell_length_b   4.36218099
_cell_length_c   4.75275703
_cell_angle_alpha   96.48993657
_cell_angle_beta   90.00000000
_cell_angle_gamma   90.00000000
_symmetry_Int_Tables_number   1
_chemical_formula_structural   LiCo3N2
_chemical_formula_sum   'Li1 Co3 N2'
_cell_volume   57.61912374
_cell_formula_units_Z   1
loop_
 _symmetry_equiv_pos_site_id
 _symmetry_equiv_pos_as_xyz
  1  'x, y, z'
loop_
 _atom_site_type_symbol
 _atom_site_label
 _atom_site_symmetry_multiplicity
 _atom_site_fract_x
 _atom_site_fract_y
 _atom_site_fract_z
 _atom_site_occupancy
  Li  Li0  1  0.500000  0.226925  0.818745  1
  Co  Co1  1  0.500000  0.762831  0.170613  1
  Co  Co2  1  0.000000  0.289964  0.312340  1
  Co  Co3  1  0.000000  0.712625  0.696413  1
  N  N4  1  0.500000  0.533494  0.476336  1
  N  N5  1  0.000000  0.974161  0.025553  1
