# generated using pymatgen
data_CaThB8
_symmetry_space_group_name_H-M   'P 1'
_cell_length_a   7.20201607
_cell_length_b   7.20201565
_cell_length_c   4.09956900
_cell_angle_alpha   90.00000000
_cell_angle_beta   90.00000000
_cell_angle_gamma   91.07520293
_symmetry_Int_Tables_number   1
_chemical_formula_structural   CaThB8
_chemical_formula_sum   'Ca2 Th2 B16'
_cell_volume   212.60323730
_cell_formula_units_Z   2
loop_
 _symmetry_equiv_pos_site_id
 _symmetry_equiv_pos_as_xyz
  1  'x, y, z'
loop_
 _atom_site_type_symbol
 _atom_site_label
 _atom_site_symmetry_multiplicity
 _atom_site_fract_x
 _atom_site_fract_y
 _atom_site_fract_z
 _atom_site_occupancy
  Ca  Ca0  1  0.682189  0.317811  0.000000  1
  Ca  Ca1  1  0.317811  0.682189  0.000000  1
  Th  Th2  1  0.814449  0.814449  0.000000  1
  Th  Th3  1  0.185551  0.185551  0.000000  1
  B  B4  1  0.000000  0.500000  0.796327  1
  B  B5  1  0.500000  0.000000  0.796327  1
  B  B6  1  0.000000  0.500000  0.203673  1
  B  B7  1  0.500000  0.000000  0.203673  1
  B  B8  1  0.038642  0.674851  0.500000  1
  B  B9  1  0.961358  0.325149  0.500000  1
  B  B10  1  0.462683  0.175763  0.500000  1
  B  B11  1  0.537317  0.824237  0.500000  1
  B  B12  1  0.175763  0.462683  0.500000  1
  B  B13  1  0.824237  0.537317  0.500000  1
  B  B14  1  0.674851  0.038642  0.500000  1
  B  B15  1  0.325149  0.961358  0.500000  1
  B  B16  1  0.588709  0.588709  0.500000  1
  B  B17  1  0.411291  0.411291  0.500000  1
  B  B18  1  0.913319  0.086681  0.500000  1
  B  B19  1  0.086681  0.913319  0.500000  1
