# generated using pymatgen
data_CaNd(AlAu)2
_symmetry_space_group_name_H-M   'P 1'
_cell_length_a   4.57046300
_cell_length_b   7.42913000
_cell_length_c   7.81356000
_cell_angle_alpha   90.00000000
_cell_angle_beta   90.00000000
_cell_angle_gamma   90.00000000
_symmetry_Int_Tables_number   1
_chemical_formula_structural   CaNd(AlAu)2
_chemical_formula_sum   'Ca2 Nd2 Al4 Au4'
_cell_volume   265.30602143
_cell_formula_units_Z   2
loop_
 _symmetry_equiv_pos_site_id
 _symmetry_equiv_pos_as_xyz
  1  'x, y, z'
loop_
 _atom_site_type_symbol
 _atom_site_label
 _atom_site_symmetry_multiplicity
 _atom_site_fract_x
 _atom_site_fract_y
 _atom_site_fract_z
 _atom_site_occupancy
  Ca  Ca0  1  0.750000  0.991610  0.696392  1
  Ca  Ca1  1  0.750000  0.491610  0.803608  1
  Nd  Nd2  1  0.250000  0.012091  0.315770  1
  Nd  Nd3  1  0.250000  0.512091  0.184230  1
  Al  Al4  1  0.750000  0.833175  0.077258  1
  Al  Al5  1  0.250000  0.165496  0.926206  1
  Al  Al6  1  0.250000  0.665496  0.573794  1
  Al  Al7  1  0.750000  0.333175  0.422742  1
  Au  Au8  1  0.250000  0.792417  0.893811  1
  Au  Au9  1  0.750000  0.205210  0.094852  1
  Au  Au10  1  0.750000  0.705210  0.405148  1
  Au  Au11  1  0.250000  0.292417  0.606189  1
