# generated using pymatgen
data_YbHo3Mg4(B6Os)4
_symmetry_space_group_name_H-M   'P 1'
_cell_length_a   3.56086800
_cell_length_b   8.89705505
_cell_length_c   11.25873563
_cell_angle_alpha   89.95810276
_cell_angle_beta   90.00000000
_cell_angle_gamma   90.00000000
_symmetry_Int_Tables_number   1
_chemical_formula_structural   YbHo3Mg4(B6Os)4
_chemical_formula_sum   'Yb1 Ho3 Mg4 B24 Os4'
_cell_volume   356.69059459
_cell_formula_units_Z   1
loop_
 _symmetry_equiv_pos_site_id
 _symmetry_equiv_pos_as_xyz
  1  'x, y, z'
loop_
 _atom_site_type_symbol
 _atom_site_label
 _atom_site_symmetry_multiplicity
 _atom_site_fract_x
 _atom_site_fract_y
 _atom_site_fract_z
 _atom_site_occupancy
  Yb  Yb0  1  0.000000  0.322406  0.413506  1
  Ho  Ho1  1  0.000000  0.675715  0.585261  1
  Ho  Ho2  1  0.000000  0.823266  0.087031  1
  Ho  Ho3  1  0.000000  0.176802  0.913618  1
  Mg  Mg4  1  0.000000  0.944642  0.372625  1
  Mg  Mg5  1  0.000000  0.057042  0.626406  1
  Mg  Mg6  1  0.000000  0.443163  0.129888  1
  Mg  Mg7  1  0.000000  0.555453  0.872642  1
  B  B8  1  0.500000  0.554597  0.432136  1
  B  B9  1  0.500000  0.444876  0.567341  1
  B  B10  1  0.500000  0.055292  0.066884  1
  B  B11  1  0.500000  0.944559  0.932477  1
  B  B12  1  0.500000  0.755228  0.417773  1
  B  B13  1  0.500000  0.245096  0.581797  1
  B  B14  1  0.500000  0.255437  0.082176  1
  B  B15  1  0.500000  0.744432  0.918174  1
  B  B16  1  0.500000  0.794343  0.263067  1
  B  B17  1  0.500000  0.206567  0.737117  1
  B  B18  1  0.500000  0.293787  0.236833  1
  B  B19  1  0.500000  0.706128  0.763241  1
  B  B20  1  0.500000  0.628163  0.182678  1
  B  B21  1  0.500000  0.372142  0.818236  1
  B  B22  1  0.500000  0.128607  0.317531  1
  B  B23  1  0.500000  0.871962  0.682100  1
  B  B24  1  0.500000  0.980305  0.212823  1
  B  B25  1  0.500000  0.019686  0.786513  1
  B  B26  1  0.500000  0.479706  0.287392  1
  B  B27  1  0.500000  0.519539  0.713114  1
  B  B28  1  0.500000  0.592826  0.025727  1
  B  B29  1  0.500000  0.407434  0.974981  1
  B  B30  1  0.500000  0.092815  0.474583  1
  B  B31  1  0.500000  0.907763  0.525083  1
  Os  Os32  1  0.000000  0.641456  0.317958  1
  Os  Os33  1  0.000000  0.359980  0.682073  1
  Os  Os34  1  0.000000  0.138605  0.180886  1
  Os  Os35  1  0.000000  0.860180  0.818332  1
