# generated using pymatgen
data_Ce7HoEr2(SiB4)4
_symmetry_space_group_name_H-M   'P 1'
_cell_length_a   7.30951122
_cell_length_b   7.30951148
_cell_length_c   8.24879800
_cell_angle_alpha   89.98634358
_cell_angle_beta   90.01365599
_cell_angle_gamma   90.04980121
_symmetry_Int_Tables_number   1
_chemical_formula_structural   Ce7HoEr2(SiB4)4
_chemical_formula_sum   'Ce7 Ho1 Er2 Si4 B16'
_cell_volume   440.72447538
_cell_formula_units_Z   1
loop_
 _symmetry_equiv_pos_site_id
 _symmetry_equiv_pos_as_xyz
  1  'x, y, z'
loop_
 _atom_site_type_symbol
 _atom_site_label
 _atom_site_symmetry_multiplicity
 _atom_site_fract_x
 _atom_site_fract_y
 _atom_site_fract_z
 _atom_site_occupancy
  Ce  Ce0  1  0.682319  0.182577  0.227201  1
  Ce  Ce1  1  0.317595  0.817498  0.772918  1
  Ce  Ce2  1  0.317423  0.817681  0.227201  1
  Ce  Ce3  1  0.817658  0.682342  0.227012  1
  Ce  Ce4  1  0.818567  0.681433  0.772869  1
  Ce  Ce5  1  0.682502  0.182405  0.772918  1
  Ce  Ce6  1  0.181734  0.318266  0.774086  1
  Ho  Ho7  1  0.181646  0.318354  0.218861  1
  Er  Er8  1  0.000911  0.000434  0.498475  1
  Er  Er9  1  0.499566  0.499089  0.498475  1
  Si  Si10  1  0.116107  0.614455  0.498718  1
  Si  Si11  1  0.885545  0.383893  0.498718  1
  Si  Si12  1  0.383356  0.116644  0.498517  1
  Si  Si13  1  0.614551  0.885449  0.499285  1
  B  B14  1  0.173062  0.039403  0.000642  1
  B  B15  1  0.827735  0.961626  0.001370  1
  B  B16  1  0.960938  0.172867  0.000467  1
  B  B17  1  0.327133  0.539062  0.000467  1
  B  B18  1  0.039652  0.827771  0.001326  1
  B  B19  1  0.672229  0.460348  0.001326  1
  B  B20  1  0.538374  0.672265  0.001370  1
  B  B21  1  0.460597  0.326938  0.000642  1
  B  B22  1  0.091615  0.591143  0.001379  1
  B  B23  1  0.908857  0.408385  0.001379  1
  B  B24  1  0.408889  0.091111  0.000086  1
  B  B25  1  0.591175  0.908825  0.000762  1
  B  B26  1  0.000788  0.999993  0.160416  1
  B  B27  1  0.000003  0.000536  0.841349  1
  B  B28  1  0.499464  0.499997  0.841349  1
  B  B29  1  0.500007  0.499212  0.160416  1
