# generated using pymatgen
data_Np7PaSe12
_symmetry_space_group_name_H-M   'P 1'
_cell_length_a   4.06886000
_cell_length_b   7.68447695
_cell_length_c   15.93732200
_cell_angle_alpha   90.57647358
_cell_angle_beta   90.00000000
_cell_angle_gamma   90.00000000
_symmetry_Int_Tables_number   1
_chemical_formula_structural   Np7PaSe12
_chemical_formula_sum   'Np7 Pa1 Se12'
_cell_volume   498.28799515
_cell_formula_units_Z   1
loop_
 _symmetry_equiv_pos_site_id
 _symmetry_equiv_pos_as_xyz
  1  'x, y, z'
loop_
 _atom_site_type_symbol
 _atom_site_label
 _atom_site_symmetry_multiplicity
 _atom_site_fract_x
 _atom_site_fract_y
 _atom_site_fract_z
 _atom_site_occupancy
  Np  Np0  1  0.000000  0.122370  0.211474  1
  Np  Np1  1  0.000000  0.627897  0.293889  1
  Np  Np2  1  0.499999  0.236006  0.458707  1
  Np  Np3  1  0.000000  0.759318  0.541514  1
  Np  Np4  1  0.499999  0.368742  0.708719  1
  Np  Np5  1  0.499999  0.875362  0.789009  1
  Np  Np6  1  0.000000  0.260464  0.958248  1
  Pa  Pa7  1  0.499999  0.743028  0.039271  1
  Se  Se8  1  0.499999  0.127755  0.071526  1
  Se  Se9  1  0.000000  0.514286  0.104981  1
  Se  Se10  1  0.499999  0.843073  0.218674  1
  Se  Se11  1  0.499999  0.345637  0.280274  1
  Se  Se12  1  0.000000  0.001301  0.392143  1
  Se  Se13  1  0.499999  0.624867  0.429640  1
  Se  Se14  1  0.000000  0.373285  0.570618  1
  Se  Se15  1  0.499999  0.995772  0.607623  1
  Se  Se16  1  0.000000  0.651387  0.719931  1
  Se  Se17  1  0.000000  0.155585  0.779980  1
  Se  Se18  1  0.499999  0.499996  0.895070  1
  Se  Se19  1  0.000000  0.873851  0.928708  1
