# generated using pymatgen
data_Dy5Ho6Lu5(CdPt)4
_symmetry_space_group_name_H-M   'P 1'
_cell_length_a   9.63021676
_cell_length_b   9.60180392
_cell_length_c   9.60180409
_cell_angle_alpha   59.92276230
_cell_angle_beta   59.90205642
_cell_angle_gamma   59.90206128
_symmetry_Int_Tables_number   1
_chemical_formula_structural   Dy5Ho6Lu5(CdPt)4
_chemical_formula_sum   'Dy5 Ho6 Lu5 Cd4 Pt4'
_cell_volume   626.51118848
_cell_formula_units_Z   1
loop_
 _symmetry_equiv_pos_site_id
 _symmetry_equiv_pos_as_xyz
  1  'x, y, z'
loop_
 _atom_site_type_symbol
 _atom_site_label
 _atom_site_symmetry_multiplicity
 _atom_site_fract_x
 _atom_site_fract_y
 _atom_site_fract_z
 _atom_site_occupancy
  Dy  Dy0  1  0.600864  0.603204  0.603204  1
  Dy  Dy1  1  0.602741  0.604231  0.190287  1
  Dy  Dy2  1  0.602741  0.190287  0.604231  1
  Dy  Dy3  1  0.192728  0.603204  0.603204  1
  Dy  Dy4  1  0.061530  0.438470  0.438470  1
  Ho  Ho5  1  0.184867  0.815133  0.815133  1
  Ho  Ho6  1  0.814054  0.185946  0.185946  1
  Ho  Ho7  1  0.813982  0.185183  0.815340  1
  Ho  Ho8  1  0.185495  0.815340  0.185183  1
  Ho  Ho9  1  0.813982  0.815340  0.185183  1
  Ho  Ho10  1  0.185495  0.185183  0.815340  1
  Lu  Lu11  1  0.437665  0.062335  0.062335  1
  Lu  Lu12  1  0.439063  0.061277  0.437761  1
  Lu  Lu13  1  0.061900  0.437761  0.061277  1
  Lu  Lu14  1  0.439063  0.437761  0.061277  1
  Lu  Lu15  1  0.061900  0.061277  0.437761  1
  Cd  Cd16  1  0.832395  0.831662  0.831662  1
  Cd  Cd17  1  0.832123  0.831837  0.503917  1
  Cd  Cd18  1  0.832123  0.503917  0.831837  1
  Cd  Cd19  1  0.504281  0.831662  0.831662  1
  Pt  Pt20  1  0.395115  0.391379  0.391379  1
  Pt  Pt21  1  0.391885  0.391430  0.824800  1
  Pt  Pt22  1  0.391885  0.824800  0.391430  1
  Pt  Pt23  1  0.822126  0.391379  0.391379  1
