# generated using pymatgen
data_Ho10Sn3Bi3Se2
_symmetry_space_group_name_H-M   'P 1'
_cell_length_a   9.15548300
_cell_length_b   9.15548250
_cell_length_c   6.64264000
_cell_angle_alpha   90.00000000
_cell_angle_beta   90.00000000
_cell_angle_gamma   120.00000541
_symmetry_Int_Tables_number   1
_chemical_formula_structural   Ho10Sn3Bi3Se2
_chemical_formula_sum   'Ho10 Sn3 Bi3 Se2'
_cell_volume   482.20734576
_cell_formula_units_Z   1
loop_
 _symmetry_equiv_pos_site_id
 _symmetry_equiv_pos_as_xyz
  1  'x, y, z'
loop_
 _atom_site_type_symbol
 _atom_site_label
 _atom_site_symmetry_multiplicity
 _atom_site_fract_x
 _atom_site_fract_y
 _atom_site_fract_z
 _atom_site_occupancy
  Ho  Ho0  1  0.666667  0.333333  0.005015  1
  Ho  Ho1  1  0.333333  0.666667  0.005015  1
  Ho  Ho2  1  0.333333  0.666667  0.494985  1
  Ho  Ho3  1  0.666667  0.333333  0.494985  1
  Ho  Ho4  1  0.746948  0.746948  0.750000  1
  Ho  Ho5  1  0.253052  0.000000  0.750000  1
  Ho  Ho6  1  0.000000  0.253052  0.750000  1
  Ho  Ho7  1  0.253925  0.253925  0.250000  1
  Ho  Ho8  1  0.746075  0.000000  0.250000  1
  Ho  Ho9  1  0.000000  0.746075  0.250000  1
  Sn  Sn10  1  0.605080  0.605080  0.250000  1
  Sn  Sn11  1  0.394920  0.000000  0.250000  1
  Sn  Sn12  1  0.000000  0.394920  0.250000  1
  Bi  Bi13  1  0.395933  0.395933  0.750000  1
  Bi  Bi14  1  0.604067  0.000000  0.750000  1
  Bi  Bi15  1  0.000000  0.604067  0.750000  1
  Se  Se16  1  0.000000  0.000000  0.999285  1
  Se  Se17  1  0.000000  0.000000  0.500715  1
