# generated using pymatgen
data_Pr5Y3(Lu3Si4)4
_symmetry_space_group_name_H-M   'P 1'
_cell_length_a   7.37077500
_cell_length_b   7.66976628
_cell_length_c   14.53699807
_cell_angle_alpha   90.08647603
_cell_angle_beta   90.05888262
_cell_angle_gamma   90.08489918
_symmetry_Int_Tables_number   1
_chemical_formula_structural   Pr5Y3(Lu3Si4)4
_chemical_formula_sum   'Pr5 Y3 Lu12 Si16'
_cell_volume   821.80506839
_cell_formula_units_Z   1
loop_
 _symmetry_equiv_pos_site_id
 _symmetry_equiv_pos_as_xyz
  1  'x, y, z'
loop_
 _atom_site_type_symbol
 _atom_site_label
 _atom_site_symmetry_multiplicity
 _atom_site_fract_x
 _atom_site_fract_y
 _atom_site_fract_z
 _atom_site_occupancy
  Pr  Pr0  1  0.485577  0.673645  0.596024  1
  Pr  Pr1  1  0.985980  0.825702  0.597275  1
  Pr  Pr2  1  0.985996  0.825138  0.901774  1
  Pr  Pr3  1  0.513253  0.325697  0.097667  1
  Pr  Pr4  1  0.014541  0.174042  0.097902  1
  Y  Y5  1  0.014559  0.177136  0.400557  1
  Y  Y6  1  0.514895  0.323019  0.400630  1
  Y  Y7  1  0.485997  0.676182  0.900677  1
  Lu  Lu8  1  0.328456  0.177604  0.623694  1
  Lu  Lu9  1  0.671566  0.823783  0.376529  1
  Lu  Lu10  1  0.660949  0.993072  0.750554  1
  Lu  Lu11  1  0.171246  0.676579  0.376564  1
  Lu  Lu12  1  0.827697  0.324443  0.876752  1
  Lu  Lu13  1  0.828192  0.322431  0.623509  1
  Lu  Lu14  1  0.839148  0.492665  0.251124  1
  Lu  Lu15  1  0.338955  0.007572  0.250888  1
  Lu  Lu16  1  0.329167  0.177101  0.876299  1
  Lu  Lu17  1  0.172531  0.676548  0.124482  1
  Lu  Lu18  1  0.671183  0.822158  0.124736  1
  Lu  Lu19  1  0.161387  0.507312  0.750296  1
  Si  Si20  1  0.285773  0.876316  0.751214  1
  Si  Si21  1  0.466630  0.617011  0.251082  1
  Si  Si22  1  0.033951  0.120410  0.749710  1
  Si  Si23  1  0.533868  0.383396  0.750557  1
  Si  Si24  1  0.152355  0.461986  0.537571  1
  Si  Si25  1  0.966616  0.882863  0.251043  1
  Si  Si26  1  0.717170  0.124663  0.253316  1
  Si  Si27  1  0.846024  0.534839  0.039182  1
  Si  Si28  1  0.348042  0.962134  0.037988  1
  Si  Si29  1  0.157784  0.467855  0.960199  1
  Si  Si30  1  0.653089  0.037941  0.537431  1
  Si  Si31  1  0.343938  0.970865  0.458908  1
  Si  Si32  1  0.843858  0.529310  0.458834  1
  Si  Si33  1  0.780527  0.622056  0.751655  1
  Si  Si34  1  0.217061  0.375213  0.253166  1
  Si  Si35  1  0.652038  0.031314  0.960213  1
