# generated using pymatgen
data_Mg5Si16Pd8RuPt
_symmetry_space_group_name_H-M   'P 1'
_cell_length_a   8.92260770
_cell_length_b   8.92431338
_cell_length_c   8.94465429
_cell_angle_alpha   59.89579944
_cell_angle_beta   59.90455113
_cell_angle_gamma   60.15393933
_symmetry_Int_Tables_number   1
_chemical_formula_structural   Mg5Si16Pd8RuPt
_chemical_formula_sum   'Mg5 Si16 Pd8 Ru1 Pt1'
_cell_volume   503.45354969
_cell_formula_units_Z   1
loop_
 _symmetry_equiv_pos_site_id
 _symmetry_equiv_pos_as_xyz
  1  'x, y, z'
loop_
 _atom_site_type_symbol
 _atom_site_label
 _atom_site_symmetry_multiplicity
 _atom_site_fract_x
 _atom_site_fract_y
 _atom_site_fract_z
 _atom_site_occupancy
  Mg  Mg0  1  0.198045  0.602768  0.599623  1
  Mg  Mg1  1  0.600121  0.600017  0.200805  1
  Mg  Mg2  1  0.600281  0.600040  0.599324  1
  Mg  Mg3  1  0.603074  0.197685  0.599724  1
  Mg  Mg4  1  0.244766  0.244951  0.255039  1
  Si  Si5  1  0.205551  0.662863  0.204821  1
  Si  Si6  1  0.928305  0.664997  0.203486  1
  Si  Si7  1  0.200797  0.200440  0.666775  1
  Si  Si8  1  0.662575  0.205752  0.205110  1
  Si  Si9  1  0.926224  0.199330  0.660028  1
  Si  Si10  1  0.205692  0.662616  0.926923  1
  Si  Si11  1  0.925547  0.199689  0.214952  1
  Si  Si12  1  0.664904  0.928000  0.203594  1
  Si  Si13  1  0.199715  0.925466  0.214730  1
  Si  Si14  1  0.199974  0.925369  0.659834  1
  Si  Si15  1  0.536241  0.822911  0.820811  1
  Si  Si16  1  0.828743  0.829596  0.812558  1
  Si  Si17  1  0.662695  0.205422  0.927443  1
  Si  Si18  1  0.829800  0.829533  0.527331  1
  Si  Si19  1  0.822383  0.538246  0.819149  1
  Si  Si20  1  0.200658  0.200533  0.932105  1
  Pd  Pd21  1  0.985822  0.513624  0.986503  1
  Pd  Pd22  1  0.377177  0.377122  0.864954  1
  Pd  Pd23  1  0.376622  0.377914  0.380256  1
  Pd  Pd24  1  0.860162  0.385325  0.377312  1
  Pd  Pd25  1  0.986290  0.513382  0.513524  1
  Pd  Pd26  1  0.513205  0.513480  0.986688  1
  Pd  Pd27  1  0.384986  0.860337  0.376538  1
  Pd  Pd28  1  0.513172  0.986181  0.986757  1
  Ru  Ru29  1  0.991823  0.991505  0.508295  1
  Pt  Pt30  1  0.514646  0.984903  0.515008  1
