# generated using pymatgen
data_Ho4TmBi3C
_symmetry_space_group_name_H-M   'P 1'
_cell_length_a   6.45509800
_cell_length_b   9.10494012
_cell_length_c   9.10833604
_cell_angle_alpha   120.02864029
_cell_angle_beta   89.99906403
_cell_angle_gamma   90.00136074
_symmetry_Int_Tables_number   1
_chemical_formula_structural   Ho4TmBi3C
_chemical_formula_sum   'Ho8 Tm2 Bi6 C2'
_cell_volume   463.47274631
_cell_formula_units_Z   2
loop_
 _symmetry_equiv_pos_site_id
 _symmetry_equiv_pos_as_xyz
  1  'x, y, z'
loop_
 _atom_site_type_symbol
 _atom_site_label
 _atom_site_symmetry_multiplicity
 _atom_site_fract_x
 _atom_site_fract_y
 _atom_site_fract_z
 _atom_site_occupancy
  Ho  Ho0  1  0.500015  0.333307  0.666696  1
  Ho  Ho1  1  0.499975  0.666702  0.333287  1
  Ho  Ho2  1  0.000027  0.666682  0.333263  1
  Ho  Ho3  1  0.999990  0.333314  0.666699  1
  Ho  Ho4  1  0.749991  0.999837  0.207414  1
  Ho  Ho5  1  0.250008  0.792109  0.999637  1
  Ho  Ho6  1  0.249993  0.208091  0.207546  1
  Ho  Ho7  1  0.249998  0.000165  0.792028  1
  Tm  Tm8  1  0.750000  0.204240  0.999752  1
  Tm  Tm9  1  0.750003  0.795547  0.795405  1
  Bi  Bi10  1  0.750005  0.598451  0.999425  1
  Bi  Bi11  1  0.749998  0.401617  0.401099  1
  Bi  Bi12  1  0.749992  0.999955  0.599596  1
  Bi  Bi13  1  0.250005  0.401329  0.000097  1
  Bi  Bi14  1  0.249999  0.598631  0.598678  1
  Bi  Bi15  1  0.250007  0.000048  0.401226  1
  C  C16  1  0.501651  0.999986  0.999075  1
  C  C17  1  0.998345  0.999990  0.999079  1
