# generated using pymatgen
data_Rh4Pb4O13
_symmetry_space_group_name_H-M   'P 1'
_cell_length_a   7.28132119
_cell_length_b   7.28132069
_cell_length_c   7.28132046
_cell_angle_alpha   60.17439981
_cell_angle_beta   60.17440161
_cell_angle_gamma   60.17441074
_symmetry_Int_Tables_number   1
_chemical_formula_structural   Rh4Pb4O13
_chemical_formula_sum   'Rh4 Pb4 O13'
_cell_volume   274.04854163
_cell_formula_units_Z   1
loop_
 _symmetry_equiv_pos_site_id
 _symmetry_equiv_pos_as_xyz
  1  'x, y, z'
loop_
 _atom_site_type_symbol
 _atom_site_label
 _atom_site_symmetry_multiplicity
 _atom_site_fract_x
 _atom_site_fract_y
 _atom_site_fract_z
 _atom_site_occupancy
  Rh  Rh0  1  0.000467  0.499909  0.499909  1
  Rh  Rh1  1  0.499909  0.499909  0.000467  1
  Rh  Rh2  1  0.499909  0.000467  0.499909  1
  Rh  Rh3  1  0.499847  0.499847  0.499847  1
  Pb  Pb4  1  0.997052  0.997052  0.997052  1
  Pb  Pb5  1  0.506684  0.997975  0.997975  1
  Pb  Pb6  1  0.997975  0.997975  0.506684  1
  Pb  Pb7  1  0.997975  0.506684  0.997975  1
  O  O8  1  0.831367  0.418565  0.418565  1
  O  O9  1  0.418635  0.830625  0.830625  1
  O  O10  1  0.418565  0.418565  0.831367  1
  O  O11  1  0.830625  0.830625  0.418635  1
  O  O12  1  0.830625  0.418635  0.830625  1
  O  O13  1  0.418565  0.831367  0.418565  1
  O  O14  1  0.170864  0.579366  0.579366  1
  O  O15  1  0.579452  0.171508  0.171508  1
  O  O16  1  0.579366  0.579366  0.170864  1
  O  O17  1  0.171508  0.171508  0.579452  1
  O  O18  1  0.171508  0.579452  0.171508  1
  O  O19  1  0.579366  0.170864  0.579366  1
  O  O20  1  0.124735  0.124735  0.124735  1
