# generated using pymatgen
data_Sr2(CaBi)3
_symmetry_space_group_name_H-M   'P 1'
_cell_length_a   8.67686300
_cell_length_b   9.98422600
_cell_length_c   13.24103200
_cell_angle_alpha   90.00000000
_cell_angle_beta   90.00000000
_cell_angle_gamma   90.00000000
_symmetry_Int_Tables_number   1
_chemical_formula_structural   Sr2(CaBi)3
_chemical_formula_sum   'Sr8 Ca12 Bi12'
_cell_volume   1147.09392178
_cell_formula_units_Z   4
loop_
 _symmetry_equiv_pos_site_id
 _symmetry_equiv_pos_as_xyz
  1  'x, y, z'
loop_
 _atom_site_type_symbol
 _atom_site_label
 _atom_site_symmetry_multiplicity
 _atom_site_fract_x
 _atom_site_fract_y
 _atom_site_fract_z
 _atom_site_occupancy
  Sr  Sr0  1  0.681412  0.750000  0.229533  1
  Sr  Sr1  1  0.181412  0.250000  0.270467  1
  Sr  Sr2  1  0.318588  0.250000  0.770467  1
  Sr  Sr3  1  0.818588  0.750000  0.729533  1
  Sr  Sr4  1  0.155889  0.750000  0.291034  1
  Sr  Sr5  1  0.655889  0.250000  0.208966  1
  Sr  Sr6  1  0.844111  0.250000  0.708966  1
  Sr  Sr7  1  0.344111  0.750000  0.791034  1
  Ca  Ca8  1  0.307662  0.958215  0.073875  1
  Ca  Ca9  1  0.807662  0.041785  0.426125  1
  Ca  Ca10  1  0.692338  0.458215  0.926125  1
  Ca  Ca11  1  0.192338  0.541785  0.573875  1
  Ca  Ca12  1  0.692338  0.041785  0.926125  1
  Ca  Ca13  1  0.192338  0.958215  0.573875  1
  Ca  Ca14  1  0.307662  0.541785  0.073875  1
  Ca  Ca15  1  0.807662  0.458215  0.426125  1
  Ca  Ca16  1  0.534753  0.750000  0.504777  1
  Ca  Ca17  1  0.034753  0.250000  0.995223  1
  Ca  Ca18  1  0.465247  0.250000  0.495223  1
  Ca  Ca19  1  0.965247  0.750000  0.004777  1
  Bi  Bi20  1  0.941003  0.010420  0.165935  1
  Bi  Bi21  1  0.441003  0.989580  0.334065  1
  Bi  Bi22  1  0.058997  0.510420  0.834065  1
  Bi  Bi23  1  0.558997  0.489580  0.665935  1
  Bi  Bi24  1  0.058997  0.989580  0.834065  1
  Bi  Bi25  1  0.558997  0.010420  0.665935  1
  Bi  Bi26  1  0.941003  0.489580  0.165935  1
  Bi  Bi27  1  0.441003  0.510420  0.334065  1
  Bi  Bi28  1  0.580276  0.750000  0.984106  1
  Bi  Bi29  1  0.080276  0.250000  0.515894  1
  Bi  Bi30  1  0.419724  0.250000  0.015894  1
  Bi  Bi31  1  0.919724  0.750000  0.484106  1
