# generated using pymatgen
data_Sr5CdPt2
_symmetry_space_group_name_H-M   'P 1'
_cell_length_a   8.34317723
_cell_length_b   8.34287270
_cell_length_c   9.78867113
_cell_angle_alpha   115.26861041
_cell_angle_beta   115.22443411
_cell_angle_gamma   90.00001193
_symmetry_Int_Tables_number   1
_chemical_formula_structural   Sr5CdPt2
_chemical_formula_sum   'Sr10 Cd2 Pt4'
_cell_volume   543.44796961
_cell_formula_units_Z   2
loop_
 _symmetry_equiv_pos_site_id
 _symmetry_equiv_pos_as_xyz
  1  'x, y, z'
loop_
 _atom_site_type_symbol
 _atom_site_label
 _atom_site_symmetry_multiplicity
 _atom_site_fract_x
 _atom_site_fract_y
 _atom_site_fract_z
 _atom_site_occupancy
  Sr  Sr0  1  0.000000  0.000000  0.000000  1
  Sr  Sr1  1  0.500000  0.500000  0.000000  1
  Sr  Sr2  1  0.464490  0.297188  0.261838  1
  Sr  Sr3  1  0.964596  0.464441  0.261406  1
  Sr  Sr4  1  0.297348  0.797188  0.261838  1
  Sr  Sr5  1  0.796810  0.964440  0.261406  1
  Sr  Sr6  1  0.203190  0.035560  0.738594  1
  Sr  Sr7  1  0.702653  0.202812  0.738162  1
  Sr  Sr8  1  0.035404  0.535561  0.738594  1
  Sr  Sr9  1  0.535512  0.702813  0.738162  1
  Cd  Cd10  1  0.250350  0.250000  0.500000  1
  Cd  Cd11  1  0.749650  0.750000  0.500000  1
  Pt  Pt12  1  0.628785  0.128783  0.000091  1
  Pt  Pt13  1  0.128695  0.371217  0.999909  1
  Pt  Pt14  1  0.871306  0.628782  0.000091  1
  Pt  Pt15  1  0.371214  0.871218  0.999909  1
