# generated using pymatgen
data_Tb3Mg2Au3O14
_symmetry_space_group_name_H-M   'P 1'
_cell_length_a   7.28232978
_cell_length_b   7.28232039
_cell_length_c   7.28232987
_cell_angle_alpha   119.99343643
_cell_angle_beta   60.00657793
_cell_angle_gamma   119.99344815
_symmetry_Int_Tables_number   1
_chemical_formula_structural   Tb3Mg2Au3O14
_chemical_formula_sum   'Tb3 Mg2 Au3 O14'
_cell_volume   273.12415045
_cell_formula_units_Z   1
loop_
 _symmetry_equiv_pos_site_id
 _symmetry_equiv_pos_as_xyz
  1  'x, y, z'
loop_
 _atom_site_type_symbol
 _atom_site_label
 _atom_site_symmetry_multiplicity
 _atom_site_fract_x
 _atom_site_fract_y
 _atom_site_fract_z
 _atom_site_occupancy
  Tb  Tb0  1  0.000010  0.499996  0.000013  1
  Tb  Tb1  1  0.499996  0.000006  0.999994  1
  Tb  Tb2  1  0.500009  0.500000  0.499995  1
  Mg  Mg3  1  0.499981  0.499985  0.999994  1
  Mg  Mg4  1  0.000003  0.999994  0.499987  1
  Au  Au5  1  0.500007  0.000013  0.499997  1
  Au  Au6  1  0.999994  0.500005  0.500007  1
  Au  Au7  1  0.000001  0.999996  0.000007  1
  O  O8  1  0.614902  0.385109  0.114893  1
  O  O9  1  0.385109  0.614901  0.885100  1
  O  O10  1  0.099519  0.337853  0.162161  1
  O  O11  1  0.662134  0.900449  0.162125  1
  O  O12  1  0.662152  0.337870  0.599533  1
  O  O13  1  0.900446  0.662132  0.837880  1
  O  O14  1  0.337854  0.099520  0.837845  1
  O  O15  1  0.337870  0.662150  0.400462  1
  O  O16  1  0.648825  0.904241  0.595758  1
  O  O17  1  0.095762  0.351192  0.595766  1
  O  O18  1  0.095759  0.904238  0.148818  1
  O  O19  1  0.351185  0.095761  0.404238  1
  O  O20  1  0.904243  0.648831  0.404246  1
  O  O21  1  0.904240  0.095758  0.851178  1
