# generated using pymatgen
data_Sc2Mn2Co5(NiP2)3
_symmetry_space_group_name_H-M   'P 1'
_cell_length_a   3.61298700
_cell_length_b   10.20997600
_cell_length_c   11.79107900
_cell_angle_alpha   90.00000000
_cell_angle_beta   90.00000000
_cell_angle_gamma   90.00000000
_symmetry_Int_Tables_number   1
_chemical_formula_structural   Sc2Mn2Co5(NiP2)3
_chemical_formula_sum   'Sc4 Mn4 Co10 Ni6 P12'
_cell_volume   434.95534219
_cell_formula_units_Z   2
loop_
 _symmetry_equiv_pos_site_id
 _symmetry_equiv_pos_as_xyz
  1  'x, y, z'
loop_
 _atom_site_type_symbol
 _atom_site_label
 _atom_site_symmetry_multiplicity
 _atom_site_fract_x
 _atom_site_fract_y
 _atom_site_fract_z
 _atom_site_occupancy
  Sc  Sc0  1  0.250000  0.582777  0.707685  1
  Sc  Sc1  1  0.250000  0.917223  0.207685  1
  Sc  Sc2  1  0.750000  0.419910  0.293184  1
  Sc  Sc3  1  0.750000  0.080090  0.793184  1
  Mn  Mn4  1  0.250000  0.711039  0.987073  1
  Mn  Mn5  1  0.250000  0.788961  0.487073  1
  Mn  Mn6  1  0.750000  0.286997  0.012437  1
  Mn  Mn7  1  0.750000  0.213003  0.512437  1
  Co  Co8  1  0.750000  0.777860  0.822462  1
  Co  Co9  1  0.750000  0.722140  0.322462  1
  Co  Co10  1  0.250000  0.882500  0.699115  1
  Co  Co11  1  0.250000  0.617500  0.199115  1
  Co  Co12  1  0.750000  0.117058  0.300120  1
  Co  Co13  1  0.750000  0.382942  0.800120  1
  Co  Co14  1  0.250000  0.465375  0.931657  1
  Co  Co15  1  0.250000  0.034625  0.431657  1
  Co  Co16  1  0.750000  0.534782  0.068398  1
  Co  Co17  1  0.750000  0.965218  0.568398  1
  Ni  Ni18  1  0.250000  0.410185  0.484389  1
  Ni  Ni19  1  0.250000  0.089815  0.984389  1
  Ni  Ni20  1  0.750000  0.592134  0.515432  1
  Ni  Ni21  1  0.750000  0.907866  0.015432  1
  Ni  Ni22  1  0.250000  0.222462  0.177706  1
  Ni  Ni23  1  0.250000  0.277539  0.677706  1
  P  P24  1  0.250000  0.422528  0.114823  1
  P  P25  1  0.250000  0.077472  0.614823  1
  P  P26  1  0.750000  0.580282  0.884831  1
  P  P27  1  0.750000  0.919718  0.384831  1
  P  P28  1  0.250000  0.266157  0.867375  1
  P  P29  1  0.250000  0.233843  0.367375  1
  P  P30  1  0.750000  0.733425  0.134707  1
  P  P31  1  0.750000  0.766575  0.634707  1
  P  P32  1  0.250000  0.601188  0.385861  1
  P  P33  1  0.250000  0.898812  0.885861  1
  P  P34  1  0.750000  0.403626  0.612744  1
  P  P35  1  0.750000  0.096374  0.112744  1
