# generated using pymatgen
data_Ac3Th(Ga5Pt3)2
_symmetry_space_group_name_H-M   'P 1'
_cell_length_a   8.82302481
_cell_length_b   8.82569078
_cell_length_c   8.82569200
_cell_angle_alpha   139.09192969
_cell_angle_beta   106.12055470
_cell_angle_gamma   88.08901639
_symmetry_Int_Tables_number   1
_chemical_formula_structural   Ac3Th(Ga5Pt3)2
_chemical_formula_sum   'Ac3 Th1 Ga10 Pt6'
_cell_volume   414.98399414
_cell_formula_units_Z   1
loop_
 _symmetry_equiv_pos_site_id
 _symmetry_equiv_pos_as_xyz
  1  'x, y, z'
loop_
 _atom_site_type_symbol
 _atom_site_label
 _atom_site_symmetry_multiplicity
 _atom_site_fract_x
 _atom_site_fract_y
 _atom_site_fract_z
 _atom_site_occupancy
  Ac  Ac0  1  0.360792  0.632769  0.728023  1
  Ac  Ac1  1  0.095346  0.867422  0.227925  1
  Ac  Ac2  1  0.905843  0.133722  0.772121  1
  Th  Th3  1  0.638226  0.362387  0.275838  1
  Ga  Ga4  1  0.281585  0.529400  0.251703  1
  Ga  Ga5  1  0.719885  0.469863  0.744696  1
  Ga  Ga6  1  0.719885  0.975190  0.250023  1
  Ga  Ga7  1  0.281585  0.029882  0.752185  1
  Ga  Ga8  1  0.455082  0.104024  0.351057  1
  Ga  Ga9  1  0.548080  0.896604  0.651474  1
  Ga  Ga10  1  0.750900  0.599733  0.151168  1
  Ga  Ga11  1  0.246007  0.396283  0.849723  1
  Ga  Ga12  1  0.996656  0.249758  0.246591  1
  Ga  Ga13  1  0.996656  0.750066  0.746898  1
  Pt  Pt14  1  0.256648  0.142859  0.113790  1
  Pt  Pt15  1  0.745885  0.859609  0.886276  1
  Pt  Pt16  1  0.028664  0.640160  0.388504  1
  Pt  Pt17  1  0.971275  0.361994  0.609282  1
  Pt  Pt18  1  0.500498  0.249407  0.751633  1
  Pt  Pt19  1  0.500498  0.748864  0.251090  1
