# generated using pymatgen
data_Y7Ho2ThRu4
_symmetry_space_group_name_H-M   'P 1'
_cell_length_a   6.41042843
_cell_length_b   7.29953303
_cell_length_c   8.59078369
_cell_angle_alpha   96.28718342
_cell_angle_beta   112.32988231
_cell_angle_gamma   90.69057799
_symmetry_Int_Tables_number   1
_chemical_formula_structural   Y7Ho2ThRu4
_chemical_formula_sum   'Y7 Ho2 Th1 Ru4'
_cell_volume   368.97870081
_cell_formula_units_Z   1
loop_
 _symmetry_equiv_pos_site_id
 _symmetry_equiv_pos_as_xyz
  1  'x, y, z'
loop_
 _atom_site_type_symbol
 _atom_site_label
 _atom_site_symmetry_multiplicity
 _atom_site_fract_x
 _atom_site_fract_y
 _atom_site_fract_z
 _atom_site_occupancy
  Y  Y0  1  0.790238  0.582802  0.809539  1
  Y  Y1  1  0.022982  0.085380  0.813332  1
  Y  Y2  1  0.208122  0.415833  0.184832  1
  Y  Y3  1  0.640298  0.816219  0.436023  1
  Y  Y4  1  0.208944  0.684949  0.568474  1
  Y  Y5  1  0.357731  0.186419  0.568458  1
  Y  Y6  1  0.792555  0.314139  0.434345  1
  Ho  Ho7  1  0.421949  0.747562  0.997645  1
  Ho  Ho8  1  0.577840  0.250259  0.000219  1
  Th  Th9  1  0.986912  0.906935  0.187018  1
  Ru  Ru10  1  0.827740  0.588967  0.217658  1
  Ru  Ru11  1  0.608215  0.926870  0.786939  1
  Ru  Ru12  1  0.179988  0.424992  0.780119  1
  Ru  Ru13  1  0.376486  0.068673  0.215398  1
