# generated using pymatgen
data_NaFe2(Sb6Pd)2
_symmetry_space_group_name_H-M   'P 1'
_cell_length_a   8.15080797
_cell_length_b   8.08240203
_cell_length_c   8.15042664
_cell_angle_alpha   109.35293089
_cell_angle_beta   110.09055770
_cell_angle_gamma   109.30989717
_symmetry_Int_Tables_number   1
_chemical_formula_structural   NaFe2(Sb6Pd)2
_chemical_formula_sum   'Na1 Fe2 Sb12 Pd2'
_cell_volume   411.57231097
_cell_formula_units_Z   1
loop_
 _symmetry_equiv_pos_site_id
 _symmetry_equiv_pos_as_xyz
  1  'x, y, z'
loop_
 _atom_site_type_symbol
 _atom_site_label
 _atom_site_symmetry_multiplicity
 _atom_site_fract_x
 _atom_site_fract_y
 _atom_site_fract_z
 _atom_site_occupancy
  Na  Na0  1  0.000000  0.000000  0.000000  1
  Fe  Fe1  1  0.000000  0.000000  0.500000  1
  Fe  Fe2  1  0.500000  0.000000  0.000000  1
  Sb  Sb3  1  0.669581  0.831308  0.161784  1
  Sb  Sb4  1  0.831286  0.329751  0.181508  1
  Sb  Sb5  1  0.503745  0.852801  0.671801  1
  Sb  Sb6  1  0.851639  0.670374  0.501557  1
  Sb  Sb7  1  0.496255  0.147199  0.328199  1
  Sb  Sb8  1  0.168714  0.670249  0.818492  1
  Sb  Sb9  1  0.818978  0.147180  0.650976  1
  Sb  Sb10  1  0.181022  0.852820  0.349024  1
  Sb  Sb11  1  0.148361  0.329626  0.498443  1
  Sb  Sb12  1  0.651097  0.498284  0.847207  1
  Sb  Sb13  1  0.348903  0.501716  0.152793  1
  Sb  Sb14  1  0.330419  0.168692  0.838216  1
  Pd  Pd15  1  0.000000  0.500000  0.000000  1
  Pd  Pd16  1  0.500000  0.500000  0.500000  1
