# generated using pymatgen
data_TbDyY14(CdPt)4
_symmetry_space_group_name_H-M   'P 1'
_cell_length_a   9.72400477
_cell_length_b   9.72400657
_cell_length_c   9.72486900
_cell_angle_alpha   59.99973028
_cell_angle_beta   59.99972829
_cell_angle_gamma   59.99791876
_symmetry_Int_Tables_number   1
_chemical_formula_structural   TbDyY14(CdPt)4
_chemical_formula_sum   'Tb1 Dy1 Y14 Cd4 Pt4'
_cell_volume   650.20538275
_cell_formula_units_Z   1
loop_
 _symmetry_equiv_pos_site_id
 _symmetry_equiv_pos_as_xyz
  1  'x, y, z'
loop_
 _atom_site_type_symbol
 _atom_site_label
 _atom_site_symmetry_multiplicity
 _atom_site_fract_x
 _atom_site_fract_y
 _atom_site_fract_z
 _atom_site_occupancy
  Tb  Tb0  1  0.352092  0.352092  0.350954  1
  Dy  Dy1  1  0.351959  0.351959  0.945293  1
  Y  Y2  1  0.354240  0.939817  0.352960  1
  Y  Y3  1  0.939817  0.354240  0.352960  1
  Y  Y4  1  0.810660  0.189849  0.189703  1
  Y  Y5  1  0.189957  0.810503  0.809781  1
  Y  Y6  1  0.189849  0.810660  0.189703  1
  Y  Y7  1  0.810503  0.189957  0.809781  1
  Y  Y8  1  0.190378  0.190378  0.809690  1
  Y  Y9  1  0.810836  0.810836  0.189195  1
  Y  Y10  1  0.935815  0.564286  0.564728  1
  Y  Y11  1  0.564225  0.935894  0.935185  1
  Y  Y12  1  0.564286  0.935815  0.564728  1
  Y  Y13  1  0.935894  0.564225  0.935185  1
  Y  Y14  1  0.564865  0.564865  0.935115  1
  Y  Y15  1  0.935876  0.935876  0.564107  1
  Cd  Cd16  1  0.581525  0.581525  0.582831  1
  Cd  Cd17  1  0.581618  0.581618  0.254075  1
  Cd  Cd18  1  0.581265  0.253783  0.582593  1
  Cd  Cd19  1  0.253783  0.581265  0.582593  1
  Pt  Pt20  1  0.143820  0.143820  0.143768  1
  Pt  Pt21  1  0.143483  0.143483  0.568976  1
  Pt  Pt22  1  0.143185  0.570068  0.143048  1
  Pt  Pt23  1  0.570068  0.143185  0.143048  1
