# generated using pymatgen
data_Dy3Ho7(In2Cu)4
_symmetry_space_group_name_H-M   'P 1'
_cell_length_a   3.66253100
_cell_length_b   7.99869384
_cell_length_c   17.92538060
_cell_angle_alpha   90.41294503
_cell_angle_beta   90.00000000
_cell_angle_gamma   90.00000000
_symmetry_Int_Tables_number   1
_chemical_formula_structural   Dy3Ho7(In2Cu)4
_chemical_formula_sum   'Dy3 Ho7 In8 Cu4'
_cell_volume   525.11870608
_cell_formula_units_Z   1
loop_
 _symmetry_equiv_pos_site_id
 _symmetry_equiv_pos_as_xyz
  1  'x, y, z'
loop_
 _atom_site_type_symbol
 _atom_site_label
 _atom_site_symmetry_multiplicity
 _atom_site_fract_x
 _atom_site_fract_y
 _atom_site_fract_z
 _atom_site_occupancy
  Dy  Dy0  1  0.000000  0.500127  0.500129  1
  Dy  Dy1  1  0.000000  0.999877  0.999849  1
  Dy  Dy2  1  0.000000  0.737891  0.280500  1
  Ho  Ho3  1  0.000000  0.262061  0.719537  1
  Ho  Ho4  1  0.000000  0.762158  0.780465  1
  Ho  Ho5  1  0.000000  0.237758  0.219538  1
  Ho  Ho6  1  0.000000  0.617487  0.083288  1
  Ho  Ho7  1  0.000000  0.382345  0.916727  1
  Ho  Ho8  1  0.000000  0.882199  0.583309  1
  Ho  Ho9  1  0.000000  0.117954  0.416991  1
  In  In10  1  0.500000  0.707545  0.930696  1
  In  In11  1  0.500000  0.292291  0.069130  1
  In  In12  1  0.500000  0.792573  0.431002  1
  In  In13  1  0.500000  0.207711  0.569213  1
  In  In14  1  0.500000  0.579661  0.650881  1
  In  In15  1  0.500000  0.419912  0.349539  1
  In  In16  1  0.500000  0.920450  0.150283  1
  In  In17  1  0.500000  0.080043  0.849286  1
  Cu  Cu18  1  0.500000  0.522946  0.197048  1
  Cu  Cu19  1  0.500000  0.476348  0.802834  1
  Cu  Cu20  1  0.500000  0.975333  0.696989  1
  Cu  Cu21  1  0.500000  0.025329  0.302768  1
