# generated using pymatgen
data_Nb5B2P
_symmetry_space_group_name_H-M   'P 1'
_cell_length_a   7.28271902
_cell_length_b   7.28271872
_cell_length_c   7.28271929
_cell_angle_alpha   129.30948032
_cell_angle_beta   129.30948078
_cell_angle_gamma   74.51311500
_symmetry_Int_Tables_number   1
_chemical_formula_structural   Nb5B2P
_chemical_formula_sum   'Nb10 B4 P2'
_cell_volume   225.34630341
_cell_formula_units_Z   2
loop_
 _symmetry_equiv_pos_site_id
 _symmetry_equiv_pos_as_xyz
  1  'x, y, z'
loop_
 _atom_site_type_symbol
 _atom_site_label
 _atom_site_symmetry_multiplicity
 _atom_site_fract_x
 _atom_site_fract_y
 _atom_site_fract_z
 _atom_site_occupancy
  Nb  Nb0  1  0.000000  0.000000  0.000000  1
  Nb  Nb1  1  0.500000  0.500000  0.000000  1
  Nb  Nb2  1  0.808606  0.308606  0.837250  1
  Nb  Nb3  1  0.191394  0.691394  0.162750  1
  Nb  Nb4  1  0.471355  0.971355  0.162750  1
  Nb  Nb5  1  0.308606  0.471355  0.500000  1
  Nb  Nb6  1  0.028645  0.191394  0.500000  1
  Nb  Nb7  1  0.528645  0.028645  0.837250  1
  Nb  Nb8  1  0.691394  0.528645  0.500000  1
  Nb  Nb9  1  0.971355  0.808606  0.500000  1
  B  B10  1  0.113027  0.613027  0.726053  1
  B  B11  1  0.886973  0.386973  0.273947  1
  B  B12  1  0.613027  0.886973  0.500000  1
  B  B13  1  0.386973  0.113027  0.500000  1
  P  P14  1  0.250000  0.250000  0.000000  1
  P  P15  1  0.750000  0.750000  0.000000  1
