# generated using pymatgen
data_Tb4DyP12Ru19
_symmetry_space_group_name_H-M   'P 1'
_cell_length_a   12.54676003
_cell_length_b   12.54675964
_cell_length_c   3.98222300
_cell_angle_alpha   90.00000000
_cell_angle_beta   90.00000000
_cell_angle_gamma   120.00985494
_symmetry_Int_Tables_number   1
_chemical_formula_structural   Tb4DyP12Ru19
_chemical_formula_sum   'Tb4 Dy1 P12 Ru19'
_cell_volume   542.84549999
_cell_formula_units_Z   1
loop_
 _symmetry_equiv_pos_site_id
 _symmetry_equiv_pos_as_xyz
  1  'x, y, z'
loop_
 _atom_site_type_symbol
 _atom_site_label
 _atom_site_symmetry_multiplicity
 _atom_site_fract_x
 _atom_site_fract_y
 _atom_site_fract_z
 _atom_site_occupancy
  Tb  Tb0  1  0.666698  0.333395  0.000000  1
  Tb  Tb1  1  0.333395  0.666699  0.000000  1
  Tb  Tb2  1  0.183574  0.000009  0.500000  1
  Tb  Tb3  1  0.000009  0.183573  0.500000  1
  Dy  Dy4  1  0.816527  0.816527  0.500000  1
  P  P5  1  0.373009  0.000005  0.000000  1
  P  P6  1  0.815251  0.999824  0.000000  1
  P  P7  1  0.184586  0.184585  0.000000  1
  P  P8  1  0.000005  0.373008  0.000000  1
  P  P9  1  0.627082  0.627082  0.000000  1
  P  P10  1  0.999824  0.815251  0.000000  1
  P  P11  1  0.693853  0.171257  0.500000  1
  P  P12  1  0.477583  0.306219  0.500000  1
  P  P13  1  0.306218  0.477583  0.500000  1
  P  P14  1  0.828657  0.522496  0.500000  1
  P  P15  1  0.171256  0.693853  0.500000  1
  P  P16  1  0.522496  0.828657  0.500000  1
  Ru  Ru17  1  0.999638  0.999638  0.000000  1
  Ru  Ru18  1  0.554650  0.999896  0.000000  1
  Ru  Ru19  1  0.807529  0.184659  0.000000  1
  Ru  Ru20  1  0.377182  0.192456  0.000000  1
  Ru  Ru21  1  0.192457  0.377182  0.000000  1
  Ru  Ru22  1  0.445429  0.445430  0.000000  1
  Ru  Ru23  1  0.999896  0.554651  0.000000  1
  Ru  Ru24  1  0.815220  0.623131  0.000000  1
  Ru  Ru25  1  0.184659  0.807528  0.000000  1
  Ru  Ru26  1  0.623131  0.815220  0.000000  1
  Ru  Ru27  1  0.716658  0.999853  0.500000  1
  Ru  Ru28  1  0.491840  0.125666  0.500000  1
  Ru  Ru29  1  0.283460  0.283461  0.500000  1
  Ru  Ru30  1  0.874354  0.366107  0.500000  1
  Ru  Ru31  1  0.125666  0.491840  0.500000  1
  Ru  Ru32  1  0.633956  0.508330  0.500000  1
  Ru  Ru33  1  0.508330  0.633956  0.500000  1
  Ru  Ru34  1  0.999853  0.716658  0.500000  1
  Ru  Ru35  1  0.366107  0.874355  0.500000  1
