# generated using pymatgen
data_Ta2Ti2Ga3BRu
_symmetry_space_group_name_H-M   'P 1'
_cell_length_a   7.69599963
_cell_length_b   7.69869878
_cell_length_c   5.17033840
_cell_angle_alpha   90.02288501
_cell_angle_beta   89.95422138
_cell_angle_gamma   119.98839870
_symmetry_Int_Tables_number   1
_chemical_formula_structural   Ta2Ti2Ga3BRu
_chemical_formula_sum   'Ta4 Ti4 Ga6 B2 Ru2'
_cell_volume   265.32769603
_cell_formula_units_Z   2
loop_
 _symmetry_equiv_pos_site_id
 _symmetry_equiv_pos_as_xyz
  1  'x, y, z'
loop_
 _atom_site_type_symbol
 _atom_site_label
 _atom_site_symmetry_multiplicity
 _atom_site_fract_x
 _atom_site_fract_y
 _atom_site_fract_z
 _atom_site_occupancy
  Ta  Ta0  1  0.000835  0.240486  0.255937  1
  Ta  Ta1  1  0.999165  0.759514  0.744063  1
  Ta  Ta2  1  0.760349  0.759514  0.255937  1
  Ta  Ta3  1  0.239651  0.240486  0.744063  1
  Ti  Ti4  1  0.242712  0.000000  0.259224  1
  Ti  Ti5  1  0.757288  0.000000  0.740776  1
  Ti  Ti6  1  0.667048  0.334096  0.500000  1
  Ti  Ti7  1  0.332952  0.665904  0.500000  1
  Ga  Ga8  1  0.594612  0.000000  0.240586  1
  Ga  Ga9  1  0.405388  0.000000  0.759414  1
  Ga  Ga10  1  0.002892  0.599024  0.241389  1
  Ga  Ga11  1  0.997108  0.400976  0.758611  1
  Ga  Ga12  1  0.403868  0.400976  0.241389  1
  Ga  Ga13  1  0.596132  0.599024  0.758611  1
  B  B14  1  0.000000  0.000000  0.000000  1
  B  B15  1  0.000000  0.000000  0.500000  1
  Ru  Ru16  1  0.332979  0.665958  0.000000  1
  Ru  Ru17  1  0.667021  0.334042  0.000000  1
