# generated using pymatgen
data_Lu3Mg(ZnPt)4
_symmetry_space_group_name_H-M   'P 1'
_cell_length_a   4.17350200
_cell_length_b   6.69849795
_cell_length_c   7.95119183
_cell_angle_alpha   90.78853607
_cell_angle_beta   90.00000000
_cell_angle_gamma   90.00000000
_symmetry_Int_Tables_number   1
_chemical_formula_structural   Lu3Mg(ZnPt)4
_chemical_formula_sum   'Lu3 Mg1 Zn4 Pt4'
_cell_volume   222.26401505
_cell_formula_units_Z   1
loop_
 _symmetry_equiv_pos_site_id
 _symmetry_equiv_pos_as_xyz
  1  'x, y, z'
loop_
 _atom_site_type_symbol
 _atom_site_label
 _atom_site_symmetry_multiplicity
 _atom_site_fract_x
 _atom_site_fract_y
 _atom_site_fract_z
 _atom_site_occupancy
  Lu  Lu0  1  0.750000  0.466991  0.823422  1
  Lu  Lu1  1  0.750000  0.964663  0.681572  1
  Lu  Lu2  1  0.250000  0.033079  0.313526  1
  Mg  Mg3  1  0.250000  0.532708  0.182387  1
  Zn  Zn4  1  0.250000  0.644043  0.559324  1
  Zn  Zn5  1  0.750000  0.358314  0.435803  1
  Zn  Zn6  1  0.750000  0.853766  0.063298  1
  Zn  Zn7  1  0.250000  0.146021  0.939545  1
  Pt  Pt8  1  0.250000  0.754795  0.878245  1
  Pt  Pt9  1  0.750000  0.246455  0.122836  1
  Pt  Pt10  1  0.750000  0.744180  0.376869  1
  Pt  Pt11  1  0.250000  0.254984  0.623173  1
