# generated using pymatgen
data_Tb5FeAsO12
_symmetry_space_group_name_H-M   'P 1'
_cell_length_a   6.79291127
_cell_length_b   6.79291144
_cell_length_c   7.30329745
_cell_angle_alpha   74.43770900
_cell_angle_beta   74.43770706
_cell_angle_gamma   51.22356804
_symmetry_Int_Tables_number   1
_chemical_formula_structural   Tb5FeAsO12
_chemical_formula_sum   'Tb5 Fe1 As1 O12'
_cell_volume   250.82709066
_cell_formula_units_Z   1
loop_
 _symmetry_equiv_pos_site_id
 _symmetry_equiv_pos_as_xyz
  1  'x, y, z'
loop_
 _atom_site_type_symbol
 _atom_site_label
 _atom_site_symmetry_multiplicity
 _atom_site_fract_x
 _atom_site_fract_y
 _atom_site_fract_z
 _atom_site_occupancy
  Tb  Tb0  1  0.305601  0.304044  0.359504  1
  Tb  Tb1  1  0.695956  0.694399  0.640496  1
  Tb  Tb2  1  0.307107  0.305606  0.832255  1
  Tb  Tb3  1  0.694394  0.692893  0.167745  1
  Tb  Tb4  1  0.009173  0.990827  0.500000  1
  Fe  Fe5  1  0.754644  0.245356  0.000000  1
  As  As6  1  0.238682  0.761318  0.000000  1
  O  O7  1  0.896950  0.420781  0.922032  1
  O  O8  1  0.416258  0.898802  0.921888  1
  O  O9  1  0.101198  0.583742  0.078112  1
  O  O10  1  0.579219  0.103050  0.077968  1
  O  O11  1  0.098548  0.590918  0.577907  1
  O  O12  1  0.600833  0.094272  0.577638  1
  O  O13  1  0.905728  0.399167  0.422362  1
  O  O14  1  0.409082  0.901452  0.422093  1
  O  O15  1  0.014376  0.986945  0.821088  1
  O  O16  1  0.013055  0.985624  0.178912  1
  O  O17  1  0.479347  0.520151  0.821237  1
  O  O18  1  0.479849  0.520653  0.178763  1
