# generated using pymatgen
data_Yb2Ga5Ir3
_symmetry_space_group_name_H-M   'P 1'
_cell_length_a   8.60738673
_cell_length_b   8.60738569
_cell_length_c   8.60738738
_cell_angle_alpha   140.78122167
_cell_angle_beta   111.14839570
_cell_angle_gamma   82.21119557
_symmetry_Int_Tables_number   1
_chemical_formula_structural   Yb2Ga5Ir3
_chemical_formula_sum   'Yb4 Ga10 Ir6'
_cell_volume   364.66569935
_cell_formula_units_Z   2
loop_
 _symmetry_equiv_pos_site_id
 _symmetry_equiv_pos_as_xyz
  1  'x, y, z'
loop_
 _atom_site_type_symbol
 _atom_site_label
 _atom_site_symmetry_multiplicity
 _atom_site_fract_x
 _atom_site_fract_y
 _atom_site_fract_z
 _atom_site_occupancy
  Yb  Yb0  1  0.625580  0.351803  0.273778  1
  Yb  Yb1  1  0.374420  0.648197  0.726222  1
  Yb  Yb2  1  0.921976  0.148197  0.773778  1
  Yb  Yb3  1  0.078024  0.851803  0.226222  1
  Ga  Ga4  1  0.300440  0.050440  0.750000  1
  Ga  Ga5  1  0.391407  0.078722  0.312685  1
  Ga  Ga6  1  0.300440  0.550440  0.250000  1
  Ga  Ga7  1  0.000000  0.750000  0.750000  1
  Ga  Ga8  1  0.699560  0.449560  0.750000  1
  Ga  Ga9  1  0.233962  0.421278  0.812685  1
  Ga  Ga10  1  0.608593  0.921278  0.687315  1
  Ga  Ga11  1  0.766038  0.578722  0.187315  1
  Ga  Ga12  1  0.699560  0.949560  0.250000  1
  Ga  Ga13  1  0.000000  0.250000  0.250000  1
  Ir  Ir14  1  0.767621  0.847670  0.919952  1
  Ir  Ir15  1  0.072282  0.652330  0.419952  1
  Ir  Ir16  1  0.927718  0.347670  0.580048  1
  Ir  Ir17  1  0.232379  0.152330  0.080048  1
  Ir  Ir18  1  0.500000  0.750000  0.250000  1
  Ir  Ir19  1  0.500000  0.250000  0.750000  1
