# generated using pymatgen
data_Ca3ScSn2(B2Rh5)2
_symmetry_space_group_name_H-M   'P 1'
_cell_length_a   9.74733543
_cell_length_b   9.74733543
_cell_length_c   3.08978500
_cell_angle_alpha   90.00000000
_cell_angle_beta   90.00000000
_cell_angle_gamma   90.79476030
_symmetry_Int_Tables_number   1
_chemical_formula_structural   Ca3ScSn2(B2Rh5)2
_chemical_formula_sum   'Ca3 Sc1 Sn2 B4 Rh10'
_cell_volume   293.53392461
_cell_formula_units_Z   1
loop_
 _symmetry_equiv_pos_site_id
 _symmetry_equiv_pos_as_xyz
  1  'x, y, z'
loop_
 _atom_site_type_symbol
 _atom_site_label
 _atom_site_symmetry_multiplicity
 _atom_site_fract_x
 _atom_site_fract_y
 _atom_site_fract_z
 _atom_site_occupancy
  Ca  Ca0  1  0.824226  0.324226  0.000000  1
  Ca  Ca1  1  0.321322  0.175976  0.000000  1
  Ca  Ca2  1  0.675976  0.821322  0.000000  1
  Sc  Sc3  1  0.175378  0.675378  0.000000  1
  Sn  Sn4  1  0.998227  0.005722  0.000000  1
  Sn  Sn5  1  0.505722  0.498227  0.000000  1
  B  B6  1  0.617697  0.117697  0.000000  1
  B  B7  1  0.124775  0.385227  0.000000  1
  B  B8  1  0.885227  0.624775  0.000000  1
  B  B9  1  0.373079  0.873079  0.000000  1
  Rh  Rh10  1  0.071617  0.232190  0.500000  1
  Rh  Rh11  1  0.218692  0.917905  0.500000  1
  Rh  Rh12  1  0.770884  0.068046  0.500000  1
  Rh  Rh13  1  0.941632  0.775594  0.500000  1
  Rh  Rh14  1  0.417905  0.718692  0.500000  1
  Rh  Rh15  1  0.568046  0.270884  0.500000  1
  Rh  Rh16  1  0.732190  0.571617  0.500000  1
  Rh  Rh17  1  0.275594  0.441632  0.500000  1
  Rh  Rh18  1  0.494485  0.994485  0.500000  1
  Rh  Rh19  1  0.007326  0.507326  0.500000  1
