# generated using pymatgen
data_Li2Tb4DyP12Ir17
_symmetry_space_group_name_H-M   'P 1'
_cell_length_a   12.68306900
_cell_length_b   12.78214506
_cell_length_c   3.96497200
_cell_angle_alpha   90.00000000
_cell_angle_beta   90.00000000
_cell_angle_gamma   119.74348799
_symmetry_Int_Tables_number   1
_chemical_formula_structural   Li2Tb4DyP12Ir17
_chemical_formula_sum   'Li2 Tb4 Dy1 P12 Ir17'
_cell_volume   558.10462059
_cell_formula_units_Z   1
loop_
 _symmetry_equiv_pos_site_id
 _symmetry_equiv_pos_as_xyz
  1  'x, y, z'
loop_
 _atom_site_type_symbol
 _atom_site_label
 _atom_site_symmetry_multiplicity
 _atom_site_fract_x
 _atom_site_fract_y
 _atom_site_fract_z
 _atom_site_occupancy
  Li  Li0  1  0.999439  0.441964  0.500000  1
  Li  Li1  1  0.557490  0.558022  0.500000  1
  Tb  Tb2  1  0.332411  0.662514  0.500000  1
  Tb  Tb3  1  0.001889  0.809237  0.000000  1
  Tb  Tb4  1  0.192660  0.190771  0.000000  1
  Tb  Tb5  1  0.811163  0.999994  0.000000  1
  Dy  Dy6  1  0.669943  0.337518  0.500000  1
  P  P7  1  0.999294  0.629973  0.500000  1
  P  P8  1  0.369264  0.370056  0.500000  1
  P  P9  1  0.639139  0.999945  0.500000  1
  P  P10  1  0.513677  0.683403  0.000000  1
  P  P11  1  0.307133  0.823121  0.000000  1
  P  P12  1  0.166748  0.479645  0.000000  1
  P  P13  1  0.484211  0.177127  0.000000  1
  P  P14  1  0.687124  0.520135  0.000000  1
  P  P15  1  0.829983  0.316560  0.000000  1
  P  P16  1  0.997655  0.178157  0.500000  1
  P  P17  1  0.819536  0.821794  0.500000  1
  P  P18  1  0.178784  0.000050  0.500000  1
  Ir  Ir19  1  0.503739  0.865634  0.000000  1
  Ir  Ir20  1  0.129040  0.638635  0.000000  1
  Ir  Ir21  1  0.356230  0.487684  0.000000  1
  Ir  Ir22  1  0.490911  0.361368  0.000000  1
  Ir  Ir23  1  0.868036  0.511845  0.000000  1
  Ir  Ir24  1  0.638145  0.134794  0.000000  1
  Ir  Ir25  1  0.458618  0.000063  0.500000  1
  Ir  Ir26  1  0.996259  0.277593  0.000000  1
  Ir  Ir27  1  0.718767  0.722318  0.000000  1
  Ir  Ir28  1  0.287057  0.000063  0.000000  1
  Ir  Ir29  1  0.621958  0.806932  0.500000  1
  Ir  Ir30  1  0.200184  0.823602  0.500000  1
  Ir  Ir31  1  0.176926  0.370889  0.500000  1
  Ir  Ir32  1  0.376699  0.176493  0.500000  1
  Ir  Ir33  1  0.806094  0.629034  0.500000  1
  Ir  Ir34  1  0.814867  0.193070  0.500000  1
  Ir  Ir35  1  0.998925  0.999998  0.500000  1
