# generated using pymatgen
data_La2Y3Nb3(Ni4As3)4
_symmetry_space_group_name_H-M   'P 1'
_cell_length_a   12.74506300
_cell_length_b   12.74506296
_cell_length_c   3.92952800
_cell_angle_alpha   90.00000000
_cell_angle_beta   90.00000000
_cell_angle_gamma   120.00000269
_symmetry_Int_Tables_number   1
_chemical_formula_structural   La2Y3Nb3(Ni4As3)4
_chemical_formula_sum   'La2 Y3 Nb3 Ni16 As12'
_cell_volume   552.78338313
_cell_formula_units_Z   1
loop_
 _symmetry_equiv_pos_site_id
 _symmetry_equiv_pos_as_xyz
  1  'x, y, z'
loop_
 _atom_site_type_symbol
 _atom_site_label
 _atom_site_symmetry_multiplicity
 _atom_site_fract_x
 _atom_site_fract_y
 _atom_site_fract_z
 _atom_site_occupancy
  La  La0  1  0.333333  0.666667  0.000000  1
  La  La1  1  0.666667  0.333333  0.000000  1
  Y  Y2  1  0.186422  0.186422  0.500000  1
  Y  Y3  1  0.813578  0.000000  0.500000  1
  Y  Y4  1  0.000000  0.813578  0.500000  1
  Nb  Nb5  1  0.564337  0.564337  0.000000  1
  Nb  Nb6  1  0.435663  0.000000  0.000000  1
  Nb  Nb7  1  0.000000  0.435663  0.000000  1
  Ni  Ni8  1  0.723579  0.723579  0.500000  1
  Ni  Ni9  1  0.276421  0.000000  0.500000  1
  Ni  Ni10  1  0.000000  0.276421  0.500000  1
  Ni  Ni11  1  0.181274  0.372770  0.000000  1
  Ni  Ni12  1  0.627230  0.808504  0.000000  1
  Ni  Ni13  1  0.191496  0.818726  0.000000  1
  Ni  Ni14  1  0.808504  0.627230  0.000000  1
  Ni  Ni15  1  0.818726  0.191496  0.000000  1
  Ni  Ni16  1  0.372770  0.181274  0.000000  1
  Ni  Ni17  1  0.362273  0.481793  0.500000  1
  Ni  Ni18  1  0.518207  0.880481  0.500000  1
  Ni  Ni19  1  0.119519  0.637727  0.500000  1
  Ni  Ni20  1  0.880481  0.518207  0.500000  1
  Ni  Ni21  1  0.637727  0.119519  0.500000  1
  Ni  Ni22  1  0.481793  0.362273  0.500000  1
  Ni  Ni23  1  0.000000  0.000000  0.000000  1
  As  As24  1  0.822951  0.822951  0.000000  1
  As  As25  1  0.177049  0.000000  0.000000  1
  As  As26  1  0.000000  0.177049  0.000000  1
  As  As27  1  0.166188  0.475449  0.500000  1
  As  As28  1  0.524551  0.690739  0.500000  1
  As  As29  1  0.309261  0.833812  0.500000  1
  As  As30  1  0.690739  0.524551  0.500000  1
  As  As31  1  0.833812  0.309261  0.500000  1
  As  As32  1  0.475449  0.166188  0.500000  1
  As  As33  1  0.362480  0.362480  0.000000  1
  As  As34  1  0.637520  0.000000  0.000000  1
  As  As35  1  0.000000  0.637520  0.000000  1
