# generated using pymatgen
data_Li12La9Gd3(WO6)8
_symmetry_space_group_name_H-M   'P 1'
_cell_length_a   11.02242320
_cell_length_b   10.98122405
_cell_length_c   10.98099401
_cell_angle_alpha   109.39730624
_cell_angle_beta   109.54945059
_cell_angle_gamma   109.54367318
_symmetry_Int_Tables_number   1
_chemical_formula_structural   Li12La9Gd3(WO6)8
_chemical_formula_sum   'Li12 La9 Gd3 W8 O48'
_cell_volume   1022.19727269
_cell_formula_units_Z   1
loop_
 _symmetry_equiv_pos_site_id
 _symmetry_equiv_pos_as_xyz
  1  'x, y, z'
loop_
 _atom_site_type_symbol
 _atom_site_label
 _atom_site_symmetry_multiplicity
 _atom_site_fract_x
 _atom_site_fract_y
 _atom_site_fract_z
 _atom_site_occupancy
  Li  Li0  1  0.749292  0.374510  0.125227  1
  Li  Li1  1  0.875935  0.750717  0.125227  1
  Li  Li2  1  0.124310  0.373561  0.249831  1
  Li  Li3  1  0.625520  0.876270  0.249831  1
  Li  Li4  1  0.623562  0.249283  0.372871  1
  Li  Li5  1  0.249308  0.123588  0.372871  1
  Li  Li6  1  0.374755  0.750147  0.624869  1
  Li  Li7  1  0.750114  0.874721  0.624869  1
  Li  Li8  1  0.375213  0.125042  0.750776  1
  Li  Li9  1  0.875562  0.625734  0.750776  1
  Li  Li10  1  0.126295  0.249828  0.876455  1
  Li  Li11  1  0.250160  0.626628  0.876456  1
  La  La12  1  0.373835  0.623835  0.247669  1
  La  La13  1  0.125584  0.750905  0.373898  1
  La  La14  1  0.748315  0.622993  0.373898  1
  La  La15  1  0.874665  0.249070  0.622961  1
  La  La16  1  0.248297  0.373891  0.622961  1
  La  La17  1  0.624684  0.374684  0.749369  1
  La  La18  1  0.126512  0.876512  0.753024  1
  La  La19  1  0.625468  0.751102  0.877213  1
  La  La20  1  0.751746  0.126112  0.877214  1
  Gd  Gd21  1  0.251644  0.877021  0.126141  1
  Gd  Gd22  1  0.374497  0.249120  0.126142  1
  Gd  Gd23  1  0.875599  0.125599  0.251200  1
  W  W24  1  0.003497  0.001491  0.005361  1
  W  W25  1  0.501865  0.003870  0.005361  1
  W  W26  1  0.498965  0.497187  0.999955  1
  W  W27  1  0.000990  0.502769  0.999955  1
  W  W28  1  0.499343  0.999778  0.497235  1
  W  W29  1  0.998247  0.497848  0.497542  1
  W  W30  1  0.999295  0.999693  0.497543  1
  W  W31  1  0.497892  0.497457  0.497236  1
  O  O32  1  0.329472  0.403619  0.024444  1
  O  O33  1  0.194972  0.620825  0.024444  1
  O  O34  1  0.886932  0.910576  0.083818  1
  O  O35  1  0.696885  0.173242  0.083819  1
  O  O36  1  0.620146  0.927328  0.097666  1
  O  O37  1  0.977521  0.170339  0.097666  1
  O  O38  1  0.025005  0.698009  0.114225  1
  O  O39  1  0.589221  0.416216  0.114226  1
  O  O40  1  0.199551  0.078256  0.172411  1
  O  O41  1  0.472859  0.094154  0.172411  1
  O  O42  1  0.114065  0.522554  0.193382  1
  O  O43  1  0.579316  0.670829  0.193382  1
  O  O44  1  0.326510  0.415694  0.301636  1
  O  O45  1  0.475126  0.885942  0.301636  1
  O  O46  1  0.919845  0.805375  0.327303  1
  O  O47  1  0.907460  0.521928  0.327304  1
  O  O48  1  0.573897  0.403495  0.379036  1
  O  O49  1  0.305139  0.975542  0.379036  1
  O  O50  1  0.829704  0.024431  0.403567  1
  O  O51  1  0.073862  0.379136  0.403567  1
  O  O52  1  0.089317  0.114140  0.416190  1
  O  O53  1  0.826875  0.302050  0.416191  1
  O  O54  1  0.591086  0.670511  0.476990  1
  O  O55  1  0.385904  0.806480  0.476990  1
  O  O56  1  0.614336  0.194382  0.521471  1
  O  O57  1  0.407135  0.327088  0.521471  1
  O  O58  1  0.171243  0.691354  0.578555  1
  O  O59  1  0.907313  0.887201  0.578555  1
  O  O60  1  0.171539  0.979185  0.591411  1
  O  O61  1  0.919872  0.612227  0.591411  1
  O  O62  1  0.419886  0.591351  0.612091  1
  O  O63  1  0.692206  0.020741  0.612092  1
  O  O64  1  0.079310  0.193265  0.670764  1
  O  O65  1  0.091455  0.477499  0.670765  1
  O  O66  1  0.670942  0.578203  0.690986  1
  O  O67  1  0.520042  0.112782  0.690986  1
  O  O68  1  0.885594  0.478088  0.805469  1
  O  O69  1  0.419876  0.327383  0.805470  1
  O  O70  1  0.519344  0.908433  0.830748  1
  O  O71  1  0.811405  0.922316  0.830749  1
  O  O72  1  0.980260  0.308814  0.887325  1
  O  O73  1  0.407064  0.578511  0.887326  1
  O  O74  1  0.387321  0.083371  0.912198  1
  O  O75  1  0.024877  0.828828  0.912198  1
  O  O76  1  0.119850  0.096605  0.928197  1
  O  O77  1  0.308346  0.831592  0.928197  1
  O  O78  1  0.807916  0.387646  0.979144  1
  O  O79  1  0.671228  0.591497  0.979144  1
