# generated using pymatgen
data_Ho3Er2VMoO12
_symmetry_space_group_name_H-M   'P 1'
_cell_length_a   6.76948372
_cell_length_b   6.76971278
_cell_length_c   7.27050811
_cell_angle_alpha   74.37698029
_cell_angle_beta   74.37284968
_cell_angle_gamma   51.82631246
_symmetry_Int_Tables_number   1
_chemical_formula_structural   Ho3Er2VMoO12
_chemical_formula_sum   'Ho3 Er2 V1 Mo1 O12'
_cell_volume   249.91390251
_cell_formula_units_Z   1
loop_
 _symmetry_equiv_pos_site_id
 _symmetry_equiv_pos_as_xyz
  1  'x, y, z'
loop_
 _atom_site_type_symbol
 _atom_site_label
 _atom_site_symmetry_multiplicity
 _atom_site_fract_x
 _atom_site_fract_y
 _atom_site_fract_z
 _atom_site_occupancy
  Ho  Ho0  1  0.311184  0.295352  0.361318  1
  Ho  Ho1  1  0.704463  0.688644  0.638122  1
  Ho  Ho2  1  0.312196  0.307738  0.825640  1
  Er  Er3  1  0.692081  0.687115  0.174543  1
  Er  Er4  1  0.001225  0.998720  0.499876  1
  V  V5  1  0.746544  0.253443  0.000237  1
  Mo  Mo6  1  0.233272  0.766881  0.000237  1
  O  O7  1  0.897440  0.426135  0.919000  1
  O  O8  1  0.431902  0.897680  0.918129  1
  O  O9  1  0.100664  0.569674  0.082996  1
  O  O10  1  0.575609  0.101066  0.081710  1
  O  O11  1  0.100917  0.593846  0.574268  1
  O  O12  1  0.599414  0.091884  0.575560  1
  O  O13  1  0.907318  0.400860  0.423476  1
  O  O14  1  0.406580  0.898323  0.424525  1
  O  O15  1  0.992819  0.009787  0.812337  1
  O  O16  1  0.990888  0.008106  0.187494  1
  O  O17  1  0.497079  0.501806  0.810186  1
  O  O18  1  0.498406  0.502940  0.190347  1
