# generated using pymatgen
data_LiTbGd5(MnC4)3
_symmetry_space_group_name_H-M   'P 1'
_cell_length_a   8.16449729
_cell_length_b   8.16578332
_cell_length_c   5.05840921
_cell_angle_alpha   89.99497488
_cell_angle_beta   90.03096044
_cell_angle_gamma   119.91473615
_symmetry_Int_Tables_number   1
_chemical_formula_structural   LiTbGd5(MnC4)3
_chemical_formula_sum   'Li1 Tb1 Gd5 Mn3 C12'
_cell_volume   292.31043131
_cell_formula_units_Z   1
loop_
 _symmetry_equiv_pos_site_id
 _symmetry_equiv_pos_as_xyz
  1  'x, y, z'
loop_
 _atom_site_type_symbol
 _atom_site_label
 _atom_site_symmetry_multiplicity
 _atom_site_fract_x
 _atom_site_fract_y
 _atom_site_fract_z
 _atom_site_occupancy
  Li  Li0  1  0.000017  0.999972  0.499887  1
  Tb  Tb1  1  0.377386  0.311216  0.257260  1
  Gd  Gd2  1  0.620279  0.687833  0.742462  1
  Gd  Gd3  1  0.932528  0.620660  0.257365  1
  Gd  Gd4  1  0.687434  0.067336  0.257359  1
  Gd  Gd5  1  0.312181  0.933276  0.742620  1
  Gd  Gd6  1  0.067173  0.379557  0.742524  1
  Mn  Mn7  1  0.000275  0.000531  0.000210  1
  Mn  Mn8  1  0.666251  0.333622  0.747684  1
  Mn  Mn9  1  0.333738  0.665693  0.251875  1
  C  C10  1  0.966336  0.765400  0.768676  1
  C  C11  1  0.202119  0.966598  0.232038  1
  C  C12  1  0.766439  0.800557  0.231290  1
  C  C13  1  0.234017  0.200673  0.768535  1
  C  C14  1  0.799714  0.034167  0.768895  1
  C  C15  1  0.033547  0.234020  0.231875  1
  C  C16  1  0.859127  0.575090  0.761970  1
  C  C17  1  0.284445  0.858320  0.237881  1
  C  C18  1  0.575906  0.715246  0.237730  1
  C  C19  1  0.424498  0.285110  0.761999  1
  C  C20  1  0.140949  0.424347  0.237812  1
  C  C21  1  0.715640  0.140775  0.762055  1
