# generated using pymatgen
data_Li8Hf3ZrBr24
_symmetry_space_group_name_H-M   'P 1'
_cell_length_a   6.75511000
_cell_length_b   6.75511012
_cell_length_c   26.63337400
_cell_angle_alpha   90.00000000
_cell_angle_beta   90.00000000
_cell_angle_gamma   119.99999943
_symmetry_Int_Tables_number   1
_chemical_formula_structural   Li8Hf3ZrBr24
_chemical_formula_sum   'Li8 Hf3 Zr1 Br24'
_cell_volume   1052.49897199
_cell_formula_units_Z   1
loop_
 _symmetry_equiv_pos_site_id
 _symmetry_equiv_pos_as_xyz
  1  'x, y, z'
loop_
 _atom_site_type_symbol
 _atom_site_label
 _atom_site_symmetry_multiplicity
 _atom_site_fract_x
 _atom_site_fract_y
 _atom_site_fract_z
 _atom_site_occupancy
  Li  Li0  1  0.000000  0.000000  0.250101  1
  Li  Li1  1  0.000000  0.000000  0.749899  1
  Li  Li2  1  0.333333  0.666667  0.000796  1
  Li  Li3  1  0.333333  0.666667  0.499174  1
  Li  Li4  1  0.333333  0.666667  0.250073  1
  Li  Li5  1  0.666667  0.333333  0.749927  1
  Li  Li6  1  0.666667  0.333333  0.999204  1
  Li  Li7  1  0.666667  0.333333  0.500826  1
  Hf  Hf8  1  0.000000  0.000000  0.500000  1
  Hf  Hf9  1  0.333333  0.666667  0.749810  1
  Hf  Hf10  1  0.666667  0.333333  0.250190  1
  Zr  Zr11  1  0.000000  0.000000  0.000000  1
  Br  Br12  1  0.348588  0.014900  0.307034  1
  Br  Br13  1  0.333350  0.984919  0.806710  1
  Br  Br14  1  0.999503  0.322154  0.057256  1
  Br  Br15  1  0.000502  0.318429  0.556878  1
  Br  Br16  1  0.985100  0.333689  0.307034  1
  Br  Br17  1  0.015081  0.348431  0.806710  1
  Br  Br18  1  0.348431  0.333350  0.193290  1
  Br  Br19  1  0.333689  0.348588  0.692966  1
  Br  Br20  1  0.318429  0.317927  0.443122  1
  Br  Br21  1  0.322154  0.322651  0.942744  1
  Br  Br22  1  0.682073  0.000502  0.443122  1
  Br  Br23  1  0.322651  0.000497  0.057256  1
  Br  Br24  1  0.317927  0.999498  0.556878  1
  Br  Br25  1  0.677846  0.677349  0.057256  1
  Br  Br26  1  0.681571  0.682073  0.556878  1
  Br  Br27  1  0.666311  0.651412  0.307034  1
  Br  Br28  1  0.651569  0.666650  0.806710  1
  Br  Br29  1  0.984919  0.651569  0.193290  1
  Br  Br30  1  0.014900  0.666311  0.692966  1
  Br  Br31  1  0.999498  0.681571  0.443122  1
  Br  Br32  1  0.000497  0.677846  0.942744  1
  Br  Br33  1  0.677349  0.999503  0.942744  1
  Br  Br34  1  0.666650  0.015081  0.193290  1
  Br  Br35  1  0.651412  0.985100  0.692966  1
