# generated using pymatgen
data_Nd5Pu3Zn3Si12Rh
_symmetry_space_group_name_H-M   'P 1'
_cell_length_a   8.20222259
_cell_length_b   8.20222269
_cell_length_c   8.32270260
_cell_angle_alpha   90.08491817
_cell_angle_beta   89.91507854
_cell_angle_gamma   120.11014315
_symmetry_Int_Tables_number   1
_chemical_formula_structural   Nd5Pu3Zn3Si12Rh
_chemical_formula_sum   'Nd5 Pu3 Zn3 Si12 Rh1'
_cell_volume   484.36683174
_cell_formula_units_Z   1
loop_
 _symmetry_equiv_pos_site_id
 _symmetry_equiv_pos_as_xyz
  1  'x, y, z'
loop_
 _atom_site_type_symbol
 _atom_site_label
 _atom_site_symmetry_multiplicity
 _atom_site_fract_x
 _atom_site_fract_y
 _atom_site_fract_z
 _atom_site_occupancy
  Nd  Nd0  1  0.499072  0.997984  0.752270  1
  Nd  Nd1  1  0.002016  0.500928  0.752270  1
  Nd  Nd2  1  0.499427  0.500573  0.247952  1
  Nd  Nd3  1  0.001639  0.500534  0.247303  1
  Nd  Nd4  1  0.499466  0.998361  0.247303  1
  Pu  Pu5  1  0.999992  0.000008  0.749029  1
  Pu  Pu6  1  0.000027  0.999973  0.251000  1
  Pu  Pu7  1  0.497498  0.502502  0.752981  1
  Zn  Zn8  1  0.666570  0.333430  0.997408  1
  Zn  Zn9  1  0.666739  0.333261  0.502553  1
  Zn  Zn10  1  0.333070  0.666930  0.499805  1
  Si  Si11  1  0.838724  0.161276  0.000774  1
  Si  Si12  1  0.837130  0.675799  0.997131  1
  Si  Si13  1  0.324201  0.162870  0.997131  1
  Si  Si14  1  0.836318  0.163682  0.499412  1
  Si  Si15  1  0.834085  0.670394  0.503869  1
  Si  Si16  1  0.329606  0.165915  0.503869  1
  Si  Si17  1  0.164314  0.835686  0.499266  1
  Si  Si18  1  0.669253  0.833400  0.502787  1
  Si  Si19  1  0.166600  0.330747  0.502787  1
  Si  Si20  1  0.167131  0.832869  0.000794  1
  Si  Si21  1  0.665131  0.831619  0.996479  1
  Si  Si22  1  0.168381  0.334869  0.996479  1
  Rh  Rh23  1  0.333614  0.666386  0.999351  1
