# generated using pymatgen
data_Ca6ReBiO12
_symmetry_space_group_name_H-M   'P 1'
_cell_length_a   6.67767710
_cell_length_b   6.67767803
_cell_length_c   6.67767700
_cell_angle_alpha   91.91645216
_cell_angle_beta   91.91644384
_cell_angle_gamma   91.91644961
_symmetry_Int_Tables_number   1
_chemical_formula_structural   Ca6ReBiO12
_chemical_formula_sum   'Ca6 Re1 Bi1 O12'
_cell_volume   297.25571936
_cell_formula_units_Z   1
loop_
 _symmetry_equiv_pos_site_id
 _symmetry_equiv_pos_as_xyz
  1  'x, y, z'
loop_
 _atom_site_type_symbol
 _atom_site_label
 _atom_site_symmetry_multiplicity
 _atom_site_fract_x
 _atom_site_fract_y
 _atom_site_fract_z
 _atom_site_occupancy
  Ca  Ca0  1  0.065107  0.251630  0.565835  1
  Ca  Ca1  1  0.434165  0.934893  0.748370  1
  Ca  Ca2  1  0.748370  0.434165  0.934893  1
  Ca  Ca3  1  0.251630  0.565835  0.065107  1
  Ca  Ca4  1  0.565835  0.065107  0.251630  1
  Ca  Ca5  1  0.934893  0.748370  0.434165  1
  Re  Re6  1  0.500000  0.500000  0.500000  1
  Bi  Bi7  1  0.000000  0.000000  0.000000  1
  O  O8  1  0.070227  0.303558  0.921504  1
  O  O9  1  0.078496  0.929773  0.696442  1
  O  O10  1  0.454676  0.573321  0.773054  1
  O  O11  1  0.696442  0.078496  0.929773  1
  O  O12  1  0.226946  0.545324  0.426679  1
  O  O13  1  0.426679  0.226946  0.545324  1
  O  O14  1  0.573321  0.773054  0.454676  1
  O  O15  1  0.773054  0.454676  0.573321  1
  O  O16  1  0.303558  0.921504  0.070227  1
  O  O17  1  0.545324  0.426679  0.226946  1
  O  O18  1  0.921504  0.070227  0.303558  1
  O  O19  1  0.929773  0.696442  0.078496  1
