# generated using pymatgen
data_Ca8Nb3RuO18
_symmetry_space_group_name_H-M   'P 1'
_cell_length_a   5.69169801
_cell_length_b   5.69144511
_cell_length_c   15.30341078
_cell_angle_alpha   90.00954260
_cell_angle_beta   89.98276100
_cell_angle_gamma   120.00527596
_symmetry_Int_Tables_number   1
_chemical_formula_structural   Ca8Nb3RuO18
_chemical_formula_sum   'Ca8 Nb3 Ru1 O18'
_cell_volume   429.29927750
_cell_formula_units_Z   1
loop_
 _symmetry_equiv_pos_site_id
 _symmetry_equiv_pos_as_xyz
  1  'x, y, z'
loop_
 _atom_site_type_symbol
 _atom_site_label
 _atom_site_symmetry_multiplicity
 _atom_site_fract_x
 _atom_site_fract_y
 _atom_site_fract_z
 _atom_site_occupancy
  Ca  Ca0  1  0.000049  0.000001  0.220294  1
  Ca  Ca1  1  0.999968  0.999994  0.496816  1
  Ca  Ca2  1  0.999934  0.999891  0.997057  1
  Ca  Ca3  1  0.333425  0.666764  0.350087  1
  Ca  Ca4  1  0.333375  0.666634  0.136700  1
  Ca  Ca5  1  0.666588  0.333275  0.855704  1
  Ca  Ca6  1  0.666569  0.333319  0.644992  1
  Ca  Ca7  1  0.999948  0.000025  0.730931  1
  Nb  Nb8  1  0.333254  0.666568  0.852927  1
  Nb  Nb9  1  0.333129  0.666612  0.652278  1
  Nb  Nb10  1  0.666894  0.333509  0.353140  1
  Ru  Ru11  1  0.666715  0.333375  0.160168  1
  O  O12  1  0.028590  0.606422  0.750877  1
  O  O13  1  0.279099  0.943328  0.601681  1
  O  O14  1  0.297129  0.946599  0.906685  1
  O  O15  1  0.056541  0.335749  0.601690  1
  O  O16  1  0.053199  0.350338  0.906660  1
  O  O17  1  0.577636  0.971268  0.750884  1
  O  O18  1  0.393566  0.422266  0.750875  1
  O  O19  1  0.341678  0.272211  0.101944  1
  O  O20  1  0.353839  0.303712  0.406451  1
  O  O21  1  0.664071  0.720813  0.601653  1
  O  O22  1  0.649420  0.702766  0.906707  1
  O  O23  1  0.606296  0.578710  0.248702  1
  O  O24  1  0.421433  0.027585  0.248717  1
  O  O25  1  0.930673  0.658305  0.101946  1
  O  O26  1  0.950026  0.646492  0.406371  1
  O  O27  1  0.727825  0.069381  0.101954  1
  O  O28  1  0.696614  0.050264  0.406406  1
  O  O29  1  0.972521  0.393820  0.248702  1
