# generated using pymatgen
data_Ho20Cd5Ni2Hg
_symmetry_space_group_name_H-M   'P 1'
_cell_length_a   9.55069803
_cell_length_b   9.55069896
_cell_length_c   9.67647800
_cell_angle_alpha   90.00000000
_cell_angle_beta   90.00000000
_cell_angle_gamma   119.90266868
_symmetry_Int_Tables_number   1
_chemical_formula_structural   Ho20Cd5Ni2Hg
_chemical_formula_sum   'Ho20 Cd5 Ni2 Hg1'
_cell_volume   765.14426175
_cell_formula_units_Z   1
loop_
 _symmetry_equiv_pos_site_id
 _symmetry_equiv_pos_as_xyz
  1  'x, y, z'
loop_
 _atom_site_type_symbol
 _atom_site_label
 _atom_site_symmetry_multiplicity
 _atom_site_fract_x
 _atom_site_fract_y
 _atom_site_fract_z
 _atom_site_occupancy
  Ho  Ho0  1  0.998277  0.001723  0.496633  1
  Ho  Ho1  1  0.998277  0.001723  0.003367  1
  Ho  Ho2  1  0.544233  0.455767  0.250000  1
  Ho  Ho3  1  0.546244  0.086334  0.250000  1
  Ho  Ho4  1  0.913666  0.453756  0.250000  1
  Ho  Ho5  1  0.456646  0.543354  0.750000  1
  Ho  Ho6  1  0.456091  0.912562  0.750000  1
  Ho  Ho7  1  0.087438  0.543909  0.750000  1
  Ho  Ho8  1  0.210332  0.789668  0.437370  1
  Ho  Ho9  1  0.211609  0.421718  0.437679  1
  Ho  Ho10  1  0.578282  0.788391  0.437679  1
  Ho  Ho11  1  0.789298  0.210702  0.563183  1
  Ho  Ho12  1  0.789681  0.578923  0.561987  1
  Ho  Ho13  1  0.421077  0.210319  0.561987  1
  Ho  Ho14  1  0.789298  0.210702  0.936817  1
  Ho  Ho15  1  0.789681  0.578923  0.938013  1
  Ho  Ho16  1  0.421077  0.210319  0.938013  1
  Ho  Ho17  1  0.210332  0.789668  0.062630  1
  Ho  Ho18  1  0.211609  0.421718  0.062321  1
  Ho  Ho19  1  0.578282  0.788391  0.062321  1
  Cd  Cd20  1  0.883902  0.765432  0.250000  1
  Cd  Cd21  1  0.234568  0.116098  0.250000  1
  Cd  Cd22  1  0.114469  0.885531  0.750000  1
  Cd  Cd23  1  0.114666  0.230261  0.750000  1
  Cd  Cd24  1  0.769739  0.885334  0.750000  1
  Ni  Ni25  1  0.332919  0.667081  0.250000  1
  Ni  Ni26  1  0.666593  0.333407  0.750000  1
  Hg  Hg27  1  0.881710  0.118290  0.250000  1
