# generated using pymatgen
data_HoTaTlSb5O18
_symmetry_space_group_name_H-M   'P 1'
_cell_length_a   7.53295653
_cell_length_b   5.37329672
_cell_length_c   8.21926205
_cell_angle_alpha   86.02490630
_cell_angle_beta   89.82496717
_cell_angle_gamma   90.02104754
_symmetry_Int_Tables_number   1
_chemical_formula_structural   HoTaTlSb5O18
_chemical_formula_sum   'Ho1 Ta1 Tl1 Sb5 O18'
_cell_volume   331.88755078
_cell_formula_units_Z   1
loop_
 _symmetry_equiv_pos_site_id
 _symmetry_equiv_pos_as_xyz
  1  'x, y, z'
loop_
 _atom_site_type_symbol
 _atom_site_label
 _atom_site_symmetry_multiplicity
 _atom_site_fract_x
 _atom_site_fract_y
 _atom_site_fract_z
 _atom_site_occupancy
  Ho  Ho0  1  0.750407  0.035258  0.568321  1
  Ta  Ta1  1  0.499676  0.998811  0.998755  1
  Tl  Tl2  1  0.249515  0.966888  0.429438  1
  Sb  Sb3  1  0.999680  0.999730  0.998958  1
  Sb  Sb4  1  0.495970  0.535763  0.694930  1
  Sb  Sb5  1  0.004368  0.532395  0.696705  1
  Sb  Sb6  1  0.994137  0.470077  0.304406  1
  Sb  Sb7  1  0.505636  0.466151  0.306479  1
  O  O8  1  0.250219  0.901255  0.985232  1
  O  O9  1  0.936761  0.857985  0.779115  1
  O  O10  1  0.564869  0.855068  0.780148  1
  O  O11  1  0.951670  0.734391  0.474145  1
  O  O12  1  0.548712  0.734607  0.472143  1
  O  O13  1  0.250018  0.670997  0.656430  1
  O  O14  1  0.931399  0.675486  0.114572  1
  O  O15  1  0.556287  0.681342  0.118826  1
  O  O16  1  0.249697  0.591370  0.310823  1
  O  O17  1  0.750644  0.403870  0.690818  1
  O  O18  1  0.068941  0.325955  0.885449  1
  O  O19  1  0.443549  0.320495  0.881939  1
  O  O20  1  0.750110  0.328395  0.344731  1
  O  O21  1  0.038221  0.259867  0.527305  1
  O  O22  1  0.462189  0.259739  0.529633  1
  O  O23  1  0.060427  0.146071  0.218584  1
  O  O24  1  0.437436  0.148543  0.217977  1
  O  O25  1  0.749462  0.099492  0.014139  1
