# generated using pymatgen
data_BaH4Se3
_symmetry_space_group_name_H-M   'P 1'
_cell_length_a   9.01715500
_cell_length_b   4.76668704
_cell_length_c   8.49551883
_cell_angle_alpha   89.69329986
_cell_angle_beta   90.00000000
_cell_angle_gamma   90.00000000
_symmetry_Int_Tables_number   1
_chemical_formula_structural   BaH4Se3
_chemical_formula_sum   'Ba2 H8 Se6'
_cell_volume   365.14878387
_cell_formula_units_Z   2
loop_
 _symmetry_equiv_pos_site_id
 _symmetry_equiv_pos_as_xyz
  1  'x, y, z'
loop_
 _atom_site_type_symbol
 _atom_site_label
 _atom_site_symmetry_multiplicity
 _atom_site_fract_x
 _atom_site_fract_y
 _atom_site_fract_z
 _atom_site_occupancy
  Ba  Ba0  1  0.745849  0.997168  0.627944  1
  Ba  Ba1  1  0.245849  0.002832  0.372056  1
  H  H2  1  0.833308  0.770236  0.124542  1
  H  H3  1  0.833411  0.219176  0.117708  1
  H  H4  1  0.333308  0.229764  0.875458  1
  H  H5  1  0.333411  0.780824  0.882292  1
  H  H6  1  0.602144  0.479715  0.959836  1
  H  H7  1  0.102144  0.520285  0.040164  1
  H  H8  1  0.588610  0.504275  0.297592  1
  H  H9  1  0.088610  0.495725  0.702408  1
  Se  Se10  1  0.877697  0.997806  0.239862  1
  Se  Se11  1  0.377697  0.002194  0.760138  1
  Se  Se12  1  0.758762  0.491393  0.906466  1
  Se  Se13  1  0.258762  0.508607  0.093534  1
  Se  Se14  1  0.519823  0.500059  0.456353  1
  Se  Se15  1  0.019823  0.499941  0.543647  1
