# generated using pymatgen
data_Sr3Pa(PPd)4
_symmetry_space_group_name_H-M   'P 1'
_cell_length_a   4.22182600
_cell_length_b   8.23353111
_cell_length_c   7.35694230
_cell_angle_alpha   90.26868258
_cell_angle_beta   90.00000000
_cell_angle_gamma   90.00000000
_symmetry_Int_Tables_number   1
_chemical_formula_structural   Sr3Pa(PPd)4
_chemical_formula_sum   'Sr3 Pa1 P4 Pd4'
_cell_volume   255.72844389
_cell_formula_units_Z   1
loop_
 _symmetry_equiv_pos_site_id
 _symmetry_equiv_pos_as_xyz
  1  'x, y, z'
loop_
 _atom_site_type_symbol
 _atom_site_label
 _atom_site_symmetry_multiplicity
 _atom_site_fract_x
 _atom_site_fract_y
 _atom_site_fract_z
 _atom_site_occupancy
  Sr  Sr0  1  0.750000  0.499835  0.749681  1
  Sr  Sr1  1  0.750000  0.000008  0.750053  1
  Sr  Sr2  1  0.250000  0.000175  0.249820  1
  Pa  Pa3  1  0.250000  0.500072  0.250063  1
  P  P4  1  0.250000  0.736095  0.922325  1
  P  P5  1  0.750000  0.289428  0.090331  1
  P  P6  1  0.750000  0.711322  0.409779  1
  P  P7  1  0.250000  0.262950  0.577924  1
  Pd  Pd8  1  0.250000  0.738119  0.576753  1
  Pd  Pd9  1  0.750000  0.256605  0.412843  1
  Pd  Pd10  1  0.750000  0.743234  0.087077  1
  Pd  Pd11  1  0.250000  0.262156  0.923351  1
