# generated using pymatgen
data_Ho10Ir3Os
_symmetry_space_group_name_H-M   'P 1'
_cell_length_a   6.46879206
_cell_length_b   7.24233434
_cell_length_c   8.43868803
_cell_angle_alpha   96.42085156
_cell_angle_beta   112.25094635
_cell_angle_gamma   89.97326447
_symmetry_Int_Tables_number   1
_chemical_formula_structural   Ho10Ir3Os
_chemical_formula_sum   'Ho10 Ir3 Os1'
_cell_volume   363.23333591
_cell_formula_units_Z   1
loop_
 _symmetry_equiv_pos_site_id
 _symmetry_equiv_pos_as_xyz
  1  'x, y, z'
loop_
 _atom_site_type_symbol
 _atom_site_label
 _atom_site_symmetry_multiplicity
 _atom_site_fract_x
 _atom_site_fract_y
 _atom_site_fract_z
 _atom_site_occupancy
  Ho  Ho0  1  0.971759  0.916654  0.183091  1
  Ho  Ho1  1  0.790112  0.582414  0.821089  1
  Ho  Ho2  1  0.028438  0.082521  0.818098  1
  Ho  Ho3  1  0.210442  0.417983  0.183284  1
  Ho  Ho4  1  0.656156  0.816930  0.439844  1
  Ho  Ho5  1  0.210874  0.681820  0.557290  1
  Ho  Ho6  1  0.345918  0.182007  0.559226  1
  Ho  Ho7  1  0.786055  0.318720  0.439712  1
  Ho  Ho8  1  0.427263  0.749615  0.000399  1
  Ho  Ho9  1  0.574952  0.251525  0.000681  1
  Ir  Ir10  1  0.606814  0.927041  0.779976  1
  Ir  Ir11  1  0.173086  0.425587  0.780572  1
  Ir  Ir12  1  0.392154  0.073690  0.219540  1
  Os  Os13  1  0.825977  0.573493  0.217197  1
