# generated using pymatgen
data_KAs5Pd9
_symmetry_space_group_name_H-M   'P 1'
_cell_length_a   7.25487700
_cell_length_b   7.25487744
_cell_length_c   12.58927800
_cell_angle_alpha   90.00000000
_cell_angle_beta   90.00000000
_cell_angle_gamma   120.00000256
_symmetry_Int_Tables_number   1
_chemical_formula_structural   KAs5Pd9
_chemical_formula_sum   'K2 As10 Pd18'
_cell_volume   573.84100450
_cell_formula_units_Z   2
loop_
 _symmetry_equiv_pos_site_id
 _symmetry_equiv_pos_as_xyz
  1  'x, y, z'
loop_
 _atom_site_type_symbol
 _atom_site_label
 _atom_site_symmetry_multiplicity
 _atom_site_fract_x
 _atom_site_fract_y
 _atom_site_fract_z
 _atom_site_occupancy
  K  K0  1  0.000000  0.000000  0.500000  1
  K  K1  1  0.000000  0.000000  0.000000  1
  As  As2  1  0.179104  0.358208  0.750000  1
  As  As3  1  0.820896  0.179104  0.250000  1
  As  As4  1  0.179104  0.820896  0.750000  1
  As  As5  1  0.820896  0.641792  0.250000  1
  As  As6  1  0.333333  0.666667  0.441781  1
  As  As7  1  0.666667  0.333333  0.941781  1
  As  As8  1  0.666667  0.333333  0.558219  1
  As  As9  1  0.333333  0.666667  0.058219  1
  As  As10  1  0.358208  0.179104  0.250000  1
  As  As11  1  0.641792  0.820896  0.750000  1
  Pd  Pd12  1  0.465880  0.931761  0.893622  1
  Pd  Pd13  1  0.931761  0.465880  0.106378  1
  Pd  Pd14  1  0.534120  0.068239  0.106378  1
  Pd  Pd15  1  0.068239  0.534120  0.606378  1
  Pd  Pd16  1  0.202443  0.404886  0.250000  1
  Pd  Pd17  1  0.797557  0.202443  0.750000  1
  Pd  Pd18  1  0.404886  0.202443  0.750000  1
  Pd  Pd19  1  0.595114  0.797557  0.250000  1
  Pd  Pd20  1  0.202443  0.797557  0.250000  1
  Pd  Pd21  1  0.797557  0.595114  0.750000  1
  Pd  Pd22  1  0.465880  0.931761  0.606378  1
  Pd  Pd23  1  0.534120  0.465880  0.393622  1
  Pd  Pd24  1  0.931761  0.465880  0.393622  1
  Pd  Pd25  1  0.068239  0.534120  0.893622  1
  Pd  Pd26  1  0.465880  0.534120  0.893622  1
  Pd  Pd27  1  0.534120  0.068239  0.393622  1
  Pd  Pd28  1  0.534120  0.465880  0.106378  1
  Pd  Pd29  1  0.465880  0.534120  0.606378  1
