# generated using pymatgen
data_SrGa2GePd
_symmetry_space_group_name_H-M   'P 1'
_cell_length_a   6.24048074
_cell_length_b   6.24048079
_cell_length_c   5.97345200
_cell_angle_alpha   90.00000000
_cell_angle_beta   90.00000000
_cell_angle_gamma   115.74040351
_symmetry_Int_Tables_number   1
_chemical_formula_structural   SrGa2GePd
_chemical_formula_sum   'Sr2 Ga4 Ge2 Pd2'
_cell_volume   209.54430786
_cell_formula_units_Z   2
loop_
 _symmetry_equiv_pos_site_id
 _symmetry_equiv_pos_as_xyz
  1  'x, y, z'
loop_
 _atom_site_type_symbol
 _atom_site_label
 _atom_site_symmetry_multiplicity
 _atom_site_fract_x
 _atom_site_fract_y
 _atom_site_fract_z
 _atom_site_occupancy
  Sr  Sr0  1  0.234731  0.765269  0.750000  1
  Sr  Sr1  1  0.765269  0.234731  0.250000  1
  Ga  Ga2  1  0.724654  0.724654  0.000000  1
  Ga  Ga3  1  0.724654  0.724654  0.500000  1
  Ga  Ga4  1  0.275346  0.275346  0.000000  1
  Ga  Ga5  1  0.275346  0.275346  0.500000  1
  Ge  Ge6  1  0.658578  0.341422  0.750000  1
  Ge  Ge7  1  0.341422  0.658578  0.250000  1
  Pd  Pd8  1  0.900970  0.099030  0.750000  1
  Pd  Pd9  1  0.099030  0.900970  0.250000  1
