# generated using pymatgen
data_TaFe2MoCl16
_symmetry_space_group_name_H-M   'P 1'
_cell_length_a   9.91785320
_cell_length_b   9.91785283
_cell_length_c   8.66408300
_cell_angle_alpha   90.00000000
_cell_angle_beta   90.00000000
_cell_angle_gamma   129.03192959
_symmetry_Int_Tables_number   1
_chemical_formula_structural   TaFe2MoCl16
_chemical_formula_sum   'Ta1 Fe2 Mo1 Cl16'
_cell_volume   662.00982745
_cell_formula_units_Z   1
loop_
 _symmetry_equiv_pos_site_id
 _symmetry_equiv_pos_as_xyz
  1  'x, y, z'
loop_
 _atom_site_type_symbol
 _atom_site_label
 _atom_site_symmetry_multiplicity
 _atom_site_fract_x
 _atom_site_fract_y
 _atom_site_fract_z
 _atom_site_occupancy
  Ta  Ta0  1  0.115542  0.884458  0.750000  1
  Fe  Fe1  1  0.314354  0.685646  0.750000  1
  Fe  Fe2  1  0.687299  0.312701  0.250000  1
  Mo  Mo3  1  0.883231  0.116769  0.250000  1
  Cl  Cl4  1  0.379588  0.620412  0.542018  1
  Cl  Cl5  1  0.621085  0.378915  0.457436  1
  Cl  Cl6  1  0.425053  0.970574  0.750000  1
  Cl  Cl7  1  0.973356  0.427184  0.250000  1
  Cl  Cl8  1  0.572816  0.026644  0.250000  1
  Cl  Cl9  1  0.029426  0.574947  0.750000  1
  Cl  Cl10  1  0.238160  0.169349  0.750000  1
  Cl  Cl11  1  0.164028  0.229590  0.250000  1
  Cl  Cl12  1  0.770410  0.835972  0.250000  1
  Cl  Cl13  1  0.830651  0.761840  0.750000  1
  Cl  Cl14  1  0.133523  0.866477  0.485087  1
  Cl  Cl15  1  0.863641  0.136359  0.509443  1
  Cl  Cl16  1  0.863641  0.136359  0.990557  1
  Cl  Cl17  1  0.133523  0.866477  0.014913  1
  Cl  Cl18  1  0.379588  0.620412  0.957982  1
  Cl  Cl19  1  0.621085  0.378915  0.042564  1
