# generated using pymatgen
data_Pr2ScBiO7
_symmetry_space_group_name_H-M   'P 1'
_cell_length_a   7.76260302
_cell_length_b   7.69086369
_cell_length_c   7.69086305
_cell_angle_alpha   59.69981546
_cell_angle_beta   59.69095330
_cell_angle_gamma   59.69095209
_symmetry_Int_Tables_number   1
_chemical_formula_structural   Pr2ScBiO7
_chemical_formula_sum   'Pr4 Sc2 Bi2 O14'
_cell_volume   322.41282590
_cell_formula_units_Z   2
loop_
 _symmetry_equiv_pos_site_id
 _symmetry_equiv_pos_as_xyz
  1  'x, y, z'
loop_
 _atom_site_type_symbol
 _atom_site_label
 _atom_site_symmetry_multiplicity
 _atom_site_fract_x
 _atom_site_fract_y
 _atom_site_fract_z
 _atom_site_occupancy
  Pr  Pr0  1  0.625000  0.125000  0.125000  1
  Pr  Pr1  1  0.125000  0.125000  0.125000  1
  Pr  Pr2  1  0.125000  0.625000  0.125000  1
  Pr  Pr3  1  0.125000  0.125000  0.625000  1
  Sc  Sc4  1  0.625000  0.625000  0.125000  1
  Sc  Sc5  1  0.625000  0.125000  0.625000  1
  Bi  Bi6  1  0.625000  0.625000  0.625000  1
  Bi  Bi7  1  0.125000  0.625000  0.625000  1
  O  O8  1  0.710731  0.289269  0.289269  1
  O  O9  1  0.714089  0.707849  0.289774  1
  O  O10  1  0.288288  0.707849  0.289774  1
  O  O11  1  0.001159  0.998841  0.998841  1
  O  O12  1  0.714089  0.289774  0.707849  1
  O  O13  1  0.962955  0.537045  0.537045  1
  O  O14  1  0.287045  0.712955  0.712955  1
  O  O15  1  0.535911  0.960226  0.542151  1
  O  O16  1  0.248841  0.251159  0.251159  1
  O  O17  1  0.961712  0.542151  0.960226  1
  O  O18  1  0.535911  0.542151  0.960226  1
  O  O19  1  0.961712  0.960226  0.542151  1
  O  O20  1  0.539269  0.960731  0.960731  1
  O  O21  1  0.288288  0.289774  0.707849  1
