# generated using pymatgen
data_Ho2TmIn3Cu2Hg
_symmetry_space_group_name_H-M   'P 1'
_cell_length_a   7.65449459
_cell_length_b   7.67034838
_cell_length_c   3.93357800
_cell_angle_alpha   90.00000000
_cell_angle_beta   90.00000000
_cell_angle_gamma   120.04262352
_symmetry_Int_Tables_number   1
_chemical_formula_structural   Ho2TmIn3Cu2Hg
_chemical_formula_sum   'Ho2 Tm1 In3 Cu2 Hg1'
_cell_volume   199.92325649
_cell_formula_units_Z   1
loop_
 _symmetry_equiv_pos_site_id
 _symmetry_equiv_pos_as_xyz
  1  'x, y, z'
loop_
 _atom_site_type_symbol
 _atom_site_label
 _atom_site_symmetry_multiplicity
 _atom_site_fract_x
 _atom_site_fract_y
 _atom_site_fract_z
 _atom_site_occupancy
  Ho  Ho0  1  0.414447  0.398933  0.500000  1
  Ho  Ho1  1  0.601285  0.015645  0.500000  1
  Tm  Tm2  1  0.983605  0.585658  0.500000  1
  In  In3  1  0.754700  0.743464  0.000000  1
  In  In4  1  0.990081  0.246504  0.000000  1
  In  In5  1  0.255859  0.009964  0.000000  1
  Cu  Cu6  1  0.999916  0.999115  0.500000  1
  Cu  Cu7  1  0.668591  0.334561  0.000000  1
  Hg  Hg8  1  0.331518  0.666156  0.000000  1
