# generated using pymatgen
data_YbLuPa2Ge6Os7
_symmetry_space_group_name_H-M   'P 1'
_cell_length_a   7.23287666
_cell_length_b   7.23583651
_cell_length_c   7.23050675
_cell_angle_alpha   109.37430845
_cell_angle_beta   109.50561363
_cell_angle_gamma   109.53543731
_symmetry_Int_Tables_number   1
_chemical_formula_structural   YbLuPa2Ge6Os7
_chemical_formula_sum   'Yb1 Lu1 Pa2 Ge6 Os7'
_cell_volume   291.29754378
_cell_formula_units_Z   1
loop_
 _symmetry_equiv_pos_site_id
 _symmetry_equiv_pos_as_xyz
  1  'x, y, z'
loop_
 _atom_site_type_symbol
 _atom_site_label
 _atom_site_symmetry_multiplicity
 _atom_site_fract_x
 _atom_site_fract_y
 _atom_site_fract_z
 _atom_site_occupancy
  Yb  Yb0  1  0.000000  0.500000  0.000000  1
  Lu  Lu1  1  0.000000  0.000000  0.500000  1
  Pa  Pa2  1  0.500000  0.000000  0.000000  1
  Pa  Pa3  1  0.500000  0.500000  0.500000  1
  Ge  Ge4  1  0.697495  0.688421  0.005643  1
  Ge  Ge5  1  0.302505  0.990926  0.308148  1
  Ge  Ge6  1  0.000000  0.311829  0.308619  1
  Ge  Ge7  1  0.302505  0.311579  0.994357  1
  Ge  Ge8  1  0.697495  0.009074  0.691852  1
  Ge  Ge9  1  0.000000  0.688171  0.691381  1
  Os  Os10  1  0.744363  0.247768  0.493339  1
  Os  Os11  1  0.744363  0.496594  0.251024  1
  Os  Os12  1  0.496476  0.248238  0.748238  1
  Os  Os13  1  0.255637  0.503406  0.748976  1
  Os  Os14  1  0.255637  0.752232  0.506661  1
  Os  Os15  1  0.503524  0.751762  0.251762  1
  Os  Os16  1  0.000000  0.000000  0.000000  1
