# generated using pymatgen
data_Ca2BeIrI
_symmetry_space_group_name_H-M   'P 1'
_cell_length_a   3.98600800
_cell_length_b   3.98600870
_cell_length_c   17.47087800
_cell_angle_alpha   90.00000000
_cell_angle_beta   90.00000000
_cell_angle_gamma   119.99999416
_symmetry_Int_Tables_number   1
_chemical_formula_structural   Ca2BeIrI
_chemical_formula_sum   'Ca4 Be2 Ir2 I2'
_cell_volume   240.39298872
_cell_formula_units_Z   2
loop_
 _symmetry_equiv_pos_site_id
 _symmetry_equiv_pos_as_xyz
  1  'x, y, z'
loop_
 _atom_site_type_symbol
 _atom_site_label
 _atom_site_symmetry_multiplicity
 _atom_site_fract_x
 _atom_site_fract_y
 _atom_site_fract_z
 _atom_site_occupancy
  Ca  Ca0  1  0.000000  0.000000  0.609699  1
  Ca  Ca1  1  0.000000  0.000000  0.390162  1
  Ca  Ca2  1  0.000000  0.000000  0.109699  1
  Ca  Ca3  1  0.000000  0.000000  0.890162  1
  Be  Be4  1  0.666667  0.333333  0.500402  1
  Be  Be5  1  0.333333  0.666667  0.000402  1
  Ir  Ir6  1  0.666667  0.333333  0.999711  1
  Ir  Ir7  1  0.333333  0.666667  0.499711  1
  I  I8  1  0.666667  0.333333  0.250026  1
  I  I9  1  0.333333  0.666667  0.750026  1
