# generated using pymatgen
data_Er4Ge2Sb3AsRh7
_symmetry_space_group_name_H-M   'P 1'
_cell_length_a   7.40879923
_cell_length_b   7.40880009
_cell_length_c   7.45545411
_cell_angle_alpha   109.58880429
_cell_angle_beta   109.58881313
_cell_angle_gamma   109.34164919
_symmetry_Int_Tables_number   1
_chemical_formula_structural   Er4Ge2Sb3AsRh7
_chemical_formula_sum   'Er4 Ge2 Sb3 As1 Rh7'
_cell_volume   314.61439072
_cell_formula_units_Z   1
loop_
 _symmetry_equiv_pos_site_id
 _symmetry_equiv_pos_as_xyz
  1  'x, y, z'
loop_
 _atom_site_type_symbol
 _atom_site_label
 _atom_site_symmetry_multiplicity
 _atom_site_fract_x
 _atom_site_fract_y
 _atom_site_fract_z
 _atom_site_occupancy
  Er  Er0  1  0.999073  0.999073  0.546425  1
  Er  Er1  1  0.999840  0.477630  0.987988  1
  Er  Er2  1  0.477630  0.999840  0.987988  1
  Er  Er3  1  0.520730  0.520730  0.508792  1
  Ge  Ge4  1  0.663923  0.998824  0.672769  1
  Ge  Ge5  1  0.998824  0.663923  0.672769  1
  Sb  Sb6  1  0.700249  0.700249  0.009057  1
  Sb  Sb7  1  0.303331  0.999310  0.313543  1
  Sb  Sb8  1  0.999310  0.303331  0.313543  1
  As  As9  1  0.334220  0.334220  0.006265  1
  Rh  Rh10  1  0.748733  0.248370  0.502937  1
  Rh  Rh11  1  0.750788  0.500621  0.252730  1
  Rh  Rh12  1  0.501835  0.253109  0.754532  1
  Rh  Rh13  1  0.253109  0.501835  0.754532  1
  Rh  Rh14  1  0.248370  0.748733  0.502937  1
  Rh  Rh15  1  0.500621  0.750788  0.252730  1
  Rh  Rh16  1  0.999414  0.999414  0.960462  1
