# generated using pymatgen
data_U8Re3TcB24
_symmetry_space_group_name_H-M   'P 1'
_cell_length_a   3.64235200
_cell_length_b   9.28297527
_cell_length_c   11.37474933
_cell_angle_alpha   90.02742158
_cell_angle_beta   90.00000000
_cell_angle_gamma   90.00000000
_symmetry_Int_Tables_number   1
_chemical_formula_structural   U8Re3TcB24
_chemical_formula_sum   'U8 Re3 Tc1 B24'
_cell_volume   384.60142779
_cell_formula_units_Z   1
loop_
 _symmetry_equiv_pos_site_id
 _symmetry_equiv_pos_as_xyz
  1  'x, y, z'
loop_
 _atom_site_type_symbol
 _atom_site_label
 _atom_site_symmetry_multiplicity
 _atom_site_fract_x
 _atom_site_fract_y
 _atom_site_fract_z
 _atom_site_occupancy
  U  U0  1  0.000000  0.336419  0.407304  1
  U  U1  1  0.000000  0.663581  0.592850  1
  U  U2  1  0.000000  0.836588  0.092434  1
  U  U3  1  0.000000  0.163975  0.907386  1
  U  U4  1  0.000000  0.956002  0.395370  1
  U  U5  1  0.000000  0.043744  0.604432  1
  U  U6  1  0.000000  0.456472  0.104841  1
  U  U7  1  0.000000  0.543737  0.895709  1
  Re  Re8  1  0.000000  0.355892  0.679840  1
  Re  Re9  1  0.000000  0.144156  0.179474  1
  Re  Re10  1  0.000000  0.855775  0.820254  1
  Tc  Tc11  1  0.000000  0.643665  0.320364  1
  B  B12  1  0.500000  0.549893  0.432868  1
  B  B13  1  0.500000  0.450328  0.567079  1
  B  B14  1  0.500000  0.049800  0.067045  1
  B  B15  1  0.500000  0.950284  0.932811  1
  B  B16  1  0.500000  0.742335  0.423630  1
  B  B17  1  0.500000  0.257260  0.576135  1
  B  B18  1  0.500000  0.242913  0.076255  1
  B  B19  1  0.500000  0.757278  0.923869  1
  B  B20  1  0.500000  0.803639  0.273112  1
  B  B21  1  0.500000  0.196248  0.726773  1
  B  B22  1  0.500000  0.303833  0.226839  1
  B  B23  1  0.500000  0.696268  0.773219  1
  B  B24  1  0.500000  0.644759  0.188362  1
  B  B25  1  0.500000  0.355345  0.811944  1
  B  B26  1  0.500000  0.144692  0.311739  1
  B  B27  1  0.500000  0.855234  0.688047  1
  B  B28  1  0.500000  0.985484  0.218913  1
  B  B29  1  0.500000  0.014406  0.780885  1
  B  B30  1  0.500000  0.485722  0.280954  1
  B  B31  1  0.500000  0.514397  0.719001  1
  B  B32  1  0.500000  0.643426  0.039928  1
  B  B33  1  0.500000  0.356933  0.960461  1
  B  B34  1  0.500000  0.143177  0.460279  1
  B  B35  1  0.500000  0.856339  0.539593  1
