# generated using pymatgen
data_Ce8Hf12Si15P
_symmetry_space_group_name_H-M   'P 1'
_cell_length_a   7.33324521
_cell_length_b   7.33768797
_cell_length_c   13.49822500
_cell_angle_alpha   89.80435175
_cell_angle_beta   89.95547283
_cell_angle_gamma   90.01288802
_symmetry_Int_Tables_number   1
_chemical_formula_structural   Ce8Hf12Si15P
_chemical_formula_sum   'Ce8 Hf12 Si15 P1'
_cell_volume   726.32239624
_cell_formula_units_Z   1
loop_
 _symmetry_equiv_pos_site_id
 _symmetry_equiv_pos_as_xyz
  1  'x, y, z'
loop_
 _atom_site_type_symbol
 _atom_site_label
 _atom_site_symmetry_multiplicity
 _atom_site_fract_x
 _atom_site_fract_y
 _atom_site_fract_z
 _atom_site_occupancy
  Ce  Ce0  1  0.998177  0.341558  0.216412  1
  Ce  Ce1  1  0.007049  0.658819  0.714552  1
  Ce  Ce2  1  0.158229  0.494142  0.464035  1
  Ce  Ce3  1  0.507906  0.839915  0.034771  1
  Ce  Ce4  1  0.841903  0.505513  0.965076  1
  Ce  Ce5  1  0.494039  0.158486  0.534254  1
  Ce  Ce6  1  0.342618  0.994033  0.785360  1
  Ce  Ce7  1  0.653980  0.008605  0.285235  1
  Hf  Hf8  1  0.174345  0.174502  0.000174  1
  Hf  Hf9  1  0.826351  0.826846  0.499451  1
  Hf  Hf10  1  0.324792  0.673637  0.250601  1
  Hf  Hf11  1  0.674133  0.325638  0.750029  1
  Hf  Hf12  1  0.154652  0.001163  0.373098  1
  Hf  Hf13  1  0.848256  0.002937  0.875327  1
  Hf  Hf14  1  0.501984  0.652244  0.624849  1
  Hf  Hf15  1  0.348733  0.497469  0.874925  1
  Hf  Hf16  1  0.495041  0.344691  0.128417  1
  Hf  Hf17  1  0.649877  0.501169  0.375352  1
  Hf  Hf18  1  0.998240  0.152506  0.624832  1
  Hf  Hf19  1  0.999324  0.845884  0.124411  1
  Si  Si20  1  0.636655  0.703514  0.814784  1
  Si  Si21  1  0.202810  0.864358  0.563731  1
  Si  Si22  1  0.136474  0.796327  0.934383  1
  Si  Si23  1  0.796406  0.137052  0.066212  1
  Si  Si24  1  0.864329  0.203088  0.434574  1
  Si  Si25  1  0.297458  0.363192  0.684683  1
  Si  Si26  1  0.702525  0.634498  0.185901  1
  Si  Si27  1  0.291107  0.038493  0.180973  1
  Si  Si28  1  0.706392  0.953122  0.685184  1
  Si  Si29  1  0.452465  0.793887  0.435331  1
  Si  Si30  1  0.206663  0.546272  0.064745  1
  Si  Si31  1  0.547440  0.206298  0.936232  1
  Si  Si32  1  0.793955  0.453286  0.564771  1
  Si  Si33  1  0.047960  0.293905  0.814566  1
  Si  Si34  1  0.951478  0.708184  0.315126  1
  P  P35  1  0.366257  0.304769  0.317642  1
