# generated using pymatgen
data_Pr2TiSn7Ir4
_symmetry_space_group_name_H-M   'P 1'
_cell_length_a   4.51227600
_cell_length_b   7.26106000
_cell_length_c   18.41783100
_cell_angle_alpha   90.00000000
_cell_angle_beta   90.00000000
_cell_angle_gamma   90.00000000
_symmetry_Int_Tables_number   1
_chemical_formula_structural   Pr2TiSn7Ir4
_chemical_formula_sum   'Pr4 Ti2 Sn14 Ir8'
_cell_volume   603.44009784
_cell_formula_units_Z   2
loop_
 _symmetry_equiv_pos_site_id
 _symmetry_equiv_pos_as_xyz
  1  'x, y, z'
loop_
 _atom_site_type_symbol
 _atom_site_label
 _atom_site_symmetry_multiplicity
 _atom_site_fract_x
 _atom_site_fract_y
 _atom_site_fract_z
 _atom_site_occupancy
  Pr  Pr0  1  0.250000  0.988561  0.858931  1
  Pr  Pr1  1  0.250000  0.511439  0.358931  1
  Pr  Pr2  1  0.750000  0.011027  0.141809  1
  Pr  Pr3  1  0.750000  0.488973  0.641809  1
  Ti  Ti4  1  0.250000  0.327231  0.184022  1
  Ti  Ti5  1  0.250000  0.172769  0.684022  1
  Sn  Sn6  1  0.750000  0.685324  0.817320  1
  Sn  Sn7  1  0.750000  0.814676  0.317320  1
  Sn  Sn8  1  0.250000  0.725618  0.192697  1
  Sn  Sn9  1  0.250000  0.774382  0.692697  1
  Sn  Sn10  1  0.750000  0.269371  0.798456  1
  Sn  Sn11  1  0.750000  0.230629  0.298456  1
  Sn  Sn12  1  0.250000  0.855538  0.033649  1
  Sn  Sn13  1  0.250000  0.644462  0.533649  1
  Sn  Sn14  1  0.750000  0.130754  0.966985  1
  Sn  Sn15  1  0.750000  0.369246  0.466985  1
  Sn  Sn16  1  0.250000  0.504707  0.930964  1
  Sn  Sn17  1  0.250000  0.995293  0.430964  1
  Sn  Sn18  1  0.750000  0.467149  0.072095  1
  Sn  Sn19  1  0.750000  0.032851  0.572095  1
  Ir  Ir20  1  0.250000  0.241703  0.042648  1
  Ir  Ir21  1  0.250000  0.258297  0.542648  1
  Ir  Ir22  1  0.750000  0.738184  0.966229  1
  Ir  Ir23  1  0.750000  0.761816  0.466229  1
  Ir  Ir24  1  0.250000  0.033040  0.278515  1
  Ir  Ir25  1  0.250000  0.466960  0.778515  1
  Ir  Ir26  1  0.750000  0.974405  0.715682  1
  Ir  Ir27  1  0.750000  0.525595  0.215682  1
