# generated using pymatgen
data_Nd4Dy3Tm3Si8
_symmetry_space_group_name_H-M   'P 1'
_cell_length_a   7.74441241
_cell_length_b   7.74428404
_cell_length_c   14.26773215
_cell_angle_alpha   89.98902476
_cell_angle_beta   89.87786347
_cell_angle_gamma   89.99988317
_symmetry_Int_Tables_number   1
_chemical_formula_structural   Nd4Dy3Tm3Si8
_chemical_formula_sum   'Nd8 Dy6 Tm6 Si16'
_cell_volume   855.70426833
_cell_formula_units_Z   2
loop_
 _symmetry_equiv_pos_site_id
 _symmetry_equiv_pos_as_xyz
  1  'x, y, z'
loop_
 _atom_site_type_symbol
 _atom_site_label
 _atom_site_symmetry_multiplicity
 _atom_site_fract_x
 _atom_site_fract_y
 _atom_site_fract_z
 _atom_site_occupancy
  Nd  Nd0  1  0.642118  0.992343  0.458528  1
  Nd  Nd1  1  0.357890  0.007489  0.959231  1
  Nd  Nd2  1  0.992847  0.642161  0.540950  1
  Nd  Nd3  1  0.492203  0.857857  0.209118  1
  Nd  Nd4  1  0.507280  0.142093  0.708635  1
  Nd  Nd5  1  0.857937  0.492910  0.791355  1
  Nd  Nd6  1  0.142510  0.507141  0.290974  1
  Nd  Nd7  1  0.007041  0.357578  0.041414  1
  Dy  Dy8  1  0.492751  0.360787  0.124580  1
  Dy  Dy9  1  0.992567  0.139533  0.625406  1
  Dy  Dy10  1  0.860826  0.007360  0.874449  1
  Dy  Dy11  1  0.139276  0.992733  0.374224  1
  Dy  Dy12  1  0.507416  0.639234  0.624099  1
  Dy  Dy13  1  0.360463  0.492952  0.875976  1
  Tm  Tm14  1  0.639792  0.507095  0.375396  1
  Tm  Tm15  1  0.006671  0.860234  0.125984  1
  Tm  Tm16  1  0.318176  0.317641  0.499752  1
  Tm  Tm17  1  0.182664  0.817407  0.750018  1
  Tm  Tm18  1  0.817507  0.182085  0.249928  1
  Tm  Tm19  1  0.682865  0.682804  0.000216  1
  Si  Si20  1  0.290642  0.937209  0.561737  1
  Si  Si21  1  0.710413  0.061886  0.062473  1
  Si  Si22  1  0.936109  0.290994  0.437567  1
  Si  Si23  1  0.438248  0.210330  0.312330  1
  Si  Si24  1  0.562875  0.790516  0.811892  1
  Si  Si25  1  0.209678  0.437170  0.688085  1
  Si  Si26  1  0.790190  0.563424  0.188565  1
  Si  Si27  1  0.062431  0.710450  0.939083  1
  Si  Si28  1  0.795930  0.847719  0.688462  1
  Si  Si29  1  0.202741  0.150857  0.187628  1
  Si  Si30  1  0.847488  0.795062  0.311324  1
  Si  Si31  1  0.349179  0.703064  0.437555  1
  Si  Si32  1  0.652375  0.296254  0.938560  1
  Si  Si33  1  0.703851  0.348277  0.560526  1
  Si  Si34  1  0.294695  0.653164  0.062400  1
  Si  Si35  1  0.152355  0.204188  0.811581  1
