# generated using pymatgen
data_PrLuZn5Si
_symmetry_space_group_name_H-M   'P 1'
_cell_length_a   8.23421381
_cell_length_b   8.23421487
_cell_length_c   8.74750100
_cell_angle_alpha   90.00000000
_cell_angle_beta   90.00000000
_cell_angle_gamma   149.56548090
_symmetry_Int_Tables_number   1
_chemical_formula_structural   PrLuZn5Si
_chemical_formula_sum   'Pr2 Lu2 Zn10 Si2'
_cell_volume   300.43705474
_cell_formula_units_Z   2
loop_
 _symmetry_equiv_pos_site_id
 _symmetry_equiv_pos_as_xyz
  1  'x, y, z'
loop_
 _atom_site_type_symbol
 _atom_site_label
 _atom_site_symmetry_multiplicity
 _atom_site_fract_x
 _atom_site_fract_y
 _atom_site_fract_z
 _atom_site_occupancy
  Pr  Pr0  1  0.000000  0.000000  0.500000  1
  Pr  Pr1  1  0.000000  0.000000  0.000000  1
  Lu  Lu2  1  0.201365  0.798635  0.250000  1
  Lu  Lu3  1  0.798635  0.201365  0.750000  1
  Zn  Zn4  1  0.810998  0.189002  0.393185  1
  Zn  Zn5  1  0.189002  0.810998  0.606815  1
  Zn  Zn6  1  0.810998  0.189002  0.106815  1
  Zn  Zn7  1  0.189002  0.810998  0.893185  1
  Zn  Zn8  1  0.651934  0.348066  0.473726  1
  Zn  Zn9  1  0.348066  0.651934  0.526274  1
  Zn  Zn10  1  0.651934  0.348066  0.026274  1
  Zn  Zn11  1  0.348066  0.651934  0.973726  1
  Zn  Zn12  1  0.403213  0.596787  0.250000  1
  Zn  Zn13  1  0.596787  0.403213  0.750000  1
  Si  Si14  1  0.558969  0.441031  0.250000  1
  Si  Si15  1  0.441031  0.558969  0.750000  1
