# generated using pymatgen
data_Dy4YEr5Bi6
_symmetry_space_group_name_H-M   'P 1'
_cell_length_a   8.23371200
_cell_length_b   9.48345700
_cell_length_c   12.04391127
_cell_angle_alpha   89.98771157
_cell_angle_beta   90.00000000
_cell_angle_gamma   90.00000000
_symmetry_Int_Tables_number   1
_chemical_formula_structural   Dy4YEr5Bi6
_chemical_formula_sum   'Dy8 Y2 Er10 Bi12'
_cell_volume   940.43739268
_cell_formula_units_Z   2
loop_
 _symmetry_equiv_pos_site_id
 _symmetry_equiv_pos_as_xyz
  1  'x, y, z'
loop_
 _atom_site_type_symbol
 _atom_site_label
 _atom_site_symmetry_multiplicity
 _atom_site_fract_x
 _atom_site_fract_y
 _atom_site_fract_z
 _atom_site_occupancy
  Dy  Dy0  1  0.186364  0.749993  0.718682  1
  Dy  Dy1  1  0.686364  0.750007  0.781318  1
  Dy  Dy2  1  0.813490  0.249803  0.281247  1
  Dy  Dy3  1  0.313490  0.250197  0.218753  1
  Dy  Dy4  1  0.306762  0.063175  0.940562  1
  Dy  Dy5  1  0.806762  0.436825  0.559438  1
  Dy  Dy6  1  0.353897  0.750180  0.215879  1
  Dy  Dy7  1  0.853897  0.749820  0.284121  1
  Y  Y8  1  0.645896  0.249911  0.784422  1
  Y  Y9  1  0.145896  0.250089  0.715578  1
  Er  Er10  1  0.025234  0.749872  0.988795  1
  Er  Er11  1  0.525234  0.750128  0.511205  1
  Er  Er12  1  0.974119  0.250230  0.011495  1
  Er  Er13  1  0.474119  0.249770  0.488505  1
  Er  Er14  1  0.306691  0.435350  0.940406  1
  Er  Er15  1  0.806691  0.064650  0.559594  1
  Er  Er16  1  0.693235  0.935015  0.059677  1
  Er  Er17  1  0.193235  0.564985  0.440323  1
  Er  Er18  1  0.693542  0.564841  0.059856  1
  Er  Er19  1  0.193542  0.935159  0.440144  1
  Bi  Bi20  1  0.433914  0.003688  0.672855  1
  Bi  Bi21  1  0.933914  0.496312  0.827145  1
  Bi  Bi22  1  0.566305  0.503913  0.326875  1
  Bi  Bi23  1  0.066305  0.996087  0.173125  1
  Bi  Bi24  1  0.566379  0.995982  0.327069  1
  Bi  Bi25  1  0.066379  0.504018  0.172931  1
  Bi  Bi26  1  0.433468  0.496195  0.672987  1
  Bi  Bi27  1  0.933468  0.003805  0.827013  1
  Bi  Bi28  1  0.408140  0.748308  0.958069  1
  Bi  Bi29  1  0.908140  0.751692  0.541931  1
  Bi  Bi30  1  0.592562  0.250379  0.042496  1
  Bi  Bi31  1  0.092562  0.249621  0.457504  1
