# generated using pymatgen
data_LiNb3Co8(AsP2)2
_symmetry_space_group_name_H-M   'P 1'
_cell_length_a   12.12647605
_cell_length_b   12.12229292
_cell_length_c   3.60644100
_cell_angle_alpha   90.00000000
_cell_angle_beta   90.00000000
_cell_angle_gamma   120.02210078
_symmetry_Int_Tables_number   1
_chemical_formula_structural   LiNb3Co8(AsP2)2
_chemical_formula_sum   'Li2 Nb6 Co16 As4 P8'
_cell_volume   459.02050809
_cell_formula_units_Z   2
loop_
 _symmetry_equiv_pos_site_id
 _symmetry_equiv_pos_as_xyz
  1  'x, y, z'
loop_
 _atom_site_type_symbol
 _atom_site_label
 _atom_site_symmetry_multiplicity
 _atom_site_fract_x
 _atom_site_fract_y
 _atom_site_fract_z
 _atom_site_occupancy
  Li  Li0  1  0.333877  0.666508  0.000000  1
  Li  Li1  1  0.679439  0.344988  0.000000  1
  Nb  Nb2  1  0.822111  0.000015  0.500000  1
  Nb  Nb3  1  0.999093  0.820961  0.500000  1
  Nb  Nb4  1  0.176688  0.177556  0.500000  1
  Nb  Nb5  1  0.446219  0.001627  0.000000  1
  Nb  Nb6  1  0.993026  0.441457  0.000000  1
  Nb  Nb7  1  0.558035  0.552988  0.000000  1
  Co  Co8  1  0.272406  0.001098  0.500000  1
  Co  Co9  1  0.996494  0.272001  0.500000  1
  Co  Co10  1  0.728222  0.724250  0.500000  1
  Co  Co11  1  0.642893  0.813926  0.000000  1
  Co  Co12  1  0.184440  0.827403  0.000000  1
  Co  Co13  1  0.170553  0.357621  0.000000  1
  Co  Co14  1  0.359211  0.174528  0.000000  1
  Co  Co15  1  0.808807  0.634355  0.000000  1
  Co  Co16  1  0.827246  0.190249  0.000000  1
  Co  Co17  1  0.533392  0.881931  0.500000  1
  Co  Co18  1  0.113399  0.650326  0.500000  1
  Co  Co19  1  0.348046  0.465900  0.500000  1
  Co  Co20  1  0.478998  0.356806  0.500000  1
  Co  Co21  1  0.869030  0.518264  0.500000  1
  Co  Co22  1  0.656170  0.123974  0.500000  1
  Co  Co23  1  0.999404  0.999471  0.000000  1
  As  As24  1  0.509495  0.683966  0.500000  1
  As  As25  1  0.314146  0.824081  0.500000  1
  As  As26  1  0.173536  0.490734  0.500000  1
  As  As27  1  0.495158  0.179676  0.500000  1
  P  P28  1  0.171455  0.000977  0.000000  1
  P  P29  1  0.998137  0.170410  0.000000  1
  P  P30  1  0.829161  0.826738  0.000000  1
  P  P31  1  0.687698  0.514624  0.500000  1
  P  P32  1  0.826678  0.311366  0.500000  1
  P  P33  1  0.650695  0.001138  0.000000  1
  P  P34  1  0.996427  0.647521  0.000000  1
  P  P35  1  0.350213  0.350567  0.000000  1
