# generated using pymatgen
data_NdY2As4Pd7
_symmetry_space_group_name_H-M   'P 1'
_cell_length_a   8.14277511
_cell_length_b   8.14277540
_cell_length_c   9.70550187
_cell_angle_alpha   55.74417014
_cell_angle_beta   55.74416697
_cell_angle_gamma   29.49217989
_symmetry_Int_Tables_number   1
_chemical_formula_structural   NdY2As4Pd7
_chemical_formula_sum   'Nd1 Y2 As4 Pd7'
_cell_volume   257.61153446
_cell_formula_units_Z   1
loop_
 _symmetry_equiv_pos_site_id
 _symmetry_equiv_pos_as_xyz
  1  'x, y, z'
loop_
 _atom_site_type_symbol
 _atom_site_label
 _atom_site_symmetry_multiplicity
 _atom_site_fract_x
 _atom_site_fract_y
 _atom_site_fract_z
 _atom_site_occupancy
  Nd  Nd0  1  0.500000  0.500000  0.500000  1
  Y  Y1  1  0.823247  0.823247  0.170633  1
  Y  Y2  1  0.176753  0.176753  0.829367  1
  As  As3  1  0.392808  0.392808  0.320692  1
  As  As4  1  0.607192  0.607192  0.679308  1
  As  As5  1  0.838264  0.838264  0.756497  1
  As  As6  1  0.161736  0.161736  0.243503  1
  Pd  Pd7  1  0.668202  0.668202  0.071565  1
  Pd  Pd8  1  0.011904  0.011904  0.206035  1
  Pd  Pd9  1  0.988096  0.988096  0.793965  1
  Pd  Pd10  1  0.500000  0.500000  0.000000  1
  Pd  Pd11  1  0.193989  0.193989  0.472888  1
  Pd  Pd12  1  0.806011  0.806011  0.527112  1
  Pd  Pd13  1  0.331798  0.331798  0.928435  1
