# generated using pymatgen
data_HoTm3Sc2(B2Ir5)2
_symmetry_space_group_name_H-M   'P 1'
_cell_length_a   3.15856300
_cell_length_b   9.75083357
_cell_length_c   9.75083267
_cell_angle_alpha   90.10607424
_cell_angle_beta   90.00000000
_cell_angle_gamma   90.00000000
_symmetry_Int_Tables_number   1
_chemical_formula_structural   HoTm3Sc2(B2Ir5)2
_chemical_formula_sum   'Ho1 Tm3 Sc2 B4 Ir10'
_cell_volume   300.31169618
_cell_formula_units_Z   1
loop_
 _symmetry_equiv_pos_site_id
 _symmetry_equiv_pos_as_xyz
  1  'x, y, z'
loop_
 _atom_site_type_symbol
 _atom_site_label
 _atom_site_symmetry_multiplicity
 _atom_site_fract_x
 _atom_site_fract_y
 _atom_site_fract_z
 _atom_site_occupancy
  Ho  Ho0  1  0.000000  0.677265  0.822735  1
  Tm  Tm1  1  0.000000  0.177234  0.677159  1
  Tm  Tm2  1  0.000000  0.822841  0.322766  1
  Tm  Tm3  1  0.000000  0.322526  0.177474  1
  Sc  Sc4  1  0.000000  0.000135  0.000147  1
  Sc  Sc5  1  0.000000  0.499853  0.499865  1
  B  B6  1  0.000000  0.620006  0.120636  1
  B  B7  1  0.000000  0.379364  0.879994  1
  B  B8  1  0.000000  0.880336  0.619664  1
  B  B9  1  0.000000  0.120329  0.379671  1
  Ir  Ir10  1  0.500000  0.068906  0.225043  1
  Ir  Ir11  1  0.500000  0.932192  0.774427  1
  Ir  Ir12  1  0.500000  0.775104  0.070041  1
  Ir  Ir13  1  0.500000  0.429959  0.724896  1
  Ir  Ir14  1  0.500000  0.224723  0.931124  1
  Ir  Ir15  1  0.500000  0.568876  0.275277  1
  Ir  Ir16  1  0.500000  0.725573  0.567808  1
  Ir  Ir17  1  0.500000  0.274957  0.431094  1
  Ir  Ir18  1  0.500000  0.000407  0.499593  1
  Ir  Ir19  1  0.500000  0.499415  0.000585  1
