# generated using pymatgen
data_Tm7Hf(Si4Ru3)4
_symmetry_space_group_name_H-M   'P 1'
_cell_length_a   10.13638781
_cell_length_b   10.13384491
_cell_length_c   13.63074773
_cell_angle_alpha   53.35460199
_cell_angle_beta   53.27483151
_cell_angle_gamma   30.86869428
_symmetry_Int_Tables_number   1
_chemical_formula_structural   Tm7Hf(Si4Ru3)4
_chemical_formula_sum   'Tm7 Hf1 Si16 Ru12'
_cell_volume   563.77249553
_cell_formula_units_Z   1
loop_
 _symmetry_equiv_pos_site_id
 _symmetry_equiv_pos_as_xyz
  1  'x, y, z'
loop_
 _atom_site_type_symbol
 _atom_site_label
 _atom_site_symmetry_multiplicity
 _atom_site_fract_x
 _atom_site_fract_y
 _atom_site_fract_z
 _atom_site_occupancy
  Tm  Tm0  1  0.039648  0.288340  0.639929  1
  Tm  Tm1  1  0.711081  0.961489  0.860123  1
  Tm  Tm2  1  0.959538  0.711537  0.359731  1
  Tm  Tm3  1  0.289480  0.038481  0.140711  1
  Tm  Tm4  1  0.299846  0.557252  0.643582  1
  Tm  Tm5  1  0.442111  0.700262  0.857504  1
  Tm  Tm6  1  0.702215  0.441168  0.355033  1
  Hf  Hf7  1  0.558256  0.291958  0.147006  1
  Si  Si8  1  0.975915  0.252267  0.896279  1
  Si  Si9  1  0.752019  0.020444  0.604475  1
  Si  Si10  1  0.024445  0.748867  0.106373  1
  Si  Si11  1  0.249587  0.978253  0.393309  1
  Si  Si12  1  0.139462  0.383966  0.900243  1
  Si  Si13  1  0.615505  0.861390  0.599450  1
  Si  Si14  1  0.859107  0.616870  0.102159  1
  Si  Si15  1  0.380263  0.147091  0.395558  1
  Si  Si16  1  0.081475  0.574507  0.567984  1
  Si  Si17  1  0.425773  0.919851  0.930915  1
  Si  Si18  1  0.917690  0.425363  0.432517  1
  Si  Si19  1  0.574526  0.082795  0.068415  1
  Si  Si20  1  0.621559  0.379305  0.749750  1
  Si  Si21  1  0.383900  0.614784  0.248529  1
  Si  Si22  1  0.129124  0.871098  0.750645  1
  Si  Si23  1  0.866409  0.132003  0.248736  1
  Ru  Ru24  1  0.899972  0.136949  0.587218  1
  Ru  Ru25  1  0.855523  0.106267  0.917092  1
  Ru  Ru26  1  0.101847  0.859901  0.410872  1
  Ru  Ru27  1  0.140099  0.895519  0.087485  1
  Ru  Ru28  1  0.835883  0.642559  0.782567  1
  Ru  Ru29  1  0.358360  0.164900  0.716620  1
  Ru  Ru30  1  0.168178  0.359644  0.216659  1
  Ru  Ru31  1  0.642325  0.835687  0.282747  1
  Ru  Ru32  1  0.250976  0.504381  0.931625  1
  Ru  Ru33  1  0.496696  0.748536  0.569761  1
  Ru  Ru34  1  0.748298  0.494309  0.066955  1
  Ru  Ru35  1  0.502908  0.252007  0.431443  1
