# generated using pymatgen
data_Th10Sn6Cl
_symmetry_space_group_name_H-M   'P 1'
_cell_length_a   6.52134104
_cell_length_b   9.49283731
_cell_length_c   9.49281001
_cell_angle_alpha   120.00009923
_cell_angle_beta   90.00028671
_cell_angle_gamma   89.99942751
_symmetry_Int_Tables_number   1
_chemical_formula_structural   Th10Sn6Cl
_chemical_formula_sum   'Th10 Sn6 Cl1'
_cell_volume   508.92986498
_cell_formula_units_Z   1
loop_
 _symmetry_equiv_pos_site_id
 _symmetry_equiv_pos_as_xyz
  1  'x, y, z'
loop_
 _atom_site_type_symbol
 _atom_site_label
 _atom_site_symmetry_multiplicity
 _atom_site_fract_x
 _atom_site_fract_y
 _atom_site_fract_z
 _atom_site_occupancy
  Th  Th0  1  0.500000  0.333318  0.666635  1
  Th  Th1  1  0.500000  0.666682  0.333365  1
  Th  Th2  1  0.000000  0.666653  0.333305  1
  Th  Th3  1  0.000000  0.333348  0.666695  1
  Th  Th4  1  0.761456  0.264784  0.000000  1
  Th  Th5  1  0.761372  0.735213  0.735218  1
  Th  Th6  1  0.761372  0.999994  0.264782  1
  Th  Th7  1  0.238546  0.735220  0.000000  1
  Th  Th8  1  0.238629  0.264788  0.264784  1
  Th  Th9  1  0.238629  0.000004  0.735216  1
  Sn  Sn10  1  0.747459  0.616874  0.000000  1
  Sn  Sn11  1  0.747571  0.383114  0.383114  1
  Sn  Sn12  1  0.747571  0.000000  0.616886  1
  Sn  Sn13  1  0.252541  0.383127  0.000000  1
  Sn  Sn14  1  0.252429  0.616885  0.616886  1
  Sn  Sn15  1  0.252429  0.999999  0.383114  1
  Cl  Cl16  1  0.499998  0.000000  0.000000  1
