# generated using pymatgen
data_Zr5Ti3Co16(SiP2)4
_symmetry_space_group_name_H-M   'P 1'
_cell_length_a   12.02638795
_cell_length_b   12.02137751
_cell_length_c   3.64546200
_cell_angle_alpha   90.00000000
_cell_angle_beta   90.00000000
_cell_angle_gamma   120.05932144
_symmetry_Int_Tables_number   1
_chemical_formula_structural   Zr5Ti3Co16(SiP2)4
_chemical_formula_sum   'Zr5 Ti3 Co16 Si4 P8'
_cell_volume   456.15531198
_cell_formula_units_Z   1
loop_
 _symmetry_equiv_pos_site_id
 _symmetry_equiv_pos_as_xyz
  1  'x, y, z'
loop_
 _atom_site_type_symbol
 _atom_site_label
 _atom_site_symmetry_multiplicity
 _atom_site_fract_x
 _atom_site_fract_y
 _atom_site_fract_z
 _atom_site_occupancy
  Zr  Zr0  1  0.668498  0.333739  0.000000  1
  Zr  Zr1  1  0.333083  0.666285  0.000000  1
  Zr  Zr2  1  0.820672  0.820388  0.500000  1
  Zr  Zr3  1  0.180441  0.000591  0.500000  1
  Zr  Zr4  1  0.999720  0.179385  0.500000  1
  Ti  Ti5  1  0.439388  0.441343  0.000000  1
  Ti  Ti6  1  0.559536  0.999682  0.000000  1
  Ti  Ti7  1  0.999765  0.559429  0.000000  1
  Co  Co8  1  0.198621  0.374711  0.000000  1
  Co  Co9  1  0.174531  0.800164  0.000000  1
  Co  Co10  1  0.827320  0.627378  0.000000  1
  Co  Co11  1  0.800241  0.174356  0.000000  1
  Co  Co12  1  0.370963  0.196917  0.000000  1
  Co  Co13  1  0.127811  0.483433  0.500000  1
  Co  Co14  1  0.355172  0.870424  0.500000  1
  Co  Co15  1  0.516187  0.645049  0.500000  1
  Co  Co16  1  0.648042  0.521961  0.500000  1
  Co  Co17  1  0.872101  0.355259  0.500000  1
  Co  Co18  1  0.482824  0.123359  0.500000  1
  Co  Co19  1  0.999794  0.000023  0.000000  1
  Co  Co20  1  0.718723  0.000020  0.500000  1
  Co  Co21  1  0.000687  0.718714  0.500000  1
  Co  Co22  1  0.626133  0.825609  0.000000  1
  Co  Co23  1  0.278409  0.281532  0.500000  1
  Si  Si24  1  0.646760  0.646274  0.000000  1
  Si  Si25  1  0.354217  0.000107  0.000000  1
  Si  Si26  1  0.999851  0.353698  0.000000  1
  Si  Si27  1  0.483457  0.312462  0.500000  1
  P  P28  1  0.686903  0.169736  0.500000  1
  P  P29  1  0.829737  0.517680  0.500000  1
  P  P30  1  0.517333  0.829816  0.500000  1
  P  P31  1  0.169916  0.687012  0.500000  1
  P  P32  1  0.823522  0.000018  0.000000  1
  P  P33  1  0.000674  0.824108  0.000000  1
  P  P34  1  0.312328  0.482499  0.500000  1
  P  P35  1  0.176643  0.176841  0.000000  1
