# generated using pymatgen
data_HoMg2ZrNi8
_symmetry_space_group_name_H-M   'P 1'
_cell_length_a   4.87424400
_cell_length_b   4.87424321
_cell_length_c   8.46682330
_cell_angle_alpha   73.27109413
_cell_angle_beta   90.00000000
_cell_angle_gamma   120.00000534
_symmetry_Int_Tables_number   1
_chemical_formula_structural   HoMg2ZrNi8
_chemical_formula_sum   'Ho1 Mg2 Zr1 Ni8'
_cell_volume   164.30295505
_cell_formula_units_Z   1
loop_
 _symmetry_equiv_pos_site_id
 _symmetry_equiv_pos_as_xyz
  1  'x, y, z'
loop_
 _atom_site_type_symbol
 _atom_site_label
 _atom_site_symmetry_multiplicity
 _atom_site_fract_x
 _atom_site_fract_y
 _atom_site_fract_z
 _atom_site_occupancy
  Ho  Ho0  1  0.999955  0.999912  0.000133  1
  Mg  Mg1  1  0.874223  0.748448  0.377329  1
  Mg  Mg2  1  0.376154  0.752307  0.871539  1
  Zr  Zr3  1  0.500034  0.000066  0.499900  1
  Ni  Ni4  1  0.435550  0.372033  0.192418  1
  Ni  Ni5  1  0.936520  0.379607  0.683874  1
  Ni  Ni6  1  0.435550  0.871100  0.192418  1
  Ni  Ni7  1  0.936520  0.873039  0.683874  1
  Ni  Ni8  1  0.187821  0.375643  0.436536  1
  Ni  Ni9  1  0.688105  0.376209  0.935687  1
  Ni  Ni10  1  0.936482  0.372033  0.192418  1
  Ni  Ni11  1  0.443086  0.379607  0.683874  1
