# generated using pymatgen
data_Hf4Cu(B7Ir6)2
_symmetry_space_group_name_H-M   'P 1'
_cell_length_a   3.47039009
_cell_length_b   7.73024044
_cell_length_c   13.36047714
_cell_angle_alpha   90.02771134
_cell_angle_beta   90.00800983
_cell_angle_gamma   90.00442533
_symmetry_Int_Tables_number   1
_chemical_formula_structural   Hf4Cu(B7Ir6)2
_chemical_formula_sum   'Hf4 Cu1 B14 Ir12'
_cell_volume   358.42080301
_cell_formula_units_Z   1
loop_
 _symmetry_equiv_pos_site_id
 _symmetry_equiv_pos_as_xyz
  1  'x, y, z'
loop_
 _atom_site_type_symbol
 _atom_site_label
 _atom_site_symmetry_multiplicity
 _atom_site_fract_x
 _atom_site_fract_y
 _atom_site_fract_z
 _atom_site_occupancy
  Hf  Hf0  1  0.252057  0.498161  0.833253  1
  Hf  Hf1  1  0.253301  0.001228  0.332937  1
  Hf  Hf2  1  0.746699  0.998772  0.667063  1
  Hf  Hf3  1  0.747943  0.501839  0.166747  1
  Cu  Cu4  1  0.500000  0.500000  0.500000  1
  B  B5  1  0.500000  0.000000  0.000000  1
  B  B6  1  0.000000  0.000000  0.000000  1
  B  B7  1  0.753517  0.324759  0.726242  1
  B  B8  1  0.753611  0.829328  0.222313  1
  B  B9  1  0.752714  0.752103  0.802960  1
  B  B10  1  0.753749  0.248752  0.299501  1
  B  B11  1  0.749351  0.425236  0.974380  1
  B  B12  1  0.757123  0.920236  0.474279  1
  B  B13  1  0.246389  0.170672  0.777687  1
  B  B14  1  0.246483  0.675241  0.273758  1
  B  B15  1  0.246251  0.751248  0.700499  1
  B  B16  1  0.247286  0.247897  0.197040  1
  B  B17  1  0.242877  0.079764  0.525721  1
  B  B18  1  0.250649  0.574764  0.025620  1
  Ir  Ir19  1  0.748637  0.592182  0.674865  1
  Ir  Ir20  1  0.748936  0.088402  0.162299  1
  Ir  Ir21  1  0.751268  0.704117  0.961848  1
  Ir  Ir22  1  0.746754  0.196854  0.458927  1
  Ir  Ir23  1  0.748287  0.203844  0.875174  1
  Ir  Ir24  1  0.748878  0.711391  0.365376  1
  Ir  Ir25  1  0.251064  0.911598  0.837701  1
  Ir  Ir26  1  0.251363  0.407818  0.325135  1
  Ir  Ir27  1  0.253246  0.803146  0.541073  1
  Ir  Ir28  1  0.248732  0.295883  0.038152  1
  Ir  Ir29  1  0.251122  0.288609  0.634624  1
  Ir  Ir30  1  0.251713  0.796156  0.124826  1
