# generated using pymatgen
data_Pr4SiAsSe2
_symmetry_space_group_name_H-M   'P 1'
_cell_length_a   7.42396068
_cell_length_b   7.42395955
_cell_length_c   7.42396000
_cell_angle_alpha   132.16222022
_cell_angle_beta   132.16222276
_cell_angle_gamma   69.97294218
_symmetry_Int_Tables_number   1
_chemical_formula_structural   Pr4SiAsSe2
_chemical_formula_sum   'Pr4 Si1 As1 Se2'
_cell_volume   220.42596055
_cell_formula_units_Z   1
loop_
 _symmetry_equiv_pos_site_id
 _symmetry_equiv_pos_as_xyz
  1  'x, y, z'
loop_
 _atom_site_type_symbol
 _atom_site_label
 _atom_site_symmetry_multiplicity
 _atom_site_fract_x
 _atom_site_fract_y
 _atom_site_fract_z
 _atom_site_occupancy
  Pr  Pr0  1  0.246970  0.246970  0.000000  1
  Pr  Pr1  1  0.753030  0.753030  0.000000  1
  Pr  Pr2  1  0.504565  0.004565  0.500000  1
  Pr  Pr3  1  0.995435  0.495435  0.500000  1
  Si  Si4  1  0.750000  0.250000  0.500000  1
  As  As5  1  0.000000  0.000000  0.000000  1
  Se  Se6  1  0.250000  0.750000  0.500000  1
  Se  Se7  1  0.500000  0.500000  0.000000  1
