# generated using pymatgen
data_Tm3In2Pd3Pb
_symmetry_space_group_name_H-M   'P 1'
_cell_length_a   7.77511208
_cell_length_b   7.77511312
_cell_length_c   3.73349200
_cell_angle_alpha   90.00000000
_cell_angle_beta   90.00000000
_cell_angle_gamma   119.51001682
_symmetry_Int_Tables_number   1
_chemical_formula_structural   Tm3In2Pd3Pb
_chemical_formula_sum   'Tm3 In2 Pd3 Pb1'
_cell_volume   196.41850868
_cell_formula_units_Z   1
loop_
 _symmetry_equiv_pos_site_id
 _symmetry_equiv_pos_as_xyz
  1  'x, y, z'
loop_
 _atom_site_type_symbol
 _atom_site_label
 _atom_site_symmetry_multiplicity
 _atom_site_fract_x
 _atom_site_fract_y
 _atom_site_fract_z
 _atom_site_occupancy
  Tm  Tm0  1  0.398617  0.398617  0.500000  1
  Tm  Tm1  1  0.594783  0.006132  0.500000  1
  Tm  Tm2  1  0.006132  0.594783  0.500000  1
  In  In3  1  0.266914  0.001550  0.000000  1
  In  In4  1  0.001550  0.266914  0.000000  1
  Pd  Pd5  1  0.005213  0.005213  0.500000  1
  Pd  Pd6  1  0.664797  0.327704  0.000000  1
  Pd  Pd7  1  0.327704  0.664797  0.000000  1
  Pb  Pb8  1  0.734289  0.734289  0.000000  1
