# generated using pymatgen
data_Sm3Al12TcRh3
_symmetry_space_group_name_H-M   'P 1'
_cell_length_a   8.89515900
_cell_length_b   8.89515867
_cell_length_c   9.63856800
_cell_angle_alpha   90.00000000
_cell_angle_beta   90.00000000
_cell_angle_gamma   120.00000493
_symmetry_Int_Tables_number   1
_chemical_formula_structural   Sm3Al12TcRh3
_chemical_formula_sum   'Sm6 Al24 Tc2 Rh6'
_cell_volume   660.46611440
_cell_formula_units_Z   2
loop_
 _symmetry_equiv_pos_site_id
 _symmetry_equiv_pos_as_xyz
  1  'x, y, z'
loop_
 _atom_site_type_symbol
 _atom_site_label
 _atom_site_symmetry_multiplicity
 _atom_site_fract_x
 _atom_site_fract_y
 _atom_site_fract_z
 _atom_site_occupancy
  Sm  Sm0  1  0.190581  0.381162  0.250000  1
  Sm  Sm1  1  0.809419  0.618838  0.750000  1
  Sm  Sm2  1  0.618838  0.809419  0.250000  1
  Sm  Sm3  1  0.381162  0.190581  0.750000  1
  Sm  Sm4  1  0.190581  0.809419  0.250000  1
  Sm  Sm5  1  0.809419  0.190581  0.750000  1
  Al  Al6  1  0.333333  0.666667  0.024568  1
  Al  Al7  1  0.666667  0.333333  0.975432  1
  Al  Al8  1  0.666667  0.333333  0.524568  1
  Al  Al9  1  0.333333  0.666667  0.475432  1
  Al  Al10  1  0.163028  0.326059  0.574953  1
  Al  Al11  1  0.836972  0.673941  0.425047  1
  Al  Al12  1  0.673941  0.836972  0.574953  1
  Al  Al13  1  0.836972  0.673941  0.074953  1
  Al  Al14  1  0.326059  0.163028  0.425047  1
  Al  Al15  1  0.163028  0.326059  0.925047  1
  Al  Al16  1  0.163028  0.836972  0.574953  1
  Al  Al17  1  0.326059  0.163028  0.074953  1
  Al  Al18  1  0.836972  0.163028  0.425047  1
  Al  Al19  1  0.673941  0.836972  0.925047  1
  Al  Al20  1  0.836972  0.163028  0.074953  1
  Al  Al21  1  0.163028  0.836972  0.925047  1
  Al  Al22  1  0.563628  0.127255  0.250000  1
  Al  Al23  1  0.436372  0.872745  0.750000  1
  Al  Al24  1  0.872745  0.436372  0.250000  1
  Al  Al25  1  0.127255  0.563628  0.750000  1
  Al  Al26  1  0.563628  0.436372  0.250000  1
  Al  Al27  1  0.436372  0.563628  0.750000  1
  Al  Al28  1  0.000000  0.000000  0.250000  1
  Al  Al29  1  0.000000  0.000000  0.750000  1
  Tc  Tc30  1  0.000000  0.000000  0.000000  1
  Tc  Tc31  1  0.000000  0.000000  0.500000  1
  Rh  Rh32  1  0.500000  0.000000  0.000000  1
  Rh  Rh33  1  0.000000  0.500000  0.000000  1
  Rh  Rh34  1  0.500000  0.000000  0.500000  1
  Rh  Rh35  1  0.500000  0.500000  0.000000  1
  Rh  Rh36  1  0.000000  0.500000  0.500000  1
  Rh  Rh37  1  0.500000  0.500000  0.500000  1
