# generated using pymatgen
data_Nd6Y6Er4CdHg3Ir4
_symmetry_space_group_name_H-M   'P 1'
_cell_length_a   9.75031706
_cell_length_b   9.75031846
_cell_length_c   9.75031700
_cell_angle_alpha   60.00000156
_cell_angle_beta   59.99999682
_cell_angle_gamma   60.00000262
_symmetry_Int_Tables_number   1
_chemical_formula_structural   Nd6Y6Er4CdHg3Ir4
_chemical_formula_sum   'Nd6 Y6 Er4 Cd1 Hg3 Ir4'
_cell_volume   655.45258413
_cell_formula_units_Z   1
loop_
 _symmetry_equiv_pos_site_id
 _symmetry_equiv_pos_as_xyz
  1  'x, y, z'
loop_
 _atom_site_type_symbol
 _atom_site_label
 _atom_site_symmetry_multiplicity
 _atom_site_fract_x
 _atom_site_fract_y
 _atom_site_fract_z
 _atom_site_occupancy
  Nd  Nd0  1  0.940611  0.558624  0.558624  1
  Nd  Nd1  1  0.558457  0.941544  0.941544  1
  Nd  Nd2  1  0.558457  0.941544  0.558454  1
  Nd  Nd3  1  0.940611  0.558624  0.942141  1
  Nd  Nd4  1  0.558457  0.558454  0.941544  1
  Nd  Nd5  1  0.940611  0.942141  0.558624  1
  Y  Y6  1  0.810636  0.189272  0.189272  1
  Y  Y7  1  0.188538  0.811130  0.811130  1
  Y  Y8  1  0.188538  0.811130  0.189202  1
  Y  Y9  1  0.810636  0.189272  0.810820  1
  Y  Y10  1  0.188538  0.189202  0.811130  1
  Y  Y11  1  0.810636  0.810820  0.189272  1
  Er  Er12  1  0.347383  0.347338  0.347338  1
  Er  Er13  1  0.347383  0.347338  0.957943  1
  Er  Er14  1  0.347383  0.957943  0.347338  1
  Er  Er15  1  0.956954  0.347683  0.347683  1
  Cd  Cd16  1  0.261806  0.579398  0.579398  1
  Hg  Hg17  1  0.581622  0.583134  0.583134  1
  Hg  Hg18  1  0.581622  0.583134  0.252110  1
  Hg  Hg19  1  0.581622  0.252110  0.583134  1
  Ir  Ir20  1  0.142221  0.142448  0.142448  1
  Ir  Ir21  1  0.142221  0.142448  0.572883  1
  Ir  Ir22  1  0.142221  0.572883  0.142448  1
  Ir  Ir23  1  0.572837  0.142388  0.142388  1
