# generated using pymatgen
data_Sm8Cr(PdPt11)2
_symmetry_space_group_name_H-M   'P 1'
_cell_length_a   8.42352100
_cell_length_b   8.42745400
_cell_length_c   8.45085600
_cell_angle_alpha   90.00000000
_cell_angle_beta   90.00000000
_cell_angle_gamma   90.00000000
_symmetry_Int_Tables_number   1
_chemical_formula_structural   Sm8Cr(PdPt11)2
_chemical_formula_sum   'Sm8 Cr1 Pd2 Pt22'
_cell_volume   599.91642849
_cell_formula_units_Z   1
loop_
 _symmetry_equiv_pos_site_id
 _symmetry_equiv_pos_as_xyz
  1  'x, y, z'
loop_
 _atom_site_type_symbol
 _atom_site_label
 _atom_site_symmetry_multiplicity
 _atom_site_fract_x
 _atom_site_fract_y
 _atom_site_fract_z
 _atom_site_occupancy
  Sm  Sm0  1  0.250753  0.250975  0.251276  1
  Sm  Sm1  1  0.749247  0.749025  0.748724  1
  Sm  Sm2  1  0.749247  0.749025  0.251276  1
  Sm  Sm3  1  0.749247  0.250975  0.748724  1
  Sm  Sm4  1  0.250753  0.250975  0.748724  1
  Sm  Sm5  1  0.250753  0.749025  0.251276  1
  Sm  Sm6  1  0.250753  0.749025  0.748724  1
  Sm  Sm7  1  0.749247  0.250975  0.251276  1
  Cr  Cr8  1  0.000000  0.000000  0.000000  1
  Pd  Pd9  1  0.000000  0.500000  0.262867  1
  Pd  Pd10  1  0.000000  0.500000  0.737133  1
  Pt  Pt11  1  0.261890  0.500000  0.000000  1
  Pt  Pt12  1  0.738110  0.500000  0.000000  1
  Pt  Pt13  1  0.000000  0.260936  0.500000  1
  Pt  Pt14  1  0.500000  0.262952  0.000000  1
  Pt  Pt15  1  0.000000  0.739064  0.500000  1
  Pt  Pt16  1  0.500000  0.737048  0.000000  1
  Pt  Pt17  1  0.500000  0.000000  0.262472  1
  Pt  Pt18  1  0.260237  0.000000  0.500000  1
  Pt  Pt19  1  0.500000  0.000000  0.737528  1
  Pt  Pt20  1  0.739763  0.000000  0.500000  1
  Pt  Pt21  1  0.253120  0.500000  0.500000  1
  Pt  Pt22  1  0.746880  0.500000  0.500000  1
  Pt  Pt23  1  0.500000  0.254513  0.500000  1
  Pt  Pt24  1  0.500000  0.745487  0.500000  1
  Pt  Pt25  1  0.500000  0.500000  0.254622  1
  Pt  Pt26  1  0.500000  0.500000  0.745378  1
  Pt  Pt27  1  0.294897  0.000000  0.000000  1
  Pt  Pt28  1  0.705103  0.000000  0.000000  1
  Pt  Pt29  1  0.000000  0.296073  0.000000  1
  Pt  Pt30  1  0.000000  0.703927  0.000000  1
  Pt  Pt31  1  0.000000  0.000000  0.291245  1
  Pt  Pt32  1  0.000000  0.000000  0.708755  1
