# generated using pymatgen
data_Ca2ErSi4(AsPd10)2
_symmetry_space_group_name_H-M   'P 1'
_cell_length_a   8.72636581
_cell_length_b   8.80984003
_cell_length_c   8.80984077
_cell_angle_alpha   59.37411585
_cell_angle_beta   60.31295129
_cell_angle_gamma   60.31295345
_symmetry_Int_Tables_number   1
_chemical_formula_structural   Ca2ErSi4(AsPd10)2
_chemical_formula_sum   'Ca2 Er1 Si4 As2 Pd20'
_cell_volume   478.82554119
_cell_formula_units_Z   1
loop_
 _symmetry_equiv_pos_site_id
 _symmetry_equiv_pos_as_xyz
  1  'x, y, z'
loop_
 _atom_site_type_symbol
 _atom_site_label
 _atom_site_symmetry_multiplicity
 _atom_site_fract_x
 _atom_site_fract_y
 _atom_site_fract_z
 _atom_site_occupancy
  Ca  Ca0  1  0.250000  0.250000  0.250000  1
  Ca  Ca1  1  0.750000  0.750000  0.750000  1
  Er  Er2  1  0.000000  0.000000  0.000000  1
  Si  Si3  1  0.267442  0.732558  0.267442  1
  Si  Si4  1  0.732558  0.267442  0.732558  1
  Si  Si5  1  0.267442  0.267442  0.732558  1
  Si  Si6  1  0.732558  0.732558  0.267442  1
  As  As7  1  0.733292  0.266708  0.266708  1
  As  As8  1  0.266708  0.733292  0.733292  1
  Pd  Pd9  1  0.344497  0.000000  0.000000  1
  Pd  Pd10  1  0.655503  0.000000  0.000000  1
  Pd  Pd11  1  0.000000  0.344497  0.655503  1
  Pd  Pd12  1  0.000000  0.655503  0.344497  1
  Pd  Pd13  1  0.006719  0.345169  0.993281  1
  Pd  Pd14  1  0.654831  0.993281  0.345169  1
  Pd  Pd15  1  0.993281  0.654831  0.006719  1
  Pd  Pd16  1  0.345169  0.006719  0.654831  1
  Pd  Pd17  1  0.006719  0.993281  0.345169  1
  Pd  Pd18  1  0.993281  0.006719  0.654831  1
  Pd  Pd19  1  0.654831  0.345169  0.993281  1
  Pd  Pd20  1  0.345169  0.654831  0.006719  1
  Pd  Pd21  1  0.379544  0.387310  0.387310  1
  Pd  Pd22  1  0.620456  0.612690  0.612690  1
  Pd  Pd23  1  0.387310  0.379544  0.845838  1
  Pd  Pd24  1  0.387310  0.845838  0.379544  1
  Pd  Pd25  1  0.612690  0.620456  0.154162  1
  Pd  Pd26  1  0.612690  0.154162  0.620456  1
  Pd  Pd27  1  0.845838  0.387310  0.387310  1
  Pd  Pd28  1  0.154162  0.612690  0.612690  1
