# generated using pymatgen
data_YBeBOs
_symmetry_space_group_name_H-M   'P 1'
_cell_length_a   6.10978800
_cell_length_b   5.46883400
_cell_length_c   6.43047900
_cell_angle_alpha   90.00000000
_cell_angle_beta   90.00000000
_cell_angle_gamma   90.00000000
_symmetry_Int_Tables_number   1
_chemical_formula_structural   YBeBOs
_chemical_formula_sum   'Y4 Be4 B4 Os4'
_cell_volume   214.86427214
_cell_formula_units_Z   4
loop_
 _symmetry_equiv_pos_site_id
 _symmetry_equiv_pos_as_xyz
  1  'x, y, z'
loop_
 _atom_site_type_symbol
 _atom_site_label
 _atom_site_symmetry_multiplicity
 _atom_site_fract_x
 _atom_site_fract_y
 _atom_site_fract_z
 _atom_site_occupancy
  Y  Y0  1  0.001654  0.257344  0.348866  1
  Y  Y1  1  0.501654  0.242656  0.151134  1
  Y  Y2  1  0.998346  0.757344  0.651134  1
  Y  Y3  1  0.498346  0.742656  0.848866  1
  Be  Be4  1  0.364368  0.063562  0.542633  1
  Be  Be5  1  0.864368  0.436438  0.957367  1
  Be  Be6  1  0.635632  0.563562  0.457367  1
  Be  Be7  1  0.135632  0.936438  0.042633  1
  B  B8  1  0.642397  0.931808  0.445863  1
  B  B9  1  0.142397  0.568192  0.054137  1
  B  B10  1  0.357603  0.431808  0.554137  1
  B  B11  1  0.857603  0.068192  0.945863  1
  Os  Os12  1  0.174588  0.266609  0.813353  1
  Os  Os13  1  0.674588  0.233391  0.686647  1
  Os  Os14  1  0.825412  0.766609  0.186647  1
  Os  Os15  1  0.325412  0.733391  0.313353  1
