# generated using pymatgen
data_Cs2NpS3
_symmetry_space_group_name_H-M   'P 1'
_cell_length_a   8.09521945
_cell_length_b   8.09521904
_cell_length_c   7.35225900
_cell_angle_alpha   90.00000000
_cell_angle_beta   90.00000000
_cell_angle_gamma   109.72841528
_symmetry_Int_Tables_number   1
_chemical_formula_structural   Cs2NpS3
_chemical_formula_sum   'Cs4 Np2 S6'
_cell_volume   453.53163565
_cell_formula_units_Z   2
loop_
 _symmetry_equiv_pos_site_id
 _symmetry_equiv_pos_as_xyz
  1  'x, y, z'
loop_
 _atom_site_type_symbol
 _atom_site_label
 _atom_site_symmetry_multiplicity
 _atom_site_fract_x
 _atom_site_fract_y
 _atom_site_fract_z
 _atom_site_occupancy
  Cs  Cs0  1  0.499801  0.814581  0.250000  1
  Cs  Cs1  1  0.500199  0.185419  0.750000  1
  Cs  Cs2  1  0.185419  0.500199  0.750000  1
  Cs  Cs3  1  0.814581  0.499801  0.250000  1
  Np  Np4  1  0.079302  0.079302  0.250000  1
  Np  Np5  1  0.920698  0.920698  0.750000  1
  S  S6  1  0.651530  0.651530  0.750000  1
  S  S7  1  0.348470  0.348470  0.250000  1
  S  S8  1  0.866329  0.133671  0.500000  1
  S  S9  1  0.866329  0.133671  0.000000  1
  S  S10  1  0.133671  0.866329  0.500000  1
  S  S11  1  0.133671  0.866329  0.000000  1
