# generated using pymatgen
data_TbLu(Be11Cu2)2
_symmetry_space_group_name_H-M   'P 1'
_cell_length_a   7.32595257
_cell_length_b   7.28958145
_cell_length_c   7.34204620
_cell_angle_alpha   60.09044294
_cell_angle_beta   59.59959845
_cell_angle_gamma   60.30998834
_symmetry_Int_Tables_number   1
_chemical_formula_structural   TbLu(Be11Cu2)2
_chemical_formula_sum   'Tb1 Lu1 Be22 Cu4'
_cell_volume   277.22602055
_cell_formula_units_Z   1
loop_
 _symmetry_equiv_pos_site_id
 _symmetry_equiv_pos_as_xyz
  1  'x, y, z'
loop_
 _atom_site_type_symbol
 _atom_site_label
 _atom_site_symmetry_multiplicity
 _atom_site_fract_x
 _atom_site_fract_y
 _atom_site_fract_z
 _atom_site_occupancy
  Tb  Tb0  1  0.250000  0.250000  0.250000  1
  Lu  Lu1  1  0.750000  0.750000  0.750000  1
  Be  Be2  1  0.704851  0.933682  0.065957  1
  Be  Be3  1  0.700518  0.060298  0.299849  1
  Be  Be4  1  0.065957  0.295510  0.704851  1
  Be  Be5  1  0.939334  0.299849  0.060298  1
  Be  Be6  1  0.933682  0.704851  0.295510  1
  Be  Be7  1  0.299849  0.939334  0.700518  1
  Be  Be8  1  0.295510  0.065957  0.933682  1
  Be  Be9  1  0.060298  0.700518  0.939334  1
  Be  Be10  1  0.787935  0.440893  0.559442  1
  Be  Be11  1  0.559442  0.211730  0.787935  1
  Be  Be12  1  0.211730  0.559442  0.440893  1
  Be  Be13  1  0.440893  0.787935  0.211730  1
  Be  Be14  1  0.779604  0.220101  0.431173  1
  Be  Be15  1  0.787194  0.566611  0.212569  1
  Be  Be16  1  0.431173  0.569121  0.779604  1
  Be  Be17  1  0.566611  0.787194  0.433626  1
  Be  Be18  1  0.569121  0.431173  0.220101  1
  Be  Be19  1  0.212569  0.433626  0.787194  1
  Be  Be20  1  0.220101  0.779604  0.569121  1
  Be  Be21  1  0.433626  0.212569  0.566611  1
  Be  Be22  1  0.000000  0.000000  0.000000  1
  Be  Be23  1  0.500000  0.500000  0.500000  1
  Cu  Cu24  1  0.694098  0.306820  0.941739  1
  Cu  Cu25  1  0.941739  0.057343  0.694098  1
  Cu  Cu26  1  0.306820  0.694098  0.057343  1
  Cu  Cu27  1  0.057343  0.941739  0.306820  1
