# generated using pymatgen
data_Ce6Co3Si4NiRh2
_symmetry_space_group_name_H-M   'P 1'
_cell_length_a   6.11163804
_cell_length_b   7.48444400
_cell_length_c   13.35468722
_cell_angle_alpha   90.00000000
_cell_angle_beta   89.95561844
_cell_angle_gamma   90.00000000
_symmetry_Int_Tables_number   1
_chemical_formula_structural   Ce6Co3Si4NiRh2
_chemical_formula_sum   'Ce12 Co6 Si8 Ni2 Rh4'
_cell_volume   610.87275945
_cell_formula_units_Z   2
loop_
 _symmetry_equiv_pos_site_id
 _symmetry_equiv_pos_as_xyz
  1  'x, y, z'
loop_
 _atom_site_type_symbol
 _atom_site_label
 _atom_site_symmetry_multiplicity
 _atom_site_fract_x
 _atom_site_fract_y
 _atom_site_fract_z
 _atom_site_occupancy
  Ce  Ce0  1  0.885089  0.886677  0.750497  1
  Ce  Ce1  1  0.859515  0.463047  0.399789  1
  Ce  Ce2  1  0.368309  0.038349  0.605135  1
  Ce  Ce3  1  0.137717  0.539657  0.901281  1
  Ce  Ce4  1  0.638507  0.956718  0.098326  1
  Ce  Ce5  1  0.113086  0.111759  0.244872  1
  Ce  Ce6  1  0.138507  0.543283  0.598326  1
  Ce  Ce7  1  0.637717  0.960344  0.401281  1
  Ce  Ce8  1  0.385089  0.613323  0.250497  1
  Ce  Ce9  1  0.359515  0.036953  0.899789  1
  Ce  Ce10  1  0.613086  0.388241  0.744872  1
  Ce  Ce11  1  0.868309  0.461651  0.105135  1
  Co  Co12  1  0.115649  0.115784  0.048143  1
  Co  Co13  1  0.884254  0.883895  0.949647  1
  Co  Co14  1  0.885961  0.886811  0.549998  1
  Co  Co15  1  0.615649  0.384216  0.548143  1
  Co  Co16  1  0.384254  0.616105  0.449647  1
  Co  Co17  1  0.385961  0.613189  0.049998  1
  Si  Si18  1  0.617901  0.681978  0.914874  1
  Si  Si19  1  0.882877  0.184741  0.588154  1
  Si  Si20  1  0.119046  0.815475  0.083869  1
  Si  Si21  1  0.117901  0.818022  0.414874  1
  Si  Si22  1  0.619046  0.684525  0.583869  1
  Si  Si23  1  0.881157  0.184105  0.914134  1
  Si  Si24  1  0.382877  0.315259  0.088154  1
  Si  Si25  1  0.381157  0.315895  0.414134  1
  Ni  Ni26  1  0.607348  0.381071  0.951266  1
  Ni  Ni27  1  0.107348  0.118929  0.451266  1
  Rh  Rh28  1  0.409061  0.733923  0.749792  1
  Rh  Rh29  1  0.594523  0.260666  0.250222  1
  Rh  Rh30  1  0.909061  0.766077  0.249792  1
  Rh  Rh31  1  0.094523  0.239334  0.750222  1
