# generated using pymatgen
data_Ta3Ti(GeRh5)2
_symmetry_space_group_name_H-M   'P 1'
_cell_length_a   4.01723400
_cell_length_b   5.51491014
_cell_length_c   10.79071807
_cell_angle_alpha   90.15655421
_cell_angle_beta   90.00000000
_cell_angle_gamma   90.00000000
_symmetry_Int_Tables_number   1
_chemical_formula_structural   Ta3Ti(GeRh5)2
_chemical_formula_sum   'Ta3 Ti1 Ge2 Rh10'
_cell_volume   239.06406248
_cell_formula_units_Z   1
loop_
 _symmetry_equiv_pos_site_id
 _symmetry_equiv_pos_as_xyz
  1  'x, y, z'
loop_
 _atom_site_type_symbol
 _atom_site_label
 _atom_site_symmetry_multiplicity
 _atom_site_fract_x
 _atom_site_fract_y
 _atom_site_fract_z
 _atom_site_occupancy
  Ta  Ta0  1  0.500000  0.324250  0.142458  1
  Ta  Ta1  1  0.500000  0.677145  0.853970  1
  Ta  Ta2  1  0.500000  0.826400  0.360545  1
  Ti  Ti3  1  0.500000  0.176137  0.643014  1
  Ge  Ge4  1  0.000000  0.999172  0.999024  1
  Ge  Ge5  1  0.000000  0.493551  0.502657  1
  Rh  Rh6  1  0.000000  0.002542  0.501270  1
  Rh  Rh7  1  0.000000  0.499136  0.999697  1
  Rh  Rh8  1  0.000000  0.067253  0.244492  1
  Rh  Rh9  1  0.000000  0.932278  0.755225  1
  Rh  Rh10  1  0.000000  0.567910  0.255423  1
  Rh  Rh11  1  0.000000  0.430138  0.743764  1
  Rh  Rh12  1  0.500000  0.311940  0.391786  1
  Rh  Rh13  1  0.500000  0.691383  0.606968  1
  Rh  Rh14  1  0.500000  0.809924  0.107499  1
  Rh  Rh15  1  0.500000  0.190841  0.892204  1
