# generated using pymatgen
data_V6Ga3FeN2
_symmetry_space_group_name_H-M   'P 1'
_cell_length_a   6.57749794
_cell_length_b   6.55737602
_cell_length_c   6.55448800
_cell_angle_alpha   90.00000000
_cell_angle_beta   90.00000000
_cell_angle_gamma   90.22781653
_symmetry_Int_Tables_number   1
_chemical_formula_structural   V6Ga3FeN2
_chemical_formula_sum   'V12 Ga6 Fe2 N4'
_cell_volume   282.70022123
_cell_formula_units_Z   2
loop_
 _symmetry_equiv_pos_site_id
 _symmetry_equiv_pos_as_xyz
  1  'x, y, z'
loop_
 _atom_site_type_symbol
 _atom_site_label
 _atom_site_symmetry_multiplicity
 _atom_site_fract_x
 _atom_site_fract_y
 _atom_site_fract_z
 _atom_site_occupancy
  V  V0  1  0.796290  0.959386  0.372408  1
  V  V1  1  0.703710  0.040614  0.872408  1
  V  V2  1  0.212077  0.461770  0.124234  1
  V  V3  1  0.287923  0.538230  0.624234  1
  V  V4  1  0.965082  0.372145  0.792150  1
  V  V5  1  0.045623  0.880598  0.706757  1
  V  V6  1  0.454377  0.119402  0.206757  1
  V  V7  1  0.534918  0.627855  0.292150  1
  V  V8  1  0.369569  0.797878  0.963957  1
  V  V9  1  0.878286  0.710973  0.044099  1
  V  V10  1  0.130431  0.202122  0.463957  1
  V  V11  1  0.621714  0.289027  0.544099  1
  Ga  Ga12  1  0.819462  0.320047  0.179033  1
  Ga  Ga13  1  0.680538  0.679953  0.679033  1
  Ga  Ga14  1  0.559613  0.423959  0.927461  1
  Ga  Ga15  1  0.422608  0.932315  0.568842  1
  Ga  Ga16  1  0.940387  0.576041  0.427461  1
  Ga  Ga17  1  0.077392  0.067685  0.068842  1
  Fe  Fe18  1  0.179579  0.825012  0.321124  1
  Fe  Fe19  1  0.320421  0.174988  0.821124  1
  N  N20  1  0.875217  0.124822  0.624377  1
  N  N21  1  0.624783  0.875178  0.124377  1
  N  N22  1  0.125515  0.628110  0.875557  1
  N  N23  1  0.374485  0.371890  0.375557  1
