# generated using pymatgen
data_Tb2DyY3(B7W)2
_symmetry_space_group_name_H-M   'P 1'
_cell_length_a   8.20190830
_cell_length_b   8.20190964
_cell_length_c   9.50195946
_cell_angle_alpha   90.08266002
_cell_angle_beta   89.91733984
_cell_angle_gamma   155.62489297
_symmetry_Int_Tables_number   1
_chemical_formula_structural   Tb2DyY3(B7W)2
_chemical_formula_sum   'Tb2 Dy1 Y3 B14 W2'
_cell_volume   263.80695875
_cell_formula_units_Z   1
loop_
 _symmetry_equiv_pos_site_id
 _symmetry_equiv_pos_as_xyz
  1  'x, y, z'
loop_
 _atom_site_type_symbol
 _atom_site_label
 _atom_site_symmetry_multiplicity
 _atom_site_fract_x
 _atom_site_fract_y
 _atom_site_fract_z
 _atom_site_occupancy
  Tb  Tb0  1  0.892696  0.107304  0.060995  1
  Tb  Tb1  1  0.107259  0.892741  0.938949  1
  Dy  Dy2  1  0.107131  0.892869  0.560434  1
  Y  Y3  1  0.892858  0.107142  0.439279  1
  Y  Y4  1  0.244707  0.755293  0.249952  1
  Y  Y5  1  0.755260  0.244740  0.749822  1
  B  B6  1  0.727514  0.272486  0.467129  1
  B  B7  1  0.272338  0.727662  0.532922  1
  B  B8  1  0.727552  0.272448  0.033050  1
  B  B9  1  0.272422  0.727578  0.966957  1
  B  B10  1  0.635023  0.364977  0.147224  1
  B  B11  1  0.364930  0.635070  0.852824  1
  B  B12  1  0.634983  0.365017  0.353214  1
  B  B13  1  0.365057  0.634943  0.646920  1
  B  B14  1  0.519983  0.480017  0.092079  1
  B  B15  1  0.479976  0.520024  0.908002  1
  B  B16  1  0.520088  0.479912  0.408612  1
  B  B17  1  0.480124  0.519876  0.591617  1
  B  B18  1  0.456530  0.543470  0.250482  1
  B  B19  1  0.543546  0.456454  0.749486  1
  W  W20  1  0.053478  0.946522  0.250196  1
  W  W21  1  0.946547  0.053453  0.749858  1
