# generated using pymatgen
data_AcZn2Ag3
_symmetry_space_group_name_H-M   'P 1'
_cell_length_a   5.86223218
_cell_length_b   5.86223255
_cell_length_c   4.49426800
_cell_angle_alpha   90.00000000
_cell_angle_beta   90.00000000
_cell_angle_gamma   123.34566849
_symmetry_Int_Tables_number   1
_chemical_formula_structural   AcZn2Ag3
_chemical_formula_sum   'Ac1 Zn2 Ag3'
_cell_volume   129.02195960
_cell_formula_units_Z   1
loop_
 _symmetry_equiv_pos_site_id
 _symmetry_equiv_pos_as_xyz
  1  'x, y, z'
loop_
 _atom_site_type_symbol
 _atom_site_label
 _atom_site_symmetry_multiplicity
 _atom_site_fract_x
 _atom_site_fract_y
 _atom_site_fract_z
 _atom_site_occupancy
  Ac  Ac0  1  0.000000  0.000000  0.000000  1
  Zn  Zn1  1  0.000000  0.500000  0.500000  1
  Zn  Zn2  1  0.500000  0.000000  0.500000  1
  Ag  Ag3  1  0.321278  0.678722  0.000000  1
  Ag  Ag4  1  0.678722  0.321278  0.000000  1
  Ag  Ag5  1  0.500000  0.500000  0.500000  1
