# generated using pymatgen
data_Tm10Al4Ru5Rh
_symmetry_space_group_name_H-M   'P 1'
_cell_length_a   8.25125930
_cell_length_b   8.25094701
_cell_length_c   8.25094771
_cell_angle_alpha   109.43655432
_cell_angle_beta   109.54432575
_cell_angle_gamma   109.43127860
_symmetry_Int_Tables_number   1
_chemical_formula_structural   Tm10Al4Ru5Rh
_chemical_formula_sum   'Tm10 Al4 Ru5 Rh1'
_cell_volume   432.42782396
_cell_formula_units_Z   1
loop_
 _symmetry_equiv_pos_site_id
 _symmetry_equiv_pos_as_xyz
  1  'x, y, z'
loop_
 _atom_site_type_symbol
 _atom_site_label
 _atom_site_symmetry_multiplicity
 _atom_site_fract_x
 _atom_site_fract_y
 _atom_site_fract_z
 _atom_site_occupancy
  Tm  Tm0  1  0.250000  0.679322  0.429322  1
  Tm  Tm1  1  0.750000  0.820142  0.070142  1
  Tm  Tm2  1  0.431587  0.251217  0.678782  1
  Tm  Tm3  1  0.682057  0.431428  0.252372  1
  Tm  Tm4  1  0.068413  0.747195  0.819630  1
  Tm  Tm5  1  0.817943  0.070315  0.749371  1
  Tm  Tm6  1  0.212199  0.214062  0.215190  1
  Tm  Tm7  1  0.500156  0.999803  0.287609  1
  Tm  Tm8  1  0.287801  0.502991  0.001862  1
  Tm  Tm9  1  0.999844  0.287454  0.499647  1
  Al  Al10  1  0.589302  0.589356  0.589164  1
  Al  Al11  1  0.500722  0.998641  0.910297  1
  Al  Al12  1  0.910698  0.499862  0.000054  1
  Al  Al13  1  0.999278  0.909575  0.497919  1
  Ru  Ru14  1  0.750000  0.374887  0.624887  1
  Ru  Ru15  1  0.873758  0.249875  0.123951  1
  Ru  Ru16  1  0.125797  0.876183  0.249758  1
  Ru  Ru17  1  0.626241  0.750191  0.376115  1
  Ru  Ru18  1  0.374203  0.623961  0.750387  1
  Rh  Rh19  1  0.250000  0.123541  0.873541  1
