# generated using pymatgen
data_Y2Er6In2PdRh
_symmetry_space_group_name_H-M   'P 1'
_cell_length_a   9.63725317
_cell_length_b   9.64722913
_cell_length_c   9.63993971
_cell_angle_alpha   59.72083822
_cell_angle_beta   59.78084716
_cell_angle_gamma   60.01022324
_symmetry_Int_Tables_number   1
_chemical_formula_structural   Y2Er6In2PdRh
_chemical_formula_sum   'Y4 Er12 In4 Pd2 Rh2'
_cell_volume   631.39678492
_cell_formula_units_Z   2
loop_
 _symmetry_equiv_pos_site_id
 _symmetry_equiv_pos_as_xyz
  1  'x, y, z'
loop_
 _atom_site_type_symbol
 _atom_site_label
 _atom_site_symmetry_multiplicity
 _atom_site_fract_x
 _atom_site_fract_y
 _atom_site_fract_z
 _atom_site_occupancy
  Y  Y0  1  0.193416  0.186098  0.809554  1
  Y  Y1  1  0.438690  0.061653  0.062432  1
  Y  Y2  1  0.434941  0.066221  0.436789  1
  Y  Y3  1  0.061817  0.439940  0.063697  1
  Er  Er4  1  0.647586  0.051353  0.652328  1
  Er  Er5  1  0.188657  0.810798  0.811449  1
  Er  Er6  1  0.060894  0.062215  0.440545  1
  Er  Er7  1  0.809559  0.189849  0.190229  1
  Er  Er8  1  0.811370  0.810559  0.184974  1
  Er  Er9  1  0.646266  0.652558  0.051996  1
  Er  Er10  1  0.645331  0.650884  0.651112  1
  Er  Er11  1  0.064470  0.437272  0.436205  1
  Er  Er12  1  0.055912  0.650059  0.648618  1
  Er  Er13  1  0.810845  0.184987  0.810665  1
  Er  Er14  1  0.435493  0.439019  0.064890  1
  Er  Er15  1  0.193375  0.809684  0.185534  1
  In  In16  1  0.416561  0.749494  0.416721  1
  In  In17  1  0.417131  0.416671  0.749568  1
  In  In18  1  0.749470  0.416557  0.417147  1
  In  In19  1  0.416102  0.416078  0.415628  1
  Pd  Pd20  1  0.855067  0.431566  0.856295  1
  Pd  Pd21  1  0.857910  0.856018  0.429939  1
  Rh  Rh22  1  0.430959  0.853418  0.858131  1
  Rh  Rh23  1  0.858176  0.857052  0.855554  1
