# generated using pymatgen
data_Li5SnN3
_symmetry_space_group_name_H-M   'P 1'
_cell_length_a   3.46823508
_cell_length_b   6.15954090
_cell_length_c   6.12750650
_cell_angle_alpha   60.11494785
_cell_angle_beta   55.48285936
_cell_angle_gamma   73.63029061
_symmetry_Int_Tables_number   1
_chemical_formula_structural   Li5SnN3
_chemical_formula_sum   'Li5 Sn1 N3'
_cell_volume   93.51417336
_cell_formula_units_Z   1
loop_
 _symmetry_equiv_pos_site_id
 _symmetry_equiv_pos_as_xyz
  1  'x, y, z'
loop_
 _atom_site_type_symbol
 _atom_site_label
 _atom_site_symmetry_multiplicity
 _atom_site_fract_x
 _atom_site_fract_y
 _atom_site_fract_z
 _atom_site_occupancy
  Li  Li0  1  0.726876  0.681043  0.697275  1
  Li  Li1  1  0.240726  0.392274  0.829166  1
  Li  Li2  1  0.722892  0.073915  0.005938  1
  Li  Li3  1  0.718731  0.471238  0.310553  1
  Li  Li4  1  0.248512  0.757027  0.138709  1
  Sn  Sn5  1  0.216233  0.074994  0.512161  1
  N  N6  1  0.987608  0.397825  0.578667  1
  N  N7  1  0.976740  0.072964  0.252168  1
  N  N8  1  0.989202  0.750266  0.901158  1
