# generated using pymatgen
data_Sc7Ti4Si16Mo9
_symmetry_space_group_name_H-M   'P 1'
_cell_length_a   6.74339552
_cell_length_b   6.74580732
_cell_length_c   12.43342683
_cell_angle_alpha   89.92915965
_cell_angle_beta   90.10156384
_cell_angle_gamma   89.59027136
_symmetry_Int_Tables_number   1
_chemical_formula_structural   Sc7Ti4Si16Mo9
_chemical_formula_sum   'Sc7 Ti4 Si16 Mo9'
_cell_volume   565.57640379
_cell_formula_units_Z   1
loop_
 _symmetry_equiv_pos_site_id
 _symmetry_equiv_pos_as_xyz
  1  'x, y, z'
loop_
 _atom_site_type_symbol
 _atom_site_label
 _atom_site_symmetry_multiplicity
 _atom_site_fract_x
 _atom_site_fract_y
 _atom_site_fract_z
 _atom_site_occupancy
  Sc  Sc0  1  0.002038  0.336161  0.219028  1
  Sc  Sc1  1  0.160707  0.500395  0.468093  1
  Sc  Sc2  1  0.840795  0.496525  0.969430  1
  Sc  Sc3  1  0.500704  0.161330  0.530392  1
  Sc  Sc4  1  0.497153  0.841116  0.030619  1
  Sc  Sc5  1  0.000126  0.661406  0.719529  1
  Sc  Sc6  1  0.338038  0.004365  0.782105  1
  Ti  Ti7  1  0.655940  0.993421  0.282480  1
  Ti  Ti8  1  0.332482  0.668448  0.248810  1
  Ti  Ti9  1  0.666924  0.330842  0.751299  1
  Ti  Ti10  1  0.832135  0.832712  0.498931  1
  Si  Si11  1  0.040405  0.295452  0.814935  1
  Si  Si12  1  0.205800  0.534521  0.061833  1
  Si  Si13  1  0.798293  0.459310  0.563013  1
  Si  Si14  1  0.535195  0.206339  0.939517  1
  Si  Si15  1  0.460645  0.799583  0.434765  1
  Si  Si16  1  0.960378  0.703322  0.313836  1
  Si  Si17  1  0.300257  0.041485  0.185772  1
  Si  Si18  1  0.701224  0.961469  0.685915  1
  Si  Si19  1  0.295334  0.366416  0.678349  1
  Si  Si20  1  0.131182  0.799880  0.929661  1
  Si  Si21  1  0.862263  0.202225  0.425326  1
  Si  Si22  1  0.798316  0.130387  0.072754  1
  Si  Si23  1  0.204846  0.866191  0.570679  1
  Si  Si24  1  0.706738  0.637358  0.180149  1
  Si  Si25  1  0.370031  0.292715  0.321511  1
  Si  Si26  1  0.633216  0.705450  0.820152  1
  Mo  Mo27  1  0.994524  0.155720  0.622739  1
  Mo  Mo28  1  0.345464  0.499852  0.871055  1
  Mo  Mo29  1  0.655839  0.507573  0.373344  1
  Mo  Mo30  1  0.502867  0.347469  0.130175  1
  Mo  Mo31  1  0.506401  0.656093  0.625161  1
  Mo  Mo32  1  0.005301  0.836551  0.125133  1
  Mo  Mo33  1  0.155928  0.996443  0.375914  1
  Mo  Mo34  1  0.833737  0.003687  0.876632  1
  Mo  Mo35  1  0.168774  0.167785  0.000966  1
