# generated using pymatgen
data_Rb4LiMnSe4
_symmetry_space_group_name_H-M   'P 1'
_cell_length_a   8.55689149
_cell_length_b   8.55689152
_cell_length_c   8.55689143
_cell_angle_alpha   133.32343309
_cell_angle_beta   131.24761297
_cell_angle_gamma   69.79192892
_symmetry_Int_Tables_number   1
_chemical_formula_structural   Rb4LiMnSe4
_chemical_formula_sum   'Rb4 Li1 Mn1 Se4'
_cell_volume   336.08965643
_cell_formula_units_Z   1
loop_
 _symmetry_equiv_pos_site_id
 _symmetry_equiv_pos_as_xyz
  1  'x, y, z'
loop_
 _atom_site_type_symbol
 _atom_site_label
 _atom_site_symmetry_multiplicity
 _atom_site_fract_x
 _atom_site_fract_y
 _atom_site_fract_z
 _atom_site_occupancy
  Rb  Rb0  1  0.816665  0.653955  0.179408  1
  Rb  Rb1  1  0.183335  0.362743  0.837289  1
  Rb  Rb2  1  0.525454  0.846045  0.662711  1
  Rb  Rb3  1  0.474546  0.137257  0.320592  1
  Li  Li4  1  0.000000  0.750000  0.750000  1
  Mn  Mn5  1  0.000000  0.250000  0.250000  1
  Se  Se6  1  0.275875  0.583460  0.653609  1
  Se  Se7  1  0.070149  0.916540  0.192415  1
  Se  Se8  1  0.929851  0.122266  0.846391  1
  Se  Se9  1  0.724125  0.377734  0.307585  1
