# generated using pymatgen
data_CaNd17(UIr6)2
_symmetry_space_group_name_H-M   'P 1'
_cell_length_a   11.29968900
_cell_length_b   11.29968900
_cell_length_c   6.44991600
_cell_angle_alpha   90.00000000
_cell_angle_beta   90.00000000
_cell_angle_gamma   90.00000000
_symmetry_Int_Tables_number   1
_chemical_formula_structural   CaNd17(UIr6)2
_chemical_formula_sum   'Ca1 Nd17 U2 Ir12'
_cell_volume   823.54444078
_cell_formula_units_Z   1
loop_
 _symmetry_equiv_pos_site_id
 _symmetry_equiv_pos_as_xyz
  1  'x, y, z'
loop_
 _atom_site_type_symbol
 _atom_site_label
 _atom_site_symmetry_multiplicity
 _atom_site_fract_x
 _atom_site_fract_y
 _atom_site_fract_z
 _atom_site_occupancy
  Ca  Ca0  1  0.000000  0.000000  0.000000  1
  Nd  Nd1  1  0.086228  0.289184  0.118728  1
  Nd  Nd2  1  0.788786  0.411849  0.126581  1
  Nd  Nd3  1  0.211214  0.588151  0.126581  1
  Nd  Nd4  1  0.913772  0.710816  0.118728  1
  Nd  Nd5  1  0.411450  0.788569  0.375392  1
  Nd  Nd6  1  0.588550  0.211431  0.375392  1
  Nd  Nd7  1  0.292510  0.087369  0.380784  1
  Nd  Nd8  1  0.707490  0.912631  0.380784  1
  Nd  Nd9  1  0.411849  0.211214  0.873419  1
  Nd  Nd10  1  0.710816  0.086228  0.881272  1
  Nd  Nd11  1  0.289184  0.913772  0.881272  1
  Nd  Nd12  1  0.588151  0.788786  0.873419  1
  Nd  Nd13  1  0.087369  0.707490  0.619216  1
  Nd  Nd14  1  0.912631  0.292510  0.619216  1
  Nd  Nd15  1  0.211431  0.411450  0.624608  1
  Nd  Nd16  1  0.788569  0.588550  0.624608  1
  Nd  Nd17  1  0.000000  0.000000  0.500000  1
  U  U18  1  0.500000  0.500000  0.000000  1
  U  U19  1  0.500000  0.500000  0.500000  1
  Ir  Ir20  1  0.158573  0.844715  0.257068  1
  Ir  Ir21  1  0.362407  0.362689  0.248615  1
  Ir  Ir22  1  0.637593  0.637311  0.248615  1
  Ir  Ir23  1  0.841427  0.155285  0.257068  1
  Ir  Ir24  1  0.362689  0.637593  0.751385  1
  Ir  Ir25  1  0.155285  0.158573  0.742932  1
  Ir  Ir26  1  0.844715  0.841427  0.742932  1
  Ir  Ir27  1  0.637311  0.362407  0.751385  1
  Ir  Ir28  1  0.000000  0.500000  0.380343  1
  Ir  Ir29  1  0.500000  0.000000  0.116105  1
  Ir  Ir30  1  0.500000  0.000000  0.619657  1
  Ir  Ir31  1  0.000000  0.500000  0.883895  1
