# generated using pymatgen
data_Ho4HfRu3F28
_symmetry_space_group_name_H-M   'P 1'
_cell_length_a   5.58777364
_cell_length_b   8.91358260
_cell_length_c   11.96220410
_cell_angle_alpha   63.17279094
_cell_angle_beta   89.90950100
_cell_angle_gamma   89.95121843
_symmetry_Int_Tables_number   1
_chemical_formula_structural   Ho4HfRu3F28
_chemical_formula_sum   'Ho4 Hf1 Ru3 F28'
_cell_volume   531.67654257
_cell_formula_units_Z   1
loop_
 _symmetry_equiv_pos_site_id
 _symmetry_equiv_pos_as_xyz
  1  'x, y, z'
loop_
 _atom_site_type_symbol
 _atom_site_label
 _atom_site_symmetry_multiplicity
 _atom_site_fract_x
 _atom_site_fract_y
 _atom_site_fract_z
 _atom_site_occupancy
  Ho  Ho0  1  0.758197  0.809519  0.769045  1
  Ho  Ho1  1  0.256632  0.188384  0.725218  1
  Ho  Ho2  1  0.241505  0.187148  0.235757  1
  Ho  Ho3  1  0.742350  0.813549  0.266680  1
  Hf  Hf4  1  0.753166  0.272029  0.955636  1
  Ru  Ru5  1  0.255729  0.728386  0.543728  1
  Ru  Ru6  1  0.244727  0.726666  0.046184  1
  Ru  Ru7  1  0.745395  0.274236  0.454115  1
  F  F8  1  0.449865  0.705092  0.920197  1
  F  F9  1  0.948759  0.295327  0.580973  1
  F  F10  1  0.532015  0.292687  0.079061  1
  F  F11  1  0.048178  0.707330  0.419011  1
  F  F12  1  0.451567  0.284586  0.543729  1
  F  F13  1  0.953990  0.721673  0.953236  1
  F  F14  1  0.545022  0.717969  0.451876  1
  F  F15  1  0.046294  0.281232  0.050965  1
  F  F16  1  0.771550  0.522299  0.857451  1
  F  F17  1  0.264624  0.488846  0.639174  1
  F  F18  1  0.229713  0.487034  0.141389  1
  F  F19  1  0.735196  0.513460  0.359527  1
  F  F20  1  0.757163  0.022908  0.058181  1
  F  F21  1  0.256808  0.967284  0.452094  1
  F  F22  1  0.248260  0.964661  0.953071  1
  F  F23  1  0.745562  0.036226  0.546581  1
  F  F24  1  0.973209  0.734919  0.639950  1
  F  F25  1  0.477108  0.265617  0.850358  1
  F  F26  1  0.031760  0.269828  0.359410  1
  F  F27  1  0.526250  0.725924  0.144899  1
  F  F28  1  0.044597  0.746270  0.175200  1
  F  F29  1  0.545610  0.252591  0.325490  1
  F  F30  1  0.968581  0.245993  0.829928  1
  F  F31  1  0.460129  0.750253  0.670845  1
  F  F32  1  0.424621  0.974325  0.235329  1
  F  F33  1  0.924572  0.027200  0.268918  1
  F  F34  1  0.570014  0.025190  0.763950  1
  F  F35  1  0.071284  0.973360  0.732848  1
