# generated using pymatgen
data_Li8Dy3Ho5(Sn3Bi)2
_symmetry_space_group_name_H-M   'P 1'
_cell_length_a   9.43262798
_cell_length_b   9.43306255
_cell_length_c   7.24873800
_cell_angle_alpha   90.00009211
_cell_angle_beta   90.10095535
_cell_angle_gamma   120.00149341
_symmetry_Int_Tables_number   1
_chemical_formula_structural   Li8Dy3Ho5(Sn3Bi)2
_chemical_formula_sum   'Li8 Dy3 Ho5 Sn6 Bi2'
_cell_volume   558.56152782
_cell_formula_units_Z   1
loop_
 _symmetry_equiv_pos_site_id
 _symmetry_equiv_pos_as_xyz
  1  'x, y, z'
loop_
 _atom_site_type_symbol
 _atom_site_label
 _atom_site_symmetry_multiplicity
 _atom_site_fract_x
 _atom_site_fract_y
 _atom_site_fract_z
 _atom_site_occupancy
  Li  Li0  1  0.167657  0.333945  0.283402  1
  Li  Li1  1  0.167655  0.833709  0.283397  1
  Li  Li2  1  0.665304  0.832653  0.286547  1
  Li  Li3  1  0.829079  0.664437  0.787808  1
  Li  Li4  1  0.829079  0.164647  0.787814  1
  Li  Li5  1  0.337985  0.168991  0.791449  1
  Li  Li6  1  0.337947  0.668974  0.668526  1
  Li  Li7  1  0.665496  0.332748  0.171984  1
  Dy  Dy8  1  0.516909  0.026560  0.490852  1
  Dy  Dy9  1  0.516909  0.490350  0.490853  1
  Dy  Dy10  1  0.972029  0.486014  0.488732  1
  Ho  Ho11  1  0.493015  0.978208  0.997112  1
  Ho  Ho12  1  0.493013  0.514806  0.997113  1
  Ho  Ho13  1  0.017749  0.508875  0.999638  1
  Ho  Ho14  1  0.994654  0.997327  0.494854  1
  Ho  Ho15  1  0.995359  0.997680  0.005476  1
  Sn  Sn16  1  0.667132  0.833567  0.732855  1
  Sn  Sn17  1  0.833837  0.666566  0.231810  1
  Sn  Sn18  1  0.833839  0.167269  0.231815  1
  Sn  Sn19  1  0.333055  0.166522  0.231848  1
  Sn  Sn20  1  0.332307  0.666155  0.259753  1
  Sn  Sn21  1  0.667711  0.333858  0.760137  1
  Bi  Bi22  1  0.166140  0.333314  0.734098  1
  Bi  Bi23  1  0.166141  0.832825  0.734097  1
