# generated using pymatgen
data_Dy8Sc12Ga5Si10Ge
_symmetry_space_group_name_H-M   'P 1'
_cell_length_a   7.15927582
_cell_length_b   7.42838565
_cell_length_c   14.18629005
_cell_angle_alpha   89.99689889
_cell_angle_beta   89.76756601
_cell_angle_gamma   90.15876089
_symmetry_Int_Tables_number   1
_chemical_formula_structural   Dy8Sc12Ga5Si10Ge
_chemical_formula_sum   'Dy8 Sc12 Ga5 Si10 Ge1'
_cell_volume   754.44421115
_cell_formula_units_Z   1
loop_
 _symmetry_equiv_pos_site_id
 _symmetry_equiv_pos_as_xyz
  1  'x, y, z'
loop_
 _atom_site_type_symbol
 _atom_site_label
 _atom_site_symmetry_multiplicity
 _atom_site_fract_x
 _atom_site_fract_y
 _atom_site_fract_z
 _atom_site_occupancy
  Dy  Dy0  1  0.013852  0.175192  0.096710  1
  Dy  Dy1  1  0.987644  0.823122  0.902573  1
  Dy  Dy2  1  0.486550  0.676553  0.902024  1
  Dy  Dy3  1  0.990063  0.823781  0.600826  1
  Dy  Dy4  1  0.511489  0.320943  0.097301  1
  Dy  Dy5  1  0.010058  0.174311  0.399338  1
  Dy  Dy6  1  0.510159  0.325112  0.399021  1
  Dy  Dy7  1  0.490151  0.674461  0.601140  1
  Sc  Sc8  1  0.164107  0.502532  0.751516  1
  Sc  Sc9  1  0.836740  0.499715  0.250101  1
  Sc  Sc10  1  0.335543  0.001312  0.249096  1
  Sc  Sc11  1  0.660797  0.998792  0.750870  1
  Sc  Sc12  1  0.332975  0.173388  0.627363  1
  Sc  Sc13  1  0.668727  0.827139  0.372526  1
  Sc  Sc14  1  0.169403  0.673483  0.372453  1
  Sc  Sc15  1  0.669020  0.826186  0.125331  1
  Sc  Sc16  1  0.829706  0.328852  0.627067  1
  Sc  Sc17  1  0.331053  0.176089  0.875619  1
  Sc  Sc18  1  0.826426  0.325467  0.875854  1
  Sc  Sc19  1  0.173709  0.675353  0.123939  1
  Ga  Ga20  1  0.161379  0.461926  0.539478  1
  Ga  Ga21  1  0.839003  0.537991  0.460762  1
  Ga  Ga22  1  0.338747  0.961984  0.460910  1
  Ga  Ga23  1  0.840387  0.538664  0.038855  1
  Ga  Ga24  1  0.661662  0.038081  0.539345  1
  Si  Si25  1  0.967425  0.883704  0.247989  1
  Si  Si26  1  0.467444  0.614329  0.247880  1
  Si  Si27  1  0.532707  0.384074  0.751946  1
  Si  Si28  1  0.290465  0.868949  0.752223  1
  Si  Si29  1  0.714518  0.127166  0.247746  1
  Si  Si30  1  0.213190  0.372960  0.247770  1
  Si  Si31  1  0.787280  0.627535  0.752452  1
  Si  Si32  1  0.156734  0.463278  0.960737  1
  Si  Si33  1  0.655455  0.035651  0.961470  1
  Si  Si34  1  0.345808  0.963991  0.037596  1
  Ge  Ge35  1  0.029625  0.117934  0.752172  1
