# generated using pymatgen
data_TbBi7(RuO6)4
_symmetry_space_group_name_H-M   'P 1'
_cell_length_a   5.40906054
_cell_length_b   9.30689403
_cell_length_c   10.07964100
_cell_angle_alpha   90.22235282
_cell_angle_beta   89.95681414
_cell_angle_gamma   89.95458040
_symmetry_Int_Tables_number   1
_chemical_formula_structural   TbBi7(RuO6)4
_chemical_formula_sum   'Tb1 Bi7 Ru4 O24'
_cell_volume   507.42065796
_cell_formula_units_Z   1
loop_
 _symmetry_equiv_pos_site_id
 _symmetry_equiv_pos_as_xyz
  1  'x, y, z'
loop_
 _atom_site_type_symbol
 _atom_site_label
 _atom_site_symmetry_multiplicity
 _atom_site_fract_x
 _atom_site_fract_y
 _atom_site_fract_z
 _atom_site_occupancy
  Tb  Tb0  1  0.459912  0.783090  0.366383  1
  Bi  Bi1  1  0.024230  0.096846  0.463180  1
  Bi  Bi2  1  0.522978  0.400138  0.535425  1
  Bi  Bi3  1  0.981791  0.604422  0.038082  1
  Bi  Bi4  1  0.477037  0.898584  0.965489  1
  Bi  Bi5  1  0.033225  0.212306  0.860845  1
  Bi  Bi6  1  0.528828  0.286521  0.137785  1
  Bi  Bi7  1  0.969322  0.714084  0.637491  1
  Ru  Ru8  1  0.538911  0.000839  0.645147  1
  Ru  Ru9  1  0.035535  0.498463  0.353507  1
  Ru  Ru10  1  0.464290  0.501612  0.854699  1
  Ru  Ru11  1  0.957615  0.998068  0.147580  1
  O  O12  1  0.261693  0.418368  0.000128  1
  O  O13  1  0.760029  0.082789  0.000804  1
  O  O14  1  0.739029  0.915865  0.498844  1
  O  O15  1  0.244787  0.587407  0.497294  1
  O  O16  1  0.232787  0.111964  0.066716  1
  O  O17  1  0.731566  0.388235  0.934177  1
  O  O18  1  0.762309  0.613064  0.431430  1
  O  O19  1  0.268513  0.886077  0.561374  1
  O  O20  1  0.320588  0.364323  0.323969  1
  O  O21  1  0.820910  0.134379  0.673467  1
  O  O22  1  0.676137  0.866982  0.178664  1
  O  O23  1  0.182588  0.635953  0.825841  1
  O  O24  1  0.166406  0.946228  0.293070  1
  O  O25  1  0.668326  0.548501  0.705698  1
  O  O26  1  0.833876  0.452093  0.204972  1
  O  O27  1  0.330635  0.046969  0.793756  1
  O  O28  1  0.187111  0.640179  0.241714  1
  O  O29  1  0.683517  0.861635  0.758990  1
  O  O30  1  0.816201  0.139689  0.260499  1
  O  O31  1  0.317120  0.362252  0.741091  1
  O  O32  1  0.084640  0.845177  0.028824  1
  O  O33  1  0.589158  0.655764  0.971298  1
  O  O34  1  0.917396  0.345912  0.470913  1
  O  O35  1  0.411006  0.155223  0.530858  1
