# generated using pymatgen
data_Th8Si15Hg
_symmetry_space_group_name_H-M   'P 1'
_cell_length_a   8.35962900
_cell_length_b   8.35962918
_cell_length_c   8.30456800
_cell_angle_alpha   90.00000000
_cell_angle_beta   90.00000000
_cell_angle_gamma   120.00000324
_symmetry_Int_Tables_number   1
_chemical_formula_structural   Th8Si15Hg
_chemical_formula_sum   'Th8 Si15 Hg1'
_cell_volume   502.59906953
_cell_formula_units_Z   1
loop_
 _symmetry_equiv_pos_site_id
 _symmetry_equiv_pos_as_xyz
  1  'x, y, z'
loop_
 _atom_site_type_symbol
 _atom_site_label
 _atom_site_symmetry_multiplicity
 _atom_site_fract_x
 _atom_site_fract_y
 _atom_site_fract_z
 _atom_site_occupancy
  Th  Th0  1  0.494805  0.505195  0.741495  1
  Th  Th1  1  0.495329  0.504671  0.258170  1
  Th  Th2  1  0.010391  0.505195  0.741495  1
  Th  Th3  1  0.009343  0.504671  0.258170  1
  Th  Th4  1  0.494805  0.989609  0.741495  1
  Th  Th5  1  0.495329  0.990657  0.258170  1
  Th  Th6  1  0.000000  0.000000  0.745384  1
  Th  Th7  1  0.000000  0.000000  0.255744  1
  Si  Si8  1  0.843589  0.156411  0.001623  1
  Si  Si9  1  0.170669  0.829331  0.999243  1
  Si  Si10  1  0.312821  0.156411  0.001623  1
  Si  Si11  1  0.167608  0.832392  0.499606  1
  Si  Si12  1  0.658663  0.829331  0.999243  1
  Si  Si13  1  0.834104  0.165896  0.500530  1
  Si  Si14  1  0.843589  0.687179  0.001623  1
  Si  Si15  1  0.664782  0.832392  0.499606  1
  Si  Si16  1  0.170669  0.341337  0.999243  1
  Si  Si17  1  0.331790  0.165896  0.500530  1
  Si  Si18  1  0.167608  0.335218  0.499606  1
  Si  Si19  1  0.834104  0.668210  0.500530  1
  Si  Si20  1  0.333333  0.666667  0.000695  1
  Si  Si21  1  0.333333  0.666667  0.499534  1
  Si  Si22  1  0.666667  0.333333  0.499869  1
  Hg  Hg23  1  0.666667  0.333333  0.996775  1
