# generated using pymatgen
data_MgSc6Zn22P
_symmetry_space_group_name_H-M   'P 1'
_cell_length_a   8.84928112
_cell_length_b   8.84928140
_cell_length_c   8.84928100
_cell_angle_alpha   59.99999776
_cell_angle_beta   59.99999671
_cell_angle_gamma   60.00000101
_symmetry_Int_Tables_number   1
_chemical_formula_structural   MgSc6Zn22P
_chemical_formula_sum   'Mg1 Sc6 Zn22 P1'
_cell_volume   490.01454415
_cell_formula_units_Z   1
loop_
 _symmetry_equiv_pos_site_id
 _symmetry_equiv_pos_as_xyz
  1  'x, y, z'
loop_
 _atom_site_type_symbol
 _atom_site_label
 _atom_site_symmetry_multiplicity
 _atom_site_fract_x
 _atom_site_fract_y
 _atom_site_fract_z
 _atom_site_occupancy
  Mg  Mg0  1  0.000000  0.000000  0.000000  1
  Sc  Sc1  1  0.707352  0.292648  0.292648  1
  Sc  Sc2  1  0.707352  0.292648  0.707352  1
  Sc  Sc3  1  0.707352  0.707352  0.292648  1
  Sc  Sc4  1  0.292648  0.707352  0.707352  1
  Sc  Sc5  1  0.292648  0.707352  0.292648  1
  Sc  Sc6  1  0.292648  0.292648  0.707352  1
  Zn  Zn7  1  0.622688  0.125771  0.125771  1
  Zn  Zn8  1  0.125771  0.622688  0.125771  1
  Zn  Zn9  1  0.125771  0.125771  0.622688  1
  Zn  Zn10  1  0.125771  0.125771  0.125771  1
  Zn  Zn11  1  0.377312  0.874229  0.874229  1
  Zn  Zn12  1  0.874229  0.377312  0.874229  1
  Zn  Zn13  1  0.874229  0.874229  0.377312  1
  Zn  Zn14  1  0.874229  0.874229  0.874229  1
  Zn  Zn15  1  0.500000  0.000000  0.000000  1
  Zn  Zn16  1  0.500000  0.000000  0.500000  1
  Zn  Zn17  1  0.500000  0.500000  0.000000  1
  Zn  Zn18  1  0.000000  0.500000  0.500000  1
  Zn  Zn19  1  0.000000  0.500000  0.000000  1
  Zn  Zn20  1  0.000000  0.000000  0.500000  1
  Zn  Zn21  1  0.003185  0.332271  0.332271  1
  Zn  Zn22  1  0.332271  0.003185  0.332271  1
  Zn  Zn23  1  0.332271  0.332271  0.003185  1
  Zn  Zn24  1  0.332271  0.332271  0.332271  1
  Zn  Zn25  1  0.996815  0.667729  0.667729  1
  Zn  Zn26  1  0.667729  0.996815  0.667729  1
  Zn  Zn27  1  0.667729  0.667729  0.996815  1
  Zn  Zn28  1  0.667729  0.667729  0.667729  1
  P  P29  1  0.500000  0.500000  0.500000  1
