# generated using pymatgen
data_Nd4Co4HgBr
_symmetry_space_group_name_H-M   'P 1'
_cell_length_a   3.98216300
_cell_length_b   3.98216197
_cell_length_c   17.10999900
_cell_angle_alpha   90.00000000
_cell_angle_beta   90.00000000
_cell_angle_gamma   119.99998361
_symmetry_Int_Tables_number   1
_chemical_formula_structural   Nd4Co4HgBr
_chemical_formula_sum   'Nd4 Co4 Hg1 Br1'
_cell_volume   234.97336762
_cell_formula_units_Z   1
loop_
 _symmetry_equiv_pos_site_id
 _symmetry_equiv_pos_as_xyz
  1  'x, y, z'
loop_
 _atom_site_type_symbol
 _atom_site_label
 _atom_site_symmetry_multiplicity
 _atom_site_fract_x
 _atom_site_fract_y
 _atom_site_fract_z
 _atom_site_occupancy
  Nd  Nd0  1  0.000000  0.000000  0.113324  1
  Nd  Nd1  1  0.000000  0.000000  0.892922  1
  Nd  Nd2  1  0.000000  0.000000  0.607078  1
  Nd  Nd3  1  0.000000  0.000000  0.386676  1
  Co  Co4  1  0.333333  0.666667  0.500200  1
  Co  Co5  1  0.666667  0.333333  0.499094  1
  Co  Co6  1  0.666667  0.333333  0.000906  1
  Co  Co7  1  0.333333  0.666667  0.999800  1
  Hg  Hg8  1  0.333333  0.666667  0.250000  1
  Br  Br9  1  0.666667  0.333333  0.750000  1
