# generated using pymatgen
data_Nd7ErGaPd24
_symmetry_space_group_name_H-M   'P 1'
_cell_length_a   8.47915039
_cell_length_b   8.47915039
_cell_length_c   8.47915039
_cell_angle_alpha   89.95362234
_cell_angle_beta   89.95362234
_cell_angle_gamma   89.95362234
_symmetry_Int_Tables_number   1
_chemical_formula_structural   Nd7ErGaPd24
_chemical_formula_sum   'Nd7 Er1 Ga1 Pd24'
_cell_volume   609.61632381
_cell_formula_units_Z   1
loop_
 _symmetry_equiv_pos_site_id
 _symmetry_equiv_pos_as_xyz
  1  'x, y, z'
loop_
 _atom_site_type_symbol
 _atom_site_label
 _atom_site_symmetry_multiplicity
 _atom_site_fract_x
 _atom_site_fract_y
 _atom_site_fract_z
 _atom_site_occupancy
  Nd  Nd0  1  0.251910  0.251910  0.748160  1
  Nd  Nd1  1  0.251910  0.748160  0.251910  1
  Nd  Nd2  1  0.748160  0.251910  0.251910  1
  Nd  Nd3  1  0.748264  0.748264  0.748264  1
  Nd  Nd4  1  0.748154  0.748154  0.251811  1
  Nd  Nd5  1  0.748154  0.251811  0.748154  1
  Nd  Nd6  1  0.251811  0.748154  0.748154  1
  Er  Er7  1  0.252126  0.252126  0.252126  1
  Ga  Ga8  1  0.999958  0.999958  0.999958  1
  Pd  Pd9  1  0.500066  0.500066  0.746804  1
  Pd  Pd10  1  0.497839  0.253192  0.497839  1
  Pd  Pd11  1  0.253192  0.497839  0.497839  1
  Pd  Pd12  1  0.497839  0.497839  0.253192  1
  Pd  Pd13  1  0.500066  0.746804  0.500066  1
  Pd  Pd14  1  0.746804  0.500066  0.500066  1
  Pd  Pd15  1  0.000005  0.000005  0.706941  1
  Pd  Pd16  1  0.001879  0.292488  0.001879  1
  Pd  Pd17  1  0.292488  0.001879  0.001879  1
  Pd  Pd18  1  0.001879  0.001879  0.292488  1
  Pd  Pd19  1  0.000005  0.706941  0.000005  1
  Pd  Pd20  1  0.706941  0.000005  0.000005  1
  Pd  Pd21  1  0.999915  0.500003  0.739584  1
  Pd  Pd22  1  0.498171  0.260443  0.002159  1
  Pd  Pd23  1  0.260443  0.002159  0.498171  1
  Pd  Pd24  1  0.002159  0.260443  0.498171  1
  Pd  Pd25  1  0.500003  0.999915  0.739584  1
  Pd  Pd26  1  0.260443  0.498171  0.002159  1
  Pd  Pd27  1  0.002159  0.498171  0.260443  1
  Pd  Pd28  1  0.500003  0.739584  0.999915  1
  Pd  Pd29  1  0.999915  0.739584  0.500003  1
  Pd  Pd30  1  0.498171  0.002159  0.260443  1
  Pd  Pd31  1  0.739584  0.999915  0.500003  1
  Pd  Pd32  1  0.739584  0.500003  0.999915  1
