# generated using pymatgen
data_Nd3DyMn4F28
_symmetry_space_group_name_H-M   'P 1'
_cell_length_a   5.52367515
_cell_length_b   8.95587607
_cell_length_c   11.98870900
_cell_angle_alpha   61.94700746
_cell_angle_beta   89.94939128
_cell_angle_gamma   89.96864381
_symmetry_Int_Tables_number   1
_chemical_formula_structural   Nd3DyMn4F28
_chemical_formula_sum   'Nd3 Dy1 Mn4 F28'
_cell_volume   523.39499207
_cell_formula_units_Z   1
loop_
 _symmetry_equiv_pos_site_id
 _symmetry_equiv_pos_as_xyz
  1  'x, y, z'
loop_
 _atom_site_type_symbol
 _atom_site_label
 _atom_site_symmetry_multiplicity
 _atom_site_fract_x
 _atom_site_fract_y
 _atom_site_fract_z
 _atom_site_occupancy
  Nd  Nd0  1  0.261332  0.808214  0.263443  1
  Nd  Nd1  1  0.739092  0.188151  0.736192  1
  Nd  Nd2  1  0.760853  0.190671  0.236076  1
  Dy  Dy3  1  0.236385  0.809009  0.763582  1
  Mn  Mn4  1  0.757941  0.724983  0.038826  1
  Mn  Mn5  1  0.242460  0.279058  0.955515  1
  Mn  Mn6  1  0.256320  0.272121  0.459176  1
  Mn  Mn7  1  0.740085  0.726190  0.546443  1
  F  F8  1  0.932300  0.708572  0.427731  1
  F  F9  1  0.072156  0.291142  0.579577  1
  F  F10  1  0.428990  0.293933  0.076670  1
  F  F11  1  0.566149  0.708478  0.919901  1
  F  F12  1  0.485332  0.727846  0.126631  1
  F  F13  1  0.517339  0.272047  0.870994  1
  F  F14  1  0.979728  0.269942  0.374386  1
  F  F15  1  0.011946  0.730459  0.635184  1
  F  F16  1  0.946296  0.738017  0.162337  1
  F  F17  1  0.058563  0.264453  0.831950  1
  F  F18  1  0.438877  0.259271  0.334469  1
  F  F19  1  0.545577  0.743092  0.667227  1
  F  F20  1  0.768297  0.492836  0.132999  1
  F  F21  1  0.235492  0.513092  0.862043  1
  F  F22  1  0.265712  0.505264  0.365546  1
  F  F23  1  0.730487  0.493664  0.639017  1
  F  F24  1  0.962134  0.287174  0.036648  1
  F  F25  1  0.038065  0.717259  0.955281  1
  F  F26  1  0.464571  0.716551  0.462369  1
  F  F27  1  0.538313  0.282414  0.538547  1
  F  F28  1  0.737757  0.957733  0.454959  1
  F  F29  1  0.259899  0.040039  0.549324  1
  F  F30  1  0.237831  0.046634  0.045351  1
  F  F31  1  0.760822  0.957008  0.951890  1
  F  F32  1  0.608366  0.963351  0.225145  1
  F  F33  1  0.397416  0.023672  0.772759  1
  F  F34  1  0.107405  0.035326  0.274091  1
  F  F35  1  0.909717  0.962332  0.727724  1
