# generated using pymatgen
data_Li4Sm3TmSi8
_symmetry_space_group_name_H-M   'P 1'
_cell_length_a   3.83169600
_cell_length_b   7.63497344
_cell_length_c   10.29655294
_cell_angle_alpha   90.13261892
_cell_angle_beta   90.00000000
_cell_angle_gamma   90.00000000
_symmetry_Int_Tables_number   1
_chemical_formula_structural   Li4Sm3TmSi8
_chemical_formula_sum   'Li4 Sm3 Tm1 Si8'
_cell_volume   301.22379098
_cell_formula_units_Z   1
loop_
 _symmetry_equiv_pos_site_id
 _symmetry_equiv_pos_as_xyz
  1  'x, y, z'
loop_
 _atom_site_type_symbol
 _atom_site_label
 _atom_site_symmetry_multiplicity
 _atom_site_fract_x
 _atom_site_fract_y
 _atom_site_fract_z
 _atom_site_occupancy
  Li  Li0  1  0.250000  0.990913  0.391086  1
  Li  Li1  1  0.750000  0.008351  0.607553  1
  Li  Li2  1  0.250000  0.492359  0.110208  1
  Li  Li3  1  0.750000  0.506380  0.891011  1
  Sm  Sm4  1  0.250000  0.139986  0.864649  1
  Sm  Sm5  1  0.750000  0.860153  0.136660  1
  Sm  Sm6  1  0.250000  0.638675  0.634927  1
  Tm  Tm7  1  0.750000  0.365164  0.364102  1
  Si  Si8  1  0.750000  0.274144  0.074117  1
  Si  Si9  1  0.250000  0.727792  0.930597  1
  Si  Si10  1  0.750000  0.767707  0.430058  1
  Si  Si11  1  0.250000  0.232319  0.563597  1
  Si  Si12  1  0.750000  0.838635  0.820771  1
  Si  Si13  1  0.250000  0.162769  0.183251  1
  Si  Si14  1  0.750000  0.340042  0.675497  1
  Si  Si15  1  0.250000  0.654610  0.321915  1
