# generated using pymatgen
data_Tm2Ga8Co9
_symmetry_space_group_name_H-M   'P 1'
_cell_length_a   6.45057336
_cell_length_b   6.44673855
_cell_length_c   6.44467936
_cell_angle_alpha   85.51291425
_cell_angle_beta   94.52407720
_cell_angle_gamma   94.51154837
_symmetry_Int_Tables_number   1
_chemical_formula_structural   Tm2Ga8Co9
_chemical_formula_sum   'Tm2 Ga8 Co9'
_cell_volume   265.63967634
_cell_formula_units_Z   1
loop_
 _symmetry_equiv_pos_site_id
 _symmetry_equiv_pos_as_xyz
  1  'x, y, z'
loop_
 _atom_site_type_symbol
 _atom_site_label
 _atom_site_symmetry_multiplicity
 _atom_site_fract_x
 _atom_site_fract_y
 _atom_site_fract_z
 _atom_site_occupancy
  Tm  Tm0  1  0.633181  0.366826  0.366879  1
  Tm  Tm1  1  0.366820  0.633176  0.633122  1
  Ga  Ga2  1  0.321661  0.321491  0.999863  1
  Ga  Ga3  1  0.678339  0.678509  0.000137  1
  Ga  Ga4  1  0.874877  0.124840  0.124783  1
  Ga  Ga5  1  0.999956  0.678497  0.321409  1
  Ga  Ga6  1  0.321724  0.999906  0.321485  1
  Ga  Ga7  1  0.678276  0.000094  0.678515  1
  Ga  Ga8  1  0.000044  0.321503  0.678590  1
  Ga  Ga9  1  0.125124  0.875162  0.875218  1
  Co  Co10  1  0.500000  0.000000  0.000000  1
  Co  Co11  1  0.000000  0.500000  0.000000  1
  Co  Co12  1  0.337136  0.662808  0.161188  1
  Co  Co13  1  0.161174  0.337127  0.337122  1
  Co  Co14  1  0.662874  0.838855  0.337176  1
  Co  Co15  1  0.000000  0.000000  0.500000  1
  Co  Co16  1  0.838825  0.662873  0.662877  1
  Co  Co17  1  0.337127  0.161144  0.662825  1
  Co  Co18  1  0.662864  0.337192  0.838811  1
