# generated using pymatgen
data_Ho6TlCuTc
_symmetry_space_group_name_H-M   'P 1'
_cell_length_a   8.49803431
_cell_length_b   8.49803521
_cell_length_c   8.49803500
_cell_angle_alpha   113.35183252
_cell_angle_beta   111.08771337
_cell_angle_gamma   104.11253668
_symmetry_Int_Tables_number   1
_chemical_formula_structural   Ho6TlCuTc
_chemical_formula_sum   'Ho12 Tl2 Cu2 Tc2'
_cell_volume   469.16235239
_cell_formula_units_Z   2
loop_
 _symmetry_equiv_pos_site_id
 _symmetry_equiv_pos_as_xyz
  1  'x, y, z'
loop_
 _atom_site_type_symbol
 _atom_site_label
 _atom_site_symmetry_multiplicity
 _atom_site_fract_x
 _atom_site_fract_y
 _atom_site_fract_z
 _atom_site_occupancy
  Ho  Ho0  1  0.438824  0.239587  0.199236  1
  Ho  Ho1  1  0.561176  0.760413  0.800764  1
  Ho  Ho2  1  0.040349  0.239587  0.800764  1
  Ho  Ho3  1  0.959651  0.760413  0.199236  1
  Ho  Ho4  1  0.186574  0.280744  0.467319  1
  Ho  Ho5  1  0.813426  0.719256  0.532681  1
  Ho  Ho6  1  0.186574  0.719256  0.905830  1
  Ho  Ho7  1  0.813426  0.280744  0.094170  1
  Ho  Ho8  1  0.335802  0.649484  0.313682  1
  Ho  Ho9  1  0.664198  0.350516  0.686318  1
  Ho  Ho10  1  0.335802  0.022121  0.686318  1
  Ho  Ho11  1  0.664198  0.977879  0.313682  1
  Tl  Tl12  1  0.500000  0.500000  0.000000  1
  Tl  Tl13  1  0.000000  0.000000  0.000000  1
  Cu  Cu14  1  0.119107  0.619107  0.500000  1
  Cu  Cu15  1  0.880893  0.380893  0.500000  1
  Tc  Tc16  1  0.326087  0.000000  0.326087  1
  Tc  Tc17  1  0.673913  0.000000  0.673913  1
