# generated using pymatgen
data_Er3(B3Ir4)2
_symmetry_space_group_name_H-M   'P 1'
_cell_length_a   9.99151580
_cell_length_b   9.17093584
_cell_length_c   5.55841003
_cell_angle_alpha   81.44194619
_cell_angle_beta   65.18290949
_cell_angle_gamma   33.37515877
_symmetry_Int_Tables_number   1
_chemical_formula_structural   Er3(B3Ir4)2
_chemical_formula_sum   'Er3 B6 Ir8'
_cell_volume   232.64356489
_cell_formula_units_Z   1
loop_
 _symmetry_equiv_pos_site_id
 _symmetry_equiv_pos_as_xyz
  1  'x, y, z'
loop_
 _atom_site_type_symbol
 _atom_site_label
 _atom_site_symmetry_multiplicity
 _atom_site_fract_x
 _atom_site_fract_y
 _atom_site_fract_z
 _atom_site_occupancy
  Er  Er0  1  0.000000  0.000000  0.000000  1
  Er  Er1  1  0.820625  0.820625  0.179375  1
  Er  Er2  1  0.179375  0.179375  0.820625  1
  B  B3  1  0.672267  0.327733  0.672267  1
  B  B4  1  0.327733  0.672267  0.327733  1
  B  B5  1  0.176186  0.473128  0.526872  1
  B  B6  1  0.473128  0.176186  0.823814  1
  B  B7  1  0.823814  0.526872  0.473128  1
  B  B8  1  0.526872  0.823814  0.176186  1
  Ir  Ir9  1  0.912767  0.912767  0.587233  1
  Ir  Ir10  1  0.414517  0.414517  0.585483  1
  Ir  Ir11  1  0.585483  0.585483  0.414517  1
  Ir  Ir12  1  0.250000  0.250000  0.250000  1
  Ir  Ir13  1  0.750000  0.750000  0.750000  1
  Ir  Ir14  1  0.087233  0.087233  0.412767  1
  Ir  Ir15  1  0.587233  0.587233  0.912767  1
  Ir  Ir16  1  0.412767  0.412767  0.087233  1
