# generated using pymatgen
data_Er3Cd3Ag2Ir
_symmetry_space_group_name_H-M   'P 1'
_cell_length_a   7.97618700
_cell_length_b   7.97618762
_cell_length_c   3.67532000
_cell_angle_alpha   90.00000000
_cell_angle_beta   90.00000000
_cell_angle_gamma   120.00000156
_symmetry_Int_Tables_number   1
_chemical_formula_structural   Er3Cd3Ag2Ir
_chemical_formula_sum   'Er3 Cd3 Ag2 Ir1'
_cell_volume   202.49601059
_cell_formula_units_Z   1
loop_
 _symmetry_equiv_pos_site_id
 _symmetry_equiv_pos_as_xyz
  1  'x, y, z'
loop_
 _atom_site_type_symbol
 _atom_site_label
 _atom_site_symmetry_multiplicity
 _atom_site_fract_x
 _atom_site_fract_y
 _atom_site_fract_z
 _atom_site_occupancy
  Er  Er0  1  0.577650  0.965619  0.000000  1
  Er  Er1  1  0.034381  0.612031  0.000000  1
  Er  Er2  1  0.387969  0.422350  0.000000  1
  Cd  Cd3  1  0.272532  0.005357  0.500000  1
  Cd  Cd4  1  0.994643  0.267175  0.500000  1
  Cd  Cd5  1  0.732825  0.727468  0.500000  1
  Ag  Ag6  1  0.666667  0.333333  0.500000  1
  Ag  Ag7  1  0.000000  0.000000  0.000000  1
  Ir  Ir8  1  0.333333  0.666667  0.500000  1
