# generated using pymatgen
data_Hf6Al5GaPd5Pt
_symmetry_space_group_name_H-M   'P 1'
_cell_length_a   7.17133186
_cell_length_b   7.20588085
_cell_length_c   7.06230853
_cell_angle_alpha   90.00159046
_cell_angle_beta   89.85164444
_cell_angle_gamma   120.12167353
_symmetry_Int_Tables_number   1
_chemical_formula_structural   Hf6Al5GaPd5Pt
_chemical_formula_sum   'Hf6 Al5 Ga1 Pd5 Pt1'
_cell_volume   315.66651150
_cell_formula_units_Z   1
loop_
 _symmetry_equiv_pos_site_id
 _symmetry_equiv_pos_as_xyz
  1  'x, y, z'
loop_
 _atom_site_type_symbol
 _atom_site_label
 _atom_site_symmetry_multiplicity
 _atom_site_fract_x
 _atom_site_fract_y
 _atom_site_fract_z
 _atom_site_occupancy
  Hf  Hf0  1  0.608340  0.588835  0.250153  1
  Hf  Hf1  1  0.021461  0.415149  0.749819  1
  Hf  Hf2  1  0.411367  0.018796  0.250503  1
  Hf  Hf3  1  0.981079  0.394074  0.250009  1
  Hf  Hf4  1  0.390940  0.977385  0.749678  1
  Hf  Hf5  1  0.586438  0.608646  0.749312  1
  Al  Al6  1  0.258585  0.258776  0.499173  1
  Al  Al7  1  0.742630  0.002789  0.499204  1
  Al  Al8  1  0.998802  0.741187  0.499191  1
  Al  Al9  1  0.741841  0.005034  0.999151  1
  Al  Al10  1  0.259231  0.262183  0.999388  1
  Ga  Ga11  1  0.999263  0.731120  0.999267  1
  Pd  Pd12  1  0.999925  0.000103  0.750714  1
  Pd  Pd13  1  0.000111  0.000264  0.247708  1
  Pd  Pd14  1  0.339256  0.667427  0.034311  1
  Pd  Pd15  1  0.666799  0.333415  0.528848  1
  Pd  Pd16  1  0.660913  0.328472  0.969876  1
  Pt  Pt17  1  0.333019  0.666344  0.473695  1
