# generated using pymatgen
data_Cs2Th2SnS6
_symmetry_space_group_name_H-M   'P 1'
_cell_length_a   7.29049400
_cell_length_b   7.29049463
_cell_length_c   8.49017600
_cell_angle_alpha   90.00000000
_cell_angle_beta   90.00000000
_cell_angle_gamma   120.00000081
_symmetry_Int_Tables_number   1
_chemical_formula_structural   Cs2Th2SnS6
_chemical_formula_sum   'Cs2 Th2 Sn1 S6'
_cell_volume   390.80604461
_cell_formula_units_Z   1
loop_
 _symmetry_equiv_pos_site_id
 _symmetry_equiv_pos_as_xyz
  1  'x, y, z'
loop_
 _atom_site_type_symbol
 _atom_site_label
 _atom_site_symmetry_multiplicity
 _atom_site_fract_x
 _atom_site_fract_y
 _atom_site_fract_z
 _atom_site_occupancy
  Cs  Cs0  1  0.333333  0.666666  0.502593  1
  Cs  Cs1  1  0.666667  0.333334  0.497407  1
  Th  Th2  1  0.666667  0.333334  0.999215  1
  Th  Th3  1  0.333333  0.666666  0.000785  1
  Sn  Sn4  1  0.000000  0.000000  0.000000  1
  S  S5  1  0.647812  0.000324  0.176392  1
  S  S6  1  0.352512  0.352189  0.176392  1
  S  S7  1  0.999676  0.647487  0.176392  1
  S  S8  1  0.000324  0.352513  0.823607  1
  S  S9  1  0.647488  0.647811  0.823607  1
  S  S10  1  0.352188  0.999676  0.823607  1
