# generated using pymatgen
data_Tb3Zr(TcB6)2
_symmetry_space_group_name_H-M   'P 1'
_cell_length_a   3.70140800
_cell_length_b   9.21415253
_cell_length_c   11.47391300
_cell_angle_alpha   89.41301930
_cell_angle_beta   90.00000000
_cell_angle_gamma   90.00000000
_symmetry_Int_Tables_number   1
_chemical_formula_structural   Tb3Zr(TcB6)2
_chemical_formula_sum   'Tb6 Zr2 Tc4 B24'
_cell_volume   391.30114442
_cell_formula_units_Z   2
loop_
 _symmetry_equiv_pos_site_id
 _symmetry_equiv_pos_as_xyz
  1  'x, y, z'
loop_
 _atom_site_type_symbol
 _atom_site_label
 _atom_site_symmetry_multiplicity
 _atom_site_fract_x
 _atom_site_fract_y
 _atom_site_fract_z
 _atom_site_occupancy
  Tb  Tb0  1  0.000000  0.324267  0.413145  1
  Tb  Tb1  1  0.000000  0.675733  0.586855  1
  Tb  Tb2  1  0.000000  0.821967  0.085438  1
  Tb  Tb3  1  0.000000  0.178033  0.914562  1
  Tb  Tb4  1  0.000000  0.942172  0.368372  1
  Tb  Tb5  1  0.000000  0.057828  0.631628  1
  Zr  Zr6  1  0.000000  0.443807  0.128342  1
  Zr  Zr7  1  0.000000  0.556193  0.871658  1
  Tc  Tc8  1  0.000000  0.635156  0.315617  1
  Tc  Tc9  1  0.000000  0.364844  0.684383  1
  Tc  Tc10  1  0.000000  0.144777  0.177008  1
  Tc  Tc11  1  0.000000  0.855223  0.822992  1
  B  B12  1  0.500000  0.553214  0.432320  1
  B  B13  1  0.500000  0.446786  0.567680  1
  B  B14  1  0.500000  0.055670  0.066279  1
  B  B15  1  0.500000  0.944330  0.933721  1
  B  B16  1  0.500000  0.746793  0.416326  1
  B  B17  1  0.500000  0.253207  0.583674  1
  B  B18  1  0.500000  0.253518  0.080859  1
  B  B19  1  0.500000  0.746482  0.919141  1
  B  B20  1  0.500000  0.790171  0.262716  1
  B  B21  1  0.500000  0.209829  0.737284  1
  B  B22  1  0.500000  0.294550  0.233645  1
  B  B23  1  0.500000  0.705450  0.766355  1
  B  B24  1  0.500000  0.628805  0.182665  1
  B  B25  1  0.500000  0.371195  0.817335  1
  B  B26  1  0.500000  0.133095  0.314091  1
  B  B27  1  0.500000  0.866905  0.685909  1
  B  B28  1  0.500000  0.986416  0.210936  1
  B  B29  1  0.500000  0.013584  0.789064  1
  B  B30  1  0.500000  0.481856  0.285855  1
  B  B31  1  0.500000  0.518144  0.714145  1
  B  B32  1  0.500000  0.598294  0.026995  1
  B  B33  1  0.500000  0.401706  0.973005  1
  B  B34  1  0.500000  0.102735  0.471855  1
  B  B35  1  0.500000  0.897265  0.528145  1
