# generated using pymatgen
data_V5Ge2Rh
_symmetry_space_group_name_H-M   'P 1'
_cell_length_a   4.74417300
_cell_length_b   4.74417300
_cell_length_c   4.83163100
_cell_angle_alpha   90.00000000
_cell_angle_beta   90.00000000
_cell_angle_gamma   90.00000000
_symmetry_Int_Tables_number   1
_chemical_formula_structural   V5Ge2Rh
_chemical_formula_sum   'V5 Ge2 Rh1'
_cell_volume   108.74637631
_cell_formula_units_Z   1
loop_
 _symmetry_equiv_pos_site_id
 _symmetry_equiv_pos_as_xyz
  1  'x, y, z'
loop_
 _atom_site_type_symbol
 _atom_site_label
 _atom_site_symmetry_multiplicity
 _atom_site_fract_x
 _atom_site_fract_y
 _atom_site_fract_z
 _atom_site_occupancy
  V  V0  1  0.500000  0.248149  0.003455  1
  V  V1  1  0.748149  0.000000  0.496545  1
  V  V2  1  0.000000  0.500000  0.250000  1
  V  V3  1  0.500000  0.751851  0.003455  1
  V  V4  1  0.251851  0.000000  0.496545  1
  Ge  Ge5  1  0.500000  0.500000  0.493121  1
  Ge  Ge6  1  0.000000  0.000000  0.006879  1
  Rh  Rh7  1  0.000000  0.500000  0.750000  1
