# generated using pymatgen
data_La2Y7Ho11Si15Os
_symmetry_space_group_name_H-M   'P 1'
_cell_length_a   7.42672218
_cell_length_b   7.78401659
_cell_length_c   14.63985222
_cell_angle_alpha   89.68361751
_cell_angle_beta   89.99672328
_cell_angle_gamma   89.96807467
_symmetry_Int_Tables_number   1
_chemical_formula_structural   La2Y7Ho11Si15Os
_chemical_formula_sum   'La2 Y7 Ho11 Si15 Os1'
_cell_volume   846.31284995
_cell_formula_units_Z   1
loop_
 _symmetry_equiv_pos_site_id
 _symmetry_equiv_pos_as_xyz
  1  'x, y, z'
loop_
 _atom_site_type_symbol
 _atom_site_label
 _atom_site_symmetry_multiplicity
 _atom_site_fract_x
 _atom_site_fract_y
 _atom_site_fract_z
 _atom_site_occupancy
  La  La0  1  0.522132  0.569410  0.342373  1
  La  La1  1  0.024199  0.428034  0.657870  1
  Y  Y2  1  0.849500  0.735059  0.499946  1
  Y  Y3  1  0.477537  0.924851  0.849081  1
  Y  Y4  1  0.973382  0.066145  0.151216  1
  Y  Y5  1  0.475937  0.925093  0.150364  1
  Y  Y6  1  0.971994  0.066913  0.849595  1
  Y  Y7  1  0.528279  0.565075  0.652217  1
  Y  Y8  1  0.027226  0.433166  0.347305  1
  Ho  Ho9  1  0.805981  0.576833  0.878093  1
  Ho  Ho10  1  0.324946  0.432349  0.122808  1
  Ho  Ho11  1  0.183678  0.928450  0.372968  1
  Ho  Ho12  1  0.682554  0.069560  0.626653  1
  Ho  Ho13  1  0.183731  0.927647  0.628512  1
  Ho  Ho14  1  0.681994  0.070514  0.371997  1
  Ho  Ho15  1  0.809112  0.574047  0.122800  1
  Ho  Ho16  1  0.327719  0.437112  0.876047  1
  Ho  Ho17  1  0.643516  0.239898  0.999633  1
  Ho  Ho18  1  0.159173  0.760579  0.000383  1
  Ho  Ho19  1  0.350639  0.263168  0.499765  1
  Si  Si20  1  0.018329  0.351019  0.999617  1
  Si  Si21  1  0.475835  0.859915  0.501100  1
  Si  Si22  1  0.979157  0.139021  0.499055  1
  Si  Si23  1  0.652743  0.275819  0.789629  1
  Si  Si24  1  0.146995  0.720854  0.209878  1
  Si  Si25  1  0.352074  0.215489  0.286957  1
  Si  Si26  1  0.850011  0.784358  0.713082  1
  Si  Si27  1  0.362022  0.218800  0.711606  1
  Si  Si28  1  0.858816  0.781098  0.288321  1
  Si  Si29  1  0.649060  0.268399  0.207279  1
  Si  Si30  1  0.141527  0.727991  0.792834  1
  Si  Si31  1  0.767425  0.882978  0.000330  1
  Si  Si32  1  0.258486  0.126551  0.999552  1
  Si  Si33  1  0.232800  0.626351  0.502013  1
  Si  Si34  1  0.733423  0.372976  0.498778  1
  Os  Os35  1  0.518065  0.654479  0.000342  1
