# generated using pymatgen
data_Er5(Tl2Ir)2
_symmetry_space_group_name_H-M   'P 1'
_cell_length_a   3.62299800
_cell_length_b   8.06110900
_cell_length_c   18.39461800
_cell_angle_alpha   90.00000000
_cell_angle_beta   90.00000000
_cell_angle_gamma   90.00000000
_symmetry_Int_Tables_number   1
_chemical_formula_structural   Er5(Tl2Ir)2
_chemical_formula_sum   'Er10 Tl8 Ir4'
_cell_volume   537.22184148
_cell_formula_units_Z   2
loop_
 _symmetry_equiv_pos_site_id
 _symmetry_equiv_pos_as_xyz
  1  'x, y, z'
loop_
 _atom_site_type_symbol
 _atom_site_label
 _atom_site_symmetry_multiplicity
 _atom_site_fract_x
 _atom_site_fract_y
 _atom_site_fract_z
 _atom_site_occupancy
  Er  Er0  1  0.000000  0.500000  0.500000  1
  Er  Er1  1  0.000000  0.000000  0.000000  1
  Er  Er2  1  0.000000  0.748469  0.278562  1
  Er  Er3  1  0.000000  0.251531  0.721438  1
  Er  Er4  1  0.000000  0.751531  0.778562  1
  Er  Er5  1  0.000000  0.248469  0.221438  1
  Er  Er6  1  0.000000  0.614484  0.092423  1
  Er  Er7  1  0.000000  0.385516  0.907577  1
  Er  Er8  1  0.000000  0.885516  0.592423  1
  Er  Er9  1  0.000000  0.114484  0.407577  1
  Tl  Tl10  1  0.500000  0.703990  0.936999  1
  Tl  Tl11  1  0.500000  0.296010  0.063001  1
  Tl  Tl12  1  0.500000  0.796010  0.436999  1
  Tl  Tl13  1  0.500000  0.203990  0.563001  1
  Tl  Tl14  1  0.500000  0.570363  0.647264  1
  Tl  Tl15  1  0.500000  0.429637  0.352736  1
  Tl  Tl16  1  0.500000  0.929637  0.147264  1
  Tl  Tl17  1  0.500000  0.070363  0.852736  1
  Ir  Ir18  1  0.500000  0.524684  0.197573  1
  Ir  Ir19  1  0.500000  0.475316  0.802427  1
  Ir  Ir20  1  0.500000  0.975316  0.697573  1
  Ir  Ir21  1  0.500000  0.024684  0.302427  1
