# generated using pymatgen
data_Tb2Nd2Y2CoI10
_symmetry_space_group_name_H-M   'P 1'
_cell_length_a   7.78791342
_cell_length_b   9.81002051
_cell_length_c   9.76672319
_cell_angle_alpha   106.96737856
_cell_angle_beta   96.43437726
_cell_angle_gamma   105.18034554
_symmetry_Int_Tables_number   1
_chemical_formula_structural   Tb2Nd2Y2CoI10
_chemical_formula_sum   'Tb2 Nd2 Y2 Co1 I10'
_cell_volume   674.27893233
_cell_formula_units_Z   1
loop_
 _symmetry_equiv_pos_site_id
 _symmetry_equiv_pos_as_xyz
  1  'x, y, z'
loop_
 _atom_site_type_symbol
 _atom_site_label
 _atom_site_symmetry_multiplicity
 _atom_site_fract_x
 _atom_site_fract_y
 _atom_site_fract_z
 _atom_site_occupancy
  Tb  Tb0  1  0.029664  0.717963  0.915365  1
  Tb  Tb1  1  0.970336  0.282037  0.084635  1
  Nd  Nd2  1  0.887961  0.958793  0.231324  1
  Nd  Nd3  1  0.112039  0.041207  0.768676  1
  Y  Y4  1  0.655642  0.876506  0.836537  1
  Y  Y5  1  0.344358  0.123494  0.163463  1
  Co  Co6  1  0.000000  0.000000  0.000000  1
  I  I7  1  0.649417  0.551387  0.729204  1
  I  I8  1  0.350583  0.448613  0.270796  1
  I  I9  1  0.734105  0.910169  0.540659  1
  I  I10  1  0.265895  0.089831  0.459341  1
  I  I11  1  0.084371  0.375915  0.821992  1
  I  I12  1  0.915629  0.624085  0.178008  1
  I  I13  1  0.449594  0.816054  0.090553  1
  I  I14  1  0.550406  0.183946  0.909447  1
  I  I15  1  0.223632  0.739097  0.655563  1
  I  I16  1  0.776368  0.260903  0.344437  1
