# generated using pymatgen
data_Lu4Tl3Zn
_symmetry_space_group_name_H-M   'P 1'
_cell_length_a   3.57837800
_cell_length_b   3.57837800
_cell_length_c   15.57429600
_cell_angle_alpha   90.00000000
_cell_angle_beta   90.00000000
_cell_angle_gamma   90.00000000
_symmetry_Int_Tables_number   1
_chemical_formula_structural   Lu4Tl3Zn
_chemical_formula_sum   'Lu4 Tl3 Zn1'
_cell_volume   199.42557583
_cell_formula_units_Z   1
loop_
 _symmetry_equiv_pos_site_id
 _symmetry_equiv_pos_as_xyz
  1  'x, y, z'
loop_
 _atom_site_type_symbol
 _atom_site_label
 _atom_site_symmetry_multiplicity
 _atom_site_fract_x
 _atom_site_fract_y
 _atom_site_fract_z
 _atom_site_occupancy
  Lu  Lu0  1  0.000000  0.000000  0.892781  1
  Lu  Lu1  1  0.000000  0.000000  0.107219  1
  Lu  Lu2  1  0.000000  0.000000  0.368529  1
  Lu  Lu3  1  0.000000  0.000000  0.631471  1
  Tl  Tl4  1  0.500000  0.500000  0.238070  1
  Tl  Tl5  1  0.500000  0.500000  0.500000  1
  Tl  Tl6  1  0.500000  0.500000  0.761930  1
  Zn  Zn7  1  0.500000  0.500000  0.000000  1
