# generated using pymatgen
data_ZrTcMoBr12
_symmetry_space_group_name_H-M   'P 1'
_cell_length_a   9.58227115
_cell_length_b   9.58227116
_cell_length_c   7.36633900
_cell_angle_alpha   69.49017588
_cell_angle_beta   69.49016948
_cell_angle_gamma   84.46366024
_symmetry_Int_Tables_number   1
_chemical_formula_structural   ZrTcMoBr12
_chemical_formula_sum   'Zr1 Tc1 Mo1 Br12'
_cell_volume   593.07985450
_cell_formula_units_Z   1
loop_
 _symmetry_equiv_pos_site_id
 _symmetry_equiv_pos_as_xyz
  1  'x, y, z'
loop_
 _atom_site_type_symbol
 _atom_site_label
 _atom_site_symmetry_multiplicity
 _atom_site_fract_x
 _atom_site_fract_y
 _atom_site_fract_z
 _atom_site_occupancy
  Zr  Zr0  1  0.731716  0.731716  0.266754  1
  Tc  Tc1  1  0.017804  0.017804  0.982183  1
  Mo  Mo2  1  0.243374  0.243374  0.758527  1
  Br  Br3  1  0.972170  0.260075  0.732422  1
  Br  Br4  1  0.260075  0.972170  0.732422  1
  Br  Br5  1  0.032425  0.760571  0.239492  1
  Br  Br6  1  0.760571  0.032425  0.239492  1
  Br  Br7  1  0.211043  0.489216  0.793601  1
  Br  Br8  1  0.489216  0.211043  0.793601  1
  Br  Br9  1  0.789672  0.486093  0.209388  1
  Br  Br10  1  0.486093  0.789672  0.209388  1
  Br  Br11  1  0.128405  0.128405  0.167262  1
  Br  Br12  1  0.883229  0.883229  0.841999  1
  Br  Br13  1  0.652754  0.652754  0.653369  1
  Br  Br14  1  0.341456  0.341456  0.380102  1
