# generated using pymatgen
data_Ho2HgPdPt
_symmetry_space_group_name_H-M   'P 1'
_cell_length_a   7.71941900
_cell_length_b   7.70770900
_cell_length_c   3.69723700
_cell_angle_alpha   90.00000000
_cell_angle_beta   90.00000000
_cell_angle_gamma   90.00000000
_symmetry_Int_Tables_number   1
_chemical_formula_structural   Ho2HgPdPt
_chemical_formula_sum   'Ho4 Hg2 Pd2 Pt2'
_cell_volume   219.98203478
_cell_formula_units_Z   2
loop_
 _symmetry_equiv_pos_site_id
 _symmetry_equiv_pos_as_xyz
  1  'x, y, z'
loop_
 _atom_site_type_symbol
 _atom_site_label
 _atom_site_symmetry_multiplicity
 _atom_site_fract_x
 _atom_site_fract_y
 _atom_site_fract_z
 _atom_site_occupancy
  Ho  Ho0  1  0.661915  0.171782  0.500000  1
  Ho  Ho1  1  0.179122  0.330156  0.500000  1
  Ho  Ho2  1  0.838085  0.671782  0.500000  1
  Ho  Ho3  1  0.320878  0.830156  0.500000  1
  Hg  Hg4  1  0.992527  0.006315  0.000000  1
  Hg  Hg5  1  0.507473  0.506315  0.000000  1
  Pd  Pd6  1  0.631499  0.867008  0.000000  1
  Pd  Pd7  1  0.868501  0.367008  0.000000  1
  Pt  Pt8  1  0.372386  0.124739  0.000000  1
  Pt  Pt9  1  0.127614  0.624739  0.000000  1
