# generated using pymatgen
data_Mg(TiRe6)4
_symmetry_space_group_name_H-M   'P 1'
_cell_length_a   8.38040620
_cell_length_b   8.38040625
_cell_length_c   8.38040600
_cell_angle_alpha   109.47121521
_cell_angle_beta   109.47121531
_cell_angle_gamma   109.47122928
_symmetry_Int_Tables_number   1
_chemical_formula_structural   Mg(TiRe6)4
_chemical_formula_sum   'Mg1 Ti4 Re24'
_cell_volume   453.07836141
_cell_formula_units_Z   1
loop_
 _symmetry_equiv_pos_site_id
 _symmetry_equiv_pos_as_xyz
  1  'x, y, z'
loop_
 _atom_site_type_symbol
 _atom_site_label
 _atom_site_symmetry_multiplicity
 _atom_site_fract_x
 _atom_site_fract_y
 _atom_site_fract_z
 _atom_site_occupancy
  Mg  Mg0  1  0.000000  0.000000  0.000000  1
  Ti  Ti1  1  0.633628  0.000000  0.000000  1
  Ti  Ti2  1  0.000000  0.633628  0.000000  1
  Ti  Ti3  1  0.000000  0.000000  0.633628  1
  Ti  Ti4  1  0.366372  0.366372  0.366372  1
  Re  Re5  1  0.399059  0.680379  0.000000  1
  Re  Re6  1  0.718679  0.319621  0.319621  1
  Re  Re7  1  0.399059  0.000000  0.680379  1
  Re  Re8  1  0.680379  0.399059  0.000000  1
  Re  Re9  1  0.000000  0.399059  0.680379  1
  Re  Re10  1  0.319621  0.718679  0.319621  1
  Re  Re11  1  0.319621  0.319621  0.718679  1
  Re  Re12  1  0.000000  0.680379  0.399059  1
  Re  Re13  1  0.680379  0.000000  0.399059  1
  Re  Re14  1  0.600941  0.600941  0.281321  1
  Re  Re15  1  0.281321  0.600941  0.600941  1
  Re  Re16  1  0.600941  0.281321  0.600941  1
  Re  Re17  1  0.375877  0.193153  0.000000  1
  Re  Re18  1  0.182725  0.806847  0.806847  1
  Re  Re19  1  0.375877  0.000000  0.193153  1
  Re  Re20  1  0.193153  0.375877  0.000000  1
  Re  Re21  1  0.000000  0.375877  0.193153  1
  Re  Re22  1  0.806847  0.182725  0.806847  1
  Re  Re23  1  0.806847  0.806847  0.182725  1
  Re  Re24  1  0.000000  0.193153  0.375877  1
  Re  Re25  1  0.193153  0.000000  0.375877  1
  Re  Re26  1  0.624123  0.624123  0.817275  1
  Re  Re27  1  0.817275  0.624123  0.624123  1
  Re  Re28  1  0.624123  0.817275  0.624123  1
