# generated using pymatgen
data_Dy3Hg2Pb5
_symmetry_space_group_name_H-M   'P 1'
_cell_length_a   12.34879948
_cell_length_b   12.34880107
_cell_length_c   4.63298400
_cell_angle_alpha   90.00000000
_cell_angle_beta   90.00000000
_cell_angle_gamma   156.89591378
_symmetry_Int_Tables_number   1
_chemical_formula_structural   Dy3Hg2Pb5
_chemical_formula_sum   'Dy3 Hg2 Pb5'
_cell_volume   277.23134876
_cell_formula_units_Z   1
loop_
 _symmetry_equiv_pos_site_id
 _symmetry_equiv_pos_as_xyz
  1  'x, y, z'
loop_
 _atom_site_type_symbol
 _atom_site_label
 _atom_site_symmetry_multiplicity
 _atom_site_fract_x
 _atom_site_fract_y
 _atom_site_fract_z
 _atom_site_occupancy
  Dy  Dy0  1  0.000000  0.000000  0.000000  1
  Dy  Dy1  1  0.811808  0.188191  0.000000  1
  Dy  Dy2  1  0.188191  0.811808  0.000000  1
  Hg  Hg3  1  0.597484  0.402516  0.000000  1
  Hg  Hg4  1  0.402516  0.597484  0.000000  1
  Pb  Pb5  1  0.903304  0.096696  0.500000  1
  Pb  Pb6  1  0.704640  0.295360  0.500000  1
  Pb  Pb7  1  0.500000  0.500000  0.500000  1
  Pb  Pb8  1  0.295360  0.704640  0.500000  1
  Pb  Pb9  1  0.096696  0.903304  0.500000  1
