# generated using pymatgen
data_TbY4InSb2
_symmetry_space_group_name_H-M   'P 1'
_cell_length_a   6.51613601
_cell_length_b   8.98272004
_cell_length_c   8.99091801
_cell_angle_alpha   120.03042715
_cell_angle_beta   90.00562342
_cell_angle_gamma   89.99665340
_symmetry_Int_Tables_number   1
_chemical_formula_structural   TbY4InSb2
_chemical_formula_sum   'Tb2 Y8 In2 Sb4'
_cell_volume   455.61648987
_cell_formula_units_Z   2
loop_
 _symmetry_equiv_pos_site_id
 _symmetry_equiv_pos_as_xyz
  1  'x, y, z'
loop_
 _atom_site_type_symbol
 _atom_site_label
 _atom_site_symmetry_multiplicity
 _atom_site_fract_x
 _atom_site_fract_y
 _atom_site_fract_z
 _atom_site_occupancy
  Tb  Tb0  1  0.499141  0.336148  0.667606  1
  Tb  Tb1  1  0.499139  0.663847  0.331461  1
  Y  Y2  1  0.000927  0.663996  0.331634  1
  Y  Y3  1  0.000929  0.336000  0.667648  1
  Y  Y4  1  0.750026  0.242055  0.004577  1
  Y  Y5  1  0.750026  0.757946  0.762528  1
  Y  Y6  1  0.750090  0.000014  0.240312  1
  Y  Y7  1  0.249786  0.758933  0.997803  1
  Y  Y8  1  0.249789  0.241036  0.238856  1
  Y  Y9  1  0.249950  0.999996  0.756579  1
  In  In10  1  0.750346  0.605830  0.001039  1
  In  In11  1  0.750349  0.394213  0.395230  1
  Sb  Sb12  1  0.750300  0.000004  0.609701  1
  Sb  Sb13  1  0.249695  0.391734  0.998264  1
  Sb  Sb14  1  0.249691  0.608243  0.606526  1
  Sb  Sb15  1  0.249817  0.000004  0.390234  1
