# generated using pymatgen
data_Cs4NbTlCl12
_symmetry_space_group_name_H-M   'P 1'
_cell_length_a   12.91916095
_cell_length_b   12.91916154
_cell_length_c   12.91916100
_cell_angle_alpha   131.79378550
_cell_angle_beta   131.79378784
_cell_angle_gamma   70.55491667
_symmetry_Int_Tables_number   1
_chemical_formula_structural   Cs4NbTlCl12
_chemical_formula_sum   'Cs8 Nb2 Tl2 Cl24'
_cell_volume   1174.29194483
_cell_formula_units_Z   2
loop_
 _symmetry_equiv_pos_site_id
 _symmetry_equiv_pos_as_xyz
  1  'x, y, z'
loop_
 _atom_site_type_symbol
 _atom_site_label
 _atom_site_symmetry_multiplicity
 _atom_site_fract_x
 _atom_site_fract_y
 _atom_site_fract_z
 _atom_site_occupancy
  Cs  Cs0  1  0.375000  0.905052  0.030052  1
  Cs  Cs1  1  0.655052  0.625000  0.530052  1
  Cs  Cs2  1  0.875000  0.905052  0.530052  1
  Cs  Cs3  1  0.655052  0.125000  0.030052  1
  Cs  Cs4  1  0.875000  0.344948  0.969948  1
  Cs  Cs5  1  0.094948  0.125000  0.469948  1
  Cs  Cs6  1  0.375000  0.344948  0.469948  1
  Cs  Cs7  1  0.094948  0.625000  0.969948  1
  Nb  Nb8  1  0.500000  0.500000  0.000000  1
  Nb  Nb9  1  0.250000  0.750000  0.500000  1
  Tl  Tl10  1  0.000000  0.000000  0.000000  1
  Tl  Tl11  1  0.750000  0.250000  0.500000  1
  Cl  Cl12  1  0.728115  0.501998  0.226118  1
  Cl  Cl13  1  0.498002  0.271885  0.773882  1
  Cl  Cl14  1  0.387035  0.387035  0.000000  1
  Cl  Cl15  1  0.137035  0.637035  0.500000  1
  Cl  Cl16  1  0.362965  0.862965  0.500000  1
  Cl  Cl17  1  0.612965  0.612965  0.000000  1
  Cl  Cl18  1  0.125108  0.125108  0.000000  1
  Cl  Cl19  1  0.875108  0.375108  0.500000  1
  Cl  Cl20  1  0.624892  0.124892  0.500000  1
  Cl  Cl21  1  0.874892  0.874892  0.000000  1
  Cl  Cl22  1  0.245757  0.996197  0.249560  1
  Cl  Cl23  1  0.746197  0.996637  0.250440  1
  Cl  Cl24  1  0.498002  0.724119  0.226118  1
  Cl  Cl25  1  0.504243  0.253803  0.250440  1
  Cl  Cl26  1  0.003363  0.253803  0.749560  1
  Cl  Cl27  1  0.003803  0.253363  0.249560  1
  Cl  Cl28  1  0.003803  0.754243  0.750440  1
  Cl  Cl29  1  0.746637  0.996197  0.750440  1
  Cl  Cl30  1  0.746197  0.495757  0.749560  1
  Cl  Cl31  1  0.251998  0.525881  0.273882  1
  Cl  Cl32  1  0.251998  0.978115  0.726118  1
  Cl  Cl33  1  0.021885  0.748002  0.273882  1
  Cl  Cl34  1  0.474119  0.748002  0.726118  1
  Cl  Cl35  1  0.275881  0.501998  0.773882  1
