# generated using pymatgen
data_Th6CoAu7
_symmetry_space_group_name_H-M   'P 1'
_cell_length_a   8.17525294
_cell_length_b   8.17525383
_cell_length_c   8.17525399
_cell_angle_alpha   113.55955590
_cell_angle_beta   113.55954215
_cell_angle_gamma   113.55952510
_symmetry_Int_Tables_number   1
_chemical_formula_structural   Th6CoAu7
_chemical_formula_sum   'Th6 Co1 Au7'
_cell_volume   342.53163920
_cell_formula_units_Z   1
loop_
 _symmetry_equiv_pos_site_id
 _symmetry_equiv_pos_as_xyz
  1  'x, y, z'
loop_
 _atom_site_type_symbol
 _atom_site_label
 _atom_site_symmetry_multiplicity
 _atom_site_fract_x
 _atom_site_fract_y
 _atom_site_fract_z
 _atom_site_occupancy
  Th  Th0  1  0.017251  0.375314  0.263414  1
  Th  Th1  1  0.375314  0.263414  0.017251  1
  Th  Th2  1  0.736586  0.982749  0.624686  1
  Th  Th3  1  0.263414  0.017251  0.375314  1
  Th  Th4  1  0.624686  0.736586  0.982749  1
  Th  Th5  1  0.982749  0.624686  0.736586  1
  Co  Co6  1  0.000000  0.000000  0.000000  1
  Au  Au7  1  0.500000  0.500000  0.500000  1
  Au  Au8  1  0.417642  0.918159  0.754164  1
  Au  Au9  1  0.918159  0.754164  0.417642  1
  Au  Au10  1  0.245836  0.582358  0.081841  1
  Au  Au11  1  0.754164  0.417642  0.918159  1
  Au  Au12  1  0.081841  0.245836  0.582358  1
  Au  Au13  1  0.582358  0.081841  0.245836  1
