# generated using pymatgen
data_TbTh3Al17GaIr6
_symmetry_space_group_name_H-M   'P 1'
_cell_length_a   7.63489781
_cell_length_b   7.64065379
_cell_length_c   9.51803300
_cell_angle_alpha   90.00000000
_cell_angle_beta   90.00000000
_cell_angle_gamma   119.44131764
_symmetry_Int_Tables_number   1
_chemical_formula_structural   TbTh3Al17GaIr6
_chemical_formula_sum   'Tb1 Th3 Al17 Ga1 Ir6'
_cell_volume   483.53630811
_cell_formula_units_Z   1
loop_
 _symmetry_equiv_pos_site_id
 _symmetry_equiv_pos_as_xyz
  1  'x, y, z'
loop_
 _atom_site_type_symbol
 _atom_site_label
 _atom_site_symmetry_multiplicity
 _atom_site_fract_x
 _atom_site_fract_y
 _atom_site_fract_z
 _atom_site_occupancy
  Tb  Tb0  1  0.328883  0.005821  0.750000  1
  Th  Th1  1  0.994459  0.673317  0.250000  1
  Th  Th2  1  0.003711  0.328831  0.750000  1
  Th  Th3  1  0.672513  0.993865  0.250000  1
  Al  Al4  1  0.869568  0.868399  0.750000  1
  Al  Al5  1  0.005677  0.336314  0.074172  1
  Al  Al6  1  0.999821  0.668827  0.923186  1
  Al  Al7  1  0.999821  0.668827  0.576814  1
  Al  Al8  1  0.335880  0.004409  0.431215  1
  Al  Al9  1  0.005677  0.336314  0.425828  1
  Al  Al10  1  0.659666  0.995284  0.576794  1
  Al  Al11  1  0.659666  0.995284  0.923206  1
  Al  Al12  1  0.335880  0.004409  0.068785  1
  Al  Al13  1  0.336076  0.332890  0.554143  1
  Al  Al14  1  0.662768  0.662660  0.454737  1
  Al  Al15  1  0.662768  0.662660  0.045263  1
  Al  Al16  1  0.336076  0.332890  0.945857  1
  Al  Al17  1  0.340269  0.544815  0.250000  1
  Al  Al18  1  0.657172  0.450715  0.750000  1
  Al  Al19  1  0.544601  0.337282  0.250000  1
  Al  Al20  1  0.453105  0.661930  0.750000  1
  Ga  Ga21  1  0.139468  0.136855  0.250000  1
  Ir  Ir22  1  0.673222  0.328329  0.000479  1
  Ir  Ir23  1  0.327106  0.670685  0.000726  1
  Ir  Ir24  1  0.327106  0.670685  0.499274  1
  Ir  Ir25  1  0.673222  0.328329  0.499521  1
  Ir  Ir26  1  0.997912  0.999689  0.998084  1
  Ir  Ir27  1  0.997912  0.999689  0.501916  1
