# generated using pymatgen
data_Tm2B(IrRh)3
_symmetry_space_group_name_H-M   'P 1'
_cell_length_a   5.79866282
_cell_length_b   5.79866314
_cell_length_c   5.79950889
_cell_angle_alpha   60.00482174
_cell_angle_beta   60.00482030
_cell_angle_gamma   60.00000277
_symmetry_Int_Tables_number   1
_chemical_formula_structural   Tm2B(IrRh)3
_chemical_formula_sum   'Tm2 B1 Ir3 Rh3'
_cell_volume   137.89979160
_cell_formula_units_Z   1
loop_
 _symmetry_equiv_pos_site_id
 _symmetry_equiv_pos_as_xyz
  1  'x, y, z'
loop_
 _atom_site_type_symbol
 _atom_site_label
 _atom_site_symmetry_multiplicity
 _atom_site_fract_x
 _atom_site_fract_y
 _atom_site_fract_z
 _atom_site_occupancy
  Tm  Tm0  1  0.749915  0.749915  0.750255  1
  Tm  Tm1  1  0.250092  0.250092  0.249724  1
  B  B2  1  0.500203  0.500203  0.499389  1
  Ir  Ir3  1  0.758249  0.758249  0.242312  1
  Ir  Ir4  1  0.758249  0.241192  0.242312  1
  Ir  Ir5  1  0.241192  0.758249  0.242312  1
  Rh  Rh6  1  0.242195  0.242195  0.757899  1
  Rh  Rh7  1  0.757712  0.242195  0.757899  1
  Rh  Rh8  1  0.242195  0.757712  0.757899  1
