# generated using pymatgen
data_Zr7ScV12Si15Ge
_symmetry_space_group_name_H-M   'P 1'
_cell_length_a   6.64528427
_cell_length_b   6.65317723
_cell_length_c   12.31594517
_cell_angle_alpha   89.95652045
_cell_angle_beta   90.01591078
_cell_angle_gamma   90.00920961
_symmetry_Int_Tables_number   1
_chemical_formula_structural   Zr7ScV12Si15Ge
_chemical_formula_sum   'Zr7 Sc1 V12 Si15 Ge1'
_cell_volume   544.51551066
_cell_formula_units_Z   1
loop_
 _symmetry_equiv_pos_site_id
 _symmetry_equiv_pos_as_xyz
  1  'x, y, z'
loop_
 _atom_site_type_symbol
 _atom_site_label
 _atom_site_symmetry_multiplicity
 _atom_site_fract_x
 _atom_site_fract_y
 _atom_site_fract_z
 _atom_site_occupancy
  Zr  Zr0  1  0.001907  0.660042  0.029791  1
  Zr  Zr1  1  0.837896  0.503095  0.280810  1
  Zr  Zr2  1  0.161576  0.496334  0.779933  1
  Zr  Zr3  1  0.502754  0.837975  0.718972  1
  Zr  Zr4  1  0.499375  0.163723  0.221155  1
  Zr  Zr5  1  0.996199  0.339255  0.530375  1
  Zr  Zr6  1  0.663640  0.002240  0.968971  1
  Sc  Sc7  1  0.337576  0.998004  0.470670  1
  V  V8  1  0.333521  0.337281  0.999558  1
  V  V9  1  0.165484  0.832355  0.252120  1
  V  V10  1  0.833955  0.166144  0.749441  1
  V  V11  1  0.668205  0.665461  0.499885  1
  V  V12  1  0.999625  0.163365  0.128395  1
  V  V13  1  0.340880  0.505578  0.376287  1
  V  V14  1  0.660965  0.494567  0.876387  1
  V  V15  1  0.505654  0.340028  0.623430  1
  V  V16  1  0.496610  0.656369  0.123761  1
  V  V17  1  0.994060  0.839786  0.626652  1
  V  V18  1  0.159165  0.004685  0.871039  1
  V  V19  1  0.841208  0.994494  0.372847  1
  Si  Si20  1  0.537809  0.792365  0.315624  1
  Si  Si21  1  0.460749  0.209801  0.814001  1
  Si  Si22  1  0.789999  0.539356  0.685632  1
  Si  Si23  1  0.209220  0.460614  0.186138  1
  Si  Si24  1  0.707960  0.038079  0.563222  1
  Si  Si25  1  0.960666  0.289026  0.935608  1
  Si  Si26  1  0.040839  0.711163  0.436348  1
  Si  Si27  1  0.704989  0.373609  0.070692  1
  Si  Si28  1  0.127928  0.204375  0.321886  1
  Si  Si29  1  0.874455  0.793910  0.820292  1
  Si  Si30  1  0.205405  0.125333  0.678443  1
  Si  Si31  1  0.794253  0.873291  0.179249  1
  Si  Si32  1  0.296056  0.627281  0.570043  1
  Si  Si33  1  0.375303  0.703311  0.927116  1
  Si  Si34  1  0.625043  0.294332  0.429656  1
  Ge  Ge35  1  0.289068  0.963373  0.065570  1
