# generated using pymatgen
data_TaNi2MoPt4
_symmetry_space_group_name_H-M   'P 1'
_cell_length_a   4.47063300
_cell_length_b   4.81477300
_cell_length_c   5.44154000
_cell_angle_alpha   90.00000000
_cell_angle_beta   90.00000000
_cell_angle_gamma   90.00000000
_symmetry_Int_Tables_number   1
_chemical_formula_structural   TaNi2MoPt4
_chemical_formula_sum   'Ta1 Ni2 Mo1 Pt4'
_cell_volume   117.12960048
_cell_formula_units_Z   1
loop_
 _symmetry_equiv_pos_site_id
 _symmetry_equiv_pos_as_xyz
  1  'x, y, z'
loop_
 _atom_site_type_symbol
 _atom_site_label
 _atom_site_symmetry_multiplicity
 _atom_site_fract_x
 _atom_site_fract_y
 _atom_site_fract_z
 _atom_site_occupancy
  Ta  Ta0  1  0.000000  0.344719  0.000000  1
  Ni  Ni1  1  0.000000  0.345113  0.500000  1
  Ni  Ni2  1  0.500000  0.665920  0.000000  1
  Mo  Mo3  1  0.500000  0.652293  0.500000  1
  Pt  Pt4  1  0.500000  0.171764  0.747322  1
  Pt  Pt5  1  0.500000  0.171764  0.252678  1
  Pt  Pt6  1  0.000000  0.824213  0.747945  1
  Pt  Pt7  1  0.000000  0.824213  0.252055  1
