# generated using pymatgen
data_Tb12GaCo4Rh
_symmetry_space_group_name_H-M   'P 1'
_cell_length_a   8.27004584
_cell_length_b   8.27004659
_cell_length_c   8.27004597
_cell_angle_alpha   111.20252180
_cell_angle_beta   110.34121382
_cell_angle_gamma   106.90131857
_symmetry_Int_Tables_number   1
_chemical_formula_structural   Tb12GaCo4Rh
_chemical_formula_sum   'Tb12 Ga1 Co4 Rh1'
_cell_volume   434.73445897
_cell_formula_units_Z   1
loop_
 _symmetry_equiv_pos_site_id
 _symmetry_equiv_pos_as_xyz
  1  'x, y, z'
loop_
 _atom_site_type_symbol
 _atom_site_label
 _atom_site_symmetry_multiplicity
 _atom_site_fract_x
 _atom_site_fract_y
 _atom_site_fract_z
 _atom_site_occupancy
  Tb  Tb0  1  0.039122  0.728247  0.310875  1
  Tb  Tb1  1  0.960878  0.271753  0.689125  1
  Tb  Tb2  1  0.582627  0.271753  0.310875  1
  Tb  Tb3  1  0.417373  0.728247  0.689125  1
  Tb  Tb4  1  0.674536  0.863083  0.188547  1
  Tb  Tb5  1  0.325464  0.514011  0.188547  1
  Tb  Tb6  1  0.325464  0.136917  0.811453  1
  Tb  Tb7  1  0.674536  0.485989  0.811453  1
  Tb  Tb8  1  0.180242  0.217852  0.398094  1
  Tb  Tb9  1  0.819758  0.217852  0.037610  1
  Tb  Tb10  1  0.180242  0.782148  0.962390  1
  Tb  Tb11  1  0.819758  0.782148  0.601906  1
  Ga  Ga12  1  0.500000  0.000000  0.500000  1
  Co  Co13  1  0.657374  0.500000  0.157374  1
  Co  Co14  1  0.342626  0.500000  0.842626  1
  Co  Co15  1  0.885673  0.885673  0.000000  1
  Co  Co16  1  0.114327  0.114327  0.000000  1
  Rh  Rh17  1  0.000000  0.500000  0.500000  1
