# generated using pymatgen
data_Nd12AlBI17
_symmetry_space_group_name_H-M   'P 1'
_cell_length_a   9.94255063
_cell_length_b   11.86128484
_cell_length_c   11.69193346
_cell_angle_alpha   93.70553815
_cell_angle_beta   104.84576786
_cell_angle_gamma   115.50115285
_symmetry_Int_Tables_number   1
_chemical_formula_structural   Nd12AlBI17
_chemical_formula_sum   'Nd12 Al1 B1 I17'
_cell_volume   1178.54002676
_cell_formula_units_Z   1
loop_
 _symmetry_equiv_pos_site_id
 _symmetry_equiv_pos_as_xyz
  1  'x, y, z'
loop_
 _atom_site_type_symbol
 _atom_site_label
 _atom_site_symmetry_multiplicity
 _atom_site_fract_x
 _atom_site_fract_y
 _atom_site_fract_z
 _atom_site_occupancy
  Nd  Nd0  1  0.067486  0.530879  0.338064  1
  Nd  Nd1  1  0.996324  0.807110  0.586312  1
  Nd  Nd2  1  0.623814  0.238860  0.282900  1
  Nd  Nd3  1  0.007387  0.183235  0.428576  1
  Nd  Nd4  1  0.217669  0.666601  0.990906  1
  Nd  Nd5  1  0.268615  0.979475  0.902534  1
  Nd  Nd6  1  0.355204  0.758535  0.724534  1
  Nd  Nd7  1  0.947183  0.489576  0.676064  1
  Nd  Nd8  1  0.709709  0.992966  0.086031  1
  Nd  Nd9  1  0.166106  0.293534  0.143984  1
  Nd  Nd10  1  0.780852  0.346156  0.987772  1
  Nd  Nd11  1  0.858903  0.709087  0.852340  1
  Al  Al12  1  0.891475  0.263009  0.209626  1
  B  B13  1  0.105409  0.737271  0.785743  1
  I  I14  1  0.775161  0.529943  0.417194  1
  I  I15  1  0.626769  0.416852  0.735451  1
  I  I16  1  0.839002  0.890174  0.318924  1
  I  I17  1  0.320148  0.210117  0.372784  1
  I  I18  1  0.161944  0.105210  0.684553  1
  I  I19  1  0.584398  0.057001  0.827131  1
  I  I20  1  0.740861  0.171919  0.537348  1
  I  I21  1  0.538850  0.685421  0.953452  1
  I  I22  1  0.370323  0.587983  0.256101  1
  I  I23  1  0.225634  0.471267  0.587834  1
  I  I24  1  0.060126  0.362386  0.886703  1
  I  I25  1  0.459835  0.308381  0.041088  1
  I  I26  1  0.999922  0.999293  0.999073  1
  I  I27  1  0.265012  0.836515  0.470150  1
  I  I28  1  0.408433  0.940214  0.171088  1
  I  I29  1  0.681897  0.788954  0.633283  1
  I  I30  1  0.945548  0.642076  0.112458  1
