# generated using pymatgen
data_HoLu9(Hg2Pt)4
_symmetry_space_group_name_H-M   'P 1'
_cell_length_a   3.55475500
_cell_length_b   7.89007409
_cell_length_c   18.02823979
_cell_angle_alpha   89.91651309
_cell_angle_beta   90.00000000
_cell_angle_gamma   90.00000000
_symmetry_Int_Tables_number   1
_chemical_formula_structural   HoLu9(Hg2Pt)4
_chemical_formula_sum   'Ho1 Lu9 Hg8 Pt4'
_cell_volume   505.64255842
_cell_formula_units_Z   1
loop_
 _symmetry_equiv_pos_site_id
 _symmetry_equiv_pos_as_xyz
  1  'x, y, z'
loop_
 _atom_site_type_symbol
 _atom_site_label
 _atom_site_symmetry_multiplicity
 _atom_site_fract_x
 _atom_site_fract_y
 _atom_site_fract_z
 _atom_site_occupancy
  Ho  Ho0  1  0.000000  0.000000  0.000000  1
  Lu  Lu1  1  0.000000  0.112278  0.414557  1
  Lu  Lu2  1  0.000000  0.887722  0.585443  1
  Lu  Lu3  1  0.000000  0.387046  0.913828  1
  Lu  Lu4  1  0.000000  0.612954  0.086172  1
  Lu  Lu5  1  0.000000  0.241184  0.217276  1
  Lu  Lu6  1  0.000000  0.758816  0.782724  1
  Lu  Lu7  1  0.000000  0.260351  0.715124  1
  Lu  Lu8  1  0.000000  0.739649  0.284876  1
  Lu  Lu9  1  0.000000  0.500000  0.500000  1
  Hg  Hg10  1  0.500000  0.421775  0.355970  1
  Hg  Hg11  1  0.500000  0.578225  0.644030  1
  Hg  Hg12  1  0.500000  0.078025  0.853811  1
  Hg  Hg13  1  0.500000  0.921975  0.146189  1
  Hg  Hg14  1  0.500000  0.290560  0.062588  1
  Hg  Hg15  1  0.500000  0.709440  0.937412  1
  Hg  Hg16  1  0.500000  0.211841  0.560822  1
  Hg  Hg17  1  0.500000  0.788159  0.439178  1
  Pt  Pt18  1  0.500000  0.026560  0.303609  1
  Pt  Pt19  1  0.500000  0.973440  0.696391  1
  Pt  Pt20  1  0.500000  0.472114  0.802524  1
  Pt  Pt21  1  0.500000  0.527886  0.197476  1
