# generated using pymatgen
data_Ca5TbSi24Os3Ru5
_symmetry_space_group_name_H-M   'P 1'
_cell_length_a   10.17145785
_cell_length_b   10.17390484
_cell_length_c   8.17965555
_cell_angle_alpha   89.93190051
_cell_angle_beta   90.08705482
_cell_angle_gamma   132.59547769
_symmetry_Int_Tables_number   1
_chemical_formula_structural   Ca5TbSi24Os3Ru5
_chemical_formula_sum   'Ca5 Tb1 Si24 Os3 Ru5'
_cell_volume   623.12043832
_cell_formula_units_Z   1
loop_
 _symmetry_equiv_pos_site_id
 _symmetry_equiv_pos_as_xyz
  1  'x, y, z'
loop_
 _atom_site_type_symbol
 _atom_site_label
 _atom_site_symmetry_multiplicity
 _atom_site_fract_x
 _atom_site_fract_y
 _atom_site_fract_z
 _atom_site_occupancy
  Ca  Ca0  1  0.499709  0.499436  0.499879  1
  Ca  Ca1  1  0.999302  0.999812  0.000174  1
  Ca  Ca2  1  0.501024  0.000848  0.749937  1
  Ca  Ca3  1  0.999529  0.499390  0.250155  1
  Ca  Ca4  1  0.498795  0.998902  0.249811  1
  Tb  Tb5  1  0.999809  0.499956  0.749992  1
  Si  Si6  1  0.794034  0.203777  0.498166  1
  Si  Si7  1  0.296310  0.706799  0.000841  1
  Si  Si8  1  0.206898  0.796069  0.499074  1
  Si  Si9  1  0.704421  0.294276  0.001642  1
  Si  Si10  1  0.333311  0.333496  0.832172  1
  Si  Si11  1  0.663768  0.666871  0.168045  1
  Si  Si12  1  0.167009  0.163263  0.331623  1
  Si  Si13  1  0.834046  0.833250  0.668207  1
  Si  Si14  1  0.123817  0.891153  0.729525  1
  Si  Si15  1  0.108614  0.876055  0.269323  1
  Si  Si16  1  0.607911  0.375244  0.230143  1
  Si  Si17  1  0.625496  0.393272  0.771235  1
  Si  Si18  1  0.874802  0.107526  0.268565  1
  Si  Si19  1  0.893717  0.126343  0.730349  1
  Si  Si20  1  0.391842  0.624454  0.770674  1
  Si  Si21  1  0.374987  0.607425  0.230442  1
  Si  Si22  1  0.347730  0.113991  0.508022  1
  Si  Si23  1  0.887673  0.655014  0.493054  1
  Si  Si24  1  0.386521  0.153274  0.008289  1
  Si  Si25  1  0.845183  0.612656  0.990226  1
  Si  Si26  1  0.653055  0.886001  0.490535  1
  Si  Si27  1  0.113085  0.345409  0.510893  1
  Si  Si28  1  0.614340  0.848497  0.992085  1
  Si  Si29  1  0.153998  0.387439  0.006766  1
  Os  Os30  1  0.672261  0.332459  0.501592  1
  Os  Os31  1  0.168227  0.829189  0.998715  1
  Os  Os32  1  0.329269  0.667888  0.501143  1
  Ru  Ru33  1  0.832064  0.172270  0.998668  1
  Ru  Ru34  1  0.126512  0.125556  0.624333  1
  Ru  Ru35  1  0.872670  0.873092  0.375618  1
  Ru  Ru36  1  0.372635  0.372557  0.124123  1
  Ru  Ru37  1  0.625627  0.627095  0.875966  1
