# generated using pymatgen
data_Ho3Sc3CoBi2
_symmetry_space_group_name_H-M   'P 1'
_cell_length_a   7.97332952
_cell_length_b   8.00495764
_cell_length_c   4.10626600
_cell_angle_alpha   90.00000000
_cell_angle_beta   90.00000000
_cell_angle_gamma   119.82830320
_symmetry_Int_Tables_number   1
_chemical_formula_structural   Ho3Sc3CoBi2
_chemical_formula_sum   'Ho3 Sc3 Co1 Bi2'
_cell_volume   227.36585852
_cell_formula_units_Z   1
loop_
 _symmetry_equiv_pos_site_id
 _symmetry_equiv_pos_as_xyz
  1  'x, y, z'
loop_
 _atom_site_type_symbol
 _atom_site_label
 _atom_site_symmetry_multiplicity
 _atom_site_fract_x
 _atom_site_fract_y
 _atom_site_fract_z
 _atom_site_occupancy
  Ho  Ho0  1  0.999529  0.615055  0.500000  1
  Ho  Ho1  1  0.384944  0.385289  0.500000  1
  Ho  Ho2  1  0.616909  0.999869  0.500000  1
  Sc  Sc3  1  0.223669  0.000256  0.000000  1
  Sc  Sc4  1  0.778478  0.777468  0.000000  1
  Sc  Sc5  1  0.001235  0.222966  0.000000  1
  Co  Co6  1  0.994622  0.998943  0.500000  1
  Bi  Bi7  1  0.333492  0.666524  0.000000  1
  Bi  Bi8  1  0.667121  0.333630  0.000000  1
