# generated using pymatgen
data_Pa3(CuGe)4
_symmetry_space_group_name_H-M   'P 1'
_cell_length_a   4.34181078
_cell_length_b   6.48893796
_cell_length_c   8.02086706
_cell_angle_alpha   113.86002079
_cell_angle_beta   105.70338370
_cell_angle_gamma   90.00000087
_symmetry_Int_Tables_number   1
_chemical_formula_structural   Pa3(CuGe)4
_chemical_formula_sum   'Pa3 Cu4 Ge4'
_cell_volume   197.40705891
_cell_formula_units_Z   1
loop_
 _symmetry_equiv_pos_site_id
 _symmetry_equiv_pos_as_xyz
  1  'x, y, z'
loop_
 _atom_site_type_symbol
 _atom_site_label
 _atom_site_symmetry_multiplicity
 _atom_site_fract_x
 _atom_site_fract_y
 _atom_site_fract_z
 _atom_site_occupancy
  Pa  Pa0  1  0.000000  0.500000  0.000000  1
  Pa  Pa1  1  0.128329  0.128329  0.256659  1
  Pa  Pa2  1  0.871670  0.871671  0.743341  1
  Cu  Cu3  1  0.668211  0.477426  0.336423  1
  Cu  Cu4  1  0.668211  0.858996  0.336423  1
  Cu  Cu5  1  0.331789  0.141003  0.663578  1
  Cu  Cu6  1  0.331789  0.522575  0.663578  1
  Ge  Ge7  1  0.500000  0.195622  0.000000  1
  Ge  Ge8  1  0.500000  0.804377  0.000000  1
  Ge  Ge9  1  0.214011  0.714011  0.428022  1
  Ge  Ge10  1  0.785989  0.285989  0.571978  1
