# generated using pymatgen
data_La6Cd2GaSn7
_symmetry_space_group_name_H-M   'P 1'
_cell_length_a   6.68770320
_cell_length_b   6.68770370
_cell_length_c   10.54279567
_cell_angle_alpha   90.65364570
_cell_angle_beta   90.65365075
_cell_angle_gamma   102.57198957
_symmetry_Int_Tables_number   1
_chemical_formula_structural   La6Cd2GaSn7
_chemical_formula_sum   'La6 Cd2 Ga1 Sn7'
_cell_volume   460.14819868
_cell_formula_units_Z   1
loop_
 _symmetry_equiv_pos_site_id
 _symmetry_equiv_pos_as_xyz
  1  'x, y, z'
loop_
 _atom_site_type_symbol
 _atom_site_label
 _atom_site_symmetry_multiplicity
 _atom_site_fract_x
 _atom_site_fract_y
 _atom_site_fract_z
 _atom_site_occupancy
  La  La0  1  0.637025  0.637025  0.255388  1
  La  La1  1  0.362067  0.362067  0.735073  1
  La  La2  1  0.203435  0.801936  0.500089  1
  La  La3  1  0.204478  0.793545  0.001591  1
  La  La4  1  0.801936  0.203435  0.500089  1
  La  La5  1  0.793545  0.204478  0.001591  1
  Cd  Cd6  1  0.316375  0.316375  0.043553  1
  Cd  Cd7  1  0.681175  0.681175  0.952399  1
  Ga  Ga8  1  0.303991  0.303991  0.446571  1
  Sn  Sn9  1  0.026027  0.026027  0.248037  1
  Sn  Sn10  1  0.976592  0.976592  0.754930  1
  Sn  Sn11  1  0.686132  0.686132  0.549584  1
  Sn  Sn12  1  0.490775  0.084552  0.251207  1
  Sn  Sn13  1  0.924653  0.507239  0.754345  1
  Sn  Sn14  1  0.507239  0.924653  0.754345  1
  Sn  Sn15  1  0.084552  0.490775  0.251207  1
