# generated using pymatgen
data_Hf3Al12Fe3Rh
_symmetry_space_group_name_H-M   'P 1'
_cell_length_a   8.53796592
_cell_length_b   8.53796560
_cell_length_c   9.13201400
_cell_angle_alpha   90.00000000
_cell_angle_beta   90.00000000
_cell_angle_gamma   120.07680325
_symmetry_Int_Tables_number   1
_chemical_formula_structural   Hf3Al12Fe3Rh
_chemical_formula_sum   'Hf6 Al24 Fe6 Rh2'
_cell_volume   576.06221195
_cell_formula_units_Z   2
loop_
 _symmetry_equiv_pos_site_id
 _symmetry_equiv_pos_as_xyz
  1  'x, y, z'
loop_
 _atom_site_type_symbol
 _atom_site_label
 _atom_site_symmetry_multiplicity
 _atom_site_fract_x
 _atom_site_fract_y
 _atom_site_fract_z
 _atom_site_occupancy
  Hf  Hf0  1  0.802625  0.197375  0.750000  1
  Hf  Hf1  1  0.197375  0.802625  0.250000  1
  Hf  Hf2  1  0.394217  0.192808  0.750000  1
  Hf  Hf3  1  0.605783  0.807192  0.250000  1
  Hf  Hf4  1  0.807192  0.605783  0.750000  1
  Hf  Hf5  1  0.192808  0.394217  0.250000  1
  Al  Al6  1  0.670137  0.329863  0.974186  1
  Al  Al7  1  0.329863  0.670137  0.025814  1
  Al  Al8  1  0.329863  0.670137  0.474186  1
  Al  Al9  1  0.670137  0.329863  0.525814  1
  Al  Al10  1  0.838467  0.161533  0.423064  1
  Al  Al11  1  0.161533  0.838467  0.576936  1
  Al  Al12  1  0.320843  0.155467  0.423003  1
  Al  Al13  1  0.161533  0.838467  0.923064  1
  Al  Al14  1  0.679157  0.844533  0.576997  1
  Al  Al15  1  0.838467  0.161533  0.076936  1
  Al  Al16  1  0.844533  0.679157  0.423003  1
  Al  Al17  1  0.679157  0.844533  0.923003  1
  Al  Al18  1  0.155467  0.320843  0.576997  1
  Al  Al19  1  0.320843  0.155467  0.076997  1
  Al  Al20  1  0.155467  0.320843  0.923003  1
  Al  Al21  1  0.844533  0.679157  0.076997  1
  Al  Al22  1  0.440366  0.559634  0.750000  1
  Al  Al23  1  0.559634  0.440366  0.250000  1
  Al  Al24  1  0.113371  0.556319  0.750000  1
  Al  Al25  1  0.886629  0.443681  0.250000  1
  Al  Al26  1  0.443681  0.886629  0.750000  1
  Al  Al27  1  0.556319  0.113371  0.250000  1
  Al  Al28  1  0.999926  0.000074  0.750000  1
  Al  Al29  1  0.000074  0.999926  0.250000  1
  Fe  Fe30  1  0.000000  0.500000  0.000000  1
  Fe  Fe31  1  0.500000  0.000000  0.000000  1
  Fe  Fe32  1  0.000000  0.500000  0.500000  1
  Fe  Fe33  1  0.500000  0.000000  0.500000  1
  Fe  Fe34  1  0.000000  0.000000  0.000000  1
  Fe  Fe35  1  0.000000  0.000000  0.500000  1
  Rh  Rh36  1  0.500000  0.500000  0.000000  1
  Rh  Rh37  1  0.500000  0.500000  0.500000  1
