# generated using pymatgen
data_LiNd16Tl(CdIr2)2
_symmetry_space_group_name_H-M   'P 1'
_cell_length_a   9.97811759
_cell_length_b   9.97811734
_cell_length_c   9.97863702
_cell_angle_alpha   60.04128473
_cell_angle_beta   60.04128760
_cell_angle_gamma   59.96375265
_symmetry_Int_Tables_number   1
_chemical_formula_structural   LiNd16Tl(CdIr2)2
_chemical_formula_sum   'Li1 Nd16 Tl1 Cd2 Ir4'
_cell_volume   702.75659121
_cell_formula_units_Z   1
loop_
 _symmetry_equiv_pos_site_id
 _symmetry_equiv_pos_as_xyz
  1  'x, y, z'
loop_
 _atom_site_type_symbol
 _atom_site_label
 _atom_site_symmetry_multiplicity
 _atom_site_fract_x
 _atom_site_fract_y
 _atom_site_fract_z
 _atom_site_occupancy
  Li  Li0  1  0.570244  0.570244  0.285972  1
  Nd  Nd1  1  0.347371  0.347371  0.347098  1
  Nd  Nd2  1  0.349626  0.349626  0.951641  1
  Nd  Nd3  1  0.348237  0.956249  0.348768  1
  Nd  Nd4  1  0.956249  0.348237  0.348768  1
  Nd  Nd5  1  0.812634  0.186991  0.187601  1
  Nd  Nd6  1  0.192003  0.808548  0.805770  1
  Nd  Nd7  1  0.186991  0.812634  0.187601  1
  Nd  Nd8  1  0.808548  0.192003  0.805770  1
  Nd  Nd9  1  0.190988  0.190988  0.808355  1
  Nd  Nd10  1  0.810711  0.810711  0.187596  1
  Nd  Nd11  1  0.942320  0.560805  0.561036  1
  Nd  Nd12  1  0.559852  0.939502  0.939678  1
  Nd  Nd13  1  0.560805  0.942320  0.561036  1
  Nd  Nd14  1  0.939502  0.559852  0.939678  1
  Nd  Nd15  1  0.560066  0.560066  0.941342  1
  Nd  Nd16  1  0.939330  0.939330  0.560579  1
  Tl  Tl17  1  0.582619  0.582619  0.577632  1
  Cd  Cd18  1  0.580565  0.255996  0.578593  1
  Cd  Cd19  1  0.255996  0.580565  0.578593  1
  Ir  Ir20  1  0.142570  0.142570  0.140684  1
  Ir  Ir21  1  0.143501  0.143501  0.574200  1
  Ir  Ir22  1  0.143813  0.575460  0.141005  1
  Ir  Ir23  1  0.575460  0.143813  0.141005  1
