# generated using pymatgen
data_K4BaPaS6
_symmetry_space_group_name_H-M   'P 1'
_cell_length_a   7.54808504
_cell_length_b   7.54808451
_cell_length_c   7.59460100
_cell_angle_alpha   80.18865060
_cell_angle_beta   80.18865129
_cell_angle_gamma   119.76246922
_symmetry_Int_Tables_number   1
_chemical_formula_structural   K4BaPaS6
_chemical_formula_sum   'K4 Ba1 Pa1 S6'
_cell_volume   353.29401409
_cell_formula_units_Z   1
loop_
 _symmetry_equiv_pos_site_id
 _symmetry_equiv_pos_as_xyz
  1  'x, y, z'
loop_
 _atom_site_type_symbol
 _atom_site_label
 _atom_site_symmetry_multiplicity
 _atom_site_fract_x
 _atom_site_fract_y
 _atom_site_fract_z
 _atom_site_occupancy
  K  K0  1  0.339347  0.660653  0.500000  1
  K  K1  1  0.656666  0.343334  0.500000  1
  K  K2  1  0.002554  0.997446  0.500000  1
  K  K3  1  0.500000  0.500000  0.000000  1
  Ba  Ba4  1  0.167532  0.832468  0.000000  1
  Pa  Pa5  1  0.833125  0.166875  0.000000  1
  S  S6  1  0.768377  0.809540  0.216006  1
  S  S7  1  0.469198  0.085908  0.218765  1
  S  S8  1  0.040555  0.381907  0.215444  1
  S  S9  1  0.618093  0.959445  0.784556  1
  S  S10  1  0.914092  0.530802  0.781235  1
  S  S11  1  0.190460  0.231623  0.783994  1
