# generated using pymatgen
data_Tb5Dy3Ta10(TiSi8)2
_symmetry_space_group_name_H-M   'P 1'
_cell_length_a   7.04941919
_cell_length_b   7.04941182
_cell_length_c   12.98735609
_cell_angle_alpha   89.93916860
_cell_angle_beta   90.06868626
_cell_angle_gamma   90.00793114
_symmetry_Int_Tables_number   1
_chemical_formula_structural   Tb5Dy3Ta10(TiSi8)2
_chemical_formula_sum   'Tb5 Dy3 Ta10 Ti2 Si16'
_cell_volume   645.39620337
_cell_formula_units_Z   1
loop_
 _symmetry_equiv_pos_site_id
 _symmetry_equiv_pos_as_xyz
  1  'x, y, z'
loop_
 _atom_site_type_symbol
 _atom_site_label
 _atom_site_symmetry_multiplicity
 _atom_site_fract_x
 _atom_site_fract_y
 _atom_site_fract_z
 _atom_site_occupancy
  Tb  Tb0  1  0.998320  0.658180  0.032532  1
  Tb  Tb1  1  0.002139  0.341045  0.531999  1
  Tb  Tb2  1  0.658106  0.998292  0.967446  1
  Tb  Tb3  1  0.159715  0.503166  0.782266  1
  Tb  Tb4  1  0.841143  0.497708  0.281962  1
  Dy  Dy5  1  0.502877  0.159511  0.217725  1
  Dy  Dy6  1  0.497938  0.841431  0.717949  1
  Dy  Dy7  1  0.341289  0.001881  0.467986  1
  Ta  Ta8  1  0.346268  0.508793  0.375999  1
  Ta  Ta9  1  0.847130  0.992257  0.374623  1
  Ta  Ta10  1  0.008466  0.153102  0.126381  1
  Ta  Ta11  1  0.992190  0.847217  0.625301  1
  Ta  Ta12  1  0.508658  0.346172  0.623925  1
  Ta  Ta13  1  0.153203  0.008296  0.873598  1
  Ta  Ta14  1  0.672081  0.672325  0.500052  1
  Ta  Ta15  1  0.829290  0.170297  0.750029  1
  Ta  Ta16  1  0.170491  0.829478  0.250026  1
  Ta  Ta17  1  0.326246  0.326142  0.000059  1
  Ti  Ti18  1  0.492478  0.653027  0.124157  1
  Ti  Ti19  1  0.653019  0.492449  0.875833  1
  Si  Si20  1  0.045746  0.706124  0.436002  1
  Si  Si21  1  0.952660  0.294620  0.935831  1
  Si  Si22  1  0.705513  0.045392  0.564050  1
  Si  Si23  1  0.208562  0.455084  0.185370  1
  Si  Si24  1  0.793166  0.545421  0.687322  1
  Si  Si25  1  0.455299  0.208077  0.814553  1
  Si  Si26  1  0.545085  0.793771  0.312726  1
  Si  Si27  1  0.294816  0.952838  0.064280  1
  Si  Si28  1  0.794985  0.865850  0.181985  1
  Si  Si29  1  0.297062  0.633624  0.568301  1
  Si  Si30  1  0.700850  0.368525  0.066263  1
  Si  Si31  1  0.632938  0.296597  0.431702  1
  Si  Si32  1  0.368787  0.701134  0.933812  1
  Si  Si33  1  0.133823  0.203810  0.317692  1
  Si  Si34  1  0.204269  0.133165  0.682312  1
  Si  Si35  1  0.865393  0.795200  0.817952  1
