# generated using pymatgen
data_SrCd4PdAu
_symmetry_space_group_name_H-M   'P 1'
_cell_length_a   8.50613915
_cell_length_b   8.50613885
_cell_length_c   4.54469500
_cell_angle_alpha   90.00000000
_cell_angle_beta   90.00000000
_cell_angle_gamma   90.77434878
_symmetry_Int_Tables_number   1
_chemical_formula_structural   SrCd4PdAu
_chemical_formula_sum   'Sr2 Cd8 Pd2 Au2'
_cell_volume   328.79865273
_cell_formula_units_Z   2
loop_
 _symmetry_equiv_pos_site_id
 _symmetry_equiv_pos_as_xyz
  1  'x, y, z'
loop_
 _atom_site_type_symbol
 _atom_site_label
 _atom_site_symmetry_multiplicity
 _atom_site_fract_x
 _atom_site_fract_y
 _atom_site_fract_z
 _atom_site_occupancy
  Sr  Sr0  1  0.500000  0.500000  0.500000  1
  Sr  Sr1  1  0.000000  0.000000  0.000000  1
  Cd  Cd2  1  0.343531  0.096903  0.500000  1
  Cd  Cd3  1  0.656469  0.903097  0.500000  1
  Cd  Cd4  1  0.841072  0.414228  0.000000  1
  Cd  Cd5  1  0.158928  0.585772  0.000000  1
  Cd  Cd6  1  0.096903  0.343531  0.500000  1
  Cd  Cd7  1  0.903097  0.656469  0.500000  1
  Cd  Cd8  1  0.414228  0.841072  0.000000  1
  Cd  Cd9  1  0.585772  0.158928  0.000000  1
  Pd  Pd10  1  0.281580  0.281580  0.000000  1
  Pd  Pd11  1  0.718420  0.718420  0.000000  1
  Au  Au12  1  0.786979  0.213021  0.500000  1
  Au  Au13  1  0.213021  0.786979  0.500000  1
