# generated using pymatgen
data_Li4Ta3VH16
_symmetry_space_group_name_H-M   'P 1'
_cell_length_a   5.85610275
_cell_length_b   6.38462126
_cell_length_c   6.38462000
_cell_angle_alpha   54.59490127
_cell_angle_beta   62.70254245
_cell_angle_gamma   62.70255428
_symmetry_Int_Tables_number   1
_chemical_formula_structural   Li4Ta3VH16
_chemical_formula_sum   'Li4 Ta3 V1 H16'
_cell_volume   166.65728493
_cell_formula_units_Z   1
loop_
 _symmetry_equiv_pos_site_id
 _symmetry_equiv_pos_as_xyz
  1  'x, y, z'
loop_
 _atom_site_type_symbol
 _atom_site_label
 _atom_site_symmetry_multiplicity
 _atom_site_fract_x
 _atom_site_fract_y
 _atom_site_fract_z
 _atom_site_occupancy
  Li  Li0  1  0.000000  0.000000  0.500000  1
  Li  Li1  1  0.500000  0.000000  0.500000  1
  Li  Li2  1  0.500000  0.500000  0.000000  1
  Li  Li3  1  0.000000  0.500000  0.000000  1
  Ta  Ta4  1  0.000000  0.500000  0.500000  1
  Ta  Ta5  1  0.500000  0.000000  0.000000  1
  Ta  Ta6  1  0.500000  0.500000  0.500000  1
  V  V7  1  0.000000  0.000000  0.000000  1
  H  H8  1  0.880815  0.880146  0.358225  1
  H  H9  1  0.880815  0.358225  0.880146  1
  H  H10  1  0.358225  0.880815  0.880815  1
  H  H11  1  0.880146  0.880815  0.880815  1
  H  H12  1  0.119185  0.119854  0.641775  1
  H  H13  1  0.119185  0.641775  0.119854  1
  H  H14  1  0.641775  0.119185  0.119185  1
  H  H15  1  0.119854  0.119185  0.119185  1
  H  H16  1  0.628339  0.623924  0.119398  1
  H  H17  1  0.628339  0.119398  0.623924  1
  H  H18  1  0.119398  0.628339  0.628339  1
  H  H19  1  0.623924  0.628339  0.628339  1
  H  H20  1  0.371661  0.376076  0.880602  1
  H  H21  1  0.371661  0.880602  0.376076  1
  H  H22  1  0.880602  0.371661  0.371661  1
  H  H23  1  0.376076  0.371661  0.371661  1
