# generated using pymatgen
data_Hf8Co11Si16Pd
_symmetry_space_group_name_H-M   'P 1'
_cell_length_a   5.23453620
_cell_length_b   6.77607146
_cell_length_c   13.76816715
_cell_angle_alpha   89.98681089
_cell_angle_beta   90.01047243
_cell_angle_gamma   89.85514949
_symmetry_Int_Tables_number   1
_chemical_formula_structural   Hf8Co11Si16Pd
_chemical_formula_sum   'Hf8 Co11 Si16 Pd1'
_cell_volume   488.34968092
_cell_formula_units_Z   1
loop_
 _symmetry_equiv_pos_site_id
 _symmetry_equiv_pos_as_xyz
  1  'x, y, z'
loop_
 _atom_site_type_symbol
 _atom_site_label
 _atom_site_symmetry_multiplicity
 _atom_site_fract_x
 _atom_site_fract_y
 _atom_site_fract_z
 _atom_site_occupancy
  Hf  Hf0  1  0.234017  0.399049  0.151050  1
  Hf  Hf1  1  0.729184  0.101217  0.149473  1
  Hf  Hf2  1  0.270314  0.099652  0.643978  1
  Hf  Hf3  1  0.766922  0.400249  0.643805  1
  Hf  Hf4  1  0.230394  0.600831  0.354569  1
  Hf  Hf5  1  0.732612  0.898746  0.354380  1
  Hf  Hf6  1  0.266105  0.899500  0.851730  1
  Hf  Hf7  1  0.771710  0.602630  0.849751  1
  Co  Co8  1  0.506587  0.224174  0.481196  1
  Co  Co9  1  0.773731  0.998748  0.749158  1
  Co  Co10  1  0.491523  0.219680  0.982678  1
  Co  Co11  1  0.722733  0.500723  0.251139  1
  Co  Co12  1  0.494345  0.775254  0.518209  1
  Co  Co13  1  0.005978  0.275546  0.481252  1
  Co  Co14  1  0.005616  0.727350  0.018661  1
  Co  Co15  1  0.224542  0.999056  0.251910  1
  Co  Co16  1  0.279014  0.501747  0.749874  1
  Co  Co17  1  0.506074  0.776008  0.019819  1
  Co  Co18  1  0.994351  0.724274  0.518424  1
  Si  Si19  1  0.227131  0.012088  0.075227  1
  Si  Si20  1  0.717756  0.519743  0.431971  1
  Si  Si21  1  0.783355  0.018773  0.567271  1
  Si  Si22  1  0.480721  0.754631  0.189637  1
  Si  Si23  1  0.020702  0.253679  0.803038  1
  Si  Si24  1  0.518849  0.245671  0.812472  1
  Si  Si25  1  0.217581  0.980528  0.432348  1
  Si  Si26  1  0.296390  0.528540  0.931638  1
  Si  Si27  1  0.980067  0.745703  0.188517  1
  Si  Si28  1  0.709272  0.489063  0.073051  1
  Si  Si29  1  0.282012  0.480720  0.567401  1
  Si  Si30  1  0.480763  0.245868  0.313609  1
  Si  Si31  1  0.020308  0.746056  0.686158  1
  Si  Si32  1  0.768838  0.970299  0.928123  1
  Si  Si33  1  0.519411  0.754201  0.686297  1
  Si  Si34  1  0.980056  0.254307  0.313366  1
  Pd  Pd35  1  0.991038  0.275694  0.978819  1
