# generated using pymatgen
data_Th3AlIn2IrRh2
_symmetry_space_group_name_H-M   'P 1'
_cell_length_a   7.56488359
_cell_length_b   7.58079550
_cell_length_c   4.04825300
_cell_angle_alpha   90.00000000
_cell_angle_beta   90.00000000
_cell_angle_gamma   120.13892872
_symmetry_Int_Tables_number   1
_chemical_formula_structural   Th3AlIn2IrRh2
_chemical_formula_sum   'Th3 Al1 In2 Ir1 Rh2'
_cell_volume   200.77314381
_cell_formula_units_Z   1
loop_
 _symmetry_equiv_pos_site_id
 _symmetry_equiv_pos_as_xyz
  1  'x, y, z'
loop_
 _atom_site_type_symbol
 _atom_site_label
 _atom_site_symmetry_multiplicity
 _atom_site_fract_x
 _atom_site_fract_y
 _atom_site_fract_z
 _atom_site_occupancy
  Th  Th0  1  0.000178  0.410376  0.500000  1
  Th  Th1  1  0.588531  0.591757  0.500000  1
  Th  Th2  1  0.427305  0.998237  0.500000  1
  Al  Al3  1  0.754097  0.999304  0.000000  1
  In  In4  1  0.004156  0.760833  0.000000  1
  In  In5  1  0.244250  0.238526  0.000000  1
  Ir  Ir6  1  0.348722  0.674866  0.000000  1
  Rh  Rh7  1  0.674085  0.325972  0.000000  1
  Rh  Rh8  1  0.958676  0.000130  0.500000  1
