# generated using pymatgen
data_TmLuSi2Tc
_symmetry_space_group_name_H-M   'P 1'
_cell_length_a   5.69379704
_cell_length_b   5.69379712
_cell_length_c   9.93657184
_cell_angle_alpha   63.96652842
_cell_angle_beta   63.96653050
_cell_angle_gamma   42.80554068
_symmetry_Int_Tables_number   1
_chemical_formula_structural   TmLuSi2Tc
_chemical_formula_sum   'Tm2 Lu2 Si4 Tc2'
_cell_volume   193.04806799
_cell_formula_units_Z   2
loop_
 _symmetry_equiv_pos_site_id
 _symmetry_equiv_pos_as_xyz
  1  'x, y, z'
loop_
 _atom_site_type_symbol
 _atom_site_label
 _atom_site_symmetry_multiplicity
 _atom_site_fract_x
 _atom_site_fract_y
 _atom_site_fract_z
 _atom_site_occupancy
  Tm  Tm0  1  0.811892  0.811892  0.109951  1
  Tm  Tm1  1  0.188108  0.188108  0.890049  1
  Lu  Lu2  1  0.003725  0.003725  0.323727  1
  Lu  Lu3  1  0.996275  0.996275  0.676273  1
  Si  Si4  1  0.639373  0.639373  0.439976  1
  Si  Si5  1  0.360627  0.360627  0.560024  1
  Si  Si6  1  0.504031  0.504031  0.121830  1
  Si  Si7  1  0.495969  0.495969  0.878170  1
  Tc  Tc8  1  0.728497  0.728497  0.630209  1
  Tc  Tc9  1  0.271503  0.271503  0.369791  1
