# generated using pymatgen
data_Tb3Al12(NiOs)2
_symmetry_space_group_name_H-M   'P 1'
_cell_length_a   8.82481445
_cell_length_b   8.77543816
_cell_length_c   9.46070767
_cell_angle_alpha   89.94262261
_cell_angle_beta   89.73984616
_cell_angle_gamma   120.46411098
_symmetry_Int_Tables_number   1
_chemical_formula_structural   Tb3Al12(NiOs)2
_chemical_formula_sum   'Tb6 Al24 Ni4 Os4'
_cell_volume   631.49637794
_cell_formula_units_Z   2
loop_
 _symmetry_equiv_pos_site_id
 _symmetry_equiv_pos_as_xyz
  1  'x, y, z'
loop_
 _atom_site_type_symbol
 _atom_site_label
 _atom_site_symmetry_multiplicity
 _atom_site_fract_x
 _atom_site_fract_y
 _atom_site_fract_z
 _atom_site_occupancy
  Tb  Tb0  1  0.197374  0.389107  0.250006  1
  Tb  Tb1  1  0.802626  0.610893  0.749994  1
  Tb  Tb2  1  0.614269  0.800577  0.249377  1
  Tb  Tb3  1  0.385731  0.199423  0.750623  1
  Tb  Tb4  1  0.188853  0.804878  0.248786  1
  Tb  Tb5  1  0.811147  0.195122  0.751214  1
  Al  Al6  1  0.332992  0.668860  0.023402  1
  Al  Al7  1  0.667008  0.331140  0.976598  1
  Al  Al8  1  0.665260  0.329054  0.523385  1
  Al  Al9  1  0.334740  0.670946  0.476615  1
  Al  Al10  1  0.163179  0.328655  0.574899  1
  Al  Al11  1  0.836821  0.671345  0.425101  1
  Al  Al12  1  0.673175  0.836390  0.575507  1
  Al  Al13  1  0.836085  0.671868  0.076682  1
  Al  Al14  1  0.326825  0.163610  0.424493  1
  Al  Al15  1  0.163915  0.328132  0.923318  1
  Al  Al16  1  0.161842  0.835712  0.575236  1
  Al  Al17  1  0.327797  0.163200  0.078514  1
  Al  Al18  1  0.838158  0.164288  0.424764  1
  Al  Al19  1  0.672203  0.836800  0.921486  1
  Al  Al20  1  0.836159  0.162357  0.077783  1
  Al  Al21  1  0.163841  0.837643  0.922217  1
  Al  Al22  1  0.559529  0.117122  0.250752  1
  Al  Al23  1  0.440471  0.882878  0.749248  1
  Al  Al24  1  0.877257  0.436449  0.248054  1
  Al  Al25  1  0.122743  0.563551  0.751946  1
  Al  Al26  1  0.562509  0.434754  0.249842  1
  Al  Al27  1  0.437491  0.565246  0.750158  1
  Al  Al28  1  0.000748  0.998091  0.243741  1
  Al  Al29  1  0.999252  0.001909  0.756259  1
  Ni  Ni30  1  0.500000  0.000000  0.000000  1
  Ni  Ni31  1  0.000000  0.500000  0.000000  1
  Ni  Ni32  1  0.500000  0.000000  0.500000  1
  Ni  Ni33  1  0.000000  0.000000  0.000000  1
  Os  Os34  1  0.500000  0.500000  0.000000  1
  Os  Os35  1  0.000000  0.500000  0.500000  1
  Os  Os36  1  0.500000  0.500000  0.500000  1
  Os  Os37  1  0.000000  0.000000  0.500000  1
