# generated using pymatgen
data_LaCeBe25Ni
_symmetry_space_group_name_H-M   'P 1'
_cell_length_a   7.31256956
_cell_length_b   7.33543199
_cell_length_c   7.30329985
_cell_angle_alpha   59.99132488
_cell_angle_beta   59.96053269
_cell_angle_gamma   59.77719377
_symmetry_Int_Tables_number   1
_chemical_formula_structural   LaCeBe25Ni
_chemical_formula_sum   'La1 Ce1 Be25 Ni1'
_cell_volume   276.44298164
_cell_formula_units_Z   1
loop_
 _symmetry_equiv_pos_site_id
 _symmetry_equiv_pos_as_xyz
  1  'x, y, z'
loop_
 _atom_site_type_symbol
 _atom_site_label
 _atom_site_symmetry_multiplicity
 _atom_site_fract_x
 _atom_site_fract_y
 _atom_site_fract_z
 _atom_site_occupancy
  La  La0  1  0.499771  0.501478  0.501055  1
  Ce  Ce1  1  0.997796  0.003046  0.000278  1
  Be  Be2  1  0.959459  0.187856  0.543311  1
  Be  Be3  1  0.313689  0.540112  0.183151  1
  Be  Be4  1  0.183894  0.960264  0.312840  1
  Be  Be5  1  0.036694  0.687257  0.460624  1
  Be  Be6  1  0.459136  0.815789  0.037663  1
  Be  Be7  1  0.686583  0.035714  0.816257  1
  Be  Be8  1  0.817213  0.463492  0.685496  1
  Be  Be9  1  0.961057  0.542767  0.310407  1
  Be  Be10  1  0.540313  0.959892  0.187550  1
  Be  Be11  1  0.186518  0.311118  0.542080  1
  Be  Be12  1  0.310693  0.185308  0.962282  1
  Be  Be13  1  0.460934  0.034356  0.687883  1
  Be  Be14  1  0.035818  0.461610  0.814713  1
  Be  Be15  1  0.815242  0.686264  0.036037  1
  Be  Be16  1  0.688499  0.814927  0.461092  1
  Be  Be17  1  0.310206  0.962448  0.540987  1
  Be  Be18  1  0.184240  0.540904  0.962058  1
  Be  Be19  1  0.540491  0.183874  0.313843  1
  Be  Be20  1  0.961986  0.310890  0.186602  1
  Be  Be21  1  0.688056  0.461329  0.035828  1
  Be  Be22  1  0.815482  0.035720  0.460403  1
  Be  Be23  1  0.036613  0.814908  0.687530  1
  Be  Be24  1  0.460903  0.687583  0.815044  1
  Be  Be25  1  0.251910  0.250286  0.248361  1
  Be  Be26  1  0.749955  0.751900  0.749956  1
  Ni  Ni27  1  0.546848  0.308908  0.956669  1
