# generated using pymatgen
data_Er16MgIn3NiRh3
_symmetry_space_group_name_H-M   'P 1'
_cell_length_a   9.57630577
_cell_length_b   9.55379193
_cell_length_c   9.57630600
_cell_angle_alpha   59.92201500
_cell_angle_beta   59.99999919
_cell_angle_gamma   59.92201727
_symmetry_Int_Tables_number   1
_chemical_formula_structural   Er16MgIn3NiRh3
_chemical_formula_sum   'Er16 Mg1 In3 Ni1 Rh3'
_cell_volume   618.79084046
_cell_formula_units_Z   1
loop_
 _symmetry_equiv_pos_site_id
 _symmetry_equiv_pos_as_xyz
  1  'x, y, z'
loop_
 _atom_site_type_symbol
 _atom_site_label
 _atom_site_symmetry_multiplicity
 _atom_site_fract_x
 _atom_site_fract_y
 _atom_site_fract_z
 _atom_site_occupancy
  Er  Er0  1  0.187166  0.190723  0.811056  1
  Er  Er1  1  0.436367  0.063242  0.064024  1
  Er  Er2  1  0.436367  0.063242  0.436367  1
  Er  Er3  1  0.063951  0.435830  0.063951  1
  Er  Er4  1  0.649359  0.051923  0.649359  1
  Er  Er5  1  0.187051  0.813833  0.812066  1
  Er  Er6  1  0.064024  0.063242  0.436367  1
  Er  Er7  1  0.811056  0.190723  0.187166  1
  Er  Er8  1  0.812066  0.813833  0.187051  1
  Er  Er9  1  0.653209  0.647643  0.045938  1
  Er  Er10  1  0.653209  0.647643  0.653209  1
  Er  Er11  1  0.063951  0.435830  0.436267  1
  Er  Er12  1  0.045938  0.647643  0.653209  1
  Er  Er13  1  0.811056  0.190723  0.811056  1
  Er  Er14  1  0.436267  0.435830  0.063951  1
  Er  Er15  1  0.187051  0.813833  0.187051  1
  Mg  Mg16  1  0.422009  0.733972  0.422009  1
  In  In17  1  0.415378  0.419035  0.750209  1
  In  In18  1  0.750209  0.419035  0.415378  1
  In  In19  1  0.415378  0.419035  0.415378  1
  Ni  Ni20  1  0.857572  0.427284  0.857572  1
  Rh  Rh21  1  0.856849  0.858634  0.427669  1
  Rh  Rh22  1  0.427669  0.858634  0.856849  1
  Rh  Rh23  1  0.856849  0.858634  0.856849  1
