# generated using pymatgen
data_Mg3Ni6SnB2
_symmetry_space_group_name_H-M   'P 1'
_cell_length_a   5.11171366
_cell_length_b   5.11171291
_cell_length_c   7.49156709
_cell_angle_alpha   110.36690852
_cell_angle_beta   110.36690358
_cell_angle_gamma   59.79141421
_symmetry_Int_Tables_number   1
_chemical_formula_structural   Mg3Ni6SnB2
_chemical_formula_sum   'Mg3 Ni6 Sn1 B2'
_cell_volume   154.93825211
_cell_formula_units_Z   1
loop_
 _symmetry_equiv_pos_site_id
 _symmetry_equiv_pos_as_xyz
  1  'x, y, z'
loop_
 _atom_site_type_symbol
 _atom_site_label
 _atom_site_symmetry_multiplicity
 _atom_site_fract_x
 _atom_site_fract_y
 _atom_site_fract_z
 _atom_site_occupancy
  Mg  Mg0  1  0.357363  0.357363  0.072344  1
  Mg  Mg1  1  0.500000  0.500000  0.500001  1
  Mg  Mg2  1  0.642637  0.642637  0.927656  1
  Ni  Ni3  1  0.932375  0.932375  0.304553  1
  Ni  Ni4  1  0.933654  0.438255  0.307409  1
  Ni  Ni5  1  0.438255  0.933654  0.307409  1
  Ni  Ni6  1  0.561744  0.066345  0.692591  1
  Ni  Ni7  1  0.066345  0.561744  0.692591  1
  Ni  Ni8  1  0.067624  0.067624  0.695447  1
  Sn  Sn9  1  0.000000  0.000000  0.000000  1
  B  B10  1  0.835442  0.835442  0.500332  1
  B  B11  1  0.164557  0.164557  0.499668  1
