# generated using pymatgen
data_Li4La4PdRh3
_symmetry_space_group_name_H-M   'P 1'
_cell_length_a   4.07055200
_cell_length_b   7.25019307
_cell_length_c   8.78151729
_cell_angle_alpha   90.50484706
_cell_angle_beta   90.00000000
_cell_angle_gamma   90.00000000
_symmetry_Int_Tables_number   1
_chemical_formula_structural   Li4La4PdRh3
_chemical_formula_sum   'Li4 La4 Pd1 Rh3'
_cell_volume   259.15260609
_cell_formula_units_Z   1
loop_
 _symmetry_equiv_pos_site_id
 _symmetry_equiv_pos_as_xyz
  1  'x, y, z'
loop_
 _atom_site_type_symbol
 _atom_site_label
 _atom_site_symmetry_multiplicity
 _atom_site_fract_x
 _atom_site_fract_y
 _atom_site_fract_z
 _atom_site_occupancy
  Li  Li0  1  0.250000  0.121014  0.947982  1
  Li  Li1  1  0.250000  0.622204  0.548856  1
  Li  Li2  1  0.750000  0.877446  0.049952  1
  Li  Li3  1  0.750000  0.379154  0.450162  1
  La  La4  1  0.250000  0.045004  0.329230  1
  La  La5  1  0.250000  0.562115  0.180195  1
  La  La6  1  0.750000  0.952362  0.682899  1
  La  La7  1  0.750000  0.454937  0.814428  1
  Pd  Pd8  1  0.750000  0.256734  0.126868  1
  Rh  Rh9  1  0.250000  0.232790  0.631612  1
  Rh  Rh10  1  0.250000  0.732418  0.871437  1
  Rh  Rh11  1  0.750000  0.763822  0.366380  1
