# generated using pymatgen
data_Pm4V3GaO12
_symmetry_space_group_name_H-M   'P 1'
_cell_length_a   5.44599912
_cell_length_b   5.72011082
_cell_length_c   7.79003871
_cell_angle_alpha   90.00024025
_cell_angle_beta   90.32206071
_cell_angle_gamma   90.14857601
_symmetry_Int_Tables_number   1
_chemical_formula_structural   Pm4V3GaO12
_chemical_formula_sum   'Pm4 V3 Ga1 O12'
_cell_volume   242.66844305
_cell_formula_units_Z   1
loop_
 _symmetry_equiv_pos_site_id
 _symmetry_equiv_pos_as_xyz
  1  'x, y, z'
loop_
 _atom_site_type_symbol
 _atom_site_label
 _atom_site_symmetry_multiplicity
 _atom_site_fract_x
 _atom_site_fract_y
 _atom_site_fract_z
 _atom_site_occupancy
  Pm  Pm0  1  0.982753  0.061959  0.250015  1
  Pm  Pm1  1  0.518297  0.564091  0.247870  1
  Pm  Pm2  1  0.481702  0.435909  0.752130  1
  Pm  Pm3  1  0.017246  0.938041  0.749985  1
  V  V4  1  0.000000  0.500000  0.000000  1
  V  V5  1  0.500001  0.000000  0.499999  1
  V  V6  1  0.000000  0.500000  0.499999  1
  Ga  Ga7  1  0.500001  0.000000  0.000000  1
  O  O8  1  0.695043  0.295803  0.052183  1
  O  O9  1  0.799967  0.800334  0.051464  1
  O  O10  1  0.099431  0.469864  0.249138  1
  O  O11  1  0.400291  0.970008  0.247062  1
  O  O12  1  0.697513  0.299716  0.449501  1
  O  O13  1  0.801901  0.799698  0.448044  1
  O  O14  1  0.198099  0.200301  0.551956  1
  O  O15  1  0.302488  0.700284  0.550499  1
  O  O16  1  0.599708  0.029990  0.752938  1
  O  O17  1  0.900570  0.530136  0.750862  1
  O  O18  1  0.200033  0.199665  0.948536  1
  O  O19  1  0.304958  0.704197  0.947817  1
