# generated using pymatgen
data_Np8Si12IrPt3
_symmetry_space_group_name_H-M   'P 1'
_cell_length_a   8.17613900
_cell_length_b   8.17613955
_cell_length_c   7.95386200
_cell_angle_alpha   90.00000000
_cell_angle_beta   90.00000000
_cell_angle_gamma   119.99999374
_symmetry_Int_Tables_number   1
_chemical_formula_structural   Np8Si12IrPt3
_chemical_formula_sum   'Np8 Si12 Ir1 Pt3'
_cell_volume   460.47416835
_cell_formula_units_Z   1
loop_
 _symmetry_equiv_pos_site_id
 _symmetry_equiv_pos_as_xyz
  1  'x, y, z'
loop_
 _atom_site_type_symbol
 _atom_site_label
 _atom_site_symmetry_multiplicity
 _atom_site_fract_x
 _atom_site_fract_y
 _atom_site_fract_z
 _atom_site_occupancy
  Np  Np0  1  0.000000  0.000000  0.250551  1
  Np  Np1  1  0.000000  0.000000  0.750417  1
  Np  Np2  1  0.498910  0.501090  0.252238  1
  Np  Np3  1  0.498910  0.997820  0.252238  1
  Np  Np4  1  0.002180  0.501090  0.252238  1
  Np  Np5  1  0.496648  0.503352  0.746857  1
  Np  Np6  1  0.496648  0.993293  0.746857  1
  Np  Np7  1  0.006707  0.503352  0.746857  1
  Si  Si8  1  0.164186  0.835814  0.488813  1
  Si  Si9  1  0.164186  0.328372  0.488813  1
  Si  Si10  1  0.671628  0.835814  0.488813  1
  Si  Si11  1  0.836388  0.163612  0.513096  1
  Si  Si12  1  0.836388  0.672777  0.513096  1
  Si  Si13  1  0.327223  0.163612  0.513096  1
  Si  Si14  1  0.835348  0.164652  0.011827  1
  Si  Si15  1  0.835348  0.670696  0.011827  1
  Si  Si16  1  0.329304  0.164652  0.011827  1
  Si  Si17  1  0.163336  0.836664  0.987465  1
  Si  Si18  1  0.163336  0.326671  0.987465  1
  Si  Si19  1  0.673329  0.836664  0.987465  1
  Ir  Ir20  1  0.333333  0.666667  0.511326  1
  Pt  Pt21  1  0.666667  0.333333  0.490241  1
  Pt  Pt22  1  0.666667  0.333333  0.983576  1
  Pt  Pt23  1  0.333333  0.666667  0.012991  1
