# generated using pymatgen
data_Ho3ThZnCo
_symmetry_space_group_name_H-M   'P 1'
_cell_length_a   9.39942713
_cell_length_b   9.39942650
_cell_length_c   9.39942700
_cell_angle_alpha   60.00000175
_cell_angle_beta   60.00000397
_cell_angle_gamma   60.00000652
_symmetry_Int_Tables_number   1
_chemical_formula_structural   Ho3ThZnCo
_chemical_formula_sum   'Ho12 Th4 Zn4 Co4'
_cell_volume   587.20421315
_cell_formula_units_Z   4
loop_
 _symmetry_equiv_pos_site_id
 _symmetry_equiv_pos_as_xyz
  1  'x, y, z'
loop_
 _atom_site_type_symbol
 _atom_site_label
 _atom_site_symmetry_multiplicity
 _atom_site_fract_x
 _atom_site_fract_y
 _atom_site_fract_z
 _atom_site_occupancy
  Ho  Ho0  1  0.810152  0.189848  0.189848  1
  Ho  Ho1  1  0.189848  0.810152  0.810152  1
  Ho  Ho2  1  0.189848  0.810152  0.189848  1
  Ho  Ho3  1  0.810152  0.189848  0.810152  1
  Ho  Ho4  1  0.189848  0.189848  0.810152  1
  Ho  Ho5  1  0.810152  0.810152  0.189848  1
  Ho  Ho6  1  0.935694  0.564306  0.564306  1
  Ho  Ho7  1  0.564306  0.935694  0.935694  1
  Ho  Ho8  1  0.564306  0.935694  0.564306  1
  Ho  Ho9  1  0.935694  0.564306  0.935694  1
  Ho  Ho10  1  0.564306  0.564306  0.935694  1
  Ho  Ho11  1  0.935694  0.935694  0.564306  1
  Th  Th12  1  0.349816  0.349816  0.349816  1
  Th  Th13  1  0.349816  0.349816  0.950553  1
  Th  Th14  1  0.349816  0.950553  0.349816  1
  Th  Th15  1  0.950553  0.349816  0.349816  1
  Zn  Zn16  1  0.580152  0.580152  0.580152  1
  Zn  Zn17  1  0.580152  0.580152  0.259543  1
  Zn  Zn18  1  0.580152  0.259543  0.580152  1
  Zn  Zn19  1  0.259543  0.580152  0.580152  1
  Co  Co20  1  0.144475  0.144475  0.144475  1
  Co  Co21  1  0.144475  0.144475  0.566575  1
  Co  Co22  1  0.144475  0.566575  0.144475  1
  Co  Co23  1  0.566575  0.144475  0.144475  1
