# generated using pymatgen
data_Ho4Mn2(ReTc)3
_symmetry_space_group_name_H-M   'P 1'
_cell_length_a   5.30281250
_cell_length_b   5.30281092
_cell_length_c   8.95983300
_cell_angle_alpha   90.00000000
_cell_angle_beta   90.00000000
_cell_angle_gamma   120.05085746
_symmetry_Int_Tables_number   1
_chemical_formula_structural   Ho4Mn2(ReTc)3
_chemical_formula_sum   'Ho4 Mn2 Re3 Tc3'
_cell_volume   218.08217370
_cell_formula_units_Z   1
loop_
 _symmetry_equiv_pos_site_id
 _symmetry_equiv_pos_as_xyz
  1  'x, y, z'
loop_
 _atom_site_type_symbol
 _atom_site_label
 _atom_site_symmetry_multiplicity
 _atom_site_fract_x
 _atom_site_fract_y
 _atom_site_fract_z
 _atom_site_occupancy
  Ho  Ho0  1  0.666596  0.333404  0.563604  1
  Ho  Ho1  1  0.333398  0.666602  0.436555  1
  Ho  Ho2  1  0.333398  0.666602  0.063445  1
  Ho  Ho3  1  0.666596  0.333404  0.936396  1
  Mn  Mn4  1  0.999994  0.000006  0.499837  1
  Mn  Mn5  1  0.999994  0.000006  0.000163  1
  Re  Re6  1  0.831940  0.663759  0.250000  1
  Re  Re7  1  0.831871  0.168129  0.250000  1
  Re  Re8  1  0.336241  0.168060  0.250000  1
  Tc  Tc9  1  0.168319  0.336694  0.750000  1
  Tc  Tc10  1  0.168347  0.831653  0.750000  1
  Tc  Tc11  1  0.663306  0.831681  0.750000  1
