# generated using pymatgen
data_Y10Tl2Bi3Sb
_symmetry_space_group_name_H-M   'P 1'
_cell_length_a   9.00352000
_cell_length_b   9.00266234
_cell_length_c   6.50531600
_cell_angle_alpha   89.99992999
_cell_angle_beta   89.99994909
_cell_angle_gamma   119.92336484
_symmetry_Int_Tables_number   1
_chemical_formula_structural   Y10Tl2Bi3Sb
_chemical_formula_sum   'Y10 Tl2 Bi3 Sb1'
_cell_volume   457.00103141
_cell_formula_units_Z   1
loop_
 _symmetry_equiv_pos_site_id
 _symmetry_equiv_pos_as_xyz
  1  'x, y, z'
loop_
 _atom_site_type_symbol
 _atom_site_label
 _atom_site_symmetry_multiplicity
 _atom_site_fract_x
 _atom_site_fract_y
 _atom_site_fract_z
 _atom_site_occupancy
  Y  Y0  1  0.672383  0.333093  0.501609  1
  Y  Y1  1  0.326072  0.667324  0.501411  1
  Y  Y2  1  0.326072  0.667323  0.998587  1
  Y  Y3  1  0.672381  0.333094  0.998390  1
  Y  Y4  1  0.762589  0.759288  0.250001  1
  Y  Y5  1  0.233495  0.994897  0.250000  1
  Y  Y6  1  0.998144  0.239918  0.250000  1
  Y  Y7  1  0.236805  0.235954  0.750001  1
  Y  Y8  1  0.763666  0.006114  0.750000  1
  Y  Y9  1  0.006730  0.762381  0.750000  1
  Tl  Tl10  1  0.396926  0.002531  0.749999  1
  Tl  Tl11  1  0.001836  0.395026  0.750000  1
  Bi  Bi12  1  0.393610  0.392796  0.250003  1
  Bi  Bi13  1  0.604181  0.996843  0.249998  1
  Bi  Bi14  1  0.607509  0.608703  0.750000  1
  Sb  Sb15  1  0.997602  0.604718  0.249999  1
