# generated using pymatgen
data_Th2Ag(PO4)3
_symmetry_space_group_name_H-M   'P 1'
_cell_length_a   6.87217231
_cell_length_b   8.23488953
_cell_length_c   9.47756499
_cell_angle_alpha   100.15623745
_cell_angle_beta   111.25684703
_cell_angle_gamma   89.99999390
_symmetry_Int_Tables_number   1
_chemical_formula_structural   Th2Ag(PO4)3
_chemical_formula_sum   'Th4 Ag2 P6 O24'
_cell_volume   490.83081882
_cell_formula_units_Z   2
loop_
 _symmetry_equiv_pos_site_id
 _symmetry_equiv_pos_as_xyz
  1  'x, y, z'
loop_
 _atom_site_type_symbol
 _atom_site_label
 _atom_site_symmetry_multiplicity
 _atom_site_fract_x
 _atom_site_fract_y
 _atom_site_fract_z
 _atom_site_occupancy
  Th  Th0  1  0.056057  0.542091  0.302727  1
  Th  Th1  1  0.246670  0.042091  0.302727  1
  Th  Th2  1  0.935161  0.468645  0.689020  1
  Th  Th3  1  0.753859  0.968646  0.689021  1
  Ag  Ag4  1  0.615769  0.875842  0.051384  1
  Ag  Ag5  1  0.435616  0.375843  0.051385  1
  P  P6  1  0.774386  0.195794  0.373548  1
  P  P7  1  0.599161  0.695794  0.373548  1
  P  P8  1  0.393660  0.319084  0.614907  1
  P  P9  1  0.221247  0.819085  0.614907  1
  P  P10  1  0.899199  0.244125  0.998753  1
  P  P11  1  0.099554  0.744124  0.998753  1
  O  O12  1  0.788078  0.390937  0.055899  1
  O  O13  1  0.267822  0.890937  0.055899  1
  O  O14  1  0.114656  0.253433  0.135056  1
  O  O15  1  0.020399  0.753432  0.135056  1
  O  O16  1  0.540184  0.169063  0.272142  1
  O  O17  1  0.731959  0.669063  0.272142  1
  O  O18  1  0.904379  0.083248  0.300014  1
  O  O19  1  0.395634  0.583247  0.300014  1
  O  O20  1  0.848568  0.382958  0.399450  1
  O  O21  1  0.550883  0.882958  0.399451  1
  O  O22  1  0.178421  0.834166  0.442989  1
  O  O23  1  0.264569  0.334166  0.442990  1
  O  O24  1  0.724823  0.676807  0.543017  1
  O  O25  1  0.818192  0.176807  0.543017  1
  O  O26  1  0.444267  0.131856  0.588561  1
  O  O27  1  0.144295  0.631856  0.588562  1
  O  O28  1  0.594968  0.432165  0.681909  1
  O  O29  1  0.086942  0.932165  0.681910  1
  O  O30  1  0.259257  0.347119  0.714505  1
  O  O31  1  0.455248  0.847119  0.714506  1
  O  O32  1  0.932904  0.256580  0.846788  1
  O  O33  1  0.913884  0.756580  0.846789  1
  O  O34  1  0.776462  0.073389  0.955128  1
  O  O35  1  0.178666  0.573389  0.955128  1
