# generated using pymatgen
data_Er16MgIn3Pd3Rh
_symmetry_space_group_name_H-M   'P 1'
_cell_length_a   9.64321595
_cell_length_b   9.64367248
_cell_length_c   9.64321655
_cell_angle_alpha   59.99270672
_cell_angle_beta   59.78357197
_cell_angle_gamma   59.99271318
_symmetry_Int_Tables_number   1
_chemical_formula_structural   Er16MgIn3Pd3Rh
_chemical_formula_sum   'Er16 Mg1 In3 Pd3 Rh1'
_cell_volume   633.00649402
_cell_formula_units_Z   1
loop_
 _symmetry_equiv_pos_site_id
 _symmetry_equiv_pos_as_xyz
  1  'x, y, z'
loop_
 _atom_site_type_symbol
 _atom_site_label
 _atom_site_symmetry_multiplicity
 _atom_site_fract_x
 _atom_site_fract_y
 _atom_site_fract_z
 _atom_site_occupancy
  Er  Er0  1  0.191268  0.191360  0.808271  1
  Er  Er1  1  0.438422  0.062743  0.063770  1
  Er  Er2  1  0.433596  0.064132  0.433596  1
  Er  Er3  1  0.065091  0.435757  0.065091  1
  Er  Er4  1  0.647894  0.058174  0.647894  1
  Er  Er5  1  0.184400  0.812040  0.811995  1
  Er  Er6  1  0.063770  0.062743  0.438422  1
  Er  Er7  1  0.808271  0.191360  0.191268  1
  Er  Er8  1  0.811995  0.812040  0.184400  1
  Er  Er9  1  0.652975  0.649741  0.051689  1
  Er  Er10  1  0.648279  0.649748  0.648279  1
  Er  Er11  1  0.065687  0.434691  0.435809  1
  Er  Er12  1  0.051689  0.649741  0.652975  1
  Er  Er13  1  0.809429  0.187483  0.809429  1
  Er  Er14  1  0.435809  0.434691  0.065687  1
  Er  Er15  1  0.189659  0.812045  0.189659  1
  Mg  Mg16  1  0.422751  0.731458  0.422751  1
  In  In17  1  0.415542  0.418828  0.749499  1
  In  In18  1  0.749499  0.418828  0.415542  1
  In  In19  1  0.415502  0.417002  0.415502  1
  Pd  Pd20  1  0.856807  0.428915  0.856807  1
  Pd  Pd21  1  0.856134  0.858341  0.430510  1
  Pd  Pd22  1  0.430510  0.858341  0.856134  1
  Rh  Rh23  1  0.855023  0.859800  0.855023  1
