# generated using pymatgen
data_Sr6Cu2Sb3AsH2
_symmetry_space_group_name_H-M   'P 1'
_cell_length_a   4.61068000
_cell_length_b   12.51685700
_cell_length_c   12.90721500
_cell_angle_alpha   90.00000000
_cell_angle_beta   90.00000000
_cell_angle_gamma   90.00000000
_symmetry_Int_Tables_number   1
_chemical_formula_structural   Sr6Cu2Sb3AsH2
_chemical_formula_sum   'Sr12 Cu4 Sb6 As2 H4'
_cell_volume   744.89115327
_cell_formula_units_Z   2
loop_
 _symmetry_equiv_pos_site_id
 _symmetry_equiv_pos_as_xyz
  1  'x, y, z'
loop_
 _atom_site_type_symbol
 _atom_site_label
 _atom_site_symmetry_multiplicity
 _atom_site_fract_x
 _atom_site_fract_y
 _atom_site_fract_z
 _atom_site_occupancy
  Sr  Sr0  1  0.250000  0.059538  0.627217  1
  Sr  Sr1  1  0.250000  0.559538  0.872783  1
  Sr  Sr2  1  0.750000  0.936239  0.378320  1
  Sr  Sr3  1  0.750000  0.436239  0.121680  1
  Sr  Sr4  1  0.250000  0.210954  0.297268  1
  Sr  Sr5  1  0.250000  0.710954  0.202732  1
  Sr  Sr6  1  0.750000  0.786483  0.713175  1
  Sr  Sr7  1  0.750000  0.286483  0.786825  1
  Sr  Sr8  1  0.250000  0.381988  0.560993  1
  Sr  Sr9  1  0.250000  0.881988  0.939007  1
  Sr  Sr10  1  0.750000  0.621153  0.453313  1
  Sr  Sr11  1  0.750000  0.121153  0.046687  1
  Cu  Cu12  1  0.250000  0.137042  0.848556  1
  Cu  Cu13  1  0.250000  0.637042  0.651444  1
  Cu  Cu14  1  0.750000  0.860676  0.148061  1
  Cu  Cu15  1  0.750000  0.360676  0.351939  1
  Sb  Sb16  1  0.250000  0.306119  0.983989  1
  Sb  Sb17  1  0.250000  0.806119  0.516011  1
  Sb  Sb18  1  0.750000  0.695240  0.006615  1
  Sb  Sb19  1  0.750000  0.195240  0.493385  1
  Sb  Sb20  1  0.250000  0.475520  0.320697  1
  Sb  Sb21  1  0.250000  0.975520  0.179303  1
  As  As22  1  0.750000  0.528224  0.681455  1
  As  As23  1  0.750000  0.028224  0.818545  1
  H  H24  1  0.250000  0.224121  0.735982  1
  H  H25  1  0.250000  0.724121  0.764018  1
  H  H26  1  0.750000  0.776703  0.259562  1
  H  H27  1  0.750000  0.276703  0.240438  1
