# generated using pymatgen
data_Ho2Er6Ti11Si16Mo
_symmetry_space_group_name_H-M   'P 1'
_cell_length_a   7.01529895
_cell_length_b   7.01545319
_cell_length_c   12.88890807
_cell_angle_alpha   89.96884618
_cell_angle_beta   90.02419007
_cell_angle_gamma   90.00148745
_symmetry_Int_Tables_number   1
_chemical_formula_structural   Ho2Er6Ti11Si16Mo
_chemical_formula_sum   'Ho2 Er6 Ti11 Si16 Mo1'
_cell_volume   634.33392257
_cell_formula_units_Z   1
loop_
 _symmetry_equiv_pos_site_id
 _symmetry_equiv_pos_as_xyz
  1  'x, y, z'
loop_
 _atom_site_type_symbol
 _atom_site_label
 _atom_site_symmetry_multiplicity
 _atom_site_fract_x
 _atom_site_fract_y
 _atom_site_fract_z
 _atom_site_occupancy
  Ho  Ho0  1  0.341007  0.002747  0.466953  1
  Ho  Ho1  1  0.497496  0.840591  0.717373  1
  Er  Er2  1  0.500867  0.159187  0.215548  1
  Er  Er3  1  0.840652  0.497583  0.282663  1
  Er  Er4  1  0.159121  0.500806  0.784436  1
  Er  Er5  1  0.657473  0.999015  0.967059  1
  Er  Er6  1  0.002572  0.341134  0.533055  1
  Er  Er7  1  0.998991  0.657444  0.032956  1
  Ti  Ti8  1  0.173832  0.827493  0.249530  1
  Ti  Ti9  1  0.827545  0.173886  0.750451  1
  Ti  Ti10  1  0.673005  0.672903  0.499972  1
  Ti  Ti11  1  0.152896  0.008525  0.876096  1
  Ti  Ti12  1  0.492278  0.650915  0.124151  1
  Ti  Ti13  1  0.506925  0.349114  0.625974  1
  Ti  Ti14  1  0.650966  0.492253  0.875871  1
  Ti  Ti15  1  0.349148  0.506873  0.374016  1
  Ti  Ti16  1  0.848630  0.992791  0.375386  1
  Ti  Ti17  1  0.008478  0.152938  0.123931  1
  Ti  Ti18  1  0.992756  0.848635  0.624607  1
  Si  Si19  1  0.202735  0.131394  0.683771  1
  Si  Si20  1  0.369211  0.702015  0.933699  1
  Si  Si21  1  0.631424  0.296935  0.433572  1
  Si  Si22  1  0.702057  0.369211  0.066344  1
  Si  Si23  1  0.296768  0.631141  0.566375  1
  Si  Si24  1  0.796992  0.868715  0.183704  1
  Si  Si25  1  0.131214  0.202914  0.316200  1
  Si  Si26  1  0.868834  0.796973  0.816326  1
  Si  Si27  1  0.290974  0.953417  0.064644  1
  Si  Si28  1  0.546541  0.791748  0.314702  1
  Si  Si29  1  0.452642  0.208410  0.815248  1
  Si  Si30  1  0.791894  0.546374  0.685247  1
  Si  Si31  1  0.208283  0.452648  0.184788  1
  Si  Si32  1  0.708722  0.047220  0.564724  1
  Si  Si33  1  0.953412  0.290981  0.935362  1
  Si  Si34  1  0.047041  0.708435  0.435251  1
  Mo  Mo35  1  0.326621  0.326639  0.000016  1
