# generated using pymatgen
data_Er5Nb3(ReB6)4
_symmetry_space_group_name_H-M   'P 1'
_cell_length_a   3.57775900
_cell_length_b   8.97374945
_cell_length_c   11.34454750
_cell_angle_alpha   89.91267466
_cell_angle_beta   90.00000000
_cell_angle_gamma   90.00000000
_symmetry_Int_Tables_number   1
_chemical_formula_structural   Er5Nb3(ReB6)4
_chemical_formula_sum   'Er5 Nb3 Re4 B24'
_cell_volume   364.22663032
_cell_formula_units_Z   1
loop_
 _symmetry_equiv_pos_site_id
 _symmetry_equiv_pos_as_xyz
  1  'x, y, z'
loop_
 _atom_site_type_symbol
 _atom_site_label
 _atom_site_symmetry_multiplicity
 _atom_site_fract_x
 _atom_site_fract_y
 _atom_site_fract_z
 _atom_site_occupancy
  Er  Er0  1  0.000000  0.322219  0.414085  1
  Er  Er1  1  0.000000  0.676703  0.587636  1
  Er  Er2  1  0.000000  0.822318  0.085829  1
  Er  Er3  1  0.000000  0.177430  0.912234  1
  Er  Er4  1  0.000000  0.945457  0.374008  1
  Nb  Nb5  1  0.000000  0.055390  0.628339  1
  Nb  Nb6  1  0.000000  0.445621  0.123516  1
  Nb  Nb7  1  0.000000  0.555520  0.875723  1
  Re  Re8  1  0.000000  0.634852  0.314734  1
  Re  Re9  1  0.000000  0.358342  0.684201  1
  Re  Re10  1  0.000000  0.147854  0.177643  1
  Re  Re11  1  0.000000  0.856927  0.820274  1
  B  B12  1  0.500000  0.550962  0.433567  1
  B  B13  1  0.500000  0.444778  0.566985  1
  B  B14  1  0.500000  0.055194  0.065243  1
  B  B15  1  0.500000  0.946074  0.933766  1
  B  B16  1  0.500000  0.748346  0.417793  1
  B  B17  1  0.500000  0.245890  0.583525  1
  B  B18  1  0.500000  0.255347  0.079497  1
  B  B19  1  0.500000  0.745968  0.918819  1
  B  B20  1  0.500000  0.793444  0.262657  1
  B  B21  1  0.500000  0.203987  0.738429  1
  B  B22  1  0.500000  0.297200  0.234419  1
  B  B23  1  0.500000  0.703548  0.763193  1
  B  B24  1  0.500000  0.628575  0.181384  1
  B  B25  1  0.500000  0.371170  0.818703  1
  B  B26  1  0.500000  0.133494  0.315480  1
  B  B27  1  0.500000  0.870741  0.682830  1
  B  B28  1  0.500000  0.984100  0.211157  1
  B  B29  1  0.500000  0.018726  0.787938  1
  B  B30  1  0.500000  0.479508  0.285857  1
  B  B31  1  0.500000  0.519564  0.713203  1
  B  B32  1  0.500000  0.599626  0.025660  1
  B  B33  1  0.500000  0.401904  0.972623  1
  B  B34  1  0.500000  0.102446  0.477703  1
  B  B35  1  0.500000  0.900774  0.531345  1
