# generated using pymatgen
data_Al10SiTc4
_symmetry_space_group_name_H-M   'P 1'
_cell_length_a   5.17268093
_cell_length_b   5.17393629
_cell_length_c   8.94055076
_cell_angle_alpha   104.44462650
_cell_angle_beta   89.77500016
_cell_angle_gamma   101.04382736
_symmetry_Int_Tables_number   1
_chemical_formula_structural   Al10SiTc4
_chemical_formula_sum   'Al10 Si1 Tc4'
_cell_volume   227.17995214
_cell_formula_units_Z   1
loop_
 _symmetry_equiv_pos_site_id
 _symmetry_equiv_pos_as_xyz
  1  'x, y, z'
loop_
 _atom_site_type_symbol
 _atom_site_label
 _atom_site_symmetry_multiplicity
 _atom_site_fract_x
 _atom_site_fract_y
 _atom_site_fract_z
 _atom_site_occupancy
  Al  Al0  1  0.008343  0.003420  0.996227  1
  Al  Al1  1  0.052005  0.192491  0.329245  1
  Al  Al2  1  0.808461  0.269725  0.633072  1
  Al  Al3  1  0.853756  0.532298  0.130161  1
  Al  Al4  1  0.155617  0.471605  0.874246  1
  Al  Al5  1  0.505280  0.900679  0.125864  1
  Al  Al6  1  0.508548  0.105496  0.872648  1
  Al  Al7  1  0.562028  0.314142  0.378240  1
  Al  Al8  1  0.411265  0.670084  0.625512  1
  Al  Al9  1  0.204806  0.741343  0.363045  1
  Si  Si10  1  0.919082  0.811227  0.663484  1
  Tc  Tc11  1  0.272905  0.139970  0.606273  1
  Tc  Tc12  1  0.723709  0.840184  0.405860  1
  Tc  Tc13  1  0.671182  0.618235  0.862590  1
  Tc  Tc14  1  0.343013  0.389101  0.133533  1
