# generated using pymatgen
data_Dy2HoMg3Si2Ag
_symmetry_space_group_name_H-M   'P 1'
_cell_length_a   7.24633255
_cell_length_b   7.24633152
_cell_length_c   4.31431600
_cell_angle_alpha   90.00000000
_cell_angle_beta   90.00000000
_cell_angle_gamma   119.92500863
_symmetry_Int_Tables_number   1
_chemical_formula_structural   Dy2HoMg3Si2Ag
_chemical_formula_sum   'Dy2 Ho1 Mg3 Si2 Ag1'
_cell_volume   196.33906913
_cell_formula_units_Z   1
loop_
 _symmetry_equiv_pos_site_id
 _symmetry_equiv_pos_as_xyz
  1  'x, y, z'
loop_
 _atom_site_type_symbol
 _atom_site_label
 _atom_site_symmetry_multiplicity
 _atom_site_fract_x
 _atom_site_fract_y
 _atom_site_fract_z
 _atom_site_occupancy
  Dy  Dy0  1  0.577992  0.999790  0.000000  1
  Dy  Dy1  1  0.999790  0.577992  0.000000  1
  Ho  Ho2  1  0.421849  0.421849  0.000000  1
  Mg  Mg3  1  0.249255  0.000188  0.500000  1
  Mg  Mg4  1  0.000188  0.249255  0.500000  1
  Mg  Mg5  1  0.750570  0.750570  0.500000  1
  Si  Si6  1  0.333478  0.666470  0.500000  1
  Si  Si7  1  0.666470  0.333478  0.500000  1
  Ag  Ag8  1  0.000408  0.000408  0.000000  1
