# generated using pymatgen
data_Sr3Ho(Al3Pt)6
_symmetry_space_group_name_H-M   'P 1'
_cell_length_a   7.69210621
_cell_length_b   7.69402112
_cell_length_c   9.61510800
_cell_angle_alpha   90.00000000
_cell_angle_beta   90.00000000
_cell_angle_gamma   119.57738259
_symmetry_Int_Tables_number   1
_chemical_formula_structural   Sr3Ho(Al3Pt)6
_chemical_formula_sum   'Sr3 Ho1 Al18 Pt6'
_cell_volume   494.89972428
_cell_formula_units_Z   1
loop_
 _symmetry_equiv_pos_site_id
 _symmetry_equiv_pos_as_xyz
  1  'x, y, z'
loop_
 _atom_site_type_symbol
 _atom_site_label
 _atom_site_symmetry_multiplicity
 _atom_site_fract_x
 _atom_site_fract_y
 _atom_site_fract_z
 _atom_site_occupancy
  Sr  Sr0  1  0.994543  0.669308  0.250000  1
  Sr  Sr1  1  0.003685  0.330462  0.750000  1
  Sr  Sr2  1  0.670994  0.995961  0.250000  1
  Ho  Ho3  1  0.329800  0.002757  0.750000  1
  Al  Al4  1  0.136043  0.134700  0.250000  1
  Al  Al5  1  0.871358  0.867155  0.750000  1
  Al  Al6  1  0.003351  0.334891  0.072737  1
  Al  Al7  1  0.000169  0.667501  0.922205  1
  Al  Al8  1  0.000169  0.667501  0.577795  1
  Al  Al9  1  0.334525  0.002137  0.429310  1
  Al  Al10  1  0.003351  0.334891  0.427263  1
  Al  Al11  1  0.663191  0.998310  0.577695  1
  Al  Al12  1  0.663191  0.998310  0.922305  1
  Al  Al13  1  0.334525  0.002137  0.070690  1
  Al  Al14  1  0.333935  0.331724  0.558173  1
  Al  Al15  1  0.664668  0.664819  0.450941  1
  Al  Al16  1  0.664668  0.664819  0.049059  1
  Al  Al17  1  0.333935  0.331724  0.941827  1
  Al  Al18  1  0.340816  0.543536  0.250000  1
  Al  Al19  1  0.653240  0.451548  0.750000  1
  Al  Al20  1  0.541349  0.339616  0.250000  1
  Al  Al21  1  0.457887  0.665766  0.750000  1
  Pt  Pt22  1  0.669633  0.328125  0.998235  1
  Pt  Pt23  1  0.329001  0.671563  0.997896  1
  Pt  Pt24  1  0.329001  0.671563  0.502104  1
  Pt  Pt25  1  0.669633  0.328125  0.501765  1
  Pt  Pt26  1  0.001671  0.000525  0.997920  1
  Pt  Pt27  1  0.001671  0.000525  0.502080  1
