# generated using pymatgen
data_Gd10InSi4Hg
_symmetry_space_group_name_H-M   'P 1'
_cell_length_a   7.68087300
_cell_length_b   9.11322291
_cell_length_c   7.68087300
_cell_angle_alpha   114.92387260
_cell_angle_beta   90.00000000
_cell_angle_gamma   114.92387260
_symmetry_Int_Tables_number   1
_chemical_formula_structural   Gd10InSi4Hg
_chemical_formula_sum   'Gd10 In1 Si4 Hg1'
_cell_volume   431.73051195
_cell_formula_units_Z   1
loop_
 _symmetry_equiv_pos_site_id
 _symmetry_equiv_pos_as_xyz
  1  'x, y, z'
loop_
 _atom_site_type_symbol
 _atom_site_label
 _atom_site_symmetry_multiplicity
 _atom_site_fract_x
 _atom_site_fract_y
 _atom_site_fract_z
 _atom_site_occupancy
  Gd  Gd0  1  0.981189  0.962377  0.981189  1
  Gd  Gd1  1  0.518811  0.037623  0.518811  1
  Gd  Gd2  1  0.525569  0.723565  0.681156  1
  Gd  Gd3  1  0.197998  0.723565  0.042410  1
  Gd  Gd4  1  0.681156  0.723565  0.197998  1
  Gd  Gd5  1  0.042410  0.723565  0.525569  1
  Gd  Gd6  1  0.457590  0.276435  0.302002  1
  Gd  Gd7  1  0.818844  0.276435  0.974431  1
  Gd  Gd8  1  0.302002  0.276435  0.818844  1
  Gd  Gd9  1  0.974431  0.276435  0.457590  1
  In  In10  1  0.750000  0.500000  0.750000  1
  Si  Si11  1  0.877941  0.000000  0.622059  1
  Si  Si12  1  0.122059  0.000000  0.377941  1
  Si  Si13  1  0.622059  0.000000  0.122059  1
  Si  Si14  1  0.377941  0.000000  0.877941  1
  Hg  Hg15  1  0.250000  0.500000  0.250000  1
