# generated using pymatgen
data_K3Al2P3
_symmetry_space_group_name_H-M   'P 1'
_cell_length_a   5.89981100
_cell_length_b   7.42919844
_cell_length_c   10.27589413
_cell_angle_alpha   69.80236350
_cell_angle_beta   90.00000000
_cell_angle_gamma   90.00000000
_symmetry_Int_Tables_number   1
_chemical_formula_structural   K3Al2P3
_chemical_formula_sum   'K6 Al4 P6'
_cell_volume   422.70493515
_cell_formula_units_Z   2
loop_
 _symmetry_equiv_pos_site_id
 _symmetry_equiv_pos_as_xyz
  1  'x, y, z'
loop_
 _atom_site_type_symbol
 _atom_site_label
 _atom_site_symmetry_multiplicity
 _atom_site_fract_x
 _atom_site_fract_y
 _atom_site_fract_z
 _atom_site_occupancy
  K  K0  1  0.250000  0.435637  0.426749  1
  K  K1  1  0.750000  0.128413  0.922967  1
  K  K2  1  0.750000  0.478263  0.148555  1
  K  K3  1  0.250000  0.521737  0.851445  1
  K  K4  1  0.750000  0.564363  0.573251  1
  K  K5  1  0.250000  0.871587  0.077033  1
  Al  Al6  1  0.999759  0.027678  0.342864  1
  Al  Al7  1  0.499759  0.972322  0.657136  1
  Al  Al8  1  0.500241  0.027678  0.342864  1
  Al  Al9  1  0.000241  0.972322  0.657136  1
  P  P10  1  0.250000  0.819546  0.528570  1
  P  P11  1  0.750000  0.180454  0.471430  1
  P  P12  1  0.250000  0.248472  0.185537  1
  P  P13  1  0.750000  0.751528  0.814463  1
  P  P14  1  0.250000  0.149180  0.746651  1
  P  P15  1  0.750000  0.850820  0.253349  1
