# generated using pymatgen
data_Hf2Mg4Ta3(NbN4)3
_symmetry_space_group_name_H-M   'P 1'
_cell_length_a   5.29756000
_cell_length_b   5.29788056
_cell_length_c   10.58239300
_cell_angle_alpha   90.00000000
_cell_angle_beta   90.00000000
_cell_angle_gamma   120.00209060
_symmetry_Int_Tables_number   1
_chemical_formula_structural   Hf2Mg4Ta3(NbN4)3
_chemical_formula_sum   'Hf2 Mg4 Ta3 Nb3 N12'
_cell_volume   257.20737404
_cell_formula_units_Z   1
loop_
 _symmetry_equiv_pos_site_id
 _symmetry_equiv_pos_as_xyz
  1  'x, y, z'
loop_
 _atom_site_type_symbol
 _atom_site_label
 _atom_site_symmetry_multiplicity
 _atom_site_fract_x
 _atom_site_fract_y
 _atom_site_fract_z
 _atom_site_occupancy
  Hf  Hf0  1  0.000000  0.001933  0.500142  1
  Hf  Hf1  1  0.000000  0.001933  0.999858  1
  Mg  Mg2  1  0.333315  0.666208  0.999802  1
  Mg  Mg3  1  0.333315  0.666208  0.500198  1
  Mg  Mg4  1  0.666685  0.332894  0.500198  1
  Mg  Mg5  1  0.666685  0.332894  0.999802  1
  Ta  Ta6  1  0.659756  0.659123  0.250000  1
  Ta  Ta7  1  0.340243  0.999366  0.250000  1
  Ta  Ta8  1  0.000000  0.659758  0.750000  1
  Nb  Nb9  1  0.000000  0.340123  0.250000  1
  Nb  Nb10  1  0.659830  0.999405  0.750000  1
  Nb  Nb11  1  0.340170  0.339574  0.750000  1
  N  N12  1  0.672605  0.668107  0.623606  1
  N  N13  1  0.672605  0.668107  0.876394  1
  N  N14  1  0.336791  0.332177  0.124029  1
  N  N15  1  0.336791  0.332177  0.375971  1
  N  N16  1  0.327395  0.995502  0.876394  1
  N  N17  1  0.327395  0.995502  0.623606  1
  N  N18  1  0.000000  0.672577  0.375495  1
  N  N19  1  0.000000  0.672577  0.124505  1
  N  N20  1  0.663209  0.995386  0.124029  1
  N  N21  1  0.663209  0.995386  0.375971  1
  N  N22  1  0.000000  0.336541  0.876891  1
  N  N23  1  0.000000  0.336541  0.623109  1
