# generated using pymatgen
data_Tb2V3As7Rh9
_symmetry_space_group_name_H-M   'P 1'
_cell_length_a   3.93478400
_cell_length_b   9.92047102
_cell_length_c   9.92095637
_cell_angle_alpha   120.00046376
_cell_angle_beta   89.99980857
_cell_angle_gamma   90.00016895
_symmetry_Int_Tables_number   1
_chemical_formula_structural   Tb2V3As7Rh9
_chemical_formula_sum   'Tb2 V3 As7 Rh9'
_cell_volume   335.37858777
_cell_formula_units_Z   1
loop_
 _symmetry_equiv_pos_site_id
 _symmetry_equiv_pos_as_xyz
  1  'x, y, z'
loop_
 _atom_site_type_symbol
 _atom_site_label
 _atom_site_symmetry_multiplicity
 _atom_site_fract_x
 _atom_site_fract_y
 _atom_site_fract_z
 _atom_site_occupancy
  Tb  Tb0  1  0.261841  0.666651  0.333352  1
  Tb  Tb1  1  0.761827  0.333346  0.666602  1
  V  V2  1  0.762104  0.096990  0.878888  1
  V  V3  1  0.762111  0.121269  0.218226  1
  V  V4  1  0.762109  0.781815  0.902991  1
  As  As5  1  0.262635  0.999934  0.999983  1
  As  As6  1  0.761753  0.881926  0.591624  1
  As  As7  1  0.761760  0.408447  0.290225  1
  As  As8  1  0.761750  0.709686  0.118203  1
  As  As9  1  0.261815  0.118068  0.412192  1
  As  As10  1  0.261816  0.587830  0.705931  1
  As  As11  1  0.261821  0.293993  0.881841  1
  Rh  Rh12  1  0.261852  0.881967  0.157288  1
  Rh  Rh13  1  0.261837  0.842803  0.724748  1
  Rh  Rh14  1  0.261850  0.275383  0.118138  1
  Rh  Rh15  1  0.761843  0.615140  0.563130  1
  Rh  Rh16  1  0.761845  0.436682  0.051850  1
  Rh  Rh17  1  0.761852  0.948057  0.384904  1
  Rh  Rh18  1  0.261856  0.370701  0.436635  1
  Rh  Rh19  1  0.261859  0.563338  0.933967  1
  Rh  Rh20  1  0.261864  0.065973  0.629281  1
