# generated using pymatgen
data_Ta12Ga7Co5C4
_symmetry_space_group_name_H-M   'P 1'
_cell_length_a   8.14719270
_cell_length_b   8.14719351
_cell_length_c   8.14719299
_cell_angle_alpha   60.23625219
_cell_angle_beta   60.23624766
_cell_angle_gamma   60.23624913
_symmetry_Int_Tables_number   1
_chemical_formula_structural   Ta12Ga7Co5C4
_chemical_formula_sum   'Ta12 Ga7 Co5 C4'
_cell_volume   384.43736296
_cell_formula_units_Z   1
loop_
 _symmetry_equiv_pos_site_id
 _symmetry_equiv_pos_as_xyz
  1  'x, y, z'
loop_
 _atom_site_type_symbol
 _atom_site_label
 _atom_site_symmetry_multiplicity
 _atom_site_fract_x
 _atom_site_fract_y
 _atom_site_fract_z
 _atom_site_occupancy
  Ta  Ta0  1  0.191353  0.808648  0.191353  1
  Ta  Ta1  1  0.808614  0.186738  0.808614  1
  Ta  Ta2  1  0.052906  0.449237  0.052906  1
  Ta  Ta3  1  0.059097  0.440840  0.440840  1
  Ta  Ta4  1  0.449237  0.052906  0.052906  1
  Ta  Ta5  1  0.440840  0.059097  0.440840  1
  Ta  Ta6  1  0.808614  0.808614  0.186738  1
  Ta  Ta7  1  0.052906  0.052906  0.449237  1
  Ta  Ta8  1  0.191353  0.191353  0.808648  1
  Ta  Ta9  1  0.186738  0.808614  0.808614  1
  Ta  Ta10  1  0.440840  0.440840  0.059097  1
  Ta  Ta11  1  0.808648  0.191353  0.191353  1
  Ga  Ga12  1  0.833357  0.833357  0.505732  1
  Ga  Ga13  1  0.505732  0.833357  0.833357  1
  Ga  Ga14  1  0.416378  0.751242  0.416378  1
  Ga  Ga15  1  0.751242  0.416378  0.416378  1
  Ga  Ga16  1  0.416039  0.416039  0.416039  1
  Ga  Ga17  1  0.416378  0.416378  0.751242  1
  Ga  Ga18  1  0.833357  0.505732  0.833357  1
  Co  Co19  1  0.625022  0.625022  0.625022  1
  Co  Co20  1  0.127331  0.622724  0.622724  1
  Co  Co21  1  0.622724  0.622724  0.127331  1
  Co  Co22  1  0.622724  0.127331  0.622724  1
  Co  Co23  1  0.837994  0.837994  0.837994  1
  C  C24  1  0.126085  0.126085  0.126085  1
  C  C25  1  0.124502  0.124502  0.625483  1
  C  C26  1  0.625483  0.124502  0.124502  1
  C  C27  1  0.124502  0.625483  0.124502  1
