# generated using pymatgen
data_Nd3In2SnPt3
_symmetry_space_group_name_H-M   'P 1'
_cell_length_a   7.74561200
_cell_length_b   7.75288833
_cell_length_c   4.04978500
_cell_angle_alpha   90.00000000
_cell_angle_beta   90.00000000
_cell_angle_gamma   119.96894997
_symmetry_Int_Tables_number   1
_chemical_formula_structural   Nd3In2SnPt3
_chemical_formula_sum   'Nd3 In2 Sn1 Pt3'
_cell_volume   210.67726076
_cell_formula_units_Z   1
loop_
 _symmetry_equiv_pos_site_id
 _symmetry_equiv_pos_as_xyz
  1  'x, y, z'
loop_
 _atom_site_type_symbol
 _atom_site_label
 _atom_site_symmetry_multiplicity
 _atom_site_fract_x
 _atom_site_fract_y
 _atom_site_fract_z
 _atom_site_occupancy
  Nd  Nd0  1  0.590084  0.588797  0.000000  1
  Nd  Nd1  1  0.408543  0.000000  0.000000  1
  Nd  Nd2  1  0.001287  0.411203  0.000000  1
  In  In3  1  0.000222  0.745595  0.500000  1
  In  In4  1  0.254627  0.254405  0.500000  1
  Sn  Sn5  1  0.747560  0.000000  0.500000  1
  Pt  Pt6  1  0.997593  0.000000  0.000000  1
  Pt  Pt7  1  0.333821  0.667559  0.500000  1
  Pt  Pt8  1  0.666263  0.332441  0.500000  1
