# generated using pymatgen
data_Tb5P12Ru15Rh4
_symmetry_space_group_name_H-M   'P 1'
_cell_length_a   3.98034800
_cell_length_b   12.55153986
_cell_length_c   12.56595689
_cell_angle_alpha   119.76297985
_cell_angle_beta   90.00000000
_cell_angle_gamma   90.00000000
_symmetry_Int_Tables_number   1
_chemical_formula_structural   Tb5P12Ru15Rh4
_chemical_formula_sum   'Tb5 P12 Ru15 Rh4'
_cell_volume   544.97497602
_cell_formula_units_Z   1
loop_
 _symmetry_equiv_pos_site_id
 _symmetry_equiv_pos_as_xyz
  1  'x, y, z'
loop_
 _atom_site_type_symbol
 _atom_site_label
 _atom_site_symmetry_multiplicity
 _atom_site_fract_x
 _atom_site_fract_y
 _atom_site_fract_z
 _atom_site_occupancy
  Tb  Tb0  1  0.500000  0.998825  0.181479  1
  Tb  Tb1  1  0.500000  0.182926  0.998621  1
  Tb  Tb2  1  0.500000  0.816995  0.816714  1
  Tb  Tb3  1  0.000000  0.333861  0.667348  1
  Tb  Tb4  1  0.000000  0.666350  0.333188  1
  P  P5  1  0.000000  0.999483  0.813812  1
  P  P6  1  0.000000  0.814179  0.999809  1
  P  P7  1  0.000000  0.184989  0.182367  1
  P  P8  1  0.500000  0.308237  0.481370  1
  P  P9  1  0.500000  0.176159  0.696687  1
  P  P10  1  0.500000  0.521822  0.825599  1
  P  P11  1  0.500000  0.824294  0.521160  1
  P  P12  1  0.500000  0.478220  0.303406  1
  P  P13  1  0.500000  0.696808  0.176072  1
  P  P14  1  0.000000  0.996434  0.369553  1
  P  P15  1  0.000000  0.369972  0.000101  1
  P  P16  1  0.000000  0.629714  0.629795  1
  Ru  Ru17  1  0.500000  0.999973  0.713719  1
  Ru  Ru18  1  0.500000  0.714249  0.000378  1
  Ru  Ru19  1  0.500000  0.284117  0.286347  1
  Ru  Ru20  1  0.000000  0.185219  0.807025  1
  Ru  Ru21  1  0.000000  0.622661  0.815197  1
  Ru  Ru22  1  0.000000  0.814467  0.621191  1
  Ru  Ru23  1  0.000000  0.377509  0.193506  1
  Ru  Ru24  1  0.000000  0.806705  0.184706  1
  Ru  Ru25  1  0.500000  0.127447  0.492194  1
  Ru  Ru26  1  0.500000  0.367895  0.875623  1
  Ru  Ru27  1  0.500000  0.509613  0.634297  1
  Ru  Ru28  1  0.500000  0.631585  0.506950  1
  Ru  Ru29  1  0.500000  0.492247  0.125154  1
  Ru  Ru30  1  0.500000  0.876394  0.368131  1
  Ru  Ru31  1  0.000000  0.999922  0.999803  1
  Rh  Rh32  1  0.000000  0.002476  0.554107  1
  Rh  Rh33  1  0.000000  0.552965  0.000349  1
  Rh  Rh34  1  0.000000  0.445719  0.448735  1
  Rh  Rh35  1  0.000000  0.189467  0.375510  1
