# generated using pymatgen
data_TbTmLu2(NiAs)4
_symmetry_space_group_name_H-M   'P 1'
_cell_length_a   4.01050900
_cell_length_b   4.01050816
_cell_length_c   15.24736200
_cell_angle_alpha   90.00000000
_cell_angle_beta   90.00000000
_cell_angle_gamma   119.99999864
_symmetry_Int_Tables_number   1
_chemical_formula_structural   TbTmLu2(NiAs)4
_chemical_formula_sum   'Tb1 Tm1 Lu2 Ni4 As4'
_cell_volume   212.38519965
_cell_formula_units_Z   1
loop_
 _symmetry_equiv_pos_site_id
 _symmetry_equiv_pos_as_xyz
  1  'x, y, z'
loop_
 _atom_site_type_symbol
 _atom_site_label
 _atom_site_symmetry_multiplicity
 _atom_site_fract_x
 _atom_site_fract_y
 _atom_site_fract_z
 _atom_site_occupancy
  Tb  Tb0  1  0.000000  0.000000  0.000000  1
  Tm  Tm1  1  0.000000  0.000000  0.500000  1
  Lu  Lu2  1  0.000000  0.000000  0.252219  1
  Lu  Lu3  1  0.000000  0.000000  0.747781  1
  Ni  Ni4  1  0.333333  0.666667  0.141477  1
  Ni  Ni5  1  0.666667  0.333333  0.858523  1
  Ni  Ni6  1  0.666667  0.333333  0.636520  1
  Ni  Ni7  1  0.333333  0.666667  0.363480  1
  As  As8  1  0.333333  0.666667  0.618862  1
  As  As9  1  0.666667  0.333333  0.381138  1
  As  As10  1  0.666667  0.333333  0.123075  1
  As  As11  1  0.333333  0.666667  0.876925  1
