# generated using pymatgen
data_Cs4KRb15(SiAs3)4
_symmetry_space_group_name_H-M   'P 1'
_cell_length_a   5.58547800
_cell_length_b   15.07220358
_cell_length_c   16.47428132
_cell_angle_alpha   90.04609685
_cell_angle_beta   90.00000000
_cell_angle_gamma   90.00000000
_symmetry_Int_Tables_number   1
_chemical_formula_structural   Cs4KRb15(SiAs3)4
_chemical_formula_sum   'Cs4 K1 Rb15 Si4 As12'
_cell_volume   1386.89452752
_cell_formula_units_Z   1
loop_
 _symmetry_equiv_pos_site_id
 _symmetry_equiv_pos_as_xyz
  1  'x, y, z'
loop_
 _atom_site_type_symbol
 _atom_site_label
 _atom_site_symmetry_multiplicity
 _atom_site_fract_x
 _atom_site_fract_y
 _atom_site_fract_z
 _atom_site_occupancy
  Cs  Cs0  1  0.250000  0.127780  0.521175  1
  Cs  Cs1  1  0.750000  0.871959  0.478635  1
  Cs  Cs2  1  0.750000  0.627615  0.976203  1
  Cs  Cs3  1  0.250000  0.373689  0.021170  1
  K  K4  1  0.250000  0.550078  0.790983  1
  Rb  Rb5  1  0.250000  0.425944  0.566351  1
  Rb  Rb6  1  0.750000  0.575189  0.434801  1
  Rb  Rb7  1  0.750000  0.924307  0.933942  1
  Rb  Rb8  1  0.250000  0.074844  0.065996  1
  Rb  Rb9  1  0.250000  0.817304  0.084301  1
  Rb  Rb10  1  0.750000  0.182772  0.914818  1
  Rb  Rb11  1  0.750000  0.318140  0.415089  1
  Rb  Rb12  1  0.250000  0.682576  0.586062  1
  Rb  Rb13  1  0.250000  0.232885  0.261839  1
  Rb  Rb14  1  0.750000  0.766347  0.738439  1
  Rb  Rb15  1  0.750000  0.732530  0.238112  1
  Rb  Rb16  1  0.250000  0.267816  0.762745  1
  Rb  Rb17  1  0.250000  0.946796  0.295200  1
  Rb  Rb18  1  0.750000  0.052655  0.704909  1
  Rb  Rb19  1  0.750000  0.447082  0.204901  1
  Si  Si20  1  0.250000  0.586975  0.289409  1
  Si  Si21  1  0.750000  0.414413  0.711958  1
  Si  Si22  1  0.750000  0.086816  0.210968  1
  Si  Si23  1  0.250000  0.911756  0.788351  1
  As  As24  1  0.250000  0.593540  0.147685  1
  As  As25  1  0.750000  0.409298  0.853697  1
  As  As26  1  0.750000  0.093744  0.352880  1
  As  As27  1  0.250000  0.906612  0.646583  1
  As  As28  1  0.250000  0.448804  0.351415  1
  As  As29  1  0.750000  0.552668  0.650916  1
  As  As30  1  0.750000  0.948585  0.149062  1
  As  As31  1  0.250000  0.049743  0.851226  1
  As  As32  1  0.250000  0.714835  0.370373  1
  As  As33  1  0.750000  0.286342  0.631371  1
  As  As34  1  0.750000  0.214687  0.130229  1
  As  As35  1  0.250000  0.782874  0.868209  1
