# generated using pymatgen
data_Dy5B(WC3)2
_symmetry_space_group_name_H-M   'P 1'
_cell_length_a   8.44641034
_cell_length_b   8.44641051
_cell_length_c   3.43114200
_cell_angle_alpha   90.00000000
_cell_angle_beta   90.00000000
_cell_angle_gamma   122.69882816
_symmetry_Int_Tables_number   1
_chemical_formula_structural   Dy5B(WC3)2
_chemical_formula_sum   'Dy5 B1 W2 C6'
_cell_volume   205.99109232
_cell_formula_units_Z   1
loop_
 _symmetry_equiv_pos_site_id
 _symmetry_equiv_pos_as_xyz
  1  'x, y, z'
loop_
 _atom_site_type_symbol
 _atom_site_label
 _atom_site_symmetry_multiplicity
 _atom_site_fract_x
 _atom_site_fract_y
 _atom_site_fract_z
 _atom_site_occupancy
  Dy  Dy0  1  0.500000  0.500000  0.000000  1
  Dy  Dy1  1  0.076147  0.326107  0.500000  1
  Dy  Dy2  1  0.923853  0.673893  0.500000  1
  Dy  Dy3  1  0.673893  0.923853  0.500000  1
  Dy  Dy4  1  0.326107  0.076147  0.500000  1
  B  B5  1  0.000000  0.000000  0.000000  1
  W  W6  1  0.712644  0.287356  0.000000  1
  W  W7  1  0.287356  0.712644  0.000000  1
  C  C8  1  0.628108  0.371892  0.500000  1
  C  C9  1  0.371892  0.628108  0.500000  1
  C  C10  1  0.182195  0.182195  0.000000  1
  C  C11  1  0.817805  0.817805  0.000000  1
  C  C12  1  0.000000  0.500000  0.000000  1
  C  C13  1  0.500000  0.000000  0.000000  1
