# generated using pymatgen
data_Sr3Li7AgSn4
_symmetry_space_group_name_H-M   'P 1'
_cell_length_a   9.82534100
_cell_length_b   9.82534183
_cell_length_c   8.35935300
_cell_angle_alpha   90.00000000
_cell_angle_beta   90.00000000
_cell_angle_gamma   120.00000730
_symmetry_Int_Tables_number   1
_chemical_formula_structural   Sr3Li7AgSn4
_chemical_formula_sum   'Sr6 Li14 Ag2 Sn8'
_cell_volume   698.87348777
_cell_formula_units_Z   2
loop_
 _symmetry_equiv_pos_site_id
 _symmetry_equiv_pos_as_xyz
  1  'x, y, z'
loop_
 _atom_site_type_symbol
 _atom_site_label
 _atom_site_symmetry_multiplicity
 _atom_site_fract_x
 _atom_site_fract_y
 _atom_site_fract_z
 _atom_site_occupancy
  Sr  Sr0  1  0.477956  0.955910  0.505798  1
  Sr  Sr1  1  0.044090  0.522044  0.505798  1
  Sr  Sr2  1  0.477956  0.522044  0.505798  1
  Sr  Sr3  1  0.522044  0.044090  0.005798  1
  Sr  Sr4  1  0.955910  0.477956  0.005798  1
  Sr  Sr5  1  0.522044  0.477956  0.005798  1
  Li  Li6  1  0.835841  0.671683  0.659467  1
  Li  Li7  1  0.328317  0.164159  0.659467  1
  Li  Li8  1  0.835841  0.164159  0.659467  1
  Li  Li9  1  0.164159  0.328317  0.159467  1
  Li  Li10  1  0.671683  0.835841  0.159467  1
  Li  Li11  1  0.164159  0.835841  0.159467  1
  Li  Li12  1  0.895410  0.790820  0.970352  1
  Li  Li13  1  0.209180  0.104590  0.970352  1
  Li  Li14  1  0.895410  0.104590  0.970352  1
  Li  Li15  1  0.104590  0.209180  0.470352  1
  Li  Li16  1  0.790820  0.895410  0.470352  1
  Li  Li17  1  0.104590  0.895410  0.470352  1
  Li  Li18  1  0.666667  0.333333  0.367044  1
  Li  Li19  1  0.333333  0.666667  0.867044  1
  Ag  Ag20  1  0.000000  0.000000  0.229728  1
  Ag  Ag21  1  0.000000  0.000000  0.729728  1
  Sn  Sn22  1  0.834024  0.668046  0.286988  1
  Sn  Sn23  1  0.331954  0.165976  0.286988  1
  Sn  Sn24  1  0.834024  0.165976  0.286988  1
  Sn  Sn25  1  0.165976  0.331954  0.786988  1
  Sn  Sn26  1  0.668046  0.834024  0.786988  1
  Sn  Sn27  1  0.165976  0.834024  0.786988  1
  Sn  Sn28  1  0.666667  0.333333  0.718135  1
  Sn  Sn29  1  0.333333  0.666667  0.218135  1
