# generated using pymatgen
data_ThZn2(CuAu)2
_symmetry_space_group_name_H-M   'P 1'
_cell_length_a   5.27032900
_cell_length_b   8.47856500
_cell_length_c   10.90308600
_cell_angle_alpha   90.00000000
_cell_angle_beta   90.00000000
_cell_angle_gamma   90.00000000
_symmetry_Int_Tables_number   1
_chemical_formula_structural   ThZn2(CuAu)2
_chemical_formula_sum   'Th4 Zn8 Cu8 Au8'
_cell_volume   487.20251165
_cell_formula_units_Z   4
loop_
 _symmetry_equiv_pos_site_id
 _symmetry_equiv_pos_as_xyz
  1  'x, y, z'
loop_
 _atom_site_type_symbol
 _atom_site_label
 _atom_site_symmetry_multiplicity
 _atom_site_fract_x
 _atom_site_fract_y
 _atom_site_fract_z
 _atom_site_occupancy
  Th  Th0  1  0.250000  0.256861  0.570682  1
  Th  Th1  1  0.750000  0.743139  0.429318  1
  Th  Th2  1  0.250000  0.756861  0.929318  1
  Th  Th3  1  0.750000  0.243139  0.070682  1
  Zn  Zn4  1  0.750000  0.351347  0.350377  1
  Zn  Zn5  1  0.250000  0.648653  0.649623  1
  Zn  Zn6  1  0.750000  0.851347  0.149623  1
  Zn  Zn7  1  0.250000  0.148653  0.850377  1
  Zn  Zn8  1  0.750000  0.684948  0.743795  1
  Zn  Zn9  1  0.250000  0.315052  0.256205  1
  Zn  Zn10  1  0.750000  0.184948  0.756205  1
  Zn  Zn11  1  0.250000  0.815052  0.243795  1
  Cu  Cu12  1  0.509534  0.565645  0.199245  1
  Cu  Cu13  1  0.009534  0.434355  0.800755  1
  Cu  Cu14  1  0.990466  0.065645  0.300755  1
  Cu  Cu15  1  0.490466  0.934355  0.699245  1
  Cu  Cu16  1  0.509534  0.065645  0.300755  1
  Cu  Cu17  1  0.009534  0.934355  0.699245  1
  Cu  Cu18  1  0.990466  0.565645  0.199245  1
  Cu  Cu19  1  0.490466  0.434355  0.800755  1
  Au  Au20  1  0.750000  0.942564  0.914379  1
  Au  Au21  1  0.250000  0.057436  0.085621  1
  Au  Au22  1  0.750000  0.442564  0.585621  1
  Au  Au23  1  0.250000  0.557436  0.414379  1
  Au  Au24  1  0.750000  0.589664  0.984562  1
  Au  Au25  1  0.250000  0.410336  0.015438  1
  Au  Au26  1  0.750000  0.089664  0.515438  1
  Au  Au27  1  0.250000  0.910336  0.484562  1
