# generated using pymatgen
data_Pr9ErSe10
_symmetry_space_group_name_H-M   'P 1'
_cell_length_a   7.32320349
_cell_length_b   8.48393131
_cell_length_c   9.52490200
_cell_angle_alpha   103.19454713
_cell_angle_beta   97.15107146
_cell_angle_gamma   106.64631484
_symmetry_Int_Tables_number   1
_chemical_formula_structural   Pr9ErSe10
_chemical_formula_sum   'Pr9 Er1 Se10'
_cell_volume   540.45259785
_cell_formula_units_Z   1
loop_
 _symmetry_equiv_pos_site_id
 _symmetry_equiv_pos_as_xyz
  1  'x, y, z'
loop_
 _atom_site_type_symbol
 _atom_site_label
 _atom_site_symmetry_multiplicity
 _atom_site_fract_x
 _atom_site_fract_y
 _atom_site_fract_z
 _atom_site_occupancy
  Pr  Pr0  1  0.801067  0.600352  0.594448  1
  Pr  Pr1  1  0.587302  0.193039  0.195214  1
  Pr  Pr2  1  0.412698  0.806961  0.804786  1
  Pr  Pr3  1  0.600455  0.702968  0.200914  1
  Pr  Pr4  1  0.198933  0.399648  0.405552  1
  Pr  Pr5  1  0.399545  0.297032  0.799086  1
  Pr  Pr6  1  0.000000  0.000000  0.000000  1
  Pr  Pr7  1  0.202276  0.902671  0.399723  1
  Pr  Pr8  1  0.797724  0.097329  0.600277  1
  Er  Er9  1  0.000000  0.500000  0.000000  1
  Se  Se10  1  0.711331  0.642777  0.901317  1
  Se  Se11  1  0.501702  0.251179  0.500089  1
  Se  Se12  1  0.713044  0.165010  0.904706  1
  Se  Se13  1  0.286956  0.834990  0.095294  1
  Se  Se14  1  0.498298  0.748821  0.499911  1
  Se  Se15  1  0.098903  0.455256  0.711747  1
  Se  Se16  1  0.288669  0.357223  0.098683  1
  Se  Se17  1  0.898139  0.052170  0.300190  1
  Se  Se18  1  0.101861  0.947830  0.699810  1
  Se  Se19  1  0.901097  0.544744  0.288253  1
