# generated using pymatgen
data_Ho12Zn2Ni3Ru
_symmetry_space_group_name_H-M   'P 1'
_cell_length_a   8.27915510
_cell_length_b   8.27922072
_cell_length_c   8.27915616
_cell_angle_alpha   112.18662742
_cell_angle_beta   110.14728254
_cell_angle_gamma   106.13702501
_symmetry_Int_Tables_number   1
_chemical_formula_structural   Ho12Zn2Ni3Ru
_chemical_formula_sum   'Ho12 Zn2 Ni3 Ru1'
_cell_volume   435.61093116
_cell_formula_units_Z   1
loop_
 _symmetry_equiv_pos_site_id
 _symmetry_equiv_pos_as_xyz
  1  'x, y, z'
loop_
 _atom_site_type_symbol
 _atom_site_label
 _atom_site_symmetry_multiplicity
 _atom_site_fract_x
 _atom_site_fract_y
 _atom_site_fract_z
 _atom_site_occupancy
  Ho  Ho0  1  0.438497  0.246302  0.192213  1
  Ho  Ho1  1  0.572623  0.765410  0.807204  1
  Ho  Ho2  1  0.041794  0.234590  0.807213  1
  Ho  Ho3  1  0.945911  0.753698  0.192196  1
  Ho  Ho4  1  0.183699  0.278939  0.462653  1
  Ho  Ho5  1  0.823494  0.721536  0.545030  1
  Ho  Ho6  1  0.183715  0.721061  0.904760  1
  Ho  Ho7  1  0.823493  0.278464  0.101958  1
  Ho  Ho8  1  0.324920  0.635441  0.307938  1
  Ho  Ho9  1  0.672495  0.364559  0.689478  1
  Ho  Ho10  1  0.324878  0.016952  0.689488  1
  Ho  Ho11  1  0.672535  0.983048  0.307925  1
  Zn  Zn12  1  0.493508  0.500000  0.993508  1
  Zn  Zn13  1  0.013635  0.000000  0.013635  1
  Ni  Ni14  1  0.655228  0.000000  0.655228  1
  Ni  Ni15  1  0.118459  0.618324  0.500135  1
  Ni  Ni16  1  0.881811  0.381676  0.500135  1
  Ru  Ru17  1  0.329304  0.000000  0.329304  1
