# generated using pymatgen
data_Tb5Co2Au
_symmetry_space_group_name_H-M   'P 1'
_cell_length_a   8.52079506
_cell_length_b   8.52079563
_cell_length_c   8.52079608
_cell_angle_alpha   127.58014004
_cell_angle_beta   127.58013561
_cell_angle_gamma   77.30618065
_symmetry_Int_Tables_number   1
_chemical_formula_structural   Tb5Co2Au
_chemical_formula_sum   'Tb10 Co4 Au2'
_cell_volume   376.96242820
_cell_formula_units_Z   2
loop_
 _symmetry_equiv_pos_site_id
 _symmetry_equiv_pos_as_xyz
  1  'x, y, z'
loop_
 _atom_site_type_symbol
 _atom_site_label
 _atom_site_symmetry_multiplicity
 _atom_site_fract_x
 _atom_site_fract_y
 _atom_site_fract_z
 _atom_site_occupancy
  Tb  Tb0  1  0.000000  0.000000  0.000000  1
  Tb  Tb1  1  0.500000  0.500000  0.000000  1
  Tb  Tb2  1  0.802709  0.302709  0.833660  1
  Tb  Tb3  1  0.197291  0.697291  0.166341  1
  Tb  Tb4  1  0.469049  0.969049  0.166341  1
  Tb  Tb5  1  0.302709  0.469049  0.500000  1
  Tb  Tb6  1  0.030951  0.197291  0.500000  1
  Tb  Tb7  1  0.530951  0.030951  0.833659  1
  Tb  Tb8  1  0.697291  0.530951  0.500000  1
  Tb  Tb9  1  0.969049  0.802709  0.500000  1
  Co  Co10  1  0.123710  0.623710  0.747421  1
  Co  Co11  1  0.876290  0.376290  0.252579  1
  Co  Co12  1  0.623710  0.876290  0.500000  1
  Co  Co13  1  0.376290  0.123710  0.500000  1
  Au  Au14  1  0.250000  0.250000  0.000000  1
  Au  Au15  1  0.750000  0.750000  0.000000  1
