# generated using pymatgen
data_Y3Tm5CdNi2Ag
_symmetry_space_group_name_H-M   'P 1'
_cell_length_a   9.42671297
_cell_length_b   9.42671272
_cell_length_c   9.41568100
_cell_angle_alpha   60.03870792
_cell_angle_beta   60.03870878
_cell_angle_gamma   60.18008686
_symmetry_Int_Tables_number   1
_chemical_formula_structural   Y3Tm5CdNi2Ag
_chemical_formula_sum   'Y6 Tm10 Cd2 Ni4 Ag2'
_cell_volume   592.78803440
_cell_formula_units_Z   2
loop_
 _symmetry_equiv_pos_site_id
 _symmetry_equiv_pos_as_xyz
  1  'x, y, z'
loop_
 _atom_site_type_symbol
 _atom_site_label
 _atom_site_symmetry_multiplicity
 _atom_site_fract_x
 _atom_site_fract_y
 _atom_site_fract_z
 _atom_site_occupancy
  Y  Y0  1  0.184665  0.811804  0.813361  1
  Y  Y1  1  0.811804  0.184665  0.190169  1
  Y  Y2  1  0.811804  0.184665  0.813361  1
  Y  Y3  1  0.184665  0.811804  0.190169  1
  Y  Y4  1  0.811423  0.811423  0.188577  1
  Y  Y5  1  0.187352  0.187352  0.812648  1
  Tm  Tm6  1  0.598073  0.598073  0.598122  1
  Tm  Tm7  1  0.598073  0.598073  0.205733  1
  Tm  Tm8  1  0.600217  0.201545  0.599120  1
  Tm  Tm9  1  0.201545  0.600217  0.599120  1
  Tm  Tm10  1  0.062644  0.437694  0.438564  1
  Tm  Tm11  1  0.437694  0.062644  0.061097  1
  Tm  Tm12  1  0.437694  0.062644  0.438564  1
  Tm  Tm13  1  0.062644  0.437694  0.061097  1
  Tm  Tm14  1  0.438612  0.438612  0.061388  1
  Tm  Tm15  1  0.062153  0.062153  0.437847  1
  Cd  Cd16  1  0.831703  0.510864  0.828716  1
  Cd  Cd17  1  0.510864  0.831703  0.828716  1
  Ni  Ni18  1  0.392900  0.392900  0.393092  1
  Ni  Ni19  1  0.392900  0.392900  0.821108  1
  Ni  Ni20  1  0.391379  0.823349  0.392636  1
  Ni  Ni21  1  0.823349  0.391379  0.392636  1
  Ag  Ag22  1  0.832920  0.832920  0.830467  1
  Ag  Ag23  1  0.832920  0.832920  0.503692  1
