# generated using pymatgen
data_Rb7TaTl2InAs5
_symmetry_space_group_name_H-M   'P 1'
_cell_length_a   8.79842899
_cell_length_b   9.62710347
_cell_length_c   14.79902318
_cell_angle_alpha   85.43047584
_cell_angle_beta   80.74711290
_cell_angle_gamma   87.10538689
_symmetry_Int_Tables_number   1
_chemical_formula_structural   Rb7TaTl2InAs5
_chemical_formula_sum   'Rb14 Ta2 Tl4 In2 As10'
_cell_volume   1232.37895456
_cell_formula_units_Z   2
loop_
 _symmetry_equiv_pos_site_id
 _symmetry_equiv_pos_as_xyz
  1  'x, y, z'
loop_
 _atom_site_type_symbol
 _atom_site_label
 _atom_site_symmetry_multiplicity
 _atom_site_fract_x
 _atom_site_fract_y
 _atom_site_fract_z
 _atom_site_occupancy
  Rb  Rb0  1  0.849101  0.356589  0.655936  1
  Rb  Rb1  1  0.837819  0.807404  0.128158  1
  Rb  Rb2  1  0.242191  0.021568  0.469383  1
  Rb  Rb3  1  0.276694  0.258196  0.247837  1
  Rb  Rb4  1  0.743227  0.492183  0.973657  1
  Rb  Rb5  1  0.256773  0.507817  0.026343  1
  Rb  Rb6  1  0.660952  0.082868  0.882394  1
  Rb  Rb7  1  0.757809  0.978432  0.530617  1
  Rb  Rb8  1  0.723306  0.741804  0.752163  1
  Rb  Rb9  1  0.348055  0.350207  0.608741  1
  Rb  Rb10  1  0.150899  0.643411  0.344064  1
  Rb  Rb11  1  0.162181  0.192596  0.871842  1
  Rb  Rb12  1  0.339048  0.917132  0.117606  1
  Rb  Rb13  1  0.651945  0.649793  0.391259  1
  Ta  Ta14  1  0.347301  0.614686  0.774734  1
  Ta  Ta15  1  0.652699  0.385314  0.225266  1
  Tl  Tl16  1  0.361463  0.974254  0.698688  1
  Tl  Tl17  1  0.097662  0.723267  0.615524  1
  Tl  Tl18  1  0.902338  0.276733  0.384476  1
  Tl  Tl19  1  0.638537  0.025746  0.301312  1
  In  In20  1  0.031945  0.823549  0.865312  1
  In  In21  1  0.968055  0.176451  0.134688  1
  As  As22  1  0.928431  0.451243  0.208586  1
  As  As23  1  0.647797  0.186767  0.122000  1
  As  As24  1  0.071569  0.548757  0.791414  1
  As  As25  1  0.566544  0.290916  0.389408  1
  As  As26  1  0.433456  0.709084  0.610592  1
  As  As27  1  0.008783  0.011829  0.699258  1
  As  As28  1  0.507139  0.411394  0.814264  1
  As  As29  1  0.492861  0.588606  0.185736  1
  As  As30  1  0.352203  0.813233  0.878000  1
  As  As31  1  0.991217  0.988171  0.300742  1
