# generated using pymatgen
data_Nd2ErIn4Te
_symmetry_space_group_name_H-M   'P 1'
_cell_length_a   8.54292074
_cell_length_b   8.54292142
_cell_length_c   8.54292200
_cell_angle_alpha   119.18486732
_cell_angle_beta   119.18486217
_cell_angle_gamma   91.41775859
_symmetry_Int_Tables_number   1
_chemical_formula_structural   Nd2ErIn4Te
_chemical_formula_sum   'Nd4 Er2 In8 Te2'
_cell_volume   446.14751612
_cell_formula_units_Z   2
loop_
 _symmetry_equiv_pos_site_id
 _symmetry_equiv_pos_as_xyz
  1  'x, y, z'
loop_
 _atom_site_type_symbol
 _atom_site_label
 _atom_site_symmetry_multiplicity
 _atom_site_fract_x
 _atom_site_fract_y
 _atom_site_fract_z
 _atom_site_occupancy
  Nd  Nd0  1  0.659007  0.159007  0.818013  1
  Nd  Nd1  1  0.340993  0.840993  0.181987  1
  Nd  Nd2  1  0.159007  0.340993  0.500000  1
  Nd  Nd3  1  0.840993  0.659007  0.500000  1
  Er  Er4  1  0.750000  0.750000  0.000000  1
  Er  Er5  1  0.250000  0.250000  0.000000  1
  In  In6  1  0.333856  0.833856  0.793866  1
  In  In7  1  0.666144  0.166144  0.206134  1
  In  In8  1  0.039988  0.539988  0.206134  1
  In  In9  1  0.833856  0.039988  0.500000  1
  In  In10  1  0.460012  0.666144  0.500000  1
  In  In11  1  0.960012  0.460012  0.793866  1
  In  In12  1  0.166144  0.960012  0.500000  1
  In  In13  1  0.539988  0.333856  0.500000  1
  Te  Te14  1  0.500000  0.500000  0.000000  1
  Te  Te15  1  0.000000  0.000000  0.000000  1
