# generated using pymatgen
data_Co7NiOsS8
_symmetry_space_group_name_H-M   'P 1'
_cell_length_a   7.00518610
_cell_length_b   6.98391217
_cell_length_c   6.98391200
_cell_angle_alpha   60.00000080
_cell_angle_beta   60.10040932
_cell_angle_gamma   60.10041474
_symmetry_Int_Tables_number   1
_chemical_formula_structural   Co7NiOsS8
_chemical_formula_sum   'Co7 Ni1 Os1 S8'
_cell_volume   241.96897531
_cell_formula_units_Z   1
loop_
 _symmetry_equiv_pos_site_id
 _symmetry_equiv_pos_as_xyz
  1  'x, y, z'
loop_
 _atom_site_type_symbol
 _atom_site_label
 _atom_site_symmetry_multiplicity
 _atom_site_fract_x
 _atom_site_fract_y
 _atom_site_fract_z
 _atom_site_occupancy
  Co  Co0  1  0.126109  0.622644  0.125623  1
  Co  Co1  1  0.126109  0.125623  0.622644  1
  Co  Co2  1  0.126109  0.125623  0.125623  1
  Co  Co3  1  0.377059  0.874313  0.874313  1
  Co  Co4  1  0.873570  0.378019  0.874207  1
  Co  Co5  1  0.873570  0.874207  0.378019  1
  Co  Co6  1  0.873570  0.874207  0.874207  1
  Ni  Ni7  1  0.618495  0.127168  0.127168  1
  Os  Os8  1  0.501989  0.499338  0.499338  1
  S  S9  1  0.241688  0.252771  0.252771  1
  S  S10  1  0.748132  0.750623  0.750623  1
  S  S11  1  0.744912  0.259815  0.259815  1
  S  S12  1  0.744912  0.259815  0.735458  1
  S  S13  1  0.744912  0.735458  0.259815  1
  S  S14  1  0.259622  0.740255  0.740255  1
  S  S15  1  0.259622  0.740255  0.259868  1
  S  S16  1  0.259622  0.259868  0.740255  1
