# generated using pymatgen
data_LaPaBe26
_symmetry_space_group_name_H-M   'P 1'
_cell_length_a   7.28696542
_cell_length_b   7.28696589
_cell_length_c   7.28696500
_cell_angle_alpha   59.99999948
_cell_angle_beta   59.99999736
_cell_angle_gamma   60.00000561
_symmetry_Int_Tables_number   1
_chemical_formula_structural   LaPaBe26
_chemical_formula_sum   'La1 Pa1 Be26'
_cell_volume   273.60569865
_cell_formula_units_Z   1
loop_
 _symmetry_equiv_pos_site_id
 _symmetry_equiv_pos_as_xyz
  1  'x, y, z'
loop_
 _atom_site_type_symbol
 _atom_site_label
 _atom_site_symmetry_multiplicity
 _atom_site_fract_x
 _atom_site_fract_y
 _atom_site_fract_z
 _atom_site_occupancy
  La  La0  1  0.500000  0.500000  0.500000  1
  Pa  Pa1  1  0.000000  0.000000  0.000000  1
  Be  Be2  1  0.541274  0.309153  0.963775  1
  Be  Be3  1  0.963775  0.185798  0.541274  1
  Be  Be4  1  0.309153  0.541274  0.185798  1
  Be  Be5  1  0.185798  0.963775  0.309153  1
  Be  Be6  1  0.036225  0.690847  0.458726  1
  Be  Be7  1  0.458726  0.814202  0.036225  1
  Be  Be8  1  0.690847  0.036225  0.814202  1
  Be  Be9  1  0.814202  0.458726  0.690847  1
  Be  Be10  1  0.963775  0.541274  0.309153  1
  Be  Be11  1  0.541274  0.963775  0.185798  1
  Be  Be12  1  0.185798  0.309153  0.541274  1
  Be  Be13  1  0.309153  0.185798  0.963775  1
  Be  Be14  1  0.458726  0.036225  0.690847  1
  Be  Be15  1  0.036225  0.458726  0.814202  1
  Be  Be16  1  0.814202  0.690847  0.036225  1
  Be  Be17  1  0.690847  0.814202  0.458726  1
  Be  Be18  1  0.309153  0.963775  0.541274  1
  Be  Be19  1  0.185798  0.541274  0.963775  1
  Be  Be20  1  0.541274  0.185798  0.309153  1
  Be  Be21  1  0.963775  0.309153  0.185798  1
  Be  Be22  1  0.690847  0.458726  0.036225  1
  Be  Be23  1  0.814202  0.036225  0.458726  1
  Be  Be24  1  0.036225  0.814202  0.690847  1
  Be  Be25  1  0.458726  0.690847  0.814202  1
  Be  Be26  1  0.250000  0.250000  0.250000  1
  Be  Be27  1  0.750000  0.750000  0.750000  1
