# generated using pymatgen
data_Nb12Al7CuN4
_symmetry_space_group_name_H-M   'P 1'
_cell_length_a   7.06644566
_cell_length_b   7.06644566
_cell_length_c   7.06644566
_cell_angle_alpha   89.90691315
_cell_angle_beta   90.09308685
_cell_angle_gamma   90.09308685
_symmetry_Int_Tables_number   1
_chemical_formula_structural   Nb12Al7CuN4
_chemical_formula_sum   'Nb12 Al7 Cu1 N4'
_cell_volume   352.85912523
_cell_formula_units_Z   1
loop_
 _symmetry_equiv_pos_site_id
 _symmetry_equiv_pos_as_xyz
  1  'x, y, z'
loop_
 _atom_site_type_symbol
 _atom_site_label
 _atom_site_symmetry_multiplicity
 _atom_site_fract_x
 _atom_site_fract_y
 _atom_site_fract_z
 _atom_site_occupancy
  Nb  Nb0  1  0.792648  0.956823  0.373990  1
  Nb  Nb1  1  0.708233  0.044424  0.877539  1
  Nb  Nb2  1  0.205232  0.455070  0.122751  1
  Nb  Nb3  1  0.295409  0.542517  0.629541  1
  Nb  Nb4  1  0.955576  0.377539  0.791767  1
  Nb  Nb5  1  0.043177  0.873990  0.707352  1
  Nb  Nb6  1  0.457483  0.129541  0.204591  1
  Nb  Nb7  1  0.544930  0.622751  0.294768  1
  Nb  Nb8  1  0.377249  0.794768  0.955070  1
  Nb  Nb9  1  0.870459  0.704591  0.042517  1
  Nb  Nb10  1  0.126010  0.207352  0.456823  1
  Nb  Nb11  1  0.622461  0.291767  0.544424  1
  Al  Al12  1  0.321091  0.175450  0.821567  1
  Al  Al13  1  0.824550  0.321567  0.178909  1
  Al  Al14  1  0.678433  0.678909  0.675450  1
  Al  Al15  1  0.571477  0.428523  0.928523  1
  Al  Al16  1  0.418408  0.924298  0.561407  1
  Al  Al17  1  0.938593  0.581592  0.424298  1
  Al  Al18  1  0.075702  0.061407  0.081592  1
  Cu  Cu19  1  0.180393  0.819607  0.319607  1
  N  N20  1  0.874907  0.125093  0.625093  1
  N  N21  1  0.621455  0.875905  0.127969  1
  N  N22  1  0.124095  0.627969  0.878545  1
  N  N23  1  0.372031  0.378545  0.375905  1
