# generated using pymatgen
data_DyHo2InGa8Os3
_symmetry_space_group_name_H-M   'P 1'
_cell_length_a   6.44003800
_cell_length_b   6.46413600
_cell_length_c   6.46413600
_cell_angle_alpha   90.00000000
_cell_angle_beta   90.00000000
_cell_angle_gamma   90.00000000
_symmetry_Int_Tables_number   1
_chemical_formula_structural   DyHo2InGa8Os3
_chemical_formula_sum   'Dy1 Ho2 In1 Ga8 Os3'
_cell_volume   269.09733705
_cell_formula_units_Z   1
loop_
 _symmetry_equiv_pos_site_id
 _symmetry_equiv_pos_as_xyz
  1  'x, y, z'
loop_
 _atom_site_type_symbol
 _atom_site_label
 _atom_site_symmetry_multiplicity
 _atom_site_fract_x
 _atom_site_fract_y
 _atom_site_fract_z
 _atom_site_occupancy
  Dy  Dy0  1  0.500000  0.000000  0.000000  1
  Ho  Ho1  1  0.000000  0.500000  0.000000  1
  Ho  Ho2  1  0.000000  0.000000  0.500000  1
  In  In3  1  0.000000  0.000000  0.000000  1
  Ga  Ga4  1  0.289074  0.289410  0.289410  1
  Ga  Ga5  1  0.710926  0.710590  0.710590  1
  Ga  Ga6  1  0.710926  0.710590  0.289410  1
  Ga  Ga7  1  0.710926  0.289410  0.710590  1
  Ga  Ga8  1  0.289074  0.289410  0.710590  1
  Ga  Ga9  1  0.289074  0.710590  0.289410  1
  Ga  Ga10  1  0.289074  0.710590  0.710590  1
  Ga  Ga11  1  0.710926  0.289410  0.289410  1
  Os  Os12  1  0.000000  0.500000  0.500000  1
  Os  Os13  1  0.500000  0.000000  0.500000  1
  Os  Os14  1  0.500000  0.500000  0.000000  1
