# generated using pymatgen
data_Li2Mo(AsPd)3
_symmetry_space_group_name_H-M   'P 1'
_cell_length_a   3.34093200
_cell_length_b   7.02459958
_cell_length_c   6.95945956
_cell_angle_alpha   120.31009827
_cell_angle_beta   90.00000000
_cell_angle_gamma   90.00000000
_symmetry_Int_Tables_number   1
_chemical_formula_structural   Li2Mo(AsPd)3
_chemical_formula_sum   'Li2 Mo1 As3 Pd3'
_cell_volume   141.00346788
_cell_formula_units_Z   1
loop_
 _symmetry_equiv_pos_site_id
 _symmetry_equiv_pos_as_xyz
  1  'x, y, z'
loop_
 _atom_site_type_symbol
 _atom_site_label
 _atom_site_symmetry_multiplicity
 _atom_site_fract_x
 _atom_site_fract_y
 _atom_site_fract_z
 _atom_site_occupancy
  Li  Li0  1  0.000000  0.389259  0.385992  1
  Li  Li1  1  0.000000  0.003268  0.614008  1
  Mo  Mo2  1  0.000000  0.617683  0.000000  1
  As  As3  1  0.500000  0.659460  0.297289  1
  As  As4  1  0.500000  0.362170  0.702711  1
  As  As5  1  0.000000  0.974163  0.000000  1
  Pd  Pd6  1  0.500000  0.719644  0.682935  1
  Pd  Pd7  1  0.500000  0.036708  0.317065  1
  Pd  Pd8  1  0.500000  0.237647  0.000000  1
