# generated using pymatgen
data_Tb4Al24PdPt8
_symmetry_space_group_name_H-M   'P 1'
_cell_length_a   7.53154175
_cell_length_b   7.55585512
_cell_length_c   13.17894998
_cell_angle_alpha   84.53843498
_cell_angle_beta   79.09175311
_cell_angle_gamma   59.96132056
_symmetry_Int_Tables_number   1
_chemical_formula_structural   Tb4Al24PdPt8
_chemical_formula_sum   'Tb4 Al24 Pd1 Pt8'
_cell_volume   637.51539063
_cell_formula_units_Z   1
loop_
 _symmetry_equiv_pos_site_id
 _symmetry_equiv_pos_as_xyz
  1  'x, y, z'
loop_
 _atom_site_type_symbol
 _atom_site_label
 _atom_site_symmetry_multiplicity
 _atom_site_fract_x
 _atom_site_fract_y
 _atom_site_fract_z
 _atom_site_occupancy
  Tb  Tb0  1  0.393362  0.168491  0.807884  1
  Tb  Tb1  1  0.606638  0.831509  0.192116  1
  Tb  Tb2  1  0.734114  0.498397  0.807647  1
  Tb  Tb3  1  0.265886  0.501603  0.192353  1
  Al  Al4  1  0.684909  0.833544  0.944510  1
  Al  Al5  1  0.315091  0.166456  0.055490  1
  Al  Al6  1  0.146838  0.832373  0.561162  1
  Al  Al7  1  0.853162  0.167627  0.438838  1
  Al  Al8  1  0.479656  0.166906  0.558589  1
  Al  Al9  1  0.520344  0.833094  0.441411  1
  Al  Al10  1  0.216851  0.165313  0.330265  1
  Al  Al11  1  0.783149  0.834687  0.669735  1
  Al  Al12  1  0.437845  0.506284  0.669763  1
  Al  Al13  1  0.562155  0.493716  0.330237  1
  Al  Al14  1  0.109771  0.160027  0.668954  1
  Al  Al15  1  0.890229  0.839973  0.331046  1
  Al  Al16  1  0.352792  0.499357  0.944712  1
  Al  Al17  1  0.647208  0.500643  0.055288  1
  Al  Al18  1  0.014875  0.167940  0.953331  1
  Al  Al19  1  0.985125  0.832060  0.046669  1
  Al  Al20  1  0.186634  0.498905  0.441286  1
  Al  Al21  1  0.813366  0.501095  0.558714  1
  Al  Al22  1  0.734506  0.164081  0.183374  1
  Al  Al23  1  0.265494  0.835919  0.816626  1
  Al  Al24  1  0.061791  0.631359  0.815560  1
  Al  Al25  1  0.938209  0.368641  0.184440  1
  Al  Al26  1  0.855232  0.041241  0.815950  1
  Al  Al27  1  0.144768  0.958759  0.184051  1
  Pd  Pd28  1  0.000000  0.500000  0.000000  1
  Pt  Pt29  1  0.120228  0.492491  0.638352  1
  Pt  Pt30  1  0.879772  0.507509  0.361648  1
  Pt  Pt31  1  0.657195  0.171145  0.999953  1
  Pt  Pt32  1  0.342805  0.828855  0.000047  1
  Pt  Pt33  1  0.538086  0.166702  0.361420  1
  Pt  Pt34  1  0.461914  0.833298  0.638580  1
  Pt  Pt35  1  0.779187  0.174745  0.637109  1
  Pt  Pt36  1  0.220813  0.825255  0.362891  1
