# generated using pymatgen
data_Ac2Al5Zn2Hg
_symmetry_space_group_name_H-M   'P 1'
_cell_length_a   6.49450200
_cell_length_b   6.49450251
_cell_length_c   6.34039800
_cell_angle_alpha   90.00000000
_cell_angle_beta   90.00000000
_cell_angle_gamma   121.63499818
_symmetry_Int_Tables_number   1
_chemical_formula_structural   Ac2Al5Zn2Hg
_chemical_formula_sum   'Ac2 Al5 Zn2 Hg1'
_cell_volume   227.69072059
_cell_formula_units_Z   1
loop_
 _symmetry_equiv_pos_site_id
 _symmetry_equiv_pos_as_xyz
  1  'x, y, z'
loop_
 _atom_site_type_symbol
 _atom_site_label
 _atom_site_symmetry_multiplicity
 _atom_site_fract_x
 _atom_site_fract_y
 _atom_site_fract_z
 _atom_site_occupancy
  Ac  Ac0  1  0.242902  0.757098  0.750000  1
  Ac  Ac1  1  0.750038  0.249962  0.250000  1
  Al  Al2  1  0.135981  0.864019  0.250000  1
  Al  Al3  1  0.738674  0.736020  0.009760  1
  Al  Al4  1  0.738674  0.736020  0.490240  1
  Al  Al5  1  0.263980  0.261326  0.009760  1
  Al  Al6  1  0.263980  0.261326  0.490240  1
  Zn  Zn7  1  0.629542  0.370458  0.750000  1
  Zn  Zn8  1  0.365201  0.634799  0.250000  1
  Hg  Hg9  1  0.871026  0.128974  0.750000  1
