# generated using pymatgen
data_Pr2Y6Co3Si12Rh
_symmetry_space_group_name_H-M   'P 1'
_cell_length_a   8.06930400
_cell_length_b   8.06930378
_cell_length_c   8.09204700
_cell_angle_alpha   90.00000000
_cell_angle_beta   90.00000000
_cell_angle_gamma   120.00000090
_symmetry_Int_Tables_number   1
_chemical_formula_structural   Pr2Y6Co3Si12Rh
_chemical_formula_sum   'Pr2 Y6 Co3 Si12 Rh1'
_cell_volume   456.31124031
_cell_formula_units_Z   1
loop_
 _symmetry_equiv_pos_site_id
 _symmetry_equiv_pos_as_xyz
  1  'x, y, z'
loop_
 _atom_site_type_symbol
 _atom_site_label
 _atom_site_symmetry_multiplicity
 _atom_site_fract_x
 _atom_site_fract_y
 _atom_site_fract_z
 _atom_site_occupancy
  Pr  Pr0  1  0.000000  0.000000  0.248618  1
  Pr  Pr1  1  0.000000  0.000000  0.751734  1
  Y  Y2  1  0.012050  0.506025  0.248492  1
  Y  Y3  1  0.493975  0.506025  0.248492  1
  Y  Y4  1  0.503621  0.007243  0.749888  1
  Y  Y5  1  0.493975  0.987950  0.248492  1
  Y  Y6  1  0.503621  0.496379  0.749888  1
  Y  Y7  1  0.992757  0.496379  0.749888  1
  Co  Co8  1  0.333333  0.666667  0.970874  1
  Co  Co9  1  0.333333  0.666667  0.529380  1
  Co  Co10  1  0.666667  0.333333  0.029646  1
  Si  Si11  1  0.172955  0.345911  0.001000  1
  Si  Si12  1  0.654089  0.827045  0.001000  1
  Si  Si13  1  0.173415  0.346831  0.498449  1
  Si  Si14  1  0.347106  0.173553  0.998513  1
  Si  Si15  1  0.172955  0.827045  0.001000  1
  Si  Si16  1  0.653169  0.826585  0.498449  1
  Si  Si17  1  0.826447  0.652894  0.998513  1
  Si  Si18  1  0.335421  0.167711  0.502994  1
  Si  Si19  1  0.173415  0.826585  0.498449  1
  Si  Si20  1  0.832289  0.664579  0.502994  1
  Si  Si21  1  0.826447  0.173553  0.998513  1
  Si  Si22  1  0.832289  0.167711  0.502994  1
  Rh  Rh23  1  0.666667  0.333333  0.471737  1
