# generated using pymatgen
data_Ti10Pt6S
_symmetry_space_group_name_H-M   'P 1'
_cell_length_a   7.95299500
_cell_length_b   7.95299550
_cell_length_c   5.01461100
_cell_angle_alpha   90.00000000
_cell_angle_beta   90.00000000
_cell_angle_gamma   120.00000206
_symmetry_Int_Tables_number   1
_chemical_formula_structural   Ti10Pt6S
_chemical_formula_sum   'Ti10 Pt6 S1'
_cell_volume   274.68144162
_cell_formula_units_Z   1
loop_
 _symmetry_equiv_pos_site_id
 _symmetry_equiv_pos_as_xyz
  1  'x, y, z'
loop_
 _atom_site_type_symbol
 _atom_site_label
 _atom_site_symmetry_multiplicity
 _atom_site_fract_x
 _atom_site_fract_y
 _atom_site_fract_z
 _atom_site_occupancy
  Ti  Ti0  1  0.666667  0.333333  0.500000  1
  Ti  Ti1  1  0.333333  0.666667  0.500000  1
  Ti  Ti2  1  0.333333  0.666667  0.000000  1
  Ti  Ti3  1  0.666667  0.333333  0.000000  1
  Ti  Ti4  1  0.745096  0.745096  0.243887  1
  Ti  Ti5  1  0.254904  0.000000  0.243887  1
  Ti  Ti6  1  0.000000  0.254904  0.243887  1
  Ti  Ti7  1  0.254904  0.254904  0.756113  1
  Ti  Ti8  1  0.745096  0.000000  0.756113  1
  Ti  Ti9  1  0.000000  0.745096  0.756113  1
  Pt  Pt10  1  0.404592  0.404592  0.252101  1
  Pt  Pt11  1  0.595408  0.000000  0.252101  1
  Pt  Pt12  1  0.000000  0.595408  0.252101  1
  Pt  Pt13  1  0.595408  0.595408  0.747899  1
  Pt  Pt14  1  0.404592  0.000000  0.747899  1
  Pt  Pt15  1  0.000000  0.404592  0.747899  1
  S  S16  1  0.000000  0.000000  0.500000  1
