# generated using pymatgen
data_Ba4CrAgH12
_symmetry_space_group_name_H-M   'P 1'
_cell_length_a   8.03768008
_cell_length_b   8.03768068
_cell_length_c   5.97218486
_cell_angle_alpha   90.02302278
_cell_angle_beta   90.02302862
_cell_angle_gamma   136.33505237
_symmetry_Int_Tables_number   1
_chemical_formula_structural   Ba4CrAgH12
_chemical_formula_sum   'Ba4 Cr1 Ag1 H12'
_cell_volume   266.39151544
_cell_formula_units_Z   1
loop_
 _symmetry_equiv_pos_site_id
 _symmetry_equiv_pos_as_xyz
  1  'x, y, z'
loop_
 _atom_site_type_symbol
 _atom_site_label
 _atom_site_symmetry_multiplicity
 _atom_site_fract_x
 _atom_site_fract_y
 _atom_site_fract_z
 _atom_site_occupancy
  Ba  Ba0  1  0.353891  0.646109  0.000000  1
  Ba  Ba1  1  0.854783  0.145217  0.500000  1
  Ba  Ba2  1  0.646109  0.353891  0.000000  1
  Ba  Ba3  1  0.145217  0.854783  0.500000  1
  Cr  Cr4  1  0.500000  0.500000  0.500000  1
  Ag  Ag5  1  0.000000  0.000000  0.000000  1
  H  H6  1  0.000189  0.499248  0.251333  1
  H  H7  1  0.500752  0.999811  0.748667  1
  H  H8  1  0.999811  0.500752  0.748667  1
  H  H9  1  0.499248  0.000189  0.251333  1
  H  H10  1  0.117117  0.882883  0.000000  1
  H  H11  1  0.616648  0.383352  0.500000  1
  H  H12  1  0.882883  0.117117  0.000000  1
  H  H13  1  0.383352  0.616648  0.500000  1
  H  H14  1  0.709018  0.709018  0.292057  1
  H  H15  1  0.290982  0.290982  0.707943  1
  H  H16  1  0.707113  0.707113  0.710722  1
  H  H17  1  0.292887  0.292887  0.289278  1
