# generated using pymatgen
data_LaPr10Nd(Si7Br3)2
_symmetry_space_group_name_H-M   'P 1'
_cell_length_a   4.10661900
_cell_length_b   11.82487683
_cell_length_c   16.68365102
_cell_angle_alpha   90.16194764
_cell_angle_beta   90.00000000
_cell_angle_gamma   90.00000000
_symmetry_Int_Tables_number   1
_chemical_formula_structural   LaPr10Nd(Si7Br3)2
_chemical_formula_sum   'La1 Pr10 Nd1 Si14 Br6'
_cell_volume   810.15925907
_cell_formula_units_Z   1
loop_
 _symmetry_equiv_pos_site_id
 _symmetry_equiv_pos_as_xyz
  1  'x, y, z'
loop_
 _atom_site_type_symbol
 _atom_site_label
 _atom_site_symmetry_multiplicity
 _atom_site_fract_x
 _atom_site_fract_y
 _atom_site_fract_z
 _atom_site_occupancy
  La  La0  1  0.000000  0.936334  0.379456  1
  Pr  Pr1  1  0.500000  0.342084  0.499893  1
  Pr  Pr2  1  0.000000  0.658088  0.000380  1
  Pr  Pr3  1  0.500000  0.358417  0.756833  1
  Pr  Pr4  1  0.000000  0.641066  0.743934  1
  Pr  Pr5  1  0.500000  0.359310  0.242509  1
  Pr  Pr6  1  0.000000  0.640988  0.256770  1
  Pr  Pr7  1  0.500000  0.065525  0.880268  1
  Pr  Pr8  1  0.000000  0.934336  0.620363  1
  Pr  Pr9  1  0.500000  0.065744  0.118757  1
  Pr  Pr10  1  0.000000  0.642958  0.500528  1
  Nd  Nd11  1  0.500000  0.355971  0.999888  1
  Si  Si12  1  0.000000  0.152622  0.999755  1
  Si  Si13  1  0.500000  0.847186  0.500377  1
  Si  Si14  1  0.500000  0.566166  0.876836  1
  Si  Si15  1  0.000000  0.433093  0.623929  1
  Si  Si16  1  0.500000  0.566593  0.123188  1
  Si  Si17  1  0.000000  0.432734  0.376176  1
  Si  Si18  1  0.000000  0.253971  0.874805  1
  Si  Si19  1  0.500000  0.745997  0.626216  1
  Si  Si20  1  0.000000  0.254030  0.124946  1
  Si  Si21  1  0.500000  0.745734  0.375076  1
  Si  Si22  1  0.000000  0.457746  0.877423  1
  Si  Si23  1  0.500000  0.541705  0.623573  1
  Si  Si24  1  0.500000  0.541412  0.377038  1
  Si  Si25  1  0.000000  0.458039  0.122325  1
  Br  Br26  1  0.500000  0.108809  0.693224  1
  Br  Br27  1  0.000000  0.890990  0.807165  1
  Br  Br28  1  0.000000  0.139617  0.501329  1
  Br  Br29  1  0.500000  0.861070  0.999421  1
  Br  Br30  1  0.500000  0.111437  0.306178  1
  Br  Br31  1  0.000000  0.890222  0.191443  1
