# generated using pymatgen
data_PuWN2
_symmetry_space_group_name_H-M   'P 1'
_cell_length_a   3.23005400
_cell_length_b   5.63026700
_cell_length_c   10.79402900
_cell_angle_alpha   90.00000000
_cell_angle_beta   90.00000000
_cell_angle_gamma   90.00000000
_symmetry_Int_Tables_number   1
_chemical_formula_structural   PuWN2
_chemical_formula_sum   'Pu4 W4 N8'
_cell_volume   196.30092860
_cell_formula_units_Z   4
loop_
 _symmetry_equiv_pos_site_id
 _symmetry_equiv_pos_as_xyz
  1  'x, y, z'
loop_
 _atom_site_type_symbol
 _atom_site_label
 _atom_site_symmetry_multiplicity
 _atom_site_fract_x
 _atom_site_fract_y
 _atom_site_fract_z
 _atom_site_occupancy
  Pu  Pu0  1  0.250000  0.077009  0.857516  1
  Pu  Pu1  1  0.250000  0.577009  0.642484  1
  Pu  Pu2  1  0.750000  0.922991  0.142484  1
  Pu  Pu3  1  0.750000  0.422991  0.357516  1
  W  W4  1  0.250000  0.428750  0.102193  1
  W  W5  1  0.250000  0.928750  0.397807  1
  W  W6  1  0.750000  0.571250  0.897807  1
  W  W7  1  0.750000  0.071250  0.602193  1
  N  N8  1  0.250000  0.163056  0.244698  1
  N  N9  1  0.250000  0.663056  0.255302  1
  N  N10  1  0.750000  0.836944  0.755302  1
  N  N11  1  0.750000  0.336944  0.744698  1
  N  N12  1  0.250000  0.752645  0.994969  1
  N  N13  1  0.250000  0.252645  0.505031  1
  N  N14  1  0.750000  0.247355  0.005031  1
  N  N15  1  0.750000  0.747355  0.494969  1
