# generated using pymatgen
data_DyHo7(HgPt)2
_symmetry_space_group_name_H-M   'P 1'
_cell_length_a   9.61903602
_cell_length_b   9.61903647
_cell_length_c   9.61457700
_cell_angle_alpha   60.01533830
_cell_angle_beta   60.01533678
_cell_angle_gamma   60.08101176
_symmetry_Int_Tables_number   1
_chemical_formula_structural   DyHo7(HgPt)2
_chemical_formula_sum   'Dy2 Ho14 Hg4 Pt4'
_cell_volume   629.57034346
_cell_formula_units_Z   2
loop_
 _symmetry_equiv_pos_site_id
 _symmetry_equiv_pos_as_xyz
  1  'x, y, z'
loop_
 _atom_site_type_symbol
 _atom_site_label
 _atom_site_symmetry_multiplicity
 _atom_site_fract_x
 _atom_site_fract_y
 _atom_site_fract_z
 _atom_site_occupancy
  Dy  Dy0  1  0.604462  0.604462  0.603331  1
  Dy  Dy1  1  0.604462  0.604462  0.187745  1
  Ho  Ho2  1  0.606150  0.184164  0.604843  1
  Ho  Ho3  1  0.184164  0.606150  0.604843  1
  Ho  Ho4  1  0.061230  0.439304  0.439031  1
  Ho  Ho5  1  0.439304  0.061230  0.060435  1
  Ho  Ho6  1  0.439304  0.061230  0.439031  1
  Ho  Ho7  1  0.061230  0.439304  0.060435  1
  Ho  Ho8  1  0.439688  0.439688  0.060312  1
  Ho  Ho9  1  0.060619  0.060619  0.439381  1
  Ho  Ho10  1  0.185780  0.814922  0.814290  1
  Ho  Ho11  1  0.814922  0.185780  0.185009  1
  Ho  Ho12  1  0.814922  0.185780  0.814290  1
  Ho  Ho13  1  0.185780  0.814922  0.185009  1
  Ho  Ho14  1  0.815259  0.815259  0.184741  1
  Ho  Ho15  1  0.186434  0.186434  0.813566  1
  Hg  Hg16  1  0.836665  0.836665  0.836934  1
  Hg  Hg17  1  0.836665  0.836665  0.489735  1
  Hg  Hg18  1  0.836234  0.489340  0.837213  1
  Hg  Hg19  1  0.489340  0.836234  0.837213  1
  Pt  Pt20  1  0.393064  0.393064  0.396557  1
  Pt  Pt21  1  0.393064  0.393064  0.817314  1
  Pt  Pt22  1  0.392104  0.819153  0.394371  1
  Pt  Pt23  1  0.819153  0.392104  0.394371  1
