# generated using pymatgen
data_ThUB6W
_symmetry_space_group_name_H-M   'P 1'
_cell_length_a   3.77795000
_cell_length_b   9.41347600
_cell_length_c   11.56072900
_cell_angle_alpha   90.00000000
_cell_angle_beta   90.00000000
_cell_angle_gamma   90.00000000
_symmetry_Int_Tables_number   1
_chemical_formula_structural   ThUB6W
_chemical_formula_sum   'Th4 U4 B24 W4'
_cell_volume   411.14162342
_cell_formula_units_Z   4
loop_
 _symmetry_equiv_pos_site_id
 _symmetry_equiv_pos_as_xyz
  1  'x, y, z'
loop_
 _atom_site_type_symbol
 _atom_site_label
 _atom_site_symmetry_multiplicity
 _atom_site_fract_x
 _atom_site_fract_y
 _atom_site_fract_z
 _atom_site_occupancy
  Th  Th0  1  0.000000  0.334704  0.407821  1
  Th  Th1  1  0.000000  0.665296  0.592179  1
  Th  Th2  1  0.000000  0.834704  0.092179  1
  Th  Th3  1  0.000000  0.165296  0.907821  1
  U  U4  1  0.000000  0.956856  0.395855  1
  U  U5  1  0.000000  0.043144  0.604145  1
  U  U6  1  0.000000  0.456856  0.104145  1
  U  U7  1  0.000000  0.543144  0.895855  1
  B  B8  1  0.500000  0.555132  0.428860  1
  B  B9  1  0.500000  0.444868  0.571140  1
  B  B10  1  0.500000  0.055132  0.071140  1
  B  B11  1  0.500000  0.944868  0.928860  1
  B  B12  1  0.500000  0.746526  0.421584  1
  B  B13  1  0.500000  0.253474  0.578416  1
  B  B14  1  0.500000  0.246526  0.078416  1
  B  B15  1  0.500000  0.753474  0.921584  1
  B  B16  1  0.500000  0.802877  0.274947  1
  B  B17  1  0.500000  0.197123  0.725053  1
  B  B18  1  0.500000  0.302877  0.225053  1
  B  B19  1  0.500000  0.697123  0.774947  1
  B  B20  1  0.500000  0.642682  0.187621  1
  B  B21  1  0.500000  0.357318  0.812379  1
  B  B22  1  0.500000  0.142682  0.312379  1
  B  B23  1  0.500000  0.857318  0.687621  1
  B  B24  1  0.500000  0.990596  0.221314  1
  B  B25  1  0.500000  0.009404  0.778686  1
  B  B26  1  0.500000  0.490596  0.278686  1
  B  B27  1  0.500000  0.509404  0.721314  1
  B  B28  1  0.500000  0.634139  0.036916  1
  B  B29  1  0.500000  0.365861  0.963084  1
  B  B30  1  0.500000  0.134139  0.463084  1
  B  B31  1  0.500000  0.865861  0.536916  1
  W  W32  1  0.000000  0.647540  0.317516  1
  W  W33  1  0.000000  0.352460  0.682484  1
  W  W34  1  0.000000  0.147540  0.182484  1
  W  W35  1  0.000000  0.852460  0.817516  1
