# generated using pymatgen
data_SmTmV2F14
_symmetry_space_group_name_H-M   'P 1'
_cell_length_a   5.51434700
_cell_length_b   8.86997574
_cell_length_c   11.85324766
_cell_angle_alpha   63.16979280
_cell_angle_beta   90.00000000
_cell_angle_gamma   90.00000000
_symmetry_Int_Tables_number   1
_chemical_formula_structural   SmTmV2F14
_chemical_formula_sum   'Sm2 Tm2 V4 F28'
_cell_volume   517.35437846
_cell_formula_units_Z   2
loop_
 _symmetry_equiv_pos_site_id
 _symmetry_equiv_pos_as_xyz
  1  'x, y, z'
loop_
 _atom_site_type_symbol
 _atom_site_label
 _atom_site_symmetry_multiplicity
 _atom_site_fract_x
 _atom_site_fract_y
 _atom_site_fract_z
 _atom_site_occupancy
  Sm  Sm0  1  0.241791  0.193925  0.230579  1
  Sm  Sm1  1  0.741791  0.806075  0.269421  1
  Tm  Tm2  1  0.758486  0.811634  0.768317  1
  Tm  Tm3  1  0.258486  0.188366  0.731683  1
  V  V4  1  0.755863  0.276939  0.949512  1
  V  V5  1  0.255863  0.723061  0.550488  1
  V  V6  1  0.247122  0.729241  0.038532  1
  V  V7  1  0.747122  0.270759  0.461468  1
  F  F8  1  0.452482  0.708882  0.918037  1
  F  F9  1  0.952482  0.291118  0.581963  1
  F  F10  1  0.554350  0.295458  0.072326  1
  F  F11  1  0.054350  0.704542  0.427674  1
  F  F12  1  0.461110  0.281085  0.551155  1
  F  F13  1  0.961110  0.718915  0.948845  1
  F  F14  1  0.537579  0.712175  0.460819  1
  F  F15  1  0.037579  0.287825  0.039181  1
  F  F16  1  0.764262  0.509184  0.858336  1
  F  F17  1  0.264262  0.490816  0.641664  1
  F  F18  1  0.231505  0.497587  0.132129  1
  F  F19  1  0.731505  0.502413  0.367871  1
  F  F20  1  0.758983  0.046802  0.042498  1
  F  F21  1  0.258983  0.953198  0.457502  1
  F  F22  1  0.241865  0.959620  0.949485  1
  F  F23  1  0.741865  0.040380  0.550515  1
  F  F24  1  0.980498  0.733493  0.644472  1
  F  F25  1  0.480498  0.266507  0.855528  1
  F  F26  1  0.023370  0.269950  0.366904  1
  F  F27  1  0.523370  0.730050  0.133096  1
  F  F28  1  0.048686  0.746071  0.164568  1
  F  F29  1  0.548686  0.253929  0.335432  1
  F  F30  1  0.961242  0.252840  0.827869  1
  F  F31  1  0.461242  0.747160  0.672131  1
  F  F32  1  0.406863  0.967162  0.228142  1
  F  F33  1  0.906863  0.032838  0.271858  1
  F  F34  1  0.573943  0.023930  0.768132  1
  F  F35  1  0.073943  0.976070  0.731868  1
