# generated using pymatgen
data_Ho8Nb11Si16Ir
_symmetry_space_group_name_H-M   'P 1'
_cell_length_a   7.03728440
_cell_length_b   7.03728437
_cell_length_c   12.98247656
_cell_angle_alpha   90.19818081
_cell_angle_beta   89.80181704
_cell_angle_gamma   89.70217851
_symmetry_Int_Tables_number   1
_chemical_formula_structural   Ho8Nb11Si16Ir
_chemical_formula_sum   'Ho8 Nb11 Si16 Ir1'
_cell_volume   642.91959188
_cell_formula_units_Z   1
loop_
 _symmetry_equiv_pos_site_id
 _symmetry_equiv_pos_as_xyz
  1  'x, y, z'
loop_
 _atom_site_type_symbol
 _atom_site_label
 _atom_site_symmetry_multiplicity
 _atom_site_fract_x
 _atom_site_fract_y
 _atom_site_fract_z
 _atom_site_occupancy
  Ho  Ho0  1  0.341569  0.003574  0.467665  1
  Ho  Ho1  1  0.495504  0.842203  0.719123  1
  Ho  Ho2  1  0.501212  0.158282  0.216507  1
  Ho  Ho3  1  0.842203  0.495504  0.280877  1
  Ho  Ho4  1  0.158282  0.501212  0.783493  1
  Ho  Ho5  1  0.656736  0.997577  0.968286  1
  Ho  Ho6  1  0.003574  0.341569  0.532335  1
  Ho  Ho7  1  0.997577  0.656736  0.031714  1
  Nb  Nb8  1  0.174991  0.828444  0.246941  1
  Nb  Nb9  1  0.828444  0.174991  0.753059  1
  Nb  Nb10  1  0.671477  0.671477  0.500000  1
  Nb  Nb11  1  0.149280  0.001790  0.874709  1
  Nb  Nb12  1  0.494940  0.658966  0.124062  1
  Nb  Nb13  1  0.504719  0.348014  0.626001  1
  Nb  Nb14  1  0.658966  0.494940  0.875938  1
  Nb  Nb15  1  0.348014  0.504719  0.373999  1
  Nb  Nb16  1  0.848360  0.994043  0.373735  1
  Nb  Nb17  1  0.001790  0.149280  0.125291  1
  Nb  Nb18  1  0.994043  0.848360  0.626265  1
  Si  Si19  1  0.202720  0.136222  0.683716  1
  Si  Si20  1  0.368370  0.700622  0.933355  1
  Si  Si21  1  0.635460  0.296056  0.432692  1
  Si  Si22  1  0.700622  0.368370  0.066645  1
  Si  Si23  1  0.296056  0.635460  0.567308  1
  Si  Si24  1  0.795576  0.865220  0.182968  1
  Si  Si25  1  0.136222  0.202720  0.316284  1
  Si  Si26  1  0.865220  0.795576  0.817032  1
  Si  Si27  1  0.289951  0.956722  0.060590  1
  Si  Si28  1  0.546069  0.794530  0.313502  1
  Si  Si29  1  0.448372  0.208973  0.817749  1
  Si  Si30  1  0.794530  0.546069  0.686498  1
  Si  Si31  1  0.208973  0.448372  0.182251  1
  Si  Si32  1  0.705938  0.046424  0.564537  1
  Si  Si33  1  0.956722  0.289951  0.939410  1
  Si  Si34  1  0.046424  0.705938  0.435463  1
  Ir  Ir35  1  0.331097  0.331097  0.000000  1
