# generated using pymatgen
data_NaSc2(H6Ir)2
_symmetry_space_group_name_H-M   'P 1'
_cell_length_a   4.70335100
_cell_length_b   4.70335259
_cell_length_c   8.29108700
_cell_angle_alpha   90.00000000
_cell_angle_beta   90.00000000
_cell_angle_gamma   119.99999583
_symmetry_Int_Tables_number   1
_chemical_formula_structural   NaSc2(H6Ir)2
_chemical_formula_sum   'Na1 Sc2 H12 Ir2'
_cell_volume   158.83896555
_cell_formula_units_Z   1
loop_
 _symmetry_equiv_pos_site_id
 _symmetry_equiv_pos_as_xyz
  1  'x, y, z'
loop_
 _atom_site_type_symbol
 _atom_site_label
 _atom_site_symmetry_multiplicity
 _atom_site_fract_x
 _atom_site_fract_y
 _atom_site_fract_z
 _atom_site_occupancy
  Na  Na0  1  0.000000  0.000000  0.000000  1
  Sc  Sc1  1  0.666667  0.333333  0.366289  1
  Sc  Sc2  1  0.333333  0.666667  0.633711  1
  H  H3  1  0.159884  0.840116  0.389899  1
  H  H4  1  0.680233  0.840116  0.389899  1
  H  H5  1  0.159884  0.319767  0.389899  1
  H  H6  1  0.840116  0.159884  0.610101  1
  H  H7  1  0.319767  0.159884  0.610101  1
  H  H8  1  0.840116  0.680233  0.610101  1
  H  H9  1  0.502048  0.004095  0.844777  1
  H  H10  1  0.502048  0.497952  0.844777  1
  H  H11  1  0.995905  0.497952  0.844777  1
  H  H12  1  0.497952  0.995905  0.155223  1
  H  H13  1  0.497952  0.502048  0.155223  1
  H  H14  1  0.004095  0.502048  0.155223  1
  Ir  Ir15  1  0.666667  0.333333  0.722833  1
  Ir  Ir16  1  0.333333  0.666667  0.277167  1
