# generated using pymatgen
data_Er5Lu15(CoBi2)4
_symmetry_space_group_name_H-M   'P 1'
_cell_length_a   7.84232110
_cell_length_b   8.85673000
_cell_length_c   12.26453816
_cell_angle_alpha   90.00000000
_cell_angle_beta   90.01836402
_cell_angle_gamma   90.00000000
_symmetry_Int_Tables_number   1
_chemical_formula_structural   Er5Lu15(CoBi2)4
_chemical_formula_sum   'Er5 Lu15 Co4 Bi8'
_cell_volume   851.86191460
_cell_formula_units_Z   1
loop_
 _symmetry_equiv_pos_site_id
 _symmetry_equiv_pos_as_xyz
  1  'x, y, z'
loop_
 _atom_site_type_symbol
 _atom_site_label
 _atom_site_symmetry_multiplicity
 _atom_site_fract_x
 _atom_site_fract_y
 _atom_site_fract_z
 _atom_site_occupancy
  Er  Er0  1  0.347005  0.750000  0.700008  1
  Er  Er1  1  0.653497  0.250000  0.299904  1
  Er  Er2  1  0.846695  0.250000  0.799895  1
  Er  Er3  1  0.153410  0.750000  0.200048  1
  Er  Er4  1  0.884343  0.750000  0.812736  1
  Lu  Lu5  1  0.113741  0.250000  0.185721  1
  Lu  Lu6  1  0.386295  0.250000  0.685472  1
  Lu  Lu7  1  0.613688  0.750000  0.314558  1
  Lu  Lu8  1  0.672520  0.538030  0.562191  1
  Lu  Lu9  1  0.327476  0.461740  0.437528  1
  Lu  Lu10  1  0.173008  0.461049  0.938047  1
  Lu  Lu11  1  0.327476  0.038260  0.437528  1
  Lu  Lu12  1  0.827656  0.537650  0.062905  1
  Lu  Lu13  1  0.672520  0.961970  0.562191  1
  Lu  Lu14  1  0.827656  0.962350  0.062905  1
  Lu  Lu15  1  0.173008  0.038951  0.938047  1
  Lu  Lu16  1  0.058644  0.750000  0.497408  1
  Lu  Lu17  1  0.941568  0.250000  0.502520  1
  Lu  Lu18  1  0.558284  0.250000  0.002752  1
  Lu  Lu19  1  0.441585  0.750000  0.997322  1
  Co  Co20  1  0.066739  0.750000  0.992431  1
  Co  Co21  1  0.933320  0.250000  0.008081  1
  Co  Co22  1  0.566524  0.250000  0.507804  1
  Co  Co23  1  0.433399  0.750000  0.492109  1
  Bi  Bi24  1  0.568151  0.508487  0.828274  1
  Bi  Bi25  1  0.431028  0.490911  0.171806  1
  Bi  Bi26  1  0.069881  0.490323  0.671547  1
  Bi  Bi27  1  0.431028  0.009089  0.171806  1
  Bi  Bi28  1  0.930913  0.509223  0.328315  1
  Bi  Bi29  1  0.568151  0.991513  0.828274  1
  Bi  Bi30  1  0.930913  0.990777  0.328315  1
  Bi  Bi31  1  0.069881  0.009677  0.671547  1
