# generated using pymatgen
data_Tl2Au(IO3)5
_symmetry_space_group_name_H-M   'P 1'
_cell_length_a   8.37332500
_cell_length_b   8.37332522
_cell_length_c   11.87089300
_cell_angle_alpha   90.00000000
_cell_angle_beta   90.00000000
_cell_angle_gamma   90.76851484
_symmetry_Int_Tables_number   1
_chemical_formula_structural   Tl2Au(IO3)5
_chemical_formula_sum   'Tl4 Au2 I10 O30'
_cell_volume   832.22398756
_cell_formula_units_Z   2
loop_
 _symmetry_equiv_pos_site_id
 _symmetry_equiv_pos_as_xyz
  1  'x, y, z'
loop_
 _atom_site_type_symbol
 _atom_site_label
 _atom_site_symmetry_multiplicity
 _atom_site_fract_x
 _atom_site_fract_y
 _atom_site_fract_z
 _atom_site_occupancy
  Tl  Tl0  1  0.994037  0.472027  0.431431  1
  Tl  Tl1  1  0.527973  0.005963  0.431431  1
  Tl  Tl2  1  0.005963  0.527973  0.931431  1
  Tl  Tl3  1  0.472027  0.994037  0.931431  1
  Au  Au4  1  0.990403  0.009597  0.315765  1
  Au  Au5  1  0.009597  0.990403  0.815765  1
  I  I6  1  0.502866  0.497134  0.443375  1
  I  I7  1  0.497134  0.502866  0.943375  1
  I  I8  1  0.763341  0.236659  0.155527  1
  I  I9  1  0.236659  0.763341  0.655527  1
  I  I10  1  0.257761  0.742239  0.209340  1
  I  I11  1  0.742239  0.257761  0.709340  1
  I  I12  1  0.272682  0.239081  0.187211  1
  I  I13  1  0.760919  0.727318  0.187211  1
  I  I14  1  0.727318  0.760919  0.687212  1
  I  I15  1  0.239081  0.272682  0.687212  1
  O  O16  1  0.639612  0.360388  0.513902  1
  O  O17  1  0.360388  0.639612  0.013902  1
  O  O18  1  0.314769  0.447991  0.517234  1
  O  O19  1  0.552009  0.685231  0.517234  1
  O  O20  1  0.685231  0.552009  0.017234  1
  O  O21  1  0.447991  0.314769  0.017234  1
  O  O22  1  0.962786  0.277023  0.100949  1
  O  O23  1  0.722977  0.037214  0.100949  1
  O  O24  1  0.037214  0.722977  0.600949  1
  O  O25  1  0.277023  0.962786  0.600949  1
  O  O26  1  0.819778  0.180222  0.307165  1
  O  O27  1  0.180222  0.819778  0.807165  1
  O  O28  1  0.228722  0.539232  0.263002  1
  O  O29  1  0.460768  0.771278  0.263002  1
  O  O30  1  0.771278  0.460768  0.763002  1
  O  O31  1  0.539232  0.228722  0.763002  1
  O  O32  1  0.159262  0.840738  0.338049  1
  O  O33  1  0.840738  0.159262  0.838049  1
  O  O34  1  0.276846  0.037789  0.128410  1
  O  O35  1  0.962211  0.723154  0.128410  1
  O  O36  1  0.723154  0.962211  0.628410  1
  O  O37  1  0.037789  0.276846  0.628410  1
  O  O38  1  0.461635  0.252713  0.263801  1
  O  O39  1  0.747287  0.538365  0.263801  1
  O  O40  1  0.538365  0.747287  0.763801  1
  O  O41  1  0.252713  0.461635  0.763801  1
  O  O42  1  0.157899  0.185606  0.323779  1
  O  O43  1  0.814394  0.842101  0.323779  1
  O  O44  1  0.842101  0.814394  0.823779  1
  O  O45  1  0.185606  0.157899  0.823779  1
