# generated using pymatgen
data_LiTi6Zn5Pd12
_symmetry_space_group_name_H-M   'P 1'
_cell_length_a   4.00740100
_cell_length_b   7.45754600
_cell_length_c   11.98472700
_cell_angle_alpha   90.00000000
_cell_angle_beta   89.99988544
_cell_angle_gamma   90.00000000
_symmetry_Int_Tables_number   1
_chemical_formula_structural   LiTi6Zn5Pd12
_chemical_formula_sum   'Li1 Ti6 Zn5 Pd12'
_cell_volume   358.16808821
_cell_formula_units_Z   1
loop_
 _symmetry_equiv_pos_site_id
 _symmetry_equiv_pos_as_xyz
  1  'x, y, z'
loop_
 _atom_site_type_symbol
 _atom_site_label
 _atom_site_symmetry_multiplicity
 _atom_site_fract_x
 _atom_site_fract_y
 _atom_site_fract_z
 _atom_site_occupancy
  Li  Li0  1  0.500000  0.000000  0.833353  1
  Ti  Ti1  1  0.000000  0.000000  0.998342  1
  Ti  Ti2  1  0.500000  0.500001  0.165709  1
  Ti  Ti3  1  0.000000  0.000000  0.333330  1
  Ti  Ti4  1  0.500000  0.500001  0.500921  1
  Ti  Ti5  1  0.999998  0.000000  0.668329  1
  Ti  Ti6  1  0.500002  0.500001  0.833369  1
  Zn  Zn7  1  0.000000  0.500001  0.999239  1
  Zn  Zn8  1  0.499999  0.000000  0.165557  1
  Zn  Zn9  1  0.999999  0.500001  0.333295  1
  Zn  Zn10  1  0.500000  0.000000  0.501158  1
  Zn  Zn11  1  0.000001  0.500001  0.667463  1
  Pd  Pd12  1  0.500001  0.248919  0.999076  1
  Pd  Pd13  1  0.500001  0.751081  0.999076  1
  Pd  Pd14  1  0.000000  0.250679  0.166671  1
  Pd  Pd15  1  0.000000  0.749321  0.166671  1
  Pd  Pd16  1  0.499998  0.250030  0.333308  1
  Pd  Pd17  1  0.499998  0.749970  0.333308  1
  Pd  Pd18  1  0.000000  0.250695  0.500010  1
  Pd  Pd19  1  0.000000  0.749305  0.500010  1
  Pd  Pd20  1  0.500003  0.248908  0.667609  1
  Pd  Pd21  1  0.500003  0.751092  0.667609  1
  Pd  Pd22  1  0.000000  0.247228  0.833292  1
  Pd  Pd23  1  0.000000  0.752772  0.833292  1
