# generated using pymatgen
data_K4CrTcP4
_symmetry_space_group_name_H-M   'P 1'
_cell_length_a   8.04617703
_cell_length_b   8.04617772
_cell_length_c   8.04617793
_cell_angle_alpha   137.07353000
_cell_angle_beta   127.62267620
_cell_angle_gamma   69.95933367
_symmetry_Int_Tables_number   1
_chemical_formula_structural   K4CrTcP4
_chemical_formula_sum   'K4 Cr1 Tc1 P4'
_cell_volume   275.69589615
_cell_formula_units_Z   1
loop_
 _symmetry_equiv_pos_site_id
 _symmetry_equiv_pos_as_xyz
  1  'x, y, z'
loop_
 _atom_site_type_symbol
 _atom_site_label
 _atom_site_symmetry_multiplicity
 _atom_site_fract_x
 _atom_site_fract_y
 _atom_site_fract_z
 _atom_site_occupancy
  K  K0  1  0.308277  0.150867  0.156197  1
  K  K1  1  0.691723  0.847920  0.842590  1
  K  K2  1  0.005330  0.349133  0.657410  1
  K  K3  1  0.994670  0.652080  0.343803  1
  Cr  Cr4  1  0.500000  0.250000  0.750000  1
  Tc  Tc5  1  0.500000  0.750000  0.250000  1
  P  P6  1  0.421973  0.584672  0.819327  1
  P  P7  1  0.234654  0.915328  0.337301  1
  P  P8  1  0.765346  0.102646  0.680673  1
  P  P9  1  0.578027  0.397354  0.162699  1
