# generated using pymatgen
data_TbNd4SmOsI10
_symmetry_space_group_name_H-M   'P 1'
_cell_length_a   7.95037068
_cell_length_b   9.99767454
_cell_length_c   9.98600734
_cell_angle_alpha   107.26828040
_cell_angle_beta   96.22783340
_cell_angle_gamma   104.58560346
_symmetry_Int_Tables_number   1
_chemical_formula_structural   TbNd4SmOsI10
_chemical_formula_sum   'Tb1 Nd4 Sm1 Os1 I10'
_cell_volume   718.97182540
_cell_formula_units_Z   1
loop_
 _symmetry_equiv_pos_site_id
 _symmetry_equiv_pos_as_xyz
  1  'x, y, z'
loop_
 _atom_site_type_symbol
 _atom_site_label
 _atom_site_symmetry_multiplicity
 _atom_site_fract_x
 _atom_site_fract_y
 _atom_site_fract_z
 _atom_site_occupancy
  Tb  Tb0  1  0.348661  0.124646  0.166194  1
  Nd  Nd1  1  0.118376  0.042426  0.759748  1
  Nd  Nd2  1  0.884180  0.958520  0.241237  1
  Nd  Nd3  1  0.968429  0.282024  0.084735  1
  Nd  Nd4  1  0.033358  0.718406  0.916151  1
  Sm  Sm5  1  0.647722  0.874913  0.832721  1
  Os  Os6  1  0.001294  0.000480  0.000414  1
  I  I7  1  0.352183  0.442437  0.269579  1
  I  I8  1  0.649433  0.553443  0.729726  1
  I  I9  1  0.260772  0.086702  0.453071  1
  I  I10  1  0.741482  0.914195  0.544274  1
  I  I11  1  0.086942  0.368379  0.818139  1
  I  I12  1  0.913010  0.631555  0.181856  1
  I  I13  1  0.453821  0.821298  0.091954  1
  I  I14  1  0.544914  0.181980  0.912159  1
  I  I15  1  0.771130  0.254352  0.344726  1
  I  I16  1  0.224294  0.744244  0.653314  1
