# generated using pymatgen
data_Pa2Al2VCu
_symmetry_space_group_name_H-M   'P 1'
_cell_length_a   5.11333616
_cell_length_b   5.53581083
_cell_length_c   5.11333681
_cell_angle_alpha   62.12929116
_cell_angle_beta   62.17008219
_cell_angle_gamma   62.12931895
_symmetry_Int_Tables_number   1
_chemical_formula_structural   Pa2Al2VCu
_chemical_formula_sum   'Pa2 Al2 V1 Cu1'
_cell_volume   107.24746524
_cell_formula_units_Z   1
loop_
 _symmetry_equiv_pos_site_id
 _symmetry_equiv_pos_as_xyz
  1  'x, y, z'
loop_
 _atom_site_type_symbol
 _atom_site_label
 _atom_site_symmetry_multiplicity
 _atom_site_fract_x
 _atom_site_fract_y
 _atom_site_fract_z
 _atom_site_occupancy
  Pa  Pa0  1  0.638677  0.581261  0.638677  1
  Pa  Pa1  1  0.361323  0.418739  0.361323  1
  Al  Al2  1  0.500000  0.000000  0.000000  1
  Al  Al3  1  0.000000  0.000000  0.500000  1
  V  V4  1  0.000000  0.500000  0.000000  1
  Cu  Cu5  1  0.000000  0.000000  0.000000  1
