# generated using pymatgen
data_LiHo4Co4(P4Ir5)3
_symmetry_space_group_name_H-M   'P 1'
_cell_length_a   3.91063500
_cell_length_b   10.73733325
_cell_length_c   12.40604825
_cell_angle_alpha   90.02386880
_cell_angle_beta   90.00000000
_cell_angle_gamma   90.00000000
_symmetry_Int_Tables_number   1
_chemical_formula_structural   LiHo4Co4(P4Ir5)3
_chemical_formula_sum   'Li1 Ho4 Co4 P12 Ir15'
_cell_volume   520.92733060
_cell_formula_units_Z   1
loop_
 _symmetry_equiv_pos_site_id
 _symmetry_equiv_pos_as_xyz
  1  'x, y, z'
loop_
 _atom_site_type_symbol
 _atom_site_label
 _atom_site_symmetry_multiplicity
 _atom_site_fract_x
 _atom_site_fract_y
 _atom_site_fract_z
 _atom_site_occupancy
  Li  Li0  1  0.250000  0.703938  0.985061  1
  Ho  Ho1  1  0.250000  0.584310  0.710509  1
  Ho  Ho2  1  0.250000  0.913570  0.208420  1
  Ho  Ho3  1  0.750000  0.416708  0.291181  1
  Ho  Ho4  1  0.750000  0.080810  0.792784  1
  Co  Co5  1  0.250000  0.460659  0.934731  1
  Co  Co6  1  0.250000  0.038067  0.432545  1
  Co  Co7  1  0.750000  0.535568  0.064019  1
  Co  Co8  1  0.750000  0.961975  0.563287  1
  P  P9  1  0.250000  0.427830  0.106586  1
  P  P10  1  0.250000  0.075186  0.604206  1
  P  P11  1  0.750000  0.575124  0.892314  1
  P  P12  1  0.750000  0.926477  0.391981  1
  P  P13  1  0.250000  0.268893  0.868816  1
  P  P14  1  0.250000  0.230151  0.372858  1
  P  P15  1  0.750000  0.730691  0.128511  1
  P  P16  1  0.750000  0.772169  0.630019  1
  P  P17  1  0.250000  0.596699  0.383245  1
  P  P18  1  0.250000  0.899662  0.889385  1
  P  P19  1  0.750000  0.404844  0.616802  1
  P  P20  1  0.750000  0.092821  0.111831  1
  Ir  Ir21  1  0.250000  0.777679  0.485674  1
  Ir  Ir22  1  0.750000  0.284522  0.024599  1
  Ir  Ir23  1  0.750000  0.224342  0.513336  1
  Ir  Ir24  1  0.250000  0.411161  0.477926  1
  Ir  Ir25  1  0.250000  0.097435  0.980497  1
  Ir  Ir26  1  0.750000  0.592227  0.524882  1
  Ir  Ir27  1  0.750000  0.906848  0.017218  1
  Ir  Ir28  1  0.250000  0.235449  0.182945  1
  Ir  Ir29  1  0.250000  0.269476  0.676108  1
  Ir  Ir30  1  0.750000  0.769638  0.819396  1
  Ir  Ir31  1  0.750000  0.730540  0.322810  1
  Ir  Ir32  1  0.250000  0.891214  0.697949  1
  Ir  Ir33  1  0.250000  0.617563  0.196268  1
  Ir  Ir34  1  0.750000  0.111882  0.297648  1
  Ir  Ir35  1  0.750000  0.383873  0.803654  1
