# generated using pymatgen
data_Ba2Ga3PIr4
_symmetry_space_group_name_H-M   'P 1'
_cell_length_a   8.38794759
_cell_length_b   7.31374288
_cell_length_c   6.14456542
_cell_angle_alpha   76.56102273
_cell_angle_beta   57.00857654
_cell_angle_gamma   45.43774253
_symmetry_Int_Tables_number   1
_chemical_formula_structural   Ba2Ga3PIr4
_chemical_formula_sum   'Ba2 Ga3 P1 Ir4'
_cell_volume   218.08808850
_cell_formula_units_Z   1
loop_
 _symmetry_equiv_pos_site_id
 _symmetry_equiv_pos_as_xyz
  1  'x, y, z'
loop_
 _atom_site_type_symbol
 _atom_site_label
 _atom_site_symmetry_multiplicity
 _atom_site_fract_x
 _atom_site_fract_y
 _atom_site_fract_z
 _atom_site_occupancy
  Ba  Ba0  1  0.501587  0.498413  0.501587  1
  Ba  Ba1  1  0.750733  0.749267  0.750733  1
  Ga  Ga2  1  0.180730  0.819270  0.180730  1
  Ga  Ga3  1  0.431398  0.068602  0.431398  1
  Ga  Ga4  1  0.071638  0.428362  0.071638  1
  P  P5  1  0.824235  0.175765  0.824235  1
  Ir  Ir6  1  0.096511  0.133206  0.886864  1
  Ir  Ir7  1  0.886864  0.883419  0.096511  1
  Ir  Ir8  1  0.109506  0.134393  0.396798  1
  Ir  Ir9  1  0.396798  0.359303  0.109506  1
