# generated using pymatgen
data_GdB3W
_symmetry_space_group_name_H-M   'P 1'
_cell_length_a   3.16079600
_cell_length_b   5.48786913
_cell_length_c   6.86609621
_cell_angle_alpha   77.29866666
_cell_angle_beta   90.00000000
_cell_angle_gamma   90.00000000
_symmetry_Int_Tables_number   1
_chemical_formula_structural   GdB3W
_chemical_formula_sum   'Gd2 B6 W2'
_cell_volume   116.18510970
_cell_formula_units_Z   2
loop_
 _symmetry_equiv_pos_site_id
 _symmetry_equiv_pos_as_xyz
  1  'x, y, z'
loop_
 _atom_site_type_symbol
 _atom_site_label
 _atom_site_symmetry_multiplicity
 _atom_site_fract_x
 _atom_site_fract_y
 _atom_site_fract_z
 _atom_site_occupancy
  Gd  Gd0  1  0.250000  0.328325  0.706669  1
  Gd  Gd1  1  0.750000  0.671675  0.293331  1
  B  B2  1  0.250000  0.919457  0.526316  1
  B  B3  1  0.750000  0.080543  0.473684  1
  B  B4  1  0.250000  0.912622  0.005728  1
  B  B5  1  0.750000  0.087378  0.994272  1
  B  B6  1  0.250000  0.583001  0.006817  1
  B  B7  1  0.750000  0.416999  0.993183  1
  W  W8  1  0.250000  0.186648  0.218476  1
  W  W9  1  0.750000  0.813352  0.781524  1
