# generated using pymatgen
data_CaTa8CuS16
_symmetry_space_group_name_H-M   'P 1'
_cell_length_a   6.72412500
_cell_length_b   6.72412080
_cell_length_c   13.08751300
_cell_angle_alpha   89.99994887
_cell_angle_beta   90.00004260
_cell_angle_gamma   120.00014366
_symmetry_Int_Tables_number   1
_chemical_formula_structural   CaTa8CuS16
_chemical_formula_sum   'Ca1 Ta8 Cu1 S16'
_cell_volume   512.45816164
_cell_formula_units_Z   1
loop_
 _symmetry_equiv_pos_site_id
 _symmetry_equiv_pos_as_xyz
  1  'x, y, z'
loop_
 _atom_site_type_symbol
 _atom_site_label
 _atom_site_symmetry_multiplicity
 _atom_site_fract_x
 _atom_site_fract_y
 _atom_site_fract_z
 _atom_site_occupancy
  Ca  Ca0  1  0.000000  0.000000  0.500000  1
  Ta  Ta1  1  0.506211  0.493789  0.768521  1
  Ta  Ta2  1  0.012421  0.506211  0.231479  1
  Ta  Ta3  1  0.493789  0.987579  0.231479  1
  Ta  Ta4  1  0.506211  0.012421  0.768521  1
  Ta  Ta5  1  0.987579  0.493789  0.768521  1
  Ta  Ta6  1  0.493789  0.506211  0.231479  1
  Ta  Ta7  1  0.000000  0.000000  0.770573  1
  Ta  Ta8  1  0.000000  0.000000  0.229427  1
  Cu  Cu9  1  0.000000  0.000000  0.000000  1
  S  S10  1  0.832070  0.167931  0.348817  1
  S  S11  1  0.832068  0.664140  0.348816  1
  S  S12  1  0.335860  0.167932  0.348816  1
  S  S13  1  0.660114  0.830056  0.885562  1
  S  S14  1  0.167932  0.335860  0.651184  1
  S  S15  1  0.169943  0.830057  0.885562  1
  S  S16  1  0.169944  0.339886  0.885562  1
  S  S17  1  0.830057  0.169943  0.114438  1
  S  S18  1  0.339886  0.169944  0.114438  1
  S  S19  1  0.664140  0.832068  0.651184  1
  S  S20  1  0.333333  0.666666  0.110674  1
  S  S21  1  0.666667  0.333334  0.644936  1
  S  S22  1  0.666667  0.333334  0.889326  1
  S  S23  1  0.333333  0.666666  0.355064  1
  S  S24  1  0.830056  0.660114  0.114438  1
  S  S25  1  0.167930  0.832069  0.651183  1
