# generated using pymatgen
data_Tb3ZnHg3Au2
_symmetry_space_group_name_H-M   'P 1'
_cell_length_a   7.95375200
_cell_length_b   7.95375262
_cell_length_c   3.76052900
_cell_angle_alpha   90.00000000
_cell_angle_beta   90.00000000
_cell_angle_gamma   119.99999743
_symmetry_Int_Tables_number   1
_chemical_formula_structural   Tb3ZnHg3Au2
_chemical_formula_sum   'Tb3 Zn1 Hg3 Au2'
_cell_volume   206.02679647
_cell_formula_units_Z   1
loop_
 _symmetry_equiv_pos_site_id
 _symmetry_equiv_pos_as_xyz
  1  'x, y, z'
loop_
 _atom_site_type_symbol
 _atom_site_label
 _atom_site_symmetry_multiplicity
 _atom_site_fract_x
 _atom_site_fract_y
 _atom_site_fract_z
 _atom_site_occupancy
  Tb  Tb0  1  0.590244  0.000000  0.000000  1
  Tb  Tb1  1  0.000000  0.590244  0.000000  1
  Tb  Tb2  1  0.409756  0.409756  0.000000  1
  Zn  Zn3  1  0.000000  0.000000  0.000000  1
  Hg  Hg4  1  0.259278  0.000000  0.500000  1
  Hg  Hg5  1  0.000000  0.259278  0.500000  1
  Hg  Hg6  1  0.740722  0.740722  0.500000  1
  Au  Au7  1  0.333333  0.666667  0.500000  1
  Au  Au8  1  0.666667  0.333333  0.500000  1
