# generated using pymatgen
data_Er9Lu(Bi2Rh)2
_symmetry_space_group_name_H-M   'P 1'
_cell_length_a   7.92733798
_cell_length_b   8.95376399
_cell_length_c   12.35669731
_cell_angle_alpha   89.97164298
_cell_angle_beta   90.12146014
_cell_angle_gamma   89.92902294
_symmetry_Int_Tables_number   1
_chemical_formula_structural   Er9Lu(Bi2Rh)2
_chemical_formula_sum   'Er18 Lu2 Bi8 Rh4'
_cell_volume   877.06960989
_cell_formula_units_Z   2
loop_
 _symmetry_equiv_pos_site_id
 _symmetry_equiv_pos_as_xyz
  1  'x, y, z'
loop_
 _atom_site_type_symbol
 _atom_site_label
 _atom_site_symmetry_multiplicity
 _atom_site_fract_x
 _atom_site_fract_y
 _atom_site_fract_z
 _atom_site_occupancy
  Er  Er0  1  0.662983  0.749872  0.707513  1
  Er  Er1  1  0.337017  0.250128  0.292487  1
  Er  Er2  1  0.162559  0.250185  0.792736  1
  Er  Er3  1  0.837441  0.749815  0.207264  1
  Er  Er4  1  0.125121  0.749669  0.809387  1
  Er  Er5  1  0.874879  0.250331  0.190613  1
  Er  Er6  1  0.625331  0.250041  0.690987  1
  Er  Er7  1  0.374669  0.749959  0.309013  1
  Er  Er8  1  0.549357  0.749554  0.998586  1
  Er  Er9  1  0.450643  0.250446  0.001414  1
  Er  Er10  1  0.049052  0.250041  0.501300  1
  Er  Er11  1  0.950948  0.749959  0.498700  1
  Er  Er12  1  0.324475  0.543774  0.566576  1
  Er  Er13  1  0.175312  0.956406  0.066415  1
  Er  Er14  1  0.675525  0.456226  0.433424  1
  Er  Er15  1  0.824688  0.043594  0.933585  1
  Er  Er16  1  0.675538  0.043780  0.433444  1
  Er  Er17  1  0.324462  0.956220  0.566556  1
  Lu  Lu18  1  0.826556  0.456079  0.933995  1
  Lu  Lu19  1  0.173444  0.543921  0.066005  1
  Bi  Bi20  1  0.934009  0.008831  0.673356  1
  Bi  Bi21  1  0.065991  0.991169  0.326644  1
  Bi  Bi22  1  0.434067  0.991195  0.826672  1
  Bi  Bi23  1  0.066072  0.508838  0.326447  1
  Bi  Bi24  1  0.565933  0.008805  0.173328  1
  Bi  Bi25  1  0.933928  0.491162  0.673553  1
  Bi  Bi26  1  0.565384  0.491191  0.173216  1
  Bi  Bi27  1  0.434616  0.508809  0.826784  1
  Rh  Rh28  1  0.925252  0.748634  0.990281  1
  Rh  Rh29  1  0.074748  0.251366  0.009719  1
  Rh  Rh30  1  0.424830  0.250009  0.510027  1
  Rh  Rh31  1  0.575170  0.749991  0.489973  1
