# generated using pymatgen
data_Dy16In4CoOs3
_symmetry_space_group_name_H-M   'P 1'
_cell_length_a   9.57398063
_cell_length_b   9.68930897
_cell_length_c   9.68930800
_cell_angle_alpha   59.99999647
_cell_angle_beta   59.60071087
_cell_angle_gamma   59.60070678
_symmetry_Int_Tables_number   1
_chemical_formula_structural   Dy16In4CoOs3
_chemical_formula_sum   'Dy16 In4 Co1 Os3'
_cell_volume   631.70668650
_cell_formula_units_Z   1
loop_
 _symmetry_equiv_pos_site_id
 _symmetry_equiv_pos_as_xyz
  1  'x, y, z'
loop_
 _atom_site_type_symbol
 _atom_site_label
 _atom_site_symmetry_multiplicity
 _atom_site_fract_x
 _atom_site_fract_y
 _atom_site_fract_z
 _atom_site_occupancy
  Dy  Dy0  1  0.602981  0.595492  0.595492  1
  Dy  Dy1  1  0.602981  0.595492  0.206034  1
  Dy  Dy2  1  0.602981  0.206034  0.595492  1
  Dy  Dy3  1  0.205648  0.598117  0.598117  1
  Dy  Dy4  1  0.056950  0.440298  0.440298  1
  Dy  Dy5  1  0.437928  0.059147  0.059147  1
  Dy  Dy6  1  0.437928  0.059147  0.443779  1
  Dy  Dy7  1  0.056950  0.440298  0.062454  1
  Dy  Dy8  1  0.437928  0.443779  0.059147  1
  Dy  Dy9  1  0.056950  0.062454  0.440298  1
  Dy  Dy10  1  0.191448  0.807888  0.807888  1
  Dy  Dy11  1  0.806296  0.189888  0.189888  1
  Dy  Dy12  1  0.806296  0.189888  0.813927  1
  Dy  Dy13  1  0.191448  0.807888  0.192776  1
  Dy  Dy14  1  0.806296  0.813927  0.189888  1
  Dy  Dy15  1  0.191448  0.192776  0.807888  1
  In  In16  1  0.831212  0.832745  0.832745  1
  In  In17  1  0.831212  0.832745  0.503297  1
  In  In18  1  0.831212  0.503297  0.832745  1
  In  In19  1  0.503590  0.832136  0.832136  1
  Co  Co20  1  0.831659  0.389447  0.389447  1
  Os  Os21  1  0.392885  0.388758  0.388758  1
  Os  Os22  1  0.392885  0.388758  0.829601  1
  Os  Os23  1  0.392885  0.829601  0.388758  1
