# generated using pymatgen
data_Pr4Nd2IrI10
_symmetry_space_group_name_H-M   'P 1'
_cell_length_a   8.05163888
_cell_length_b   10.11734844
_cell_length_c   10.05834963
_cell_angle_alpha   106.91464703
_cell_angle_beta   96.66960406
_cell_angle_gamma   104.62744093
_symmetry_Int_Tables_number   1
_chemical_formula_structural   Pr4Nd2IrI10
_chemical_formula_sum   'Pr4 Nd2 Ir1 I10'
_cell_volume   742.42876583
_cell_formula_units_Z   1
loop_
 _symmetry_equiv_pos_site_id
 _symmetry_equiv_pos_as_xyz
  1  'x, y, z'
loop_
 _atom_site_type_symbol
 _atom_site_label
 _atom_site_symmetry_multiplicity
 _atom_site_fract_x
 _atom_site_fract_y
 _atom_site_fract_z
 _atom_site_occupancy
  Pr  Pr0  1  0.149843  0.876444  0.331215  1
  Pr  Pr1  1  0.850157  0.123556  0.668785  1
  Pr  Pr2  1  0.617620  0.044419  0.261162  1
  Pr  Pr3  1  0.382380  0.955581  0.738838  1
  Nd  Nd4  1  0.534201  0.711586  0.412010  1
  Nd  Nd5  1  0.465799  0.288414  0.587990  1
  Ir  Ir6  1  0.500000  0.000000  0.500000  1
  I  I7  1  0.722676  0.746322  0.153373  1
  I  I8  1  0.277324  0.253678  0.846627  1
  I  I9  1  0.047236  0.184930  0.409222  1
  I  I10  1  0.952764  0.815070  0.590778  1
  I  I11  1  0.583909  0.370483  0.321143  1
  I  I12  1  0.416091  0.629517  0.678857  1
  I  I13  1  0.152728  0.552723  0.230616  1
  I  I14  1  0.847272  0.447277  0.769384  1
  I  I15  1  0.754299  0.086146  0.960090  1
  I  I16  1  0.245701  0.913854  0.039910  1
