# generated using pymatgen
data_Y20Cd3Ga(NiAg)2
_symmetry_space_group_name_H-M   'P 1'
_cell_length_a   9.72636010
_cell_length_b   9.72636073
_cell_length_c   9.56481200
_cell_angle_alpha   90.00000000
_cell_angle_beta   90.00000000
_cell_angle_gamma   120.37865363
_symmetry_Int_Tables_number   1
_chemical_formula_structural   Y20Cd3Ga(NiAg)2
_chemical_formula_sum   'Y20 Cd3 Ga1 Ni2 Ag2'
_cell_volume   780.61704610
_cell_formula_units_Z   1
loop_
 _symmetry_equiv_pos_site_id
 _symmetry_equiv_pos_as_xyz
  1  'x, y, z'
loop_
 _atom_site_type_symbol
 _atom_site_label
 _atom_site_symmetry_multiplicity
 _atom_site_fract_x
 _atom_site_fract_y
 _atom_site_fract_z
 _atom_site_occupancy
  Y  Y0  1  0.001034  0.998966  0.471426  1
  Y  Y1  1  0.001034  0.998966  0.028574  1
  Y  Y2  1  0.542436  0.457564  0.250000  1
  Y  Y3  1  0.542221  0.088311  0.250000  1
  Y  Y4  1  0.911689  0.457779  0.250000  1
  Y  Y5  1  0.455790  0.544210  0.750000  1
  Y  Y6  1  0.458119  0.913511  0.750000  1
  Y  Y7  1  0.086489  0.541881  0.750000  1
  Y  Y8  1  0.210863  0.789137  0.438040  1
  Y  Y9  1  0.208730  0.418260  0.435628  1
  Y  Y10  1  0.581740  0.791270  0.435628  1
  Y  Y11  1  0.790998  0.209002  0.558467  1
  Y  Y12  1  0.789618  0.580786  0.563234  1
  Y  Y13  1  0.419214  0.210382  0.563234  1
  Y  Y14  1  0.790998  0.209002  0.941533  1
  Y  Y15  1  0.789618  0.580786  0.936766  1
  Y  Y16  1  0.419214  0.210382  0.936766  1
  Y  Y17  1  0.210863  0.789137  0.061960  1
  Y  Y18  1  0.208730  0.418260  0.064372  1
  Y  Y19  1  0.581740  0.791270  0.064372  1
  Cd  Cd20  1  0.111374  0.888626  0.750000  1
  Cd  Cd21  1  0.110177  0.221373  0.750000  1
  Cd  Cd22  1  0.778627  0.889823  0.750000  1
  Ga  Ga23  1  0.871370  0.128630  0.250000  1
  Ni  Ni24  1  0.332498  0.667502  0.250000  1
  Ni  Ni25  1  0.667527  0.332473  0.750000  1
  Ag  Ag26  1  0.875543  0.748247  0.250000  1
  Ag  Ag27  1  0.251753  0.124457  0.250000  1
