# generated using pymatgen
data_Pt6Rh2W
_symmetry_space_group_name_H-M   'P 1'
_cell_length_a   6.30171416
_cell_length_b   6.30171288
_cell_length_c   6.20019401
_cell_angle_alpha   95.64491496
_cell_angle_beta   95.64491404
_cell_angle_gamma   143.74985588
_symmetry_Int_Tables_number   1
_chemical_formula_structural   Pt6Rh2W
_chemical_formula_sum   'Pt6 Rh2 W1'
_cell_volume   138.12321449
_cell_formula_units_Z   1
loop_
 _symmetry_equiv_pos_site_id
 _symmetry_equiv_pos_as_xyz
  1  'x, y, z'
loop_
 _atom_site_type_symbol
 _atom_site_label
 _atom_site_symmetry_multiplicity
 _atom_site_fract_x
 _atom_site_fract_y
 _atom_site_fract_z
 _atom_site_occupancy
  Pt  Pt0  1  0.660610  0.339390  0.000000  1
  Pt  Pt1  1  0.339390  0.660610  0.000000  1
  Pt  Pt2  1  0.003496  0.327528  0.331024  1
  Pt  Pt3  1  0.996504  0.672472  0.668976  1
  Pt  Pt4  1  0.672472  0.996504  0.668976  1
  Pt  Pt5  1  0.327528  0.003496  0.331024  1
  Rh  Rh6  1  0.339780  0.339780  0.679561  1
  Rh  Rh7  1  0.660220  0.660220  0.320439  1
  W  W8  1  0.000000  0.000000  0.000000  1
