# generated using pymatgen
data_Y4Tm6Ru3Rh
_symmetry_space_group_name_H-M   'P 1'
_cell_length_a   6.30476879
_cell_length_b   7.28817841
_cell_length_c   8.40748238
_cell_angle_alpha   97.04512065
_cell_angle_beta   111.92170662
_cell_angle_gamma   90.02661234
_symmetry_Int_Tables_number   1
_chemical_formula_structural   Y4Tm6Ru3Rh
_chemical_formula_sum   'Y4 Tm6 Ru3 Rh1'
_cell_volume   355.23773699
_cell_formula_units_Z   1
loop_
 _symmetry_equiv_pos_site_id
 _symmetry_equiv_pos_as_xyz
  1  'x, y, z'
loop_
 _atom_site_type_symbol
 _atom_site_label
 _atom_site_symmetry_multiplicity
 _atom_site_fract_x
 _atom_site_fract_y
 _atom_site_fract_z
 _atom_site_occupancy
  Y  Y0  1  0.789358  0.080576  0.812058  1
  Y  Y1  1  0.979537  0.416674  0.192010  1
  Y  Y2  1  0.212142  0.917158  0.189273  1
  Y  Y3  1  0.025062  0.584331  0.811847  1
  Tm  Tm4  1  0.201426  0.182902  0.564465  1
  Tm  Tm5  1  0.639947  0.315044  0.432081  1
  Tm  Tm6  1  0.794899  0.814778  0.434022  1
  Tm  Tm7  1  0.359546  0.686878  0.564589  1
  Tm  Tm8  1  0.419580  0.249310  0.000636  1
  Tm  Tm9  1  0.580281  0.751841  0.001456  1
  Ru  Ru10  1  0.817646  0.075795  0.221244  1
  Ru  Ru11  1  0.404457  0.574712  0.223035  1
  Ru  Ru12  1  0.183877  0.924967  0.777482  1
  Rh  Rh13  1  0.592242  0.425035  0.775804  1
