# generated using pymatgen
data_Pr2B4Ir3Os
_symmetry_space_group_name_H-M   'P 1'
_cell_length_a   7.05952364
_cell_length_b   6.12096982
_cell_length_c   5.64747336
_cell_angle_alpha   73.59707213
_cell_angle_beta   56.28016763
_cell_angle_gamma   49.81273459
_symmetry_Int_Tables_number   1
_chemical_formula_structural   Pr2B4Ir3Os
_chemical_formula_sum   'Pr2 B4 Ir3 Os1'
_cell_volume   153.95474306
_cell_formula_units_Z   1
loop_
 _symmetry_equiv_pos_site_id
 _symmetry_equiv_pos_as_xyz
  1  'x, y, z'
loop_
 _atom_site_type_symbol
 _atom_site_label
 _atom_site_symmetry_multiplicity
 _atom_site_fract_x
 _atom_site_fract_y
 _atom_site_fract_z
 _atom_site_occupancy
  Pr  Pr0  1  0.501240  0.501240  0.498760  1
  Pr  Pr1  1  0.749757  0.749757  0.750243  1
  B  B2  1  0.163601  0.827369  0.189158  1
  B  B3  1  0.075696  0.430734  0.060804  1
  B  B4  1  0.827369  0.163601  0.819872  1
  B  B5  1  0.430734  0.075696  0.432766  1
  Ir  Ir6  1  0.131297  0.131297  0.868703  1
  Ir  Ir7  1  0.382994  0.382994  0.117006  1
  Ir  Ir8  1  0.120022  0.120022  0.379978  1
  Os  Os9  1  0.867291  0.867291  0.132709  1
