# generated using pymatgen
data_Er6Fe3Si6Ir
_symmetry_space_group_name_H-M   'P 1'
_cell_length_a   5.61540412
_cell_length_b   5.61540534
_cell_length_c   13.49830823
_cell_angle_alpha   89.85833801
_cell_angle_beta   90.14166286
_cell_angle_gamma   137.12832929
_symmetry_Int_Tables_number   1
_chemical_formula_structural   Er6Fe3Si6Ir
_chemical_formula_sum   'Er6 Fe3 Si6 Ir1'
_cell_volume   289.58616317
_cell_formula_units_Z   1
loop_
 _symmetry_equiv_pos_site_id
 _symmetry_equiv_pos_as_xyz
  1  'x, y, z'
loop_
 _atom_site_type_symbol
 _atom_site_label
 _atom_site_symmetry_multiplicity
 _atom_site_fract_x
 _atom_site_fract_y
 _atom_site_fract_z
 _atom_site_occupancy
  Er  Er0  1  0.638070  0.361930  0.248258  1
  Er  Er1  1  0.362746  0.637254  0.750088  1
  Er  Er2  1  0.918811  0.081189  0.111914  1
  Er  Er3  1  0.078888  0.921112  0.889592  1
  Er  Er4  1  0.079159  0.920841  0.614570  1
  Er  Er5  1  0.922457  0.077543  0.383397  1
  Fe  Fe6  1  0.213366  0.786634  0.421477  1
  Fe  Fe7  1  0.212677  0.787323  0.080856  1
  Fe  Fe8  1  0.785173  0.214827  0.920244  1
  Si  Si9  1  0.325761  0.674239  0.249609  1
  Si  Si10  1  0.670987  0.329013  0.754754  1
  Si  Si11  1  0.623404  0.376596  0.039340  1
  Si  Si12  1  0.374182  0.625818  0.961025  1
  Si  Si13  1  0.386557  0.613443  0.533679  1
  Si  Si14  1  0.618877  0.381123  0.457996  1
  Ir  Ir15  1  0.788884  0.211116  0.583201  1
