# generated using pymatgen
data_Zr6GaSnSb
_symmetry_space_group_name_H-M   'P 1'
_cell_length_a   7.74009600
_cell_length_b   7.74009620
_cell_length_c   3.87490300
_cell_angle_alpha   90.00000000
_cell_angle_beta   90.00000000
_cell_angle_gamma   119.99999913
_symmetry_Int_Tables_number   1
_chemical_formula_structural   Zr6GaSnSb
_chemical_formula_sum   'Zr6 Ga1 Sn1 Sb1'
_cell_volume   201.04078753
_cell_formula_units_Z   1
loop_
 _symmetry_equiv_pos_site_id
 _symmetry_equiv_pos_as_xyz
  1  'x, y, z'
loop_
 _atom_site_type_symbol
 _atom_site_label
 _atom_site_symmetry_multiplicity
 _atom_site_fract_x
 _atom_site_fract_y
 _atom_site_fract_z
 _atom_site_occupancy
  Zr  Zr0  1  0.398588  0.997843  0.000000  1
  Zr  Zr1  1  0.002157  0.400744  0.000000  1
  Zr  Zr2  1  0.599255  0.601413  0.000000  1
  Zr  Zr3  1  0.754240  0.001151  0.499999  1
  Zr  Zr4  1  0.246911  0.245760  0.499999  1
  Zr  Zr5  1  0.998849  0.753089  0.499999  1
  Ga  Ga6  1  0.000000  0.000000  0.000000  1
  Sn  Sn7  1  0.666667  0.333334  0.499999  1
  Sb  Sb8  1  0.333333  0.666666  0.499999  1
