# generated using pymatgen
data_Li7La8MgSn8
_symmetry_space_group_name_H-M   'P 1'
_cell_length_a   9.73253773
_cell_length_b   9.73250842
_cell_length_c   7.86002836
_cell_angle_alpha   89.87149034
_cell_angle_beta   90.12837089
_cell_angle_gamma   119.95620595
_symmetry_Int_Tables_number   1
_chemical_formula_structural   Li7La8MgSn8
_chemical_formula_sum   'Li7 La8 Mg1 Sn8'
_cell_volume   645.05338319
_cell_formula_units_Z   1
loop_
 _symmetry_equiv_pos_site_id
 _symmetry_equiv_pos_as_xyz
  1  'x, y, z'
loop_
 _atom_site_type_symbol
 _atom_site_label
 _atom_site_symmetry_multiplicity
 _atom_site_fract_x
 _atom_site_fract_y
 _atom_site_fract_z
 _atom_site_occupancy
  Li  Li0  1  0.834743  0.667021  0.711897  1
  Li  Li1  1  0.332978  0.165255  0.711897  1
  Li  Li2  1  0.166987  0.833014  0.209848  1
  Li  Li3  1  0.166998  0.333761  0.212086  1
  Li  Li4  1  0.666239  0.833002  0.212085  1
  Li  Li5  1  0.666721  0.333278  0.327628  1
  Li  Li6  1  0.331855  0.668145  0.829571  1
  La  La7  1  0.488794  0.511212  0.502928  1
  La  La8  1  0.483524  0.974359  0.502263  1
  La  La9  1  0.025643  0.516479  0.502260  1
  La  La10  1  0.510856  0.489138  0.008750  1
  La  La11  1  0.509638  0.022074  0.006447  1
  La  La12  1  0.977925  0.490360  0.006447  1
  La  La13  1  0.003756  0.996238  0.497812  1
  La  La14  1  0.000288  0.999719  0.002347  1
  Mg  Mg15  1  0.833282  0.166716  0.708347  1
  Sn  Sn16  1  0.833666  0.166334  0.274831  1
  Sn  Sn17  1  0.833234  0.666185  0.271698  1
  Sn  Sn18  1  0.333816  0.166767  0.271694  1
  Sn  Sn19  1  0.166476  0.833524  0.772490  1
  Sn  Sn20  1  0.171378  0.335831  0.774473  1
  Sn  Sn21  1  0.664170  0.828621  0.774473  1
  Sn  Sn22  1  0.663750  0.336247  0.734520  1
  Sn  Sn23  1  0.333282  0.666720  0.231214  1
