# generated using pymatgen
data_Er12AlCd11C4
_symmetry_space_group_name_H-M   'P 1'
_cell_length_a   9.47323739
_cell_length_b   9.47282159
_cell_length_c   9.47894851
_cell_angle_alpha   119.97712237
_cell_angle_beta   90.06704384
_cell_angle_gamma   119.99760287
_symmetry_Int_Tables_number   1
_chemical_formula_structural   Er12AlCd11C4
_chemical_formula_sum   'Er12 Al1 Cd11 C4'
_cell_volume   601.35968771
_cell_formula_units_Z   1
loop_
 _symmetry_equiv_pos_site_id
 _symmetry_equiv_pos_as_xyz
  1  'x, y, z'
loop_
 _atom_site_type_symbol
 _atom_site_label
 _atom_site_symmetry_multiplicity
 _atom_site_fract_x
 _atom_site_fract_y
 _atom_site_fract_z
 _atom_site_occupancy
  Er  Er0  1  0.936045  0.372196  0.186224  1
  Er  Er1  1  0.936070  0.750104  0.186235  1
  Er  Er2  1  0.313732  0.750140  0.186556  1
  Er  Er3  1  0.687040  0.247464  0.434809  1
  Er  Er4  1  0.687037  0.874364  0.434804  1
  Er  Er5  1  0.060022  0.247566  0.435113  1
  Er  Er6  1  0.313625  0.127002  0.563242  1
  Er  Er7  1  0.313610  0.749865  0.563236  1
  Er  Er8  1  0.936551  0.749940  0.563352  1
  Er  Er9  1  0.687586  0.250079  0.812570  1
  Er  Er10  1  0.062931  0.625827  0.813017  1
  Er  Er11  1  0.062915  0.250124  0.812998  1
  Al  Al12  1  0.706665  0.912277  0.117910  1
  Cd  Cd13  1  0.997489  0.000365  0.003261  1
  Cd  Cd14  1  0.503008  0.000491  0.003498  1
  Cd  Cd15  1  0.503013  0.506034  0.003496  1
  Cd  Cd16  1  0.291280  0.082447  0.208496  1
  Cd  Cd17  1  0.291271  0.417306  0.208476  1
  Cd  Cd18  1  0.625790  0.417183  0.208566  1
  Cd  Cd19  1  0.500172  0.500137  0.500120  1
  Cd  Cd20  1  0.374664  0.583417  0.792165  1
  Cd  Cd21  1  0.708751  0.583340  0.792314  1
  Cd  Cd22  1  0.708743  0.917739  0.792322  1
  Cd  Cd23  1  0.291790  0.083769  0.875748  1
  C  C24  1  0.000543  0.501094  0.001645  1
  C  C25  1  0.000732  0.999173  0.499869  1
  C  C26  1  0.498209  0.999148  0.500100  1
  C  C27  1  0.000722  0.501422  0.499863  1
