# generated using pymatgen
data_Er2GaB2Ir4Ru
_symmetry_space_group_name_H-M   'P 1'
_cell_length_a   9.61353800
_cell_length_b   9.61353800
_cell_length_c   3.09314700
_cell_angle_alpha   90.00000000
_cell_angle_beta   90.00000000
_cell_angle_gamma   90.00000000
_symmetry_Int_Tables_number   1
_chemical_formula_structural   Er2GaB2Ir4Ru
_chemical_formula_sum   'Er4 Ga2 B4 Ir8 Ru2'
_cell_volume   285.86899489
_cell_formula_units_Z   2
loop_
 _symmetry_equiv_pos_site_id
 _symmetry_equiv_pos_as_xyz
  1  'x, y, z'
loop_
 _atom_site_type_symbol
 _atom_site_label
 _atom_site_symmetry_multiplicity
 _atom_site_fract_x
 _atom_site_fract_y
 _atom_site_fract_z
 _atom_site_occupancy
  Er  Er0  1  0.825507  0.325507  0.000000  1
  Er  Er1  1  0.174493  0.674493  0.000000  1
  Er  Er2  1  0.325507  0.174493  0.000000  1
  Er  Er3  1  0.674493  0.825507  0.000000  1
  Ga  Ga4  1  0.500000  0.500000  0.000000  1
  Ga  Ga5  1  0.000000  0.000000  0.000000  1
  B  B6  1  0.621429  0.121429  0.000000  1
  B  B7  1  0.378571  0.878571  0.000000  1
  B  B8  1  0.121429  0.378571  0.000000  1
  B  B9  1  0.878571  0.621429  0.000000  1
  Ir  Ir10  1  0.717879  0.569559  0.500000  1
  Ir  Ir11  1  0.282121  0.430441  0.500000  1
  Ir  Ir12  1  0.217879  0.930441  0.500000  1
  Ir  Ir13  1  0.782121  0.069559  0.500000  1
  Ir  Ir14  1  0.430441  0.717879  0.500000  1
  Ir  Ir15  1  0.569559  0.282121  0.500000  1
  Ir  Ir16  1  0.069559  0.217879  0.500000  1
  Ir  Ir17  1  0.930441  0.782121  0.500000  1
  Ru  Ru18  1  0.500000  0.000000  0.500000  1
  Ru  Ru19  1  0.000000  0.500000  0.500000  1
