# generated using pymatgen
data_Zn13Os
_symmetry_space_group_name_H-M   'P 1'
_cell_length_a   6.62176334
_cell_length_b   6.62176391
_cell_length_c   5.24954375
_cell_angle_alpha   80.81442344
_cell_angle_beta   80.81442332
_cell_angle_gamma   69.75735433
_symmetry_Int_Tables_number   1
_chemical_formula_structural   Zn13Os
_chemical_formula_sum   'Zn13 Os1'
_cell_volume   211.83565316
_cell_formula_units_Z   1
loop_
 _symmetry_equiv_pos_site_id
 _symmetry_equiv_pos_as_xyz
  1  'x, y, z'
loop_
 _atom_site_type_symbol
 _atom_site_label
 _atom_site_symmetry_multiplicity
 _atom_site_fract_x
 _atom_site_fract_y
 _atom_site_fract_z
 _atom_site_occupancy
  Zn  Zn0  1  0.361917  0.995134  0.198075  1
  Zn  Zn1  1  0.638083  0.004866  0.801925  1
  Zn  Zn2  1  0.004866  0.638083  0.801925  1
  Zn  Zn3  1  0.995134  0.361917  0.198075  1
  Zn  Zn4  1  0.620256  0.222669  0.319792  1
  Zn  Zn5  1  0.379744  0.777331  0.680208  1
  Zn  Zn6  1  0.777331  0.379744  0.680208  1
  Zn  Zn7  1  0.222669  0.620256  0.319792  1
  Zn  Zn8  1  0.000000  0.000000  0.000000  1
  Zn  Zn9  1  0.613955  0.613955  0.062261  1
  Zn  Zn10  1  0.386045  0.386045  0.937739  1
  Zn  Zn11  1  0.774703  0.774703  0.370794  1
  Zn  Zn12  1  0.225297  0.225297  0.629206  1
  Os  Os13  1  0.000000  0.000000  0.500000  1
