# generated using pymatgen
data_Y7Er(OsI4)2
_symmetry_space_group_name_H-M   'P 1'
_cell_length_a   11.42072432
_cell_length_b   11.43254791
_cell_length_c   6.19494314
_cell_angle_alpha   90.02603724
_cell_angle_beta   90.04035524
_cell_angle_gamma   88.31622787
_symmetry_Int_Tables_number   1
_chemical_formula_structural   Y7Er(OsI4)2
_chemical_formula_sum   'Y7 Er1 Os2 I8'
_cell_volume   808.51167536
_cell_formula_units_Z   1
loop_
 _symmetry_equiv_pos_site_id
 _symmetry_equiv_pos_as_xyz
  1  'x, y, z'
loop_
 _atom_site_type_symbol
 _atom_site_label
 _atom_site_symmetry_multiplicity
 _atom_site_fract_x
 _atom_site_fract_y
 _atom_site_fract_z
 _atom_site_occupancy
  Y  Y0  1  0.083858  0.802259  0.499089  1
  Y  Y1  1  0.078258  0.195446  0.000341  1
  Y  Y2  1  0.195272  0.078611  0.500345  1
  Y  Y3  1  0.921249  0.804775  0.999638  1
  Y  Y4  1  0.915337  0.197975  0.500876  1
  Y  Y5  1  0.197792  0.915990  0.000915  1
  Y  Y6  1  0.804043  0.921835  0.499624  1
  Er  Er7  1  0.805622  0.082594  0.999012  1
  Os  Os8  1  0.999362  0.000329  0.249674  1
  Os  Os9  1  0.999566  0.000116  0.750304  1
  I  I10  1  0.644620  0.152304  0.510111  1
  I  I11  1  0.858303  0.648668  0.505547  1
  I  I12  1  0.351305  0.141619  0.994451  1
  I  I13  1  0.141712  0.351332  0.494447  1
  I  I14  1  0.648794  0.858978  0.005514  1
  I  I15  1  0.355212  0.847747  0.490094  1
  I  I16  1  0.152282  0.644869  0.009938  1
  I  I17  1  0.847413  0.354554  0.990080  1
