# generated using pymatgen
data_ZrSc4Ta3Os8
_symmetry_space_group_name_H-M   'P 1'
_cell_length_a   6.41249700
_cell_length_b   4.54963700
_cell_length_c   9.09058600
_cell_angle_alpha   90.00000000
_cell_angle_beta   90.00026805
_cell_angle_gamma   90.00000000
_symmetry_Int_Tables_number   1
_chemical_formula_structural   ZrSc4Ta3Os8
_chemical_formula_sum   'Zr1 Sc4 Ta3 Os8'
_cell_volume   265.21360682
_cell_formula_units_Z   1
loop_
 _symmetry_equiv_pos_site_id
 _symmetry_equiv_pos_as_xyz
  1  'x, y, z'
loop_
 _atom_site_type_symbol
 _atom_site_label
 _atom_site_symmetry_multiplicity
 _atom_site_fract_x
 _atom_site_fract_y
 _atom_site_fract_z
 _atom_site_occupancy
  Zr  Zr0  1  0.249996  0.250001  0.125006  1
  Sc  Sc1  1  0.749996  0.250001  0.125005  1
  Sc  Sc2  1  0.250010  0.749999  0.375389  1
  Sc  Sc3  1  0.749984  0.250001  0.625005  1
  Sc  Sc4  1  0.250002  0.749999  0.874605  1
  Ta  Ta5  1  0.750001  0.749999  0.375401  1
  Ta  Ta6  1  0.250004  0.250001  0.625009  1
  Ta  Ta7  1  0.749999  0.749999  0.874596  1
  Os  Os8  1  0.507238  0.749999  0.124983  1
  Os  Os9  1  0.992762  0.749999  0.124982  1
  Os  Os10  1  0.502966  0.250001  0.379819  1
  Os  Os11  1  0.997040  0.250001  0.379820  1
  Os  Os12  1  0.000302  0.749999  0.625004  1
  Os  Os13  1  0.499701  0.749999  0.625005  1
  Os  Os14  1  0.997043  0.250001  0.870189  1
  Os  Os15  1  0.502955  0.250001  0.870188  1
