# generated using pymatgen
data_La4Nd7Si5Ni4Ge
_symmetry_space_group_name_H-M   'P 1'
_cell_length_a   4.26330136
_cell_length_b   9.40637535
_cell_length_c   13.88092503
_cell_angle_alpha   105.15753451
_cell_angle_beta   90.03988874
_cell_angle_gamma   102.90413704
_symmetry_Int_Tables_number   1
_chemical_formula_structural   La4Nd7Si5Ni4Ge
_chemical_formula_sum   'La4 Nd7 Si5 Ni4 Ge1'
_cell_volume   522.68693479
_cell_formula_units_Z   1
loop_
 _symmetry_equiv_pos_site_id
 _symmetry_equiv_pos_as_xyz
  1  'x, y, z'
loop_
 _atom_site_type_symbol
 _atom_site_label
 _atom_site_symmetry_multiplicity
 _atom_site_fract_x
 _atom_site_fract_y
 _atom_site_fract_z
 _atom_site_occupancy
  La  La0  1  0.139533  0.280878  0.347511  1
  La  La1  1  0.784543  0.568761  0.901623  1
  La  La2  1  0.660616  0.322922  0.593761  1
  La  La3  1  0.095613  0.191990  0.787269  1
  Nd  Nd4  1  0.903717  0.806360  0.216822  1
  Nd  Nd5  1  0.859922  0.716631  0.648910  1
  Nd  Nd6  1  0.217584  0.434820  0.103893  1
  Nd  Nd7  1  0.547004  0.094099  0.126597  1
  Nd  Nd8  1  0.339029  0.677718  0.403783  1
  Nd  Nd9  1  0.451933  0.903445  0.877034  1
  Nd  Nd10  1  0.999150  0.997973  0.498028  1
  Si  Si11  1  0.628182  0.254335  0.955827  1
  Si  Si12  1  0.265735  0.531313  0.732439  1
  Si  Si13  1  0.740411  0.480894  0.267147  1
  Si  Si14  1  0.372363  0.745788  0.050624  1
  Si  Si15  1  0.509031  0.019615  0.346786  1
  Ni  Ni16  1  0.749960  0.501240  0.445884  1
  Ni  Ni17  1  0.934737  0.875367  0.025335  1
  Ni  Ni18  1  0.065111  0.124602  0.979100  1
  Ni  Ni19  1  0.253873  0.499707  0.552935  1
  Ge  Ge20  1  0.484548  0.968590  0.650212  1
