# generated using pymatgen
data_Dy3Ho5(Sc3Sn4)4
_symmetry_space_group_name_H-M   'P 1'
_cell_length_a   7.73778007
_cell_length_b   7.86390903
_cell_length_c   14.85700600
_cell_angle_alpha   90.00316937
_cell_angle_beta   90.00773789
_cell_angle_gamma   89.99621818
_symmetry_Int_Tables_number   1
_chemical_formula_structural   Dy3Ho5(Sc3Sn4)4
_chemical_formula_sum   'Dy3 Ho5 Sc12 Sn16'
_cell_volume   904.03689654
_cell_formula_units_Z   1
loop_
 _symmetry_equiv_pos_site_id
 _symmetry_equiv_pos_as_xyz
  1  'x, y, z'
loop_
 _atom_site_type_symbol
 _atom_site_label
 _atom_site_symmetry_multiplicity
 _atom_site_fract_x
 _atom_site_fract_y
 _atom_site_fract_z
 _atom_site_occupancy
  Dy  Dy0  1  0.984489  0.823203  0.405368  1
  Dy  Dy1  1  0.515402  0.323270  0.594397  1
  Dy  Dy2  1  0.015341  0.176826  0.905736  1
  Ho  Ho3  1  0.516058  0.323092  0.905454  1
  Ho  Ho4  1  0.015906  0.176949  0.594631  1
  Ho  Ho5  1  0.484326  0.677021  0.405387  1
  Ho  Ho6  1  0.984142  0.822905  0.094748  1
  Ho  Ho7  1  0.484135  0.676815  0.094509  1
  Sc  Sc8  1  0.355814  0.838058  0.874083  1
  Sc  Sc9  1  0.855920  0.661847  0.625922  1
  Sc  Sc10  1  0.644093  0.161908  0.373819  1
  Sc  Sc11  1  0.144002  0.338259  0.125982  1
  Sc  Sc12  1  0.643814  0.161918  0.126055  1
  Sc  Sc13  1  0.143936  0.338142  0.373868  1
  Sc  Sc14  1  0.355856  0.838111  0.626093  1
  Sc  Sc15  1  0.856258  0.661701  0.874113  1
  Sc  Sc16  1  0.186376  0.505709  0.750052  1
  Sc  Sc17  1  0.686296  0.994320  0.750030  1
  Sc  Sc18  1  0.813791  0.494370  0.249944  1
  Sc  Sc19  1  0.313866  0.005867  0.249944  1
  Sn  Sn20  1  0.308277  0.042710  0.042367  1
  Sn  Sn21  1  0.808305  0.456921  0.457638  1
  Sn  Sn22  1  0.691759  0.957058  0.542196  1
  Sn  Sn23  1  0.192395  0.543047  0.957926  1
  Sn  Sn24  1  0.691426  0.956644  0.957976  1
  Sn  Sn25  1  0.191528  0.543149  0.542049  1
  Sn  Sn26  1  0.308500  0.043148  0.457810  1
  Sn  Sn27  1  0.807791  0.457138  0.042261  1
  Sn  Sn28  1  0.550404  0.625312  0.750105  1
  Sn  Sn29  1  0.050224  0.874632  0.749983  1
  Sn  Sn30  1  0.449806  0.374796  0.249990  1
  Sn  Sn31  1  0.949789  0.125452  0.249887  1
  Sn  Sn32  1  0.324064  0.148408  0.750212  1
  Sn  Sn33  1  0.824181  0.351562  0.749870  1
  Sn  Sn34  1  0.675542  0.851207  0.249861  1
  Sn  Sn35  1  0.176189  0.648522  0.249737  1
