# generated using pymatgen
data_Li4Nd3(GaBi)2
_symmetry_space_group_name_H-M   'P 1'
_cell_length_a   8.69823066
_cell_length_b   8.69822932
_cell_length_c   8.69822900
_cell_angle_alpha   149.15645438
_cell_angle_beta   131.32262756
_cell_angle_gamma   58.74359271
_symmetry_Int_Tables_number   1
_chemical_formula_structural   Li4Nd3(GaBi)2
_chemical_formula_sum   'Li4 Nd3 Ga2 Bi2'
_cell_volume   251.41235772
_cell_formula_units_Z   1
loop_
 _symmetry_equiv_pos_site_id
 _symmetry_equiv_pos_as_xyz
  1  'x, y, z'
loop_
 _atom_site_type_symbol
 _atom_site_label
 _atom_site_symmetry_multiplicity
 _atom_site_fract_x
 _atom_site_fract_y
 _atom_site_fract_z
 _atom_site_occupancy
  Li  Li0  1  0.475583  0.666084  0.809501  1
  Li  Li1  1  0.856584  0.666084  0.190499  1
  Li  Li2  1  0.143416  0.333916  0.809501  1
  Li  Li3  1  0.524417  0.333916  0.190499  1
  Nd  Nd4  1  0.500000  0.000000  0.500000  1
  Nd  Nd5  1  0.878941  0.878941  0.000000  1
  Nd  Nd6  1  0.121059  0.121059  0.000000  1
  Ga  Ga7  1  0.813178  0.500000  0.313178  1
  Ga  Ga8  1  0.186822  0.500000  0.686822  1
  Bi  Bi9  1  0.284674  0.784674  0.500000  1
  Bi  Bi10  1  0.715326  0.215326  0.500000  1
