# generated using pymatgen
data_Ho2Tm5Co6Sn22Hg
_symmetry_space_group_name_H-M   'P 1'
_cell_length_a   9.63789304
_cell_length_b   9.63789197
_cell_length_c   9.97975605
_cell_angle_alpha   90.00957705
_cell_angle_beta   89.99042042
_cell_angle_gamma   119.99489655
_symmetry_Int_Tables_number   1
_chemical_formula_structural   Ho2Tm5Co6Sn22Hg
_chemical_formula_sum   'Ho2 Tm5 Co6 Sn22 Hg1'
_cell_volume   802.85485286
_cell_formula_units_Z   1
loop_
 _symmetry_equiv_pos_site_id
 _symmetry_equiv_pos_as_xyz
  1  'x, y, z'
loop_
 _atom_site_type_symbol
 _atom_site_label
 _atom_site_symmetry_multiplicity
 _atom_site_fract_x
 _atom_site_fract_y
 _atom_site_fract_z
 _atom_site_occupancy
  Ho  Ho0  1  0.000018  0.999982  0.999990  1
  Ho  Ho1  1  0.479318  0.520682  0.306546  1
  Tm  Tm2  1  0.520427  0.479573  0.693619  1
  Tm  Tm3  1  0.520431  0.040852  0.693514  1
  Tm  Tm4  1  0.959148  0.479569  0.693514  1
  Tm  Tm5  1  0.040874  0.520419  0.306503  1
  Tm  Tm6  1  0.479581  0.959126  0.306503  1
  Co  Co7  1  0.168311  0.831689  0.802730  1
  Co  Co8  1  0.168347  0.336673  0.802757  1
  Co  Co9  1  0.663327  0.831653  0.802757  1
  Co  Co10  1  0.336541  0.168014  0.197148  1
  Co  Co11  1  0.831986  0.663459  0.197148  1
  Co  Co12  1  0.831651  0.168349  0.197235  1
  Sn  Sn13  1  0.666768  0.333232  0.181651  1
  Sn  Sn14  1  0.666673  0.333327  0.878503  1
  Sn  Sn15  1  0.333031  0.666969  0.121157  1
  Sn  Sn16  1  0.346473  0.346462  0.999915  1
  Sn  Sn17  1  0.000084  0.653522  0.999992  1
  Sn  Sn18  1  0.653468  0.000012  0.999992  1
  Sn  Sn19  1  0.653538  0.653527  0.999915  1
  Sn  Sn20  1  0.333321  0.666679  0.818325  1
  Sn  Sn21  1  0.435279  0.217239  0.453780  1
  Sn  Sn22  1  0.217645  0.782355  0.546400  1
  Sn  Sn23  1  0.217460  0.435272  0.546588  1
  Sn  Sn24  1  0.564728  0.782540  0.546588  1
  Sn  Sn25  1  0.117184  0.882816  0.269956  1
  Sn  Sn26  1  0.782761  0.564721  0.453780  1
  Sn  Sn27  1  0.782370  0.217630  0.453626  1
  Sn  Sn28  1  0.346478  0.999916  0.999992  1
  Sn  Sn29  1  0.116844  0.234064  0.269933  1
  Sn  Sn30  1  0.765936  0.883156  0.269933  1
  Sn  Sn31  1  0.234310  0.117148  0.729987  1
  Sn  Sn32  1  0.882852  0.765690  0.729987  1
  Sn  Sn33  1  0.882848  0.117152  0.730022  1
  Sn  Sn34  1  0.999988  0.346532  0.999992  1
  Hg  Hg35  1  0.000002  0.999998  0.500020  1
