# generated using pymatgen
data_ErAg6ClO8
_symmetry_space_group_name_H-M   'P 1'
_cell_length_a   7.09895220
_cell_length_b   7.09895199
_cell_length_c   7.09895100
_cell_angle_alpha   59.99999996
_cell_angle_beta   60.00000092
_cell_angle_gamma   59.99999966
_symmetry_Int_Tables_number   1
_chemical_formula_structural   ErAg6ClO8
_chemical_formula_sum   'Er1 Ag6 Cl1 O8'
_cell_volume   252.96921519
_cell_formula_units_Z   1
loop_
 _symmetry_equiv_pos_site_id
 _symmetry_equiv_pos_as_xyz
  1  'x, y, z'
loop_
 _atom_site_type_symbol
 _atom_site_label
 _atom_site_symmetry_multiplicity
 _atom_site_fract_x
 _atom_site_fract_y
 _atom_site_fract_z
 _atom_site_occupancy
  Er  Er0  1  0.000000  0.000000  0.000000  1
  Ag  Ag1  1  0.000000  0.000000  0.500000  1
  Ag  Ag2  1  0.500000  0.000000  0.500000  1
  Ag  Ag3  1  0.000000  0.500000  0.500000  1
  Ag  Ag4  1  0.500000  0.500000  0.000000  1
  Ag  Ag5  1  0.000000  0.500000  0.000000  1
  Ag  Ag6  1  0.500000  0.000000  0.000000  1
  Cl  Cl7  1  0.500000  0.500000  0.500000  1
  O  O8  1  0.863096  0.863096  0.410712  1
  O  O9  1  0.863096  0.410712  0.863096  1
  O  O10  1  0.410712  0.863096  0.863096  1
  O  O11  1  0.863096  0.863096  0.863096  1
  O  O12  1  0.136904  0.136904  0.589288  1
  O  O13  1  0.136904  0.589288  0.136904  1
  O  O14  1  0.589288  0.136904  0.136904  1
  O  O15  1  0.136904  0.136904  0.136904  1
