# generated using pymatgen
data_ErHf(ZrPt6)2
_symmetry_space_group_name_H-M   'P 1'
_cell_length_a   5.75521000
_cell_length_b   5.75520958
_cell_length_c   9.36273700
_cell_angle_alpha   90.00000000
_cell_angle_beta   90.00000000
_cell_angle_gamma   120.00001392
_symmetry_Int_Tables_number   1
_chemical_formula_structural   ErHf(ZrPt6)2
_chemical_formula_sum   'Er1 Hf1 Zr2 Pt12'
_cell_volume   268.56889564
_cell_formula_units_Z   1
loop_
 _symmetry_equiv_pos_site_id
 _symmetry_equiv_pos_as_xyz
  1  'x, y, z'
loop_
 _atom_site_type_symbol
 _atom_site_label
 _atom_site_symmetry_multiplicity
 _atom_site_fract_x
 _atom_site_fract_y
 _atom_site_fract_z
 _atom_site_occupancy
  Er  Er0  1  0.666667  0.333333  0.750000  1
  Hf  Hf1  1  0.333333  0.666667  0.250000  1
  Zr  Zr2  1  0.000000  0.000000  0.502301  1
  Zr  Zr3  1  0.000000  0.000000  0.997699  1
  Pt  Pt4  1  0.170693  0.341385  0.750000  1
  Pt  Pt5  1  0.004026  0.502013  0.004991  1
  Pt  Pt6  1  0.830730  0.661461  0.250000  1
  Pt  Pt7  1  0.338539  0.169270  0.250000  1
  Pt  Pt8  1  0.497987  0.502013  0.004991  1
  Pt  Pt9  1  0.830730  0.169270  0.250000  1
  Pt  Pt10  1  0.497987  0.502013  0.495009  1
  Pt  Pt11  1  0.497987  0.995974  0.495009  1
  Pt  Pt12  1  0.170693  0.829307  0.750000  1
  Pt  Pt13  1  0.658615  0.829307  0.750000  1
  Pt  Pt14  1  0.497987  0.995974  0.004991  1
  Pt  Pt15  1  0.004026  0.502013  0.495009  1
