# generated using pymatgen
data_LiHo4Pd11
_symmetry_space_group_name_H-M   'P 1'
_cell_length_a   4.19036400
_cell_length_b   5.85122391
_cell_length_c   11.65683400
_cell_angle_alpha   86.77823839
_cell_angle_beta   90.00000000
_cell_angle_gamma   90.00000000
_symmetry_Int_Tables_number   1
_chemical_formula_structural   LiHo4Pd11
_chemical_formula_sum   'Li1 Ho4 Pd11'
_cell_volume   285.35936532
_cell_formula_units_Z   1
loop_
 _symmetry_equiv_pos_site_id
 _symmetry_equiv_pos_as_xyz
  1  'x, y, z'
loop_
 _atom_site_type_symbol
 _atom_site_label
 _atom_site_symmetry_multiplicity
 _atom_site_fract_x
 _atom_site_fract_y
 _atom_site_fract_z
 _atom_site_occupancy
  Li  Li0  1  0.000000  0.000000  0.000000  1
  Ho  Ho1  1  0.500000  0.756487  0.374538  1
  Ho  Ho2  1  0.500000  0.721962  0.865378  1
  Ho  Ho3  1  0.500000  0.278038  0.134622  1
  Ho  Ho4  1  0.500000  0.243513  0.625462  1
  Pd  Pd5  1  0.000000  0.013314  0.247478  1
  Pd  Pd6  1  0.000000  0.986686  0.752522  1
  Pd  Pd7  1  0.000000  0.500000  0.000000  1
  Pd  Pd8  1  0.000000  0.500000  0.500000  1
  Pd  Pd9  1  0.000000  0.516972  0.249323  1
  Pd  Pd10  1  0.000000  0.483028  0.750677  1
  Pd  Pd11  1  0.500000  0.255117  0.377208  1
  Pd  Pd12  1  0.500000  0.224424  0.882953  1
  Pd  Pd13  1  0.500000  0.775576  0.117047  1
  Pd  Pd14  1  0.500000  0.744883  0.622792  1
  Pd  Pd15  1  0.000000  0.000000  0.500000  1
