# generated using pymatgen
data_Tb6Th2Mg2IrRu
_symmetry_space_group_name_H-M   'P 1'
_cell_length_a   9.82232975
_cell_length_b   9.82232964
_cell_length_c   9.82845100
_cell_angle_alpha   59.97937891
_cell_angle_beta   59.97937928
_cell_angle_gamma   59.92194645
_symmetry_Int_Tables_number   1
_chemical_formula_structural   Tb6Th2Mg2IrRu
_chemical_formula_sum   'Tb12 Th4 Mg4 Ir2 Ru2'
_cell_volume   669.89537476
_cell_formula_units_Z   2
loop_
 _symmetry_equiv_pos_site_id
 _symmetry_equiv_pos_as_xyz
  1  'x, y, z'
loop_
 _atom_site_type_symbol
 _atom_site_label
 _atom_site_symmetry_multiplicity
 _atom_site_fract_x
 _atom_site_fract_y
 _atom_site_fract_z
 _atom_site_occupancy
  Tb  Tb0  1  0.061109  0.436728  0.438039  1
  Tb  Tb1  1  0.436728  0.061109  0.064124  1
  Tb  Tb2  1  0.436728  0.061109  0.438039  1
  Tb  Tb3  1  0.061109  0.436728  0.064124  1
  Tb  Tb4  1  0.438295  0.438295  0.061705  1
  Tb  Tb5  1  0.063579  0.063579  0.436421  1
  Tb  Tb6  1  0.186896  0.814744  0.813638  1
  Tb  Tb7  1  0.814744  0.186896  0.184722  1
  Tb  Tb8  1  0.814744  0.186896  0.813638  1
  Tb  Tb9  1  0.186896  0.814744  0.184722  1
  Tb  Tb10  1  0.815705  0.815705  0.184295  1
  Tb  Tb11  1  0.186718  0.186718  0.813282  1
  Th  Th12  1  0.597399  0.597399  0.593401  1
  Th  Th13  1  0.597399  0.597399  0.211803  1
  Th  Th14  1  0.600775  0.207755  0.595736  1
  Th  Th15  1  0.207755  0.600775  0.595736  1
  Mg  Mg16  1  0.830101  0.830101  0.830527  1
  Mg  Mg17  1  0.830101  0.830101  0.509271  1
  Mg  Mg18  1  0.829677  0.510023  0.830150  1
  Mg  Mg19  1  0.510023  0.829677  0.830150  1
  Ir  Ir20  1  0.392363  0.392363  0.394288  1
  Ir  Ir21  1  0.392363  0.392363  0.820985  1
  Ru  Ru22  1  0.393525  0.815269  0.395603  1
  Ru  Ru23  1  0.815269  0.393525  0.395603  1
