# generated using pymatgen
data_Hf3Sc5(Ta3Ge4)4
_symmetry_space_group_name_H-M   'P 1'
_cell_length_a   7.00793154
_cell_length_b   7.00869985
_cell_length_c   12.89308824
_cell_angle_alpha   90.04221871
_cell_angle_beta   89.94522688
_cell_angle_gamma   89.99894863
_symmetry_Int_Tables_number   1
_chemical_formula_structural   Hf3Sc5(Ta3Ge4)4
_chemical_formula_sum   'Hf3 Sc5 Ta12 Ge16'
_cell_volume   633.26276182
_cell_formula_units_Z   1
loop_
 _symmetry_equiv_pos_site_id
 _symmetry_equiv_pos_as_xyz
  1  'x, y, z'
loop_
 _atom_site_type_symbol
 _atom_site_label
 _atom_site_symmetry_multiplicity
 _atom_site_fract_x
 _atom_site_fract_y
 _atom_site_fract_z
 _atom_site_occupancy
  Hf  Hf0  1  0.004698  0.662437  0.024964  1
  Hf  Hf1  1  0.836689  0.504946  0.275100  1
  Hf  Hf2  1  0.162013  0.494937  0.776210  1
  Sc  Sc3  1  0.502049  0.836826  0.723851  1
  Sc  Sc4  1  0.497629  0.163238  0.223627  1
  Sc  Sc5  1  0.997112  0.337322  0.525641  1
  Sc  Sc6  1  0.663284  0.001430  0.973640  1
  Sc  Sc7  1  0.338314  0.997018  0.473828  1
  Ta  Ta8  1  0.330231  0.335068  0.999333  1
  Ta  Ta9  1  0.164653  0.830912  0.248984  1
  Ta  Ta10  1  0.834986  0.169021  0.750206  1
  Ta  Ta11  1  0.667675  0.667563  0.499520  1
  Ta  Ta12  1  0.003185  0.156227  0.127572  1
  Ta  Ta13  1  0.345580  0.504496  0.376575  1
  Ta  Ta14  1  0.656487  0.496146  0.877594  1
  Ta  Ta15  1  0.504832  0.347456  0.624079  1
  Ta  Ta16  1  0.494924  0.654411  0.123248  1
  Ta  Ta17  1  0.995763  0.844448  0.627871  1
  Ta  Ta18  1  0.154085  0.003766  0.873631  1
  Ta  Ta19  1  0.845224  0.993596  0.372303  1
  Ge  Ge20  1  0.304513  0.967067  0.067386  1
  Ge  Ge21  1  0.532263  0.805541  0.317333  1
  Ge  Ge22  1  0.466762  0.194716  0.817447  1
  Ge  Ge23  1  0.804112  0.535064  0.682059  1
  Ge  Ge24  1  0.197759  0.463300  0.183119  1
  Ge  Ge25  1  0.696150  0.034134  0.567424  1
  Ge  Ge26  1  0.963049  0.301356  0.933256  1
  Ge  Ge27  1  0.035861  0.696389  0.433235  1
  Ge  Ge28  1  0.701200  0.361931  0.077277  1
  Ge  Ge29  1  0.137463  0.201370  0.327327  1
  Ge  Ge30  1  0.861694  0.798017  0.827179  1
  Ge  Ge31  1  0.202912  0.136458  0.673296  1
  Ge  Ge32  1  0.796312  0.864183  0.172538  1
  Ge  Ge33  1  0.298850  0.638272  0.577033  1
  Ge  Ge34  1  0.364475  0.703159  0.922693  1
  Ge  Ge35  1  0.637214  0.297780  0.423618  1
