# generated using pymatgen
data_Tb10Ho2Co4SnRh
_symmetry_space_group_name_H-M   'P 1'
_cell_length_a   8.35366042
_cell_length_b   8.35693880
_cell_length_c   8.35365873
_cell_angle_alpha   110.87309522
_cell_angle_beta   110.42941120
_cell_angle_gamma   107.12110292
_symmetry_Int_Tables_number   1
_chemical_formula_structural   Tb10Ho2Co4SnRh
_chemical_formula_sum   'Tb10 Ho2 Co4 Sn1 Rh1'
_cell_volume   448.44806634
_cell_formula_units_Z   1
loop_
 _symmetry_equiv_pos_site_id
 _symmetry_equiv_pos_as_xyz
  1  'x, y, z'
loop_
 _atom_site_type_symbol
 _atom_site_label
 _atom_site_symmetry_multiplicity
 _atom_site_fract_x
 _atom_site_fract_y
 _atom_site_fract_z
 _atom_site_occupancy
  Tb  Tb0  1  0.405863  0.209914  0.194610  1
  Tb  Tb1  1  0.594137  0.790086  0.805390  1
  Tb  Tb2  1  0.015303  0.209914  0.804051  1
  Tb  Tb3  1  0.984697  0.790086  0.195949  1
  Tb  Tb4  1  0.184940  0.292140  0.478761  1
  Tb  Tb5  1  0.815060  0.707860  0.521239  1
  Tb  Tb6  1  0.186623  0.707860  0.892801  1
  Tb  Tb7  1  0.813377  0.292140  0.107199  1
  Tb  Tb8  1  0.313940  0.620625  0.306686  1
  Tb  Tb9  1  0.686060  0.379375  0.693314  1
  Ho  Ho10  1  0.314517  0.007552  0.693035  1
  Ho  Ho11  1  0.685483  0.992448  0.306965  1
  Co  Co12  1  0.379686  0.000000  0.379686  1
  Co  Co13  1  0.620314  0.000000  0.620314  1
  Co  Co14  1  0.111820  0.612670  0.500850  1
  Co  Co15  1  0.888180  0.387330  0.499150  1
  Sn  Sn16  1  0.500000  0.500000  0.000000  1
  Rh  Rh17  1  0.000000  0.000000  0.000000  1
