# generated using pymatgen
data_Ho2Lu8ZnBi5
_symmetry_space_group_name_H-M   'P 1'
_cell_length_a   8.06813500
_cell_length_b   9.31230000
_cell_length_c   11.80368600
_cell_angle_alpha   90.00000000
_cell_angle_beta   90.00000000
_cell_angle_gamma   90.00000000
_symmetry_Int_Tables_number   1
_chemical_formula_structural   Ho2Lu8ZnBi5
_chemical_formula_sum   'Ho4 Lu16 Zn2 Bi10'
_cell_volume   886.84508386
_cell_formula_units_Z   2
loop_
 _symmetry_equiv_pos_site_id
 _symmetry_equiv_pos_as_xyz
  1  'x, y, z'
loop_
 _atom_site_type_symbol
 _atom_site_label
 _atom_site_symmetry_multiplicity
 _atom_site_fract_x
 _atom_site_fract_y
 _atom_site_fract_z
 _atom_site_occupancy
  Ho  Ho0  1  0.311699  0.250000  0.216575  1
  Ho  Ho1  1  0.811699  0.250000  0.283425  1
  Ho  Ho2  1  0.678071  0.750000  0.788448  1
  Ho  Ho3  1  0.178071  0.750000  0.711552  1
  Lu  Lu4  1  0.352541  0.750000  0.204811  1
  Lu  Lu5  1  0.852541  0.750000  0.295189  1
  Lu  Lu6  1  0.653975  0.250000  0.781347  1
  Lu  Lu7  1  0.153975  0.250000  0.718653  1
  Lu  Lu8  1  0.683365  0.572872  0.057527  1
  Lu  Lu9  1  0.183365  0.927128  0.442473  1
  Lu  Lu10  1  0.309779  0.048244  0.941258  1
  Lu  Lu11  1  0.809779  0.451756  0.558742  1
  Lu  Lu12  1  0.309779  0.451756  0.941258  1
  Lu  Lu13  1  0.809779  0.048244  0.558742  1
  Lu  Lu14  1  0.683365  0.927128  0.057527  1
  Lu  Lu15  1  0.183365  0.572872  0.442473  1
  Lu  Lu16  1  0.482334  0.250000  0.491363  1
  Lu  Lu17  1  0.982334  0.250000  0.008637  1
  Lu  Lu18  1  0.535406  0.750000  0.509319  1
  Lu  Lu19  1  0.035406  0.750000  0.990681  1
  Zn  Zn20  1  0.407386  0.750000  0.961741  1
  Zn  Zn21  1  0.907386  0.750000  0.538259  1
  Bi  Bi22  1  0.597865  0.250000  0.039809  1
  Bi  Bi23  1  0.097865  0.250000  0.460191  1
  Bi  Bi24  1  0.558408  0.996331  0.324461  1
  Bi  Bi25  1  0.058408  0.503669  0.175539  1
  Bi  Bi26  1  0.438809  0.497679  0.677012  1
  Bi  Bi27  1  0.938809  0.002321  0.822988  1
  Bi  Bi28  1  0.438809  0.002321  0.677012  1
  Bi  Bi29  1  0.938809  0.497679  0.822988  1
  Bi  Bi30  1  0.558408  0.503669  0.324461  1
  Bi  Bi31  1  0.058408  0.996331  0.175539  1
