# generated using pymatgen
data_Er3Tm7In8
_symmetry_space_group_name_H-M   'P 1'
_cell_length_a   9.19070515
_cell_length_b   9.19950045
_cell_length_c   6.57494200
_cell_angle_alpha   90.00000000
_cell_angle_beta   90.00000000
_cell_angle_gamma   119.91100582
_symmetry_Int_Tables_number   1
_chemical_formula_structural   Er3Tm7In8
_chemical_formula_sum   'Er3 Tm7 In8'
_cell_volume   481.86390774
_cell_formula_units_Z   1
loop_
 _symmetry_equiv_pos_site_id
 _symmetry_equiv_pos_as_xyz
  1  'x, y, z'
loop_
 _atom_site_type_symbol
 _atom_site_label
 _atom_site_symmetry_multiplicity
 _atom_site_fract_x
 _atom_site_fract_y
 _atom_site_fract_z
 _atom_site_occupancy
  Er  Er0  1  0.289503  0.000138  0.750000  1
  Er  Er1  1  0.710617  0.999994  0.250000  1
  Er  Er2  1  0.000161  0.289289  0.750000  1
  Tm  Tm3  1  0.333333  0.666430  0.499928  1
  Tm  Tm4  1  0.666652  0.333762  0.499923  1
  Tm  Tm5  1  0.666652  0.333762  0.000077  1
  Tm  Tm6  1  0.333333  0.666430  0.000072  1
  Tm  Tm7  1  0.999799  0.710285  0.250000  1
  Tm  Tm8  1  0.710556  0.710549  0.750000  1
  Tm  Tm9  1  0.289330  0.289540  0.250000  1
  In  In10  1  0.000007  0.999829  0.499827  1
  In  In11  1  0.000007  0.999829  0.000173  1
  In  In12  1  0.627542  0.999721  0.750000  1
  In  In13  1  0.372157  0.000064  0.250000  1
  In  In14  1  0.999736  0.627579  0.750000  1
  In  In15  1  0.000269  0.372715  0.250000  1
  In  In16  1  0.372783  0.372797  0.750000  1
  In  In17  1  0.627564  0.627284  0.250000  1
