# generated using pymatgen
data_Tb(ThSi)2
_symmetry_space_group_name_H-M   'P 1'
_cell_length_a   7.68957500
_cell_length_b   7.68957500
_cell_length_c   4.25388500
_cell_angle_alpha   90.00000000
_cell_angle_beta   90.00000000
_cell_angle_gamma   90.00000000
_symmetry_Int_Tables_number   1
_chemical_formula_structural   Tb(ThSi)2
_chemical_formula_sum   'Tb2 Th4 Si4'
_cell_volume   251.53036400
_cell_formula_units_Z   2
loop_
 _symmetry_equiv_pos_site_id
 _symmetry_equiv_pos_as_xyz
  1  'x, y, z'
loop_
 _atom_site_type_symbol
 _atom_site_label
 _atom_site_symmetry_multiplicity
 _atom_site_fract_x
 _atom_site_fract_y
 _atom_site_fract_z
 _atom_site_occupancy
  Tb  Tb0  1  0.500000  0.500000  0.000000  1
  Tb  Tb1  1  0.000000  0.000000  0.000000  1
  Th  Th2  1  0.679536  0.179536  0.500000  1
  Th  Th3  1  0.320464  0.820464  0.500000  1
  Th  Th4  1  0.179536  0.320464  0.500000  1
  Th  Th5  1  0.820464  0.679536  0.500000  1
  Si  Si6  1  0.116478  0.616478  0.000000  1
  Si  Si7  1  0.883522  0.383522  0.000000  1
  Si  Si8  1  0.616478  0.883522  0.000000  1
  Si  Si9  1  0.383522  0.116478  0.000000  1
