# generated using pymatgen
data_DyEr7Tc2(B12Rh)2
_symmetry_space_group_name_H-M   'P 1'
_cell_length_a   3.65745200
_cell_length_b   9.10718374
_cell_length_c   11.49412705
_cell_angle_alpha   90.37798592
_cell_angle_beta   90.00000000
_cell_angle_gamma   90.00000000
_symmetry_Int_Tables_number   1
_chemical_formula_structural   DyEr7Tc2(B12Rh)2
_chemical_formula_sum   'Dy1 Er7 Tc2 B24 Rh2'
_cell_volume   382.85055112
_cell_formula_units_Z   1
loop_
 _symmetry_equiv_pos_site_id
 _symmetry_equiv_pos_as_xyz
  1  'x, y, z'
loop_
 _atom_site_type_symbol
 _atom_site_label
 _atom_site_symmetry_multiplicity
 _atom_site_fract_x
 _atom_site_fract_y
 _atom_site_fract_z
 _atom_site_occupancy
  Dy  Dy0  1  0.500000  0.319014  0.411031  1
  Er  Er1  1  0.500000  0.681505  0.589159  1
  Er  Er2  1  0.500000  0.173386  0.917172  1
  Er  Er3  1  0.500000  0.826583  0.082772  1
  Er  Er4  1  0.500000  0.442016  0.126574  1
  Er  Er5  1  0.500000  0.558017  0.873328  1
  Er  Er6  1  0.500000  0.053721  0.628523  1
  Er  Er7  1  0.500000  0.946030  0.371541  1
  Tc  Tc8  1  0.500000  0.138982  0.179613  1
  Tc  Tc9  1  0.500000  0.860771  0.820150  1
  B  B10  1  0.000000  0.107314  0.471184  1
  B  B11  1  0.000000  0.892055  0.529006  1
  B  B12  1  0.000000  0.393136  0.970242  1
  B  B13  1  0.000000  0.606908  0.029708  1
  B  B14  1  0.000000  0.132151  0.314733  1
  B  B15  1  0.000000  0.867469  0.685033  1
  B  B16  1  0.000000  0.367267  0.816611  1
  B  B17  1  0.000000  0.632789  0.183369  1
  B  B18  1  0.000000  0.053030  0.067147  1
  B  B19  1  0.000000  0.946905  0.932768  1
  B  B20  1  0.000000  0.445868  0.566104  1
  B  B21  1  0.000000  0.554718  0.434232  1
  B  B22  1  0.000000  0.483831  0.287415  1
  B  B23  1  0.000000  0.516682  0.712392  1
  B  B24  1  0.000000  0.016790  0.787009  1
  B  B25  1  0.000000  0.983058  0.212952  1
  B  B26  1  0.000000  0.248374  0.080758  1
  B  B27  1  0.000000  0.751620  0.919134  1
  B  B28  1  0.000000  0.250461  0.579010  1
  B  B29  1  0.000000  0.749431  0.421495  1
  B  B30  1  0.000000  0.293048  0.234332  1
  B  B31  1  0.000000  0.706731  0.765299  1
  B  B32  1  0.000000  0.207938  0.734951  1
  B  B33  1  0.000000  0.792052  0.265114  1
  Rh  Rh34  1  0.500000  0.361826  0.678870  1
  Rh  Rh35  1  0.500000  0.638523  0.321268  1
