# generated using pymatgen
data_Pm4Nb3(TcO8)3
_symmetry_space_group_name_H-M   'P 1'
_cell_length_a   7.09018826
_cell_length_b   7.22942439
_cell_length_c   11.67353847
_cell_angle_alpha   79.82009022
_cell_angle_beta   79.72866350
_cell_angle_gamma   113.48781158
_symmetry_Int_Tables_number   1
_chemical_formula_structural   Pm4Nb3(TcO8)3
_chemical_formula_sum   'Pm4 Nb3 Tc3 O24'
_cell_volume   519.23307652
_cell_formula_units_Z   1
loop_
 _symmetry_equiv_pos_site_id
 _symmetry_equiv_pos_as_xyz
  1  'x, y, z'
loop_
 _atom_site_type_symbol
 _atom_site_label
 _atom_site_symmetry_multiplicity
 _atom_site_fract_x
 _atom_site_fract_y
 _atom_site_fract_z
 _atom_site_occupancy
  Pm  Pm0  1  0.184935  0.454973  0.600108  1
  Pm  Pm1  1  0.812352  0.564793  0.402319  1
  Pm  Pm2  1  0.553511  0.817774  0.908402  1
  Pm  Pm3  1  0.453326  0.180290  0.084729  1
  Nb  Nb4  1  0.012301  0.300589  0.954394  1
  Nb  Nb5  1  0.988052  0.696703  0.046737  1
  Nb  Nb6  1  0.714924  0.996176  0.546305  1
  Tc  Tc7  1  0.301905  0.004087  0.456143  1
  Tc  Tc8  1  0.604596  0.388474  0.747241  1
  Tc  Tc9  1  0.392800  0.617974  0.251486  1
  O  O10  1  0.544374  0.476148  0.612460  1
  O  O11  1  0.439102  0.514619  0.387910  1
  O  O12  1  0.523228  0.447756  0.881611  1
  O  O13  1  0.470001  0.542239  0.123282  1
  O  O14  1  0.504421  0.120176  0.773076  1
  O  O15  1  0.505605  0.887854  0.224887  1
  O  O16  1  0.881235  0.499577  0.713445  1
  O  O17  1  0.117687  0.518240  0.283267  1
  O  O18  1  0.713229  0.128342  0.955179  1
  O  O19  1  0.287233  0.869626  0.044126  1
  O  O20  1  0.897094  0.292148  0.527922  1
  O  O21  1  0.128936  0.733778  0.463166  1
  O  O22  1  0.397101  0.828489  0.566625  1
  O  O23  1  0.588382  0.177220  0.432844  1
  O  O24  1  0.182089  0.603335  0.925334  1
  O  O25  1  0.816962  0.392596  0.075641  1
  O  O26  1  0.139281  0.310105  0.792571  1
  O  O27  1  0.855434  0.686048  0.207624  1
  O  O28  1  0.690487  0.862933  0.702722  1
  O  O29  1  0.304923  0.118648  0.309191  1
  O  O30  1  0.869732  0.814691  0.946561  1
  O  O31  1  0.131526  0.182732  0.054773  1
  O  O32  1  0.171117  0.094443  0.555302  1
  O  O33  1  0.822119  0.876426  0.442617  1
