# generated using pymatgen
data_Y4Er(CoO6)2
_symmetry_space_group_name_H-M   'P 1'
_cell_length_a   6.74469116
_cell_length_b   6.74469130
_cell_length_c   7.19075313
_cell_angle_alpha   74.60351056
_cell_angle_beta   74.60350914
_cell_angle_gamma   50.53466054
_symmetry_Int_Tables_number   1
_chemical_formula_structural   Y4Er(CoO6)2
_chemical_formula_sum   'Y4 Er1 Co2 O12'
_cell_volume   241.40618038
_cell_formula_units_Z   1
loop_
 _symmetry_equiv_pos_site_id
 _symmetry_equiv_pos_as_xyz
  1  'x, y, z'
loop_
 _atom_site_type_symbol
 _atom_site_label
 _atom_site_symmetry_multiplicity
 _atom_site_fract_x
 _atom_site_fract_y
 _atom_site_fract_z
 _atom_site_occupancy
  Y  Y0  1  0.305865  0.305865  0.354992  1
  Y  Y1  1  0.694091  0.694091  0.643813  1
  Y  Y2  1  0.307933  0.307933  0.835835  1
  Y  Y3  1  0.000189  0.000189  0.499288  1
  Er  Er4  1  0.691779  0.691779  0.164649  1
  Co  Co5  1  0.755927  0.244060  0.000538  1
  Co  Co6  1  0.244060  0.755927  0.000538  1
  O  O7  1  0.899674  0.418384  0.923562  1
  O  O8  1  0.418384  0.899674  0.923562  1
  O  O9  1  0.096471  0.584585  0.078863  1
  O  O10  1  0.584585  0.096471  0.078863  1
  O  O11  1  0.097129  0.598254  0.575966  1
  O  O12  1  0.598254  0.097129  0.575966  1
  O  O13  1  0.901276  0.403343  0.421437  1
  O  O14  1  0.403343  0.901276  0.421437  1
  O  O15  1  0.001254  0.001254  0.828647  1
  O  O16  1  0.999289  0.999289  0.170329  1
  O  O17  1  0.500105  0.500105  0.826633  1
  O  O18  1  0.500392  0.500392  0.175082  1
