# generated using pymatgen
data_Ho5Er7In2Fe2Ru
_symmetry_space_group_name_H-M   'P 1'
_cell_length_a   8.31242542
_cell_length_b   8.31140236
_cell_length_c   8.31248803
_cell_angle_alpha   108.70021102
_cell_angle_beta   108.69231412
_cell_angle_gamma   111.03766952
_symmetry_Int_Tables_number   1
_chemical_formula_structural   Ho5Er7In2Fe2Ru
_chemical_formula_sum   'Ho5 Er7 In2 Fe2 Ru1'
_cell_volume   441.81459393
_cell_formula_units_Z   1
loop_
 _symmetry_equiv_pos_site_id
 _symmetry_equiv_pos_as_xyz
  1  'x, y, z'
loop_
 _atom_site_type_symbol
 _atom_site_label
 _atom_site_symmetry_multiplicity
 _atom_site_fract_x
 _atom_site_fract_y
 _atom_site_fract_z
 _atom_site_occupancy
  Ho  Ho0  1  0.806783  0.568105  0.761329  1
  Ho  Ho1  1  0.306482  0.306556  0.613212  1
  Ho  Ho2  1  0.693346  0.693404  0.386678  1
  Ho  Ho3  1  0.306728  0.693407  0.000059  1
  Ho  Ho4  1  0.693341  0.306555  0.000073  1
  Er  Er5  1  0.431601  0.193064  0.238480  1
  Er  Er6  1  0.568302  0.807001  0.761465  1
  Er  Er7  1  0.954585  0.193061  0.761462  1
  Er  Er8  1  0.193192  0.954650  0.761448  1
  Er  Er9  1  0.045515  0.806980  0.238693  1
  Er  Er10  1  0.806880  0.045392  0.238528  1
  Er  Er11  1  0.193100  0.431597  0.238473  1
  In  In12  1  0.499999  0.000005  0.500007  1
  In  In13  1  0.000110  0.500010  0.499900  1
  Fe  Fe14  1  0.385359  0.385366  0.000009  1
  Fe  Fe15  1  0.614564  0.614622  0.000063  1
  Ru  Ru16  1  0.000112  0.000225  0.000119  1
