# generated using pymatgen
data_EuAs12Os3Pt
_symmetry_space_group_name_H-M   'P 1'
_cell_length_a   7.49727681
_cell_length_b   7.49727700
_cell_length_c   7.49727767
_cell_angle_alpha   109.41444209
_cell_angle_beta   109.41443835
_cell_angle_gamma   109.41445046
_symmetry_Int_Tables_number   1
_chemical_formula_structural   EuAs12Os3Pt
_chemical_formula_sum   'Eu1 As12 Os3 Pt1'
_cell_volume   325.08609721
_cell_formula_units_Z   1
loop_
 _symmetry_equiv_pos_site_id
 _symmetry_equiv_pos_as_xyz
  1  'x, y, z'
loop_
 _atom_site_type_symbol
 _atom_site_label
 _atom_site_symmetry_multiplicity
 _atom_site_fract_x
 _atom_site_fract_y
 _atom_site_fract_z
 _atom_site_occupancy
  Eu  Eu0  1  0.000000  0.000000  0.000000  1
  As  As1  1  0.345670  0.196197  0.849753  1
  As  As2  1  0.654330  0.803803  0.150247  1
  As  As3  1  0.653935  0.503368  0.858408  1
  As  As4  1  0.346065  0.496632  0.141592  1
  As  As5  1  0.196197  0.849753  0.345670  1
  As  As6  1  0.803803  0.150247  0.654330  1
  As  As7  1  0.503368  0.858408  0.653935  1
  As  As8  1  0.496632  0.141592  0.346065  1
  As  As9  1  0.849753  0.345670  0.196197  1
  As  As10  1  0.150247  0.654330  0.803803  1
  As  As11  1  0.858408  0.653935  0.503368  1
  As  As12  1  0.141592  0.346065  0.496632  1
  Os  Os13  1  0.000000  0.000000  0.500000  1
  Os  Os14  1  0.500000  0.000000  0.000000  1
  Os  Os15  1  0.000000  0.500000  0.000000  1
  Pt  Pt16  1  0.500000  0.500000  0.500000  1
