# generated using pymatgen
data_Li3Tb2CePt3
_symmetry_space_group_name_H-M   'P 1'
_cell_length_a   7.23329800
_cell_length_b   7.19513503
_cell_length_c   4.07872800
_cell_angle_alpha   90.00000000
_cell_angle_beta   90.00000000
_cell_angle_gamma   120.17561042
_symmetry_Int_Tables_number   1
_chemical_formula_structural   Li3Tb2CePt3
_chemical_formula_sum   'Li3 Tb2 Ce1 Pt3'
_cell_volume   183.50987793
_cell_formula_units_Z   1
loop_
 _symmetry_equiv_pos_site_id
 _symmetry_equiv_pos_as_xyz
  1  'x, y, z'
loop_
 _atom_site_type_symbol
 _atom_site_label
 _atom_site_symmetry_multiplicity
 _atom_site_fract_x
 _atom_site_fract_y
 _atom_site_fract_z
 _atom_site_occupancy
  Li  Li0  1  0.231968  0.233343  0.500000  1
  Li  Li1  1  0.998626  0.766657  0.500000  1
  Li  Li2  1  0.770082  0.000000  0.500000  1
  Tb  Tb3  1  0.998855  0.406957  0.000000  1
  Tb  Tb4  1  0.591899  0.593043  0.000000  1
  Ce  Ce5  1  0.413368  0.000000  0.000000  1
  Pt  Pt6  1  0.999435  0.000000  0.000000  1
  Pt  Pt7  1  0.663788  0.331810  0.500000  1
  Pt  Pt8  1  0.331979  0.668190  0.500000  1
