# generated using pymatgen
data_ErSc7In3Ni
_symmetry_space_group_name_H-M   'P 1'
_cell_length_a   9.83303500
_cell_length_b   9.83298933
_cell_length_c   6.54091800
_cell_angle_alpha   90.00000000
_cell_angle_beta   90.00000000
_cell_angle_gamma   120.00034443
_symmetry_Int_Tables_number   1
_chemical_formula_structural   ErSc7In3Ni
_chemical_formula_sum   'Er2 Sc14 In6 Ni2'
_cell_volume   547.69778171
_cell_formula_units_Z   2
loop_
 _symmetry_equiv_pos_site_id
 _symmetry_equiv_pos_as_xyz
  1  'x, y, z'
loop_
 _atom_site_type_symbol
 _atom_site_label
 _atom_site_symmetry_multiplicity
 _atom_site_fract_x
 _atom_site_fract_y
 _atom_site_fract_z
 _atom_site_occupancy
  Er  Er0  1  0.999991  0.999992  0.507863  1
  Er  Er1  1  0.000009  0.000008  0.007863  1
  Sc  Sc2  1  0.528293  0.056605  0.521234  1
  Sc  Sc3  1  0.943356  0.471677  0.521282  1
  Sc  Sc4  1  0.528300  0.471684  0.521247  1
  Sc  Sc5  1  0.471707  0.943395  0.021234  1
  Sc  Sc6  1  0.056644  0.528323  0.021282  1
  Sc  Sc7  1  0.471700  0.528316  0.021247  1
  Sc  Sc8  1  0.180152  0.360257  0.736550  1
  Sc  Sc9  1  0.639753  0.819883  0.736579  1
  Sc  Sc10  1  0.180158  0.819907  0.736563  1
  Sc  Sc11  1  0.819848  0.639743  0.236550  1
  Sc  Sc12  1  0.360247  0.180117  0.236579  1
  Sc  Sc13  1  0.819842  0.180093  0.236563  1
  Sc  Sc14  1  0.666646  0.333319  0.907116  1
  Sc  Sc15  1  0.333354  0.666681  0.407116  1
  In  In16  1  0.833978  0.668024  0.764605  1
  In  In17  1  0.331998  0.165991  0.764596  1
  In  In18  1  0.833967  0.165953  0.764606  1
  In  In19  1  0.166022  0.331976  0.264605  1
  In  In20  1  0.668002  0.834009  0.264596  1
  In  In21  1  0.166033  0.834047  0.264606  1
  Ni  Ni22  1  0.666599  0.333288  0.295598  1
  Ni  Ni23  1  0.333401  0.666712  0.795598  1
