# generated using pymatgen
data_YLuZn(Co2B)3
_symmetry_space_group_name_H-M   'P 1'
_cell_length_a   5.04900400
_cell_length_b   5.04811806
_cell_length_c   12.62398800
_cell_angle_alpha   90.00010215
_cell_angle_beta   90.00015887
_cell_angle_gamma   119.99279167
_symmetry_Int_Tables_number   1
_chemical_formula_structural   YLuZn(Co2B)3
_chemical_formula_sum   'Y2 Lu2 Zn2 Co12 B6'
_cell_volume   278.67240382
_cell_formula_units_Z   2
loop_
 _symmetry_equiv_pos_site_id
 _symmetry_equiv_pos_as_xyz
  1  'x, y, z'
loop_
 _atom_site_type_symbol
 _atom_site_label
 _atom_site_symmetry_multiplicity
 _atom_site_fract_x
 _atom_site_fract_y
 _atom_site_fract_z
 _atom_site_occupancy
  Y  Y0  1  0.999987  0.999998  0.001013  1
  Y  Y1  1  0.999997  0.000003  0.738523  1
  Lu  Lu2  1  0.999989  0.000001  0.499243  1
  Lu  Lu3  1  0.999995  0.000001  0.261175  1
  Zn  Zn4  1  0.333295  0.666647  0.000602  1
  Zn  Zn5  1  0.666683  0.333352  0.000602  1
  Co  Co6  1  0.499983  0.999987  0.162243  1
  Co  Co7  1  0.499984  0.500004  0.162297  1
  Co  Co8  1  0.999997  0.500002  0.162326  1
  Co  Co9  1  0.499994  0.999998  0.839099  1
  Co  Co10  1  0.499994  0.500003  0.839130  1
  Co  Co11  1  0.999998  0.500003  0.839070  1
  Co  Co12  1  0.499994  0.000007  0.386106  1
  Co  Co13  1  0.499994  0.499995  0.386099  1
  Co  Co14  1  0.999985  0.499997  0.386141  1
  Co  Co15  1  0.499995  0.000006  0.612531  1
  Co  Co16  1  0.499995  0.499999  0.612530  1
  Co  Co17  1  0.999989  0.500000  0.612496  1
  B  B18  1  0.333402  0.666674  0.499401  1
  B  B19  1  0.666582  0.333328  0.499401  1
  B  B20  1  0.333363  0.666706  0.269984  1
  B  B21  1  0.666616  0.333291  0.269986  1
  B  B22  1  0.666649  0.333339  0.730000  1
  B  B23  1  0.333339  0.666661  0.730001  1
