# generated using pymatgen
data_Ho3Th(Al8Pd3)3
_symmetry_space_group_name_H-M   'P 1'
_cell_length_a   7.57295059
_cell_length_b   7.60030652
_cell_length_c   13.18946630
_cell_angle_alpha   84.51975467
_cell_angle_beta   79.00579836
_cell_angle_gamma   59.95526080
_symmetry_Int_Tables_number   1
_chemical_formula_structural   Ho3Th(Al8Pd3)3
_chemical_formula_sum   'Ho3 Th1 Al24 Pd9'
_cell_volume   645.07949357
_cell_formula_units_Z   1
loop_
 _symmetry_equiv_pos_site_id
 _symmetry_equiv_pos_as_xyz
  1  'x, y, z'
loop_
 _atom_site_type_symbol
 _atom_site_label
 _atom_site_symmetry_multiplicity
 _atom_site_fract_x
 _atom_site_fract_y
 _atom_site_fract_z
 _atom_site_occupancy
  Ho  Ho0  1  0.606282  0.831098  0.192631  1
  Ho  Ho1  1  0.733306  0.498603  0.808057  1
  Ho  Ho2  1  0.266046  0.501998  0.192695  1
  Th  Th3  1  0.393460  0.168246  0.807968  1
  Al  Al4  1  0.687045  0.830365  0.947201  1
  Al  Al5  1  0.314896  0.166314  0.058578  1
  Al  Al6  1  0.146257  0.833530  0.560371  1
  Al  Al7  1  0.855019  0.166405  0.437331  1
  Al  Al8  1  0.480193  0.166698  0.557117  1
  Al  Al9  1  0.520880  0.832442  0.439857  1
  Al  Al10  1  0.217892  0.165372  0.329175  1
  Al  Al11  1  0.787247  0.831065  0.667401  1
  Al  Al12  1  0.437439  0.510598  0.667917  1
  Al  Al13  1  0.563420  0.493402  0.328855  1
  Al  Al14  1  0.106421  0.159569  0.666257  1
  Al  Al15  1  0.891082  0.840085  0.330129  1
  Al  Al16  1  0.351713  0.502911  0.947273  1
  Al  Al17  1  0.646350  0.501175  0.056339  1
  Al  Al18  1  0.011468  0.167451  0.957478  1
  Al  Al19  1  0.983934  0.831991  0.047804  1
  Al  Al20  1  0.186518  0.500457  0.439914  1
  Al  Al21  1  0.813287  0.500222  0.558847  1
  Al  Al22  1  0.733242  0.163976  0.183845  1
  Al  Al23  1  0.265813  0.832719  0.816303  1
  Al  Al24  1  0.058966  0.634147  0.814959  1
  Al  Al25  1  0.937499  0.370084  0.185565  1
  Al  Al26  1  0.858948  0.041160  0.816323  1
  Al  Al27  1  0.144616  0.957576  0.184480  1
  Pd  Pd28  1  0.120263  0.492281  0.638079  1
  Pd  Pd29  1  0.880413  0.507488  0.361640  1
  Pd  Pd30  1  0.656711  0.171491  0.999830  1
  Pd  Pd31  1  0.342978  0.828995  0.000317  1
  Pd  Pd32  1  0.538121  0.166744  0.361500  1
  Pd  Pd33  1  0.461840  0.833530  0.638086  1
  Pd  Pd34  1  0.778050  0.174800  0.637648  1
  Pd  Pd35  1  0.221969  0.825265  0.362129  1
  Pd  Pd36  1  0.000418  0.499745  0.000100  1
