# generated using pymatgen
data_CeHo2(RhPb)3
_symmetry_space_group_name_H-M   'P 1'
_cell_length_a   7.70527182
_cell_length_b   7.79900695
_cell_length_c   3.88680700
_cell_angle_alpha   90.00000000
_cell_angle_beta   90.00000000
_cell_angle_gamma   120.40322583
_symmetry_Int_Tables_number   1
_chemical_formula_structural   CeHo2(RhPb)3
_chemical_formula_sum   'Ce1 Ho2 Rh3 Pb3'
_cell_volume   201.45214138
_cell_formula_units_Z   1
loop_
 _symmetry_equiv_pos_site_id
 _symmetry_equiv_pos_as_xyz
  1  'x, y, z'
loop_
 _atom_site_type_symbol
 _atom_site_label
 _atom_site_symmetry_multiplicity
 _atom_site_fract_x
 _atom_site_fract_y
 _atom_site_fract_z
 _atom_site_occupancy
  Ce  Ce0  1  0.000000  0.588862  0.500000  1
  Ho  Ho1  1  0.404403  0.403948  0.500000  1
  Ho  Ho2  1  0.595597  0.999545  0.500000  1
  Rh  Rh3  1  0.000000  0.996371  0.500000  1
  Rh  Rh4  1  0.680347  0.345748  0.000000  1
  Rh  Rh5  1  0.319653  0.665402  0.000000  1
  Pb  Pb6  1  0.728981  0.736577  0.000000  1
  Pb  Pb7  1  0.271019  0.007596  0.000000  1
  Pb  Pb8  1  0.000000  0.255951  0.000000  1
