# generated using pymatgen
data_Li2NdHo5(Co4P3)4
_symmetry_space_group_name_H-M   'P 1'
_cell_length_a   3.71986600
_cell_length_b   10.58773800
_cell_length_c   12.19939300
_cell_angle_alpha   90.00000000
_cell_angle_beta   90.00000000
_cell_angle_gamma   90.00000000
_symmetry_Int_Tables_number   1
_chemical_formula_structural   Li2NdHo5(Co4P3)4
_chemical_formula_sum   'Li2 Nd1 Ho5 Co16 P12'
_cell_volume   480.47268588
_cell_formula_units_Z   1
loop_
 _symmetry_equiv_pos_site_id
 _symmetry_equiv_pos_as_xyz
  1  'x, y, z'
loop_
 _atom_site_type_symbol
 _atom_site_label
 _atom_site_symmetry_multiplicity
 _atom_site_fract_x
 _atom_site_fract_y
 _atom_site_fract_z
 _atom_site_occupancy
  Li  Li0  1  0.500000  0.500000  0.150681  1
  Li  Li1  1  0.000000  0.000000  0.846850  1
  Nd  Nd2  1  0.000000  0.500000  0.523763  1
  Ho  Ho3  1  0.500000  0.000000  0.477001  1
  Ho  Ho4  1  0.500000  0.819753  0.205848  1
  Ho  Ho5  1  0.500000  0.180247  0.205848  1
  Ho  Ho6  1  0.000000  0.681170  0.794788  1
  Ho  Ho7  1  0.000000  0.318830  0.794788  1
  Co  Co8  1  0.000000  0.500000  0.987045  1
  Co  Co9  1  0.500000  0.000000  0.013796  1
  Co  Co10  1  0.500000  0.293339  0.430293  1
  Co  Co11  1  0.500000  0.706661  0.430293  1
  Co  Co12  1  0.000000  0.200846  0.569385  1
  Co  Co13  1  0.000000  0.799154  0.569385  1
  Co  Co14  1  0.500000  0.879644  0.707856  1
  Co  Co15  1  0.500000  0.120356  0.707856  1
  Co  Co16  1  0.000000  0.622198  0.291528  1
  Co  Co17  1  0.000000  0.377802  0.291528  1
  Co  Co18  1  0.500000  0.332583  0.996779  1
  Co  Co19  1  0.500000  0.667417  0.996779  1
  Co  Co20  1  0.000000  0.166599  0.003234  1
  Co  Co21  1  0.000000  0.833401  0.003234  1
  Co  Co22  1  0.500000  0.500000  0.706957  1
  Co  Co23  1  0.000000  0.000000  0.295892  1
  P  P24  1  0.500000  0.306063  0.617314  1
  P  P25  1  0.500000  0.693937  0.617314  1
  P  P26  1  0.000000  0.189471  0.383729  1
  P  P27  1  0.000000  0.810529  0.383729  1
  P  P28  1  0.500000  0.500000  0.885476  1
  P  P29  1  0.000000  0.000000  0.115823  1
  P  P30  1  0.500000  0.843750  0.893972  1
  P  P31  1  0.500000  0.156250  0.893972  1
  P  P32  1  0.000000  0.657412  0.105906  1
  P  P33  1  0.000000  0.342588  0.105906  1
  P  P34  1  0.500000  0.500000  0.341756  1
  P  P35  1  0.000000  0.000000  0.653692  1
