# generated using pymatgen
data_YTm19(Cd3Ru)2
_symmetry_space_group_name_H-M   'P 1'
_cell_length_a   9.45213472
_cell_length_b   9.44574601
_cell_length_c   9.74503800
_cell_angle_alpha   90.00000000
_cell_angle_beta   90.00000000
_cell_angle_gamma   119.97764452
_symmetry_Int_Tables_number   1
_chemical_formula_structural   YTm19(Cd3Ru)2
_chemical_formula_sum   'Y1 Tm19 Cd6 Ru2'
_cell_volume   753.66461215
_cell_formula_units_Z   1
loop_
 _symmetry_equiv_pos_site_id
 _symmetry_equiv_pos_as_xyz
  1  'x, y, z'
loop_
 _atom_site_type_symbol
 _atom_site_label
 _atom_site_symmetry_multiplicity
 _atom_site_fract_x
 _atom_site_fract_y
 _atom_site_fract_z
 _atom_site_occupancy
  Y  Y0  1  0.082425  0.541212  0.750000  1
  Tm  Tm1  1  0.999789  0.999894  0.500005  1
  Tm  Tm2  1  0.999789  0.999894  0.999995  1
  Tm  Tm3  1  0.210953  0.790707  0.440726  1
  Tm  Tm4  1  0.210953  0.420247  0.440726  1
  Tm  Tm5  1  0.579406  0.789703  0.441463  1
  Tm  Tm6  1  0.788347  0.209250  0.558109  1
  Tm  Tm7  1  0.788347  0.579096  0.558109  1
  Tm  Tm8  1  0.420502  0.210250  0.558478  1
  Tm  Tm9  1  0.788347  0.209250  0.941891  1
  Tm  Tm10  1  0.788347  0.579096  0.941891  1
  Tm  Tm11  1  0.420502  0.210250  0.941522  1
  Tm  Tm12  1  0.210953  0.790707  0.059274  1
  Tm  Tm13  1  0.210953  0.420247  0.059274  1
  Tm  Tm14  1  0.579406  0.789703  0.058537  1
  Tm  Tm15  1  0.540879  0.459461  0.250000  1
  Tm  Tm16  1  0.540879  0.081418  0.250000  1
  Tm  Tm17  1  0.918975  0.459488  0.250000  1
  Tm  Tm18  1  0.460666  0.540401  0.750000  1
  Tm  Tm19  1  0.460666  0.920265  0.750000  1
  Cd  Cd20  1  0.885413  0.113906  0.250000  1
  Cd  Cd21  1  0.885413  0.771508  0.250000  1
  Cd  Cd22  1  0.228703  0.114352  0.250000  1
  Cd  Cd23  1  0.114909  0.887790  0.750000  1
  Cd  Cd24  1  0.114909  0.227118  0.750000  1
  Cd  Cd25  1  0.771160  0.885579  0.750000  1
  Ru  Ru26  1  0.332819  0.666410  0.250000  1
  Ru  Ru27  1  0.665592  0.332795  0.750000  1
