# generated using pymatgen
data_Nd7Y(CdOs)2
_symmetry_space_group_name_H-M   'P 1'
_cell_length_a   9.93049543
_cell_length_b   9.92189750
_cell_length_c   9.93049568
_cell_angle_alpha   60.02864608
_cell_angle_beta   59.94272616
_cell_angle_gamma   60.02864335
_symmetry_Int_Tables_number   1
_chemical_formula_structural   Nd7Y(CdOs)2
_chemical_formula_sum   'Nd14 Y2 Cd4 Os4'
_cell_volume   691.86439533
_cell_formula_units_Z   2
loop_
 _symmetry_equiv_pos_site_id
 _symmetry_equiv_pos_as_xyz
  1  'x, y, z'
loop_
 _atom_site_type_symbol
 _atom_site_label
 _atom_site_symmetry_multiplicity
 _atom_site_fract_x
 _atom_site_fract_y
 _atom_site_fract_z
 _atom_site_occupancy
  Nd  Nd0  1  0.440715  0.440715  0.059285  1
  Nd  Nd1  1  0.059285  0.059285  0.440715  1
  Nd  Nd2  1  0.440715  0.059285  0.059285  1
  Nd  Nd3  1  0.845224  0.848342  0.845224  1
  Nd  Nd4  1  0.689554  0.310446  0.310446  1
  Nd  Nd5  1  0.059285  0.440715  0.440715  1
  Nd  Nd6  1  0.310446  0.689554  0.689554  1
  Nd  Nd7  1  0.310446  0.310446  0.689554  1
  Nd  Nd8  1  0.848342  0.845224  0.461210  1
  Nd  Nd9  1  0.689554  0.689554  0.310446  1
  Nd  Nd10  1  0.461210  0.845224  0.848342  1
  Nd  Nd11  1  0.057723  0.442277  0.057723  1
  Nd  Nd12  1  0.845224  0.461210  0.845224  1
  Nd  Nd13  1  0.442277  0.057723  0.442277  1
  Y  Y14  1  0.309071  0.690929  0.309071  1
  Y  Y15  1  0.690929  0.309071  0.690929  1
  Cd  Cd16  1  0.080110  0.762249  0.080110  1
  Cd  Cd17  1  0.077532  0.080110  0.762249  1
  Cd  Cd18  1  0.762249  0.080110  0.077532  1
  Cd  Cd19  1  0.080110  0.077532  0.080110  1
  Os  Os20  1  0.638278  0.085456  0.638278  1
  Os  Os21  1  0.638278  0.637988  0.638278  1
  Os  Os22  1  0.637988  0.638278  0.085456  1
  Os  Os23  1  0.085456  0.638278  0.637988  1
