# generated using pymatgen
data_Nb12Al8Co4CN3
_symmetry_space_group_name_H-M   'P 1'
_cell_length_a   8.23021470
_cell_length_b   8.23021538
_cell_length_c   8.23021556
_cell_angle_alpha   59.88184722
_cell_angle_beta   59.88184579
_cell_angle_gamma   59.88184642
_symmetry_Int_Tables_number   1
_chemical_formula_structural   Nb12Al8Co4CN3
_chemical_formula_sum   'Nb12 Al8 Co4 C1 N3'
_cell_volume   393.14499299
_cell_formula_units_Z   1
loop_
 _symmetry_equiv_pos_site_id
 _symmetry_equiv_pos_as_xyz
  1  'x, y, z'
loop_
 _atom_site_type_symbol
 _atom_site_label
 _atom_site_symmetry_multiplicity
 _atom_site_fract_x
 _atom_site_fract_y
 _atom_site_fract_z
 _atom_site_occupancy
  Nb  Nb0  1  0.689907  0.309489  0.689907  1
  Nb  Nb1  1  0.940511  0.560093  0.560093  1
  Nb  Nb2  1  0.560285  0.939104  0.939104  1
  Nb  Nb3  1  0.939104  0.560285  0.939104  1
  Nb  Nb4  1  0.560093  0.560093  0.940511  1
  Nb  Nb5  1  0.939104  0.939104  0.560285  1
  Nb  Nb6  1  0.689907  0.689907  0.309489  1
  Nb  Nb7  1  0.309489  0.689907  0.689907  1
  Nb  Nb8  1  0.689715  0.310896  0.310896  1
  Nb  Nb9  1  0.310896  0.310896  0.689715  1
  Nb  Nb10  1  0.560093  0.940511  0.560093  1
  Nb  Nb11  1  0.310896  0.689715  0.310896  1
  Al  Al12  1  0.331861  0.331861  0.331861  1
  Al  Al13  1  0.246112  0.917818  0.917818  1
  Al  Al14  1  0.917818  0.246112  0.917818  1
  Al  Al15  1  0.917818  0.917818  0.246112  1
  Al  Al16  1  0.332182  0.003888  0.332182  1
  Al  Al17  1  0.332182  0.332182  0.003888  1
  Al  Al18  1  0.003888  0.332182  0.332182  1
  Al  Al19  1  0.918139  0.918139  0.918139  1
  Co  Co20  1  0.125000  0.125000  0.125000  1
  Co  Co21  1  0.625000  0.125000  0.125000  1
  Co  Co22  1  0.125000  0.625000  0.125000  1
  Co  Co23  1  0.125000  0.125000  0.625000  1
  C  C24  1  0.625000  0.625000  0.625000  1
  N  N25  1  0.125000  0.625000  0.625000  1
  N  N26  1  0.625000  0.125000  0.625000  1
  N  N27  1  0.625000  0.625000  0.125000  1
