# generated using pymatgen
data_Gd(ZrSe2)3
_symmetry_space_group_name_H-M   'P 1'
_cell_length_a   6.54771081
_cell_length_b   6.54775271
_cell_length_c   7.33485500
_cell_angle_alpha   98.61599708
_cell_angle_beta   98.61676950
_cell_angle_gamma   119.93420740
_symmetry_Int_Tables_number   1
_chemical_formula_structural   Gd(ZrSe2)3
_chemical_formula_sum   'Gd1 Zr3 Se6'
_cell_volume   260.01999561
_cell_formula_units_Z   1
loop_
 _symmetry_equiv_pos_site_id
 _symmetry_equiv_pos_as_xyz
  1  'x, y, z'
loop_
 _atom_site_type_symbol
 _atom_site_label
 _atom_site_symmetry_multiplicity
 _atom_site_fract_x
 _atom_site_fract_y
 _atom_site_fract_z
 _atom_site_occupancy
  Gd  Gd0  1  0.000000  0.999999  0.499999  1
  Zr  Zr1  1  0.833903  0.166100  0.000001  1
  Zr  Zr2  1  0.500001  0.500001  0.000001  1
  Zr  Zr3  1  0.166099  0.833901  0.000002  1
  Se  Se4  1  0.252187  0.252184  0.238563  1
  Se  Se5  1  0.912652  0.573817  0.238148  1
  Se  Se6  1  0.573815  0.912647  0.238146  1
  Se  Se7  1  0.426184  0.087353  0.761854  1
  Se  Se8  1  0.087349  0.426184  0.761852  1
  Se  Se9  1  0.747814  0.747815  0.761437  1
