# generated using pymatgen
data_TmNp3(B6W)2
_symmetry_space_group_name_H-M   'P 1'
_cell_length_a   3.62071200
_cell_length_b   9.31738943
_cell_length_c   11.37865700
_cell_angle_alpha   89.92367556
_cell_angle_beta   90.00000000
_cell_angle_gamma   90.00000000
_symmetry_Int_Tables_number   1
_chemical_formula_structural   TmNp3(B6W)2
_chemical_formula_sum   'Tm2 Np6 B24 W4'
_cell_volume   383.86529523
_cell_formula_units_Z   2
loop_
 _symmetry_equiv_pos_site_id
 _symmetry_equiv_pos_as_xyz
  1  'x, y, z'
loop_
 _atom_site_type_symbol
 _atom_site_label
 _atom_site_symmetry_multiplicity
 _atom_site_fract_x
 _atom_site_fract_y
 _atom_site_fract_z
 _atom_site_occupancy
  Tm  Tm0  1  0.000000  0.337573  0.407623  1
  Tm  Tm1  1  0.000000  0.662427  0.592377  1
  Np  Np2  1  0.000000  0.837599  0.092974  1
  Np  Np3  1  0.000000  0.162401  0.907026  1
  Np  Np4  1  0.000000  0.958874  0.400297  1
  Np  Np5  1  0.000000  0.041126  0.599703  1
  Np  Np6  1  0.000000  0.458338  0.099663  1
  Np  Np7  1  0.000000  0.541662  0.900337  1
  B  B8  1  0.500000  0.550844  0.432621  1
  B  B9  1  0.500000  0.449156  0.567379  1
  B  B10  1  0.500000  0.051198  0.067352  1
  B  B11  1  0.500000  0.948802  0.932648  1
  B  B12  1  0.500000  0.744783  0.424915  1
  B  B13  1  0.500000  0.255217  0.575085  1
  B  B14  1  0.500000  0.245396  0.075557  1
  B  B15  1  0.500000  0.754604  0.924443  1
  B  B16  1  0.500000  0.806394  0.274256  1
  B  B17  1  0.500000  0.193606  0.725744  1
  B  B18  1  0.500000  0.305593  0.225077  1
  B  B19  1  0.500000  0.694407  0.774923  1
  B  B20  1  0.500000  0.644933  0.186639  1
  B  B21  1  0.500000  0.355067  0.813361  1
  B  B22  1  0.500000  0.145122  0.313243  1
  B  B23  1  0.500000  0.854878  0.686757  1
  B  B24  1  0.500000  0.986800  0.221394  1
  B  B25  1  0.500000  0.013200  0.778606  1
  B  B26  1  0.500000  0.486813  0.279165  1
  B  B27  1  0.500000  0.513187  0.720835  1
  B  B28  1  0.500000  0.641266  0.039217  1
  B  B29  1  0.500000  0.358734  0.960783  1
  B  B30  1  0.500000  0.139853  0.461076  1
  B  B31  1  0.500000  0.860147  0.538924  1
  W  W32  1  0.000000  0.648217  0.316582  1
  W  W33  1  0.000000  0.351783  0.683418  1
  W  W34  1  0.000000  0.144970  0.179056  1
  W  W35  1  0.000000  0.855030  0.820944  1
