# generated using pymatgen
data_Y3HoTm4(CdIr)2
_symmetry_space_group_name_H-M   'P 1'
_cell_length_a   9.57427591
_cell_length_b   9.57427582
_cell_length_c   9.57797600
_cell_angle_alpha   59.98720792
_cell_angle_beta   59.98720822
_cell_angle_gamma   59.97169366
_symmetry_Int_Tables_number   1
_chemical_formula_structural   Y3HoTm4(CdIr)2
_chemical_formula_sum   'Y6 Ho2 Tm8 Cd4 Ir4'
_cell_volume   620.57412803
_cell_formula_units_Z   2
loop_
 _symmetry_equiv_pos_site_id
 _symmetry_equiv_pos_as_xyz
  1  'x, y, z'
loop_
 _atom_site_type_symbol
 _atom_site_label
 _atom_site_symmetry_multiplicity
 _atom_site_fract_x
 _atom_site_fract_y
 _atom_site_fract_z
 _atom_site_occupancy
  Y  Y0  1  0.939562  0.560920  0.560673  1
  Y  Y1  1  0.560920  0.939562  0.938845  1
  Y  Y2  1  0.560920  0.939562  0.560673  1
  Y  Y3  1  0.939562  0.560920  0.938845  1
  Y  Y4  1  0.561041  0.561041  0.938959  1
  Y  Y5  1  0.939443  0.939443  0.560557  1
  Ho  Ho6  1  0.348810  0.348810  0.348325  1
  Ho  Ho7  1  0.348810  0.348810  0.954056  1
  Tm  Tm8  1  0.348968  0.954307  0.348363  1
  Tm  Tm9  1  0.954307  0.348968  0.348363  1
  Tm  Tm10  1  0.811060  0.187916  0.189136  1
  Tm  Tm11  1  0.187916  0.811060  0.811889  1
  Tm  Tm12  1  0.187916  0.811060  0.189136  1
  Tm  Tm13  1  0.811060  0.187916  0.811889  1
  Tm  Tm14  1  0.188384  0.188384  0.811616  1
  Tm  Tm15  1  0.811323  0.811323  0.188677  1
  Cd  Cd16  1  0.580447  0.580447  0.580173  1
  Cd  Cd17  1  0.580447  0.580447  0.258934  1
  Cd  Cd18  1  0.580873  0.257917  0.580606  1
  Cd  Cd19  1  0.257917  0.580873  0.580606  1
  Ir  Ir20  1  0.141437  0.141437  0.141787  1
  Ir  Ir21  1  0.141437  0.141437  0.575340  1
  Ir  Ir22  1  0.141050  0.576391  0.141280  1
  Ir  Ir23  1  0.576391  0.141050  0.141280  1
