# generated using pymatgen
data_Tb3YbAs6Rh7
_symmetry_space_group_name_H-M   'P 1'
_cell_length_a   7.27901521
_cell_length_b   7.27901484
_cell_length_c   7.27901408
_cell_angle_alpha   109.38573272
_cell_angle_beta   109.38573047
_cell_angle_gamma   109.38571864
_symmetry_Int_Tables_number   1
_chemical_formula_structural   Tb3YbAs6Rh7
_chemical_formula_sum   'Tb3 Yb1 As6 Rh7'
_cell_volume   297.82626827
_cell_formula_units_Z   1
loop_
 _symmetry_equiv_pos_site_id
 _symmetry_equiv_pos_as_xyz
  1  'x, y, z'
loop_
 _atom_site_type_symbol
 _atom_site_label
 _atom_site_symmetry_multiplicity
 _atom_site_fract_x
 _atom_site_fract_y
 _atom_site_fract_z
 _atom_site_occupancy
  Tb  Tb0  1  0.000000  0.500000  0.000000  1
  Tb  Tb1  1  0.500000  0.000000  0.000000  1
  Tb  Tb2  1  0.000000  0.000000  0.500000  1
  Yb  Yb3  1  0.500000  0.500000  0.500000  1
  As  As4  1  0.678558  0.998222  0.678558  1
  As  As5  1  0.678558  0.678558  0.998222  1
  As  As6  1  0.321442  0.321442  0.001778  1
  As  As7  1  0.998222  0.678558  0.678558  1
  As  As8  1  0.001778  0.321442  0.321442  1
  As  As9  1  0.321442  0.001778  0.321442  1
  Rh  Rh10  1  0.500000  0.750822  0.249178  1
  Rh  Rh11  1  0.750822  0.249178  0.500000  1
  Rh  Rh12  1  0.249178  0.750822  0.500000  1
  Rh  Rh13  1  0.249178  0.500000  0.750822  1
  Rh  Rh14  1  0.000000  0.000000  0.000000  1
  Rh  Rh15  1  0.500000  0.249178  0.750822  1
  Rh  Rh16  1  0.750822  0.500000  0.249178  1
