# generated using pymatgen
data_Dy5Y3(HgPt)2
_symmetry_space_group_name_H-M   'P 1'
_cell_length_a   9.65567129
_cell_length_b   9.65567124
_cell_length_c   9.65567200
_cell_angle_alpha   60.00000424
_cell_angle_beta   60.00000442
_cell_angle_gamma   60.00000475
_symmetry_Int_Tables_number   1
_chemical_formula_structural   Dy5Y3(HgPt)2
_chemical_formula_sum   'Dy10 Y6 Hg4 Pt4'
_cell_volume   636.54995745
_cell_formula_units_Z   2
loop_
 _symmetry_equiv_pos_site_id
 _symmetry_equiv_pos_as_xyz
  1  'x, y, z'
loop_
 _atom_site_type_symbol
 _atom_site_label
 _atom_site_symmetry_multiplicity
 _atom_site_fract_x
 _atom_site_fract_y
 _atom_site_fract_z
 _atom_site_occupancy
  Dy  Dy0  1  0.354155  0.354155  0.354155  1
  Dy  Dy1  1  0.354155  0.354155  0.937536  1
  Dy  Dy2  1  0.354155  0.937536  0.354155  1
  Dy  Dy3  1  0.937536  0.354155  0.354155  1
  Dy  Dy4  1  0.810224  0.189776  0.189776  1
  Dy  Dy5  1  0.189776  0.810224  0.810224  1
  Dy  Dy6  1  0.189776  0.810224  0.189776  1
  Dy  Dy7  1  0.810224  0.189776  0.810224  1
  Dy  Dy8  1  0.189776  0.189776  0.810224  1
  Dy  Dy9  1  0.810224  0.810224  0.189776  1
  Y  Y10  1  0.936050  0.563950  0.563950  1
  Y  Y11  1  0.563950  0.936050  0.936050  1
  Y  Y12  1  0.563950  0.936050  0.563950  1
  Y  Y13  1  0.936050  0.563950  0.936050  1
  Y  Y14  1  0.563950  0.563950  0.936050  1
  Y  Y15  1  0.936050  0.936050  0.563950  1
  Hg  Hg16  1  0.586494  0.586494  0.586494  1
  Hg  Hg17  1  0.586494  0.586494  0.240520  1
  Hg  Hg18  1  0.586494  0.240520  0.586494  1
  Hg  Hg19  1  0.240520  0.586494  0.586494  1
  Pt  Pt20  1  0.143922  0.143922  0.143922  1
  Pt  Pt21  1  0.143922  0.143922  0.568234  1
  Pt  Pt22  1  0.143922  0.568234  0.143922  1
  Pt  Pt23  1  0.568234  0.143922  0.143922  1
