# generated using pymatgen
data_BaSr(MnCl6)2
_symmetry_space_group_name_H-M   'P 1'
_cell_length_a   6.58928669
_cell_length_b   6.58928884
_cell_length_c   10.54656134
_cell_angle_alpha   88.52058040
_cell_angle_beta   88.52056624
_cell_angle_gamma   73.39475198
_symmetry_Int_Tables_number   1
_chemical_formula_structural   BaSr(MnCl6)2
_chemical_formula_sum   'Ba1 Sr1 Mn2 Cl12'
_cell_volume   438.59373800
_cell_formula_units_Z   1
loop_
 _symmetry_equiv_pos_site_id
 _symmetry_equiv_pos_as_xyz
  1  'x, y, z'
loop_
 _atom_site_type_symbol
 _atom_site_label
 _atom_site_symmetry_multiplicity
 _atom_site_fract_x
 _atom_site_fract_y
 _atom_site_fract_z
 _atom_site_occupancy
  Ba  Ba0  1  0.989904  0.010096  0.250000  1
  Sr  Sr1  1  0.012772  0.987228  0.750000  1
  Mn  Mn2  1  0.506307  0.008227  0.508044  1
  Mn  Mn3  1  0.991773  0.493693  0.991956  1
  Cl  Cl4  1  0.404139  0.743298  0.607391  1
  Cl  Cl5  1  0.597690  0.278703  0.407764  1
  Cl  Cl6  1  0.256702  0.595861  0.892609  1
  Cl  Cl7  1  0.721297  0.402310  0.092236  1
  Cl  Cl8  1  0.541791  0.145744  0.699080  1
  Cl  Cl9  1  0.486683  0.865225  0.313651  1
  Cl  Cl10  1  0.854256  0.458209  0.800920  1
  Cl  Cl11  1  0.134775  0.513317  0.186349  1
  Cl  Cl12  1  0.796141  0.845635  0.995504  1
  Cl  Cl13  1  0.193613  0.142206  0.984709  1
  Cl  Cl14  1  0.154365  0.203859  0.504496  1
  Cl  Cl15  1  0.857794  0.806387  0.515291  1
