# generated using pymatgen
data_CaGd3(Al8Pd3)3
_symmetry_space_group_name_H-M   'P 1'
_cell_length_a   7.62064406
_cell_length_b   7.61835869
_cell_length_c   13.33207900
_cell_angle_alpha   84.63974845
_cell_angle_beta   100.90869756
_cell_angle_gamma   119.82337620
_symmetry_Int_Tables_number   1
_chemical_formula_structural   CaGd3(Al8Pd3)3
_chemical_formula_sum   'Ca1 Gd3 Al24 Pd9'
_cell_volume   659.37455696
_cell_formula_units_Z   1
loop_
 _symmetry_equiv_pos_site_id
 _symmetry_equiv_pos_as_xyz
  1  'x, y, z'
loop_
 _atom_site_type_symbol
 _atom_site_label
 _atom_site_symmetry_multiplicity
 _atom_site_fract_x
 _atom_site_fract_y
 _atom_site_fract_z
 _atom_site_occupancy
  Ca  Ca0  1  0.437175  0.831283  0.807566  1
  Gd  Gd1  1  0.562658  0.168284  0.191507  1
  Gd  Gd2  1  0.769033  0.502351  0.808654  1
  Gd  Gd3  1  0.231526  0.498610  0.191301  1
  Al  Al4  1  0.479647  0.166065  0.945795  1
  Al  Al5  1  0.520129  0.833917  0.054298  1
  Al  Al6  1  0.021908  0.167324  0.560203  1
  Al  Al7  1  0.978612  0.832634  0.439658  1
  Al  Al8  1  0.355299  0.833726  0.558424  1
  Al  Al9  1  0.644150  0.165982  0.440736  1
  Al  Al10  1  0.618280  0.834792  0.330969  1
  Al  Al11  1  0.381012  0.165571  0.668724  1
  Al  Al12  1  0.056646  0.492619  0.667918  1
  Al  Al13  1  0.942984  0.507076  0.331791  1
  Al  Al14  1  0.732996  0.841472  0.667576  1
  Al  Al15  1  0.267594  0.158809  0.332544  1
  Al  Al16  1  0.147613  0.498494  0.946499  1
  Al  Al17  1  0.852381  0.500694  0.054370  1
  Al  Al18  1  0.819242  0.833589  0.955213  1
  Al  Al19  1  0.182315  0.167044  0.045238  1
  Al  Al20  1  0.313241  0.500395  0.440385  1
  Al  Al21  1  0.687042  0.499836  0.559512  1
  Al  Al22  1  0.100618  0.836074  0.183641  1
  Al  Al23  1  0.901409  0.168358  0.816342  1
  Al  Al24  1  0.308085  0.366006  0.815141  1
  Al  Al25  1  0.693129  0.630818  0.185104  1
  Al  Al26  1  0.098550  0.958124  0.816091  1
  Al  Al27  1  0.897158  0.040264  0.184191  1
  Pd  Pd28  1  0.387125  0.507028  0.636631  1
  Pd  Pd29  1  0.612575  0.493383  0.363127  1
  Pd  Pd30  1  0.171753  0.828901  0.000444  1
  Pd  Pd31  1  0.828429  0.170978  0.000760  1
  Pd  Pd32  1  0.293120  0.832644  0.362576  1
  Pd  Pd33  1  0.706008  0.166712  0.636906  1
  Pd  Pd34  1  0.048193  0.826897  0.636333  1
  Pd  Pd35  1  0.951981  0.173403  0.363413  1
  Pd  Pd36  1  0.500380  0.499844  0.000419  1
