# generated using pymatgen
data_Cr2CdF12
_symmetry_space_group_name_H-M   'P 1'
_cell_length_a   11.32380236
_cell_length_b   5.64302629
_cell_length_c   5.64008017
_cell_angle_alpha   57.63956487
_cell_angle_beta   57.35713342
_cell_angle_gamma   57.48252831
_symmetry_Int_Tables_number   1
_chemical_formula_structural   Cr2CdF12
_chemical_formula_sum   'Cr2 Cd1 F12'
_cell_volume   240.14665031
_cell_formula_units_Z   1
loop_
 _symmetry_equiv_pos_site_id
 _symmetry_equiv_pos_as_xyz
  1  'x, y, z'
loop_
 _atom_site_type_symbol
 _atom_site_label
 _atom_site_symmetry_multiplicity
 _atom_site_fract_x
 _atom_site_fract_y
 _atom_site_fract_z
 _atom_site_occupancy
  Cr  Cr0  1  0.010625  0.985702  0.998099  1
  Cr  Cr1  1  0.489375  0.014298  0.001901  1
  Cd  Cd2  1  0.750000  0.500000  0.500000  1
  F  F3  1  0.164213  0.106373  0.784345  1
  F  F4  1  0.660550  0.125040  0.780799  1
  F  F5  1  0.053351  0.796776  0.323562  1
  F  F6  1  0.560892  0.779532  0.316429  1
  F  F7  1  0.106308  0.685997  0.871842  1
  F  F8  1  0.609807  0.678684  0.883633  1
  F  F9  1  0.446649  0.203224  0.676438  1
  F  F10  1  0.939108  0.220468  0.683571  1
  F  F11  1  0.335787  0.893627  0.215655  1
  F  F12  1  0.839450  0.874960  0.219201  1
  F  F13  1  0.393692  0.314003  0.128158  1
  F  F14  1  0.890193  0.321316  0.116367  1
