# generated using pymatgen
data_Y2Ho2Re5Os3
_symmetry_space_group_name_H-M   'P 1'
_cell_length_a   5.35289540
_cell_length_b   5.27726794
_cell_length_c   9.01928503
_cell_angle_alpha   89.99335010
_cell_angle_beta   89.99799923
_cell_angle_gamma   119.53405046
_symmetry_Int_Tables_number   1
_chemical_formula_structural   Y2Ho2Re5Os3
_chemical_formula_sum   'Y2 Ho2 Re5 Os3'
_cell_volume   221.67701169
_cell_formula_units_Z   1
loop_
 _symmetry_equiv_pos_site_id
 _symmetry_equiv_pos_as_xyz
  1  'x, y, z'
loop_
 _atom_site_type_symbol
 _atom_site_label
 _atom_site_symmetry_multiplicity
 _atom_site_fract_x
 _atom_site_fract_y
 _atom_site_fract_z
 _atom_site_occupancy
  Y  Y0  1  0.669102  0.334562  0.935418  1
  Y  Y1  1  0.333643  0.666817  0.063183  1
  Ho  Ho2  1  0.333707  0.666862  0.437290  1
  Ho  Ho3  1  0.669167  0.334568  0.564179  1
  Re  Re4  1  0.829893  0.169636  0.250814  1
  Re  Re5  1  0.829869  0.660225  0.250794  1
  Re  Re6  1  0.344389  0.172194  0.250824  1
  Re  Re7  1  0.162943  0.829482  0.749230  1
  Re  Re8  1  0.162954  0.333471  0.749261  1
  Os  Os9  1  0.010195  0.005095  0.500176  1
  Os  Os10  1  0.010048  0.005028  0.999775  1
  Os  Os11  1  0.644089  0.822059  0.749056  1
