# generated using pymatgen
data_Ho3Er13ZnIn3Rh4
_symmetry_space_group_name_H-M   'P 1'
_cell_length_a   9.55810580
_cell_length_b   9.54884445
_cell_length_c   9.56024900
_cell_angle_alpha   59.96048027
_cell_angle_beta   59.99257885
_cell_angle_gamma   60.03367164
_symmetry_Int_Tables_number   1
_chemical_formula_structural   Ho3Er13ZnIn3Rh4
_chemical_formula_sum   'Ho3 Er13 Zn1 In3 Rh4'
_cell_volume   616.92581926
_cell_formula_units_Z   1
loop_
 _symmetry_equiv_pos_site_id
 _symmetry_equiv_pos_as_xyz
  1  'x, y, z'
loop_
 _atom_site_type_symbol
 _atom_site_label
 _atom_site_symmetry_multiplicity
 _atom_site_fract_x
 _atom_site_fract_y
 _atom_site_fract_z
 _atom_site_occupancy
  Ho  Ho0  1  0.190681  0.190787  0.809266  1
  Ho  Ho1  1  0.436532  0.056918  0.069509  1
  Ho  Ho2  1  0.436532  0.056918  0.437041  1
  Er  Er3  1  0.063405  0.435033  0.064142  1
  Er  Er4  1  0.647867  0.051618  0.650257  1
  Er  Er5  1  0.190251  0.810723  0.809341  1
  Er  Er6  1  0.065493  0.056119  0.439194  1
  Er  Er7  1  0.810156  0.190833  0.190273  1
  Er  Er8  1  0.810389  0.809979  0.189817  1
  Er  Er9  1  0.650230  0.649873  0.048019  1
  Er  Er10  1  0.650230  0.649873  0.651879  1
  Er  Er11  1  0.063405  0.435033  0.437421  1
  Er  Er12  1  0.052067  0.647805  0.650064  1
  Er  Er13  1  0.810156  0.190833  0.808739  1
  Er  Er14  1  0.436962  0.433715  0.064662  1
  Er  Er15  1  0.190251  0.810723  0.189686  1
  Zn  Zn16  1  0.416764  0.751769  0.415733  1
  In  In17  1  0.416857  0.423305  0.744508  1
  In  In18  1  0.744052  0.423856  0.416046  1
  In  In19  1  0.416857  0.423305  0.415330  1
  Rh  Rh20  1  0.858069  0.426251  0.857841  1
  Rh  Rh21  1  0.858173  0.857976  0.427567  1
  Rh  Rh22  1  0.426450  0.858781  0.857385  1
  Rh  Rh23  1  0.858173  0.857976  0.856285  1
