# generated using pymatgen
data_Nb4Cr3Co3Os2
_symmetry_space_group_name_H-M   'P 1'
_cell_length_a   4.87003400
_cell_length_b   4.87003249
_cell_length_c   8.20615700
_cell_angle_alpha   90.00000000
_cell_angle_beta   90.00000000
_cell_angle_gamma   119.99999664
_symmetry_Int_Tables_number   1
_chemical_formula_structural   Nb4Cr3Co3Os2
_chemical_formula_sum   'Nb4 Cr3 Co3 Os2'
_cell_volume   168.55215916
_cell_formula_units_Z   1
loop_
 _symmetry_equiv_pos_site_id
 _symmetry_equiv_pos_as_xyz
  1  'x, y, z'
loop_
 _atom_site_type_symbol
 _atom_site_label
 _atom_site_symmetry_multiplicity
 _atom_site_fract_x
 _atom_site_fract_y
 _atom_site_fract_z
 _atom_site_occupancy
  Nb  Nb0  1  0.333333  0.666667  0.437239  1
  Nb  Nb1  1  0.666667  0.333333  0.567394  1
  Nb  Nb2  1  0.666667  0.333333  0.932606  1
  Nb  Nb3  1  0.333333  0.666667  0.062761  1
  Cr  Cr4  1  0.825354  0.174646  0.250000  1
  Cr  Cr5  1  0.825354  0.650710  0.250000  1
  Cr  Cr6  1  0.349290  0.174646  0.250000  1
  Co  Co7  1  0.171728  0.828272  0.750000  1
  Co  Co8  1  0.171728  0.343454  0.750000  1
  Co  Co9  1  0.656546  0.828272  0.750000  1
  Os  Os10  1  0.000000  0.000000  0.505961  1
  Os  Os11  1  0.000000  0.000000  0.994039  1
