# generated using pymatgen
data_CaTmTa3Co9As7
_symmetry_space_group_name_H-M   'P 1'
_cell_length_a   3.79649600
_cell_length_b   9.56307038
_cell_length_c   9.56307000
_cell_angle_alpha   119.99999868
_cell_angle_beta   90.00000000
_cell_angle_gamma   90.00000000
_symmetry_Int_Tables_number   1
_chemical_formula_structural   CaTmTa3Co9As7
_chemical_formula_sum   'Ca1 Tm1 Ta3 Co9 As7'
_cell_volume   300.68258205
_cell_formula_units_Z   1
loop_
 _symmetry_equiv_pos_site_id
 _symmetry_equiv_pos_as_xyz
  1  'x, y, z'
loop_
 _atom_site_type_symbol
 _atom_site_label
 _atom_site_symmetry_multiplicity
 _atom_site_fract_x
 _atom_site_fract_y
 _atom_site_fract_z
 _atom_site_occupancy
  Ca  Ca0  1  0.500000  0.333333  0.666667  1
  Tm  Tm1  1  0.000000  0.666667  0.333333  1
  Ta  Ta2  1  0.500000  0.775328  0.895380  1
  Ta  Ta3  1  0.500000  0.120053  0.224672  1
  Ta  Ta4  1  0.500000  0.104620  0.879947  1
  Co  Co5  1  0.000000  0.574724  0.940916  1
  Co  Co6  1  0.000000  0.366191  0.425276  1
  Co  Co7  1  0.000000  0.059084  0.633809  1
  Co  Co8  1  0.000000  0.879795  0.160280  1
  Co  Co9  1  0.000000  0.280486  0.120205  1
  Co  Co10  1  0.000000  0.839720  0.719514  1
  Co  Co11  1  0.500000  0.945558  0.381681  1
  Co  Co12  1  0.500000  0.436123  0.054442  1
  Co  Co13  1  0.500000  0.618319  0.563877  1
  As  As14  1  0.000000  0.000000  0.000000  1
  As  As15  1  0.500000  0.706875  0.125339  1
  As  As16  1  0.500000  0.418464  0.293125  1
  As  As17  1  0.500000  0.874661  0.581536  1
  As  As18  1  0.000000  0.577650  0.691014  1
  As  As19  1  0.000000  0.113364  0.422350  1
  As  As20  1  0.000000  0.308986  0.886636  1
