# generated using pymatgen
data_Tb2Sm3DyCoBr10
_symmetry_space_group_name_H-M   'P 1'
_cell_length_a   7.42703868
_cell_length_b   9.31015582
_cell_length_c   9.22936924
_cell_angle_alpha   107.05453275
_cell_angle_beta   96.16405488
_cell_angle_gamma   104.91825966
_symmetry_Int_Tables_number   1
_chemical_formula_structural   Tb2Sm3DyCoBr10
_chemical_formula_sum   'Tb2 Sm3 Dy1 Co1 Br10'
_cell_volume   577.88662471
_cell_formula_units_Z   1
loop_
 _symmetry_equiv_pos_site_id
 _symmetry_equiv_pos_as_xyz
  1  'x, y, z'
loop_
 _atom_site_type_symbol
 _atom_site_label
 _atom_site_symmetry_multiplicity
 _atom_site_fract_x
 _atom_site_fract_y
 _atom_site_fract_z
 _atom_site_occupancy
  Tb  Tb0  1  0.351215  0.127800  0.675001  1
  Tb  Tb1  1  0.648941  0.869880  0.324528  1
  Sm  Sm2  1  0.963313  0.295368  0.591688  1
  Sm  Sm3  1  0.876717  0.951068  0.735907  1
  Sm  Sm4  1  0.122543  0.048401  0.263470  1
  Dy  Dy5  1  0.035740  0.709117  0.409420  1
  Co  Co6  1  0.999734  0.999641  0.499654  1
  Br  Br7  1  0.453915  0.820332  0.583684  1
  Br  Br8  1  0.542917  0.177120  0.414311  1
  Br  Br9  1  0.915240  0.629828  0.671096  1
  Br  Br10  1  0.086667  0.375385  0.325709  1
  Br  Br11  1  0.246418  0.081961  0.953603  1
  Br  Br12  1  0.752658  0.917052  0.046205  1
  Br  Br13  1  0.343787  0.443648  0.771031  1
  Br  Br14  1  0.664396  0.556360  0.231059  1
  Br  Br15  1  0.769881  0.247526  0.843251  1
  Br  Br16  1  0.225920  0.749515  0.160383  1
