# generated using pymatgen
data_Y2Ga5Ir2Rh
_symmetry_space_group_name_H-M   'P 1'
_cell_length_a   8.60398380
_cell_length_b   8.60398245
_cell_length_c   5.68151423
_cell_angle_alpha   70.72958215
_cell_angle_beta   70.72957795
_cell_angle_gamma   96.29429327
_symmetry_Int_Tables_number   1
_chemical_formula_structural   Y2Ga5Ir2Rh
_chemical_formula_sum   'Y4 Ga10 Ir4 Rh2'
_cell_volume   363.33632308
_cell_formula_units_Z   2
loop_
 _symmetry_equiv_pos_site_id
 _symmetry_equiv_pos_as_xyz
  1  'x, y, z'
loop_
 _atom_site_type_symbol
 _atom_site_label
 _atom_site_symmetry_multiplicity
 _atom_site_fract_x
 _atom_site_fract_y
 _atom_site_fract_z
 _atom_site_occupancy
  Y  Y0  1  0.868791  0.583600  0.774340  1
  Y  Y1  1  0.416400  0.131209  0.725660  1
  Y  Y2  1  0.131209  0.416400  0.225660  1
  Y  Y3  1  0.583600  0.868791  0.274340  1
  Ga  Ga4  1  0.092494  0.262127  0.822212  1
  Ga  Ga5  1  0.737873  0.907506  0.677788  1
  Ga  Ga6  1  0.907506  0.737873  0.177788  1
  Ga  Ga7  1  0.262127  0.092494  0.322212  1
  Ga  Ga8  1  0.201503  0.798497  0.750000  1
  Ga  Ga9  1  0.798497  0.201503  0.250000  1
  Ga  Ga10  1  0.500217  0.499783  0.750000  1
  Ga  Ga11  1  0.499783  0.500217  0.250000  1
  Ga  Ga12  1  0.798314  0.201686  0.750000  1
  Ga  Ga13  1  0.201686  0.798314  0.250000  1
  Ir  Ir14  1  0.257151  0.560336  0.591804  1
  Ir  Ir15  1  0.439664  0.742849  0.908196  1
  Ir  Ir16  1  0.742849  0.439664  0.408196  1
  Ir  Ir17  1  0.560336  0.257151  0.091804  1
  Rh  Rh18  1  0.999973  0.000027  0.750000  1
  Rh  Rh19  1  0.000027  0.999973  0.250000  1
