# generated using pymatgen
data_Nd4Er4Re(B8Ru)3
_symmetry_space_group_name_H-M   'P 1'
_cell_length_a   3.71146900
_cell_length_b   9.21477010
_cell_length_c   11.65325843
_cell_angle_alpha   89.87955755
_cell_angle_beta   90.00000000
_cell_angle_gamma   90.00000000
_symmetry_Int_Tables_number   1
_chemical_formula_structural   Nd4Er4Re(B8Ru)3
_chemical_formula_sum   'Nd4 Er4 Re1 B24 Ru3'
_cell_volume   398.54444469
_cell_formula_units_Z   1
loop_
 _symmetry_equiv_pos_site_id
 _symmetry_equiv_pos_as_xyz
  1  'x, y, z'
loop_
 _atom_site_type_symbol
 _atom_site_label
 _atom_site_symmetry_multiplicity
 _atom_site_fract_x
 _atom_site_fract_y
 _atom_site_fract_z
 _atom_site_occupancy
  Nd  Nd0  1  0.000000  0.323758  0.413680  1
  Nd  Nd1  1  0.000000  0.676962  0.583747  1
  Nd  Nd2  1  0.000000  0.821287  0.086925  1
  Nd  Nd3  1  0.000000  0.176200  0.915357  1
  Er  Er4  1  0.000000  0.944252  0.372029  1
  Er  Er5  1  0.000000  0.056840  0.628908  1
  Er  Er6  1  0.000000  0.444489  0.128442  1
  Er  Er7  1  0.000000  0.556319  0.870506  1
  Re  Re8  1  0.000000  0.639628  0.319272  1
  B  B9  1  0.500000  0.555241  0.430446  1
  B  B10  1  0.500000  0.443781  0.570096  1
  B  B11  1  0.500000  0.056572  0.069821  1
  B  B12  1  0.500000  0.943463  0.930415  1
  B  B13  1  0.500000  0.750369  0.416781  1
  B  B14  1  0.500000  0.249848  0.583304  1
  B  B15  1  0.500000  0.249991  0.082858  1
  B  B16  1  0.500000  0.749936  0.916984  1
  B  B17  1  0.500000  0.791895  0.266375  1
  B  B18  1  0.500000  0.209034  0.733667  1
  B  B19  1  0.500000  0.291044  0.232893  1
  B  B20  1  0.500000  0.709523  0.766303  1
  B  B21  1  0.500000  0.630630  0.185446  1
  B  B22  1  0.500000  0.369021  0.815064  1
  B  B23  1  0.500000  0.130733  0.314462  1
  B  B24  1  0.500000  0.869745  0.685144  1
  B  B25  1  0.500000  0.985764  0.214032  1
  B  B26  1  0.500000  0.014141  0.786482  1
  B  B27  1  0.500000  0.484540  0.285977  1
  B  B28  1  0.500000  0.513985  0.713966  1
  B  B29  1  0.500000  0.601414  0.026890  1
  B  B30  1  0.500000  0.398108  0.971791  1
  B  B31  1  0.500000  0.102284  0.472756  1
  B  B32  1  0.500000  0.899266  0.528190  1
  Ru  Ru33  1  0.000000  0.360115  0.681410  1
  Ru  Ru34  1  0.000000  0.139809  0.180704  1
  Ru  Ru35  1  0.000000  0.860015  0.818880  1
