# generated using pymatgen
data_Dy5Se6
_symmetry_space_group_name_H-M   'P 1'
_cell_length_a   8.11565395
_cell_length_b   5.76752839
_cell_length_c   7.03257463
_cell_angle_alpha   114.17886626
_cell_angle_beta   106.69927678
_cell_angle_gamma   90.11857249
_symmetry_Int_Tables_number   1
_chemical_formula_structural   Dy5Se6
_chemical_formula_sum   'Dy5 Se6'
_cell_volume   284.91821111
_cell_formula_units_Z   1
loop_
 _symmetry_equiv_pos_site_id
 _symmetry_equiv_pos_as_xyz
  1  'x, y, z'
loop_
 _atom_site_type_symbol
 _atom_site_label
 _atom_site_symmetry_multiplicity
 _atom_site_fract_x
 _atom_site_fract_y
 _atom_site_fract_z
 _atom_site_occupancy
  Dy  Dy0  1  0.029088  0.996105  0.903159  1
  Dy  Dy1  1  0.520955  0.992072  0.898835  1
  Dy  Dy2  1  0.195527  0.322983  0.557990  1
  Dy  Dy3  1  0.858892  0.657846  0.228031  1
  Dy  Dy4  1  0.686448  0.320573  0.550666  1
  Se  Se5  1  0.357122  0.160696  0.226820  1
  Se  Se6  1  0.689965  0.826460  0.563377  1
  Se  Se7  1  0.525984  0.490272  0.894456  1
  Se  Se8  1  0.191570  0.824407  0.560897  1
  Se  Se9  1  0.024895  0.490598  0.891481  1
  Se  Se10  1  0.858700  0.157608  0.227814  1
