# generated using pymatgen
data_Tm4Al4Co3Rh
_symmetry_space_group_name_H-M   'P 1'
_cell_length_a   4.04447600
_cell_length_b   6.70556509
_cell_length_c   7.84613811
_cell_angle_alpha   90.15434121
_cell_angle_beta   90.00000000
_cell_angle_gamma   90.00000000
_symmetry_Int_Tables_number   1
_chemical_formula_structural   Tm4Al4Co3Rh
_chemical_formula_sum   'Tm4 Al4 Co3 Rh1'
_cell_volume   212.79039354
_cell_formula_units_Z   1
loop_
 _symmetry_equiv_pos_site_id
 _symmetry_equiv_pos_as_xyz
  1  'x, y, z'
loop_
 _atom_site_type_symbol
 _atom_site_label
 _atom_site_symmetry_multiplicity
 _atom_site_fract_x
 _atom_site_fract_y
 _atom_site_fract_z
 _atom_site_occupancy
  Tm  Tm0  1  0.250000  0.969227  0.319783  1
  Tm  Tm1  1  0.750000  0.530797  0.827302  1
  Tm  Tm2  1  0.250000  0.464701  0.177178  1
  Tm  Tm3  1  0.750000  0.041391  0.678163  1
  Al  Al4  1  0.750000  0.632722  0.435838  1
  Al  Al5  1  0.750000  0.136725  0.057909  1
  Al  Al6  1  0.250000  0.357894  0.556756  1
  Al  Al7  1  0.250000  0.865165  0.947124  1
  Co  Co8  1  0.750000  0.766833  0.126278  1
  Co  Co9  1  0.750000  0.266423  0.373622  1
  Co  Co10  1  0.250000  0.231819  0.875169  1
  Rh  Rh11  1  0.250000  0.736302  0.624879  1
