# generated using pymatgen
data_LuPaSnRh5
_symmetry_space_group_name_H-M   'P 1'
_cell_length_a   5.75910900
_cell_length_b   5.75910861
_cell_length_c   8.36389300
_cell_angle_alpha   90.00000000
_cell_angle_beta   90.00000000
_cell_angle_gamma   97.52493143
_symmetry_Int_Tables_number   1
_chemical_formula_structural   LuPaSnRh5
_chemical_formula_sum   'Lu2 Pa2 Sn2 Rh10'
_cell_volume   275.01898856
_cell_formula_units_Z   2
loop_
 _symmetry_equiv_pos_site_id
 _symmetry_equiv_pos_as_xyz
  1  'x, y, z'
loop_
 _atom_site_type_symbol
 _atom_site_label
 _atom_site_symmetry_multiplicity
 _atom_site_fract_x
 _atom_site_fract_y
 _atom_site_fract_z
 _atom_site_occupancy
  Lu  Lu0  1  0.220482  0.779518  0.500000  1
  Lu  Lu1  1  0.779518  0.220482  0.000000  1
  Pa  Pa2  1  0.790904  0.209096  0.500000  1
  Pa  Pa3  1  0.209096  0.790904  0.000000  1
  Sn  Sn4  1  0.500446  0.500446  0.750000  1
  Sn  Sn5  1  0.499554  0.499554  0.250000  1
  Rh  Rh6  1  0.725859  0.726000  0.000543  1
  Rh  Rh7  1  0.726000  0.725859  0.499457  1
  Rh  Rh8  1  0.274000  0.274141  0.999457  1
  Rh  Rh9  1  0.274141  0.274000  0.500543  1
  Rh  Rh10  1  0.499700  0.000460  0.749993  1
  Rh  Rh11  1  0.500300  0.999540  0.249993  1
  Rh  Rh12  1  0.000167  0.000167  0.250000  1
  Rh  Rh13  1  0.999833  0.999833  0.750000  1
  Rh  Rh14  1  0.000460  0.499700  0.750007  1
  Rh  Rh15  1  0.999540  0.500300  0.250007  1
