# generated using pymatgen
data_Nd9Th(Sb3C)2
_symmetry_space_group_name_H-M   'P 1'
_cell_length_a   9.29360322
_cell_length_b   9.25918488
_cell_length_c   6.64167400
_cell_angle_alpha   90.00000000
_cell_angle_beta   90.00000000
_cell_angle_gamma   119.87757165
_symmetry_Int_Tables_number   1
_chemical_formula_structural   Nd9Th(Sb3C)2
_chemical_formula_sum   'Nd9 Th1 Sb6 C2'
_cell_volume   495.56374238
_cell_formula_units_Z   1
loop_
 _symmetry_equiv_pos_site_id
 _symmetry_equiv_pos_as_xyz
  1  'x, y, z'
loop_
 _atom_site_type_symbol
 _atom_site_label
 _atom_site_symmetry_multiplicity
 _atom_site_fract_x
 _atom_site_fract_y
 _atom_site_fract_z
 _atom_site_occupancy
  Nd  Nd0  1  0.667923  0.334926  0.500586  1
  Nd  Nd1  1  0.332077  0.667004  0.500586  1
  Nd  Nd2  1  0.332077  0.667004  0.999414  1
  Nd  Nd3  1  0.667923  0.334926  0.999414  1
  Nd  Nd4  1  0.782067  0.781643  0.250000  1
  Nd  Nd5  1  0.217933  0.999577  0.250000  1
  Nd  Nd6  1  0.000000  0.216553  0.250000  1
  Nd  Nd7  1  0.219453  0.221466  0.750000  1
  Nd  Nd8  1  0.780547  0.002013  0.750000  1
  Th  Th9  1  0.000000  0.792057  0.750000  1
  Sb  Sb10  1  0.400660  0.401133  0.250000  1
  Sb  Sb11  1  0.599340  0.000473  0.250000  1
  Sb  Sb12  1  0.000000  0.596008  0.250000  1
  Sb  Sb13  1  0.596561  0.598487  0.750000  1
  Sb  Sb14  1  0.403439  0.001926  0.750000  1
  Sb  Sb15  1  0.000000  0.401741  0.750000  1
  C  C16  1  0.000000  0.991531  0.504912  1
  C  C17  1  0.000000  0.991531  0.995088  1
