# generated using pymatgen
data_Zr16VFe4Au3
_symmetry_space_group_name_H-M   'P 1'
_cell_length_a   8.76205583
_cell_length_b   8.76205688
_cell_length_c   8.76205800
_cell_angle_alpha   60.43012831
_cell_angle_beta   60.43011689
_cell_angle_gamma   60.43013337
_symmetry_Int_Tables_number   1
_chemical_formula_structural   Zr16VFe4Au3
_chemical_formula_sum   'Zr16 V1 Fe4 Au3'
_cell_volume   480.29317878
_cell_formula_units_Z   1
loop_
 _symmetry_equiv_pos_site_id
 _symmetry_equiv_pos_as_xyz
  1  'x, y, z'
loop_
 _atom_site_type_symbol
 _atom_site_label
 _atom_site_symmetry_multiplicity
 _atom_site_fract_x
 _atom_site_fract_y
 _atom_site_fract_z
 _atom_site_occupancy
  Zr  Zr0  1  0.045501  0.650519  0.650519  1
  Zr  Zr1  1  0.650519  0.045501  0.650519  1
  Zr  Zr2  1  0.650519  0.650519  0.045501  1
  Zr  Zr3  1  0.648155  0.648155  0.648155  1
  Zr  Zr4  1  0.805761  0.805761  0.193888  1
  Zr  Zr5  1  0.193628  0.193628  0.799865  1
  Zr  Zr6  1  0.805761  0.193888  0.805761  1
  Zr  Zr7  1  0.193628  0.799865  0.193628  1
  Zr  Zr8  1  0.193888  0.805761  0.805761  1
  Zr  Zr9  1  0.799865  0.193628  0.193628  1
  Zr  Zr10  1  0.437607  0.437607  0.077287  1
  Zr  Zr11  1  0.061278  0.061278  0.438741  1
  Zr  Zr12  1  0.437607  0.077287  0.437607  1
  Zr  Zr13  1  0.061278  0.438741  0.061278  1
  Zr  Zr14  1  0.077287  0.437607  0.437607  1
  Zr  Zr15  1  0.438741  0.061278  0.061278  1
  V  V16  1  0.419717  0.419717  0.419717  1
  Fe  Fe17  1  0.420079  0.859175  0.859175  1
  Fe  Fe18  1  0.859175  0.420079  0.859175  1
  Fe  Fe19  1  0.859175  0.859175  0.420079  1
  Fe  Fe20  1  0.861263  0.861263  0.861263  1
  Au  Au21  1  0.753646  0.412959  0.412959  1
  Au  Au22  1  0.412959  0.753646  0.412959  1
  Au  Au23  1  0.412959  0.412959  0.753646  1
