# generated using pymatgen
data_Tb3PrS6
_symmetry_space_group_name_H-M   'P 1'
_cell_length_a   4.01659200
_cell_length_b   11.15383899
_cell_length_c   11.40106990
_cell_angle_alpha   71.20517751
_cell_angle_beta   90.00000000
_cell_angle_gamma   90.00000000
_symmetry_Int_Tables_number   1
_chemical_formula_structural   Tb3PrS6
_chemical_formula_sum   'Tb6 Pr2 S12'
_cell_volume   483.53749481
_cell_formula_units_Z   2
loop_
 _symmetry_equiv_pos_site_id
 _symmetry_equiv_pos_as_xyz
  1  'x, y, z'
loop_
 _atom_site_type_symbol
 _atom_site_label
 _atom_site_symmetry_multiplicity
 _atom_site_fract_x
 _atom_site_fract_y
 _atom_site_fract_z
 _atom_site_occupancy
  Tb  Tb0  1  0.750000  0.180179  0.998578  1
  Tb  Tb1  1  0.250000  0.819821  0.001422  1
  Tb  Tb2  1  0.750000  0.940228  0.667123  1
  Tb  Tb3  1  0.250000  0.059772  0.332877  1
  Tb  Tb4  1  0.750000  0.661046  0.413647  1
  Tb  Tb5  1  0.250000  0.338954  0.586353  1
  Pr  Pr6  1  0.750000  0.548719  0.806183  1
  Pr  Pr7  1  0.250000  0.451281  0.193817  1
  S  S8  1  0.750000  0.978295  0.888197  1
  S  S9  1  0.250000  0.021705  0.111803  1
  S  S10  1  0.750000  0.305478  0.748925  1
  S  S11  1  0.250000  0.694522  0.251075  1
  S  S12  1  0.750000  0.894973  0.440672  1
  S  S13  1  0.250000  0.105027  0.559328  1
  S  S14  1  0.750000  0.418418  0.404722  1
  S  S15  1  0.250000  0.581582  0.595278  1
  S  S16  1  0.750000  0.235833  0.228238  1
  S  S17  1  0.250000  0.764167  0.771762  1
  S  S18  1  0.750000  0.617409  0.036642  1
  S  S19  1  0.250000  0.382591  0.963358  1
