# generated using pymatgen
data_DyTm2Cd3Sn2Au
_symmetry_space_group_name_H-M   'P 1'
_cell_length_a   7.45040492
_cell_length_b   7.45040475
_cell_length_c   4.51375500
_cell_angle_alpha   90.00000000
_cell_angle_beta   90.00000000
_cell_angle_gamma   120.13167355
_symmetry_Int_Tables_number   1
_chemical_formula_structural   DyTm2Cd3Sn2Au
_chemical_formula_sum   'Dy1 Tm2 Cd3 Sn2 Au1'
_cell_volume   216.69584912
_cell_formula_units_Z   1
loop_
 _symmetry_equiv_pos_site_id
 _symmetry_equiv_pos_as_xyz
  1  'x, y, z'
loop_
 _atom_site_type_symbol
 _atom_site_label
 _atom_site_symmetry_multiplicity
 _atom_site_fract_x
 _atom_site_fract_y
 _atom_site_fract_z
 _atom_site_occupancy
  Dy  Dy0  1  0.407186  0.407186  0.000000  1
  Tm  Tm1  1  0.593955  0.000119  0.000000  1
  Tm  Tm2  1  0.000119  0.593955  0.000000  1
  Cd  Cd3  1  0.240542  0.999785  0.500000  1
  Cd  Cd4  1  0.999785  0.240542  0.500000  1
  Cd  Cd5  1  0.759393  0.759393  0.500000  1
  Sn  Sn6  1  0.332894  0.667510  0.500000  1
  Sn  Sn7  1  0.667510  0.332894  0.500000  1
  Au  Au8  1  0.998617  0.998617  0.000000  1
