# generated using pymatgen
data_Dy(Tc2P)2
_symmetry_space_group_name_H-M   'P 1'
_cell_length_a   7.41096800
_cell_length_b   7.41096800
_cell_length_c   3.95078200
_cell_angle_alpha   90.00000000
_cell_angle_beta   90.00000000
_cell_angle_gamma   90.00000000
_symmetry_Int_Tables_number   1
_chemical_formula_structural   Dy(Tc2P)2
_chemical_formula_sum   'Dy2 Tc8 P4'
_cell_volume   216.98661381
_cell_formula_units_Z   2
loop_
 _symmetry_equiv_pos_site_id
 _symmetry_equiv_pos_as_xyz
  1  'x, y, z'
loop_
 _atom_site_type_symbol
 _atom_site_label
 _atom_site_symmetry_multiplicity
 _atom_site_fract_x
 _atom_site_fract_y
 _atom_site_fract_z
 _atom_site_occupancy
  Dy  Dy0  1  0.000000  0.000000  0.000000  1
  Dy  Dy1  1  0.500000  0.500000  0.500000  1
  Tc  Tc2  1  0.582797  0.839466  0.000000  1
  Tc  Tc3  1  0.839466  0.582797  0.000000  1
  Tc  Tc4  1  0.160534  0.417203  0.000000  1
  Tc  Tc5  1  0.417203  0.160534  0.000000  1
  Tc  Tc6  1  0.660534  0.082797  0.500000  1
  Tc  Tc7  1  0.917203  0.339466  0.500000  1
  Tc  Tc8  1  0.082797  0.660534  0.500000  1
  Tc  Tc9  1  0.339466  0.917203  0.500000  1
  P  P10  1  0.711597  0.288403  0.000000  1
  P  P11  1  0.288403  0.711597  0.000000  1
  P  P12  1  0.788403  0.788403  0.500000  1
  P  P13  1  0.211597  0.211597  0.500000  1
