# generated using pymatgen
data_ErLuSi3Au
_symmetry_space_group_name_H-M   'P 1'
_cell_length_a   8.15873056
_cell_length_b   8.13036919
_cell_length_c   5.72299699
_cell_angle_alpha   69.86632629
_cell_angle_beta   69.16513652
_cell_angle_gamma   41.13802263
_symmetry_Int_Tables_number   1
_chemical_formula_structural   ErLuSi3Au
_chemical_formula_sum   'Er2 Lu2 Si6 Au2'
_cell_volume   231.60946725
_cell_formula_units_Z   2
loop_
 _symmetry_equiv_pos_site_id
 _symmetry_equiv_pos_as_xyz
  1  'x, y, z'
loop_
 _atom_site_type_symbol
 _atom_site_label
 _atom_site_symmetry_multiplicity
 _atom_site_fract_x
 _atom_site_fract_y
 _atom_site_fract_z
 _atom_site_occupancy
  Er  Er0  1  0.750107  0.749893  0.749893  1
  Er  Er1  1  0.242791  0.757209  0.757208  1
  Lu  Lu2  1  0.757202  0.242797  0.242797  1
  Lu  Lu3  1  0.249744  0.250256  0.250257  1
  Si  Si4  1  0.836998  0.837230  0.163404  1
  Si  Si5  1  0.327063  0.836342  0.164493  1
  Si  Si6  1  0.164191  0.672211  0.327790  1
  Si  Si7  1  0.835807  0.327791  0.672211  1
  Si  Si8  1  0.672103  0.164493  0.836342  1
  Si  Si9  1  0.162368  0.163404  0.837230  1
  Au  Au10  1  0.667635  0.665790  0.332589  1
  Au  Au11  1  0.333985  0.332590  0.665790  1
