# generated using pymatgen
data_Gd6HfO12
_symmetry_space_group_name_H-M   'P 1'
_cell_length_a   6.58493518
_cell_length_b   6.58493528
_cell_length_c   6.58493423
_cell_angle_alpha   98.93946531
_cell_angle_beta   98.93947741
_cell_angle_gamma   98.93947315
_symmetry_Int_Tables_number   1
_chemical_formula_structural   Gd6HfO12
_chemical_formula_sum   'Gd6 Hf1 O12'
_cell_volume   273.88090228
_cell_formula_units_Z   1
loop_
 _symmetry_equiv_pos_site_id
 _symmetry_equiv_pos_as_xyz
  1  'x, y, z'
loop_
 _atom_site_type_symbol
 _atom_site_label
 _atom_site_symmetry_multiplicity
 _atom_site_fract_x
 _atom_site_fract_y
 _atom_site_fract_z
 _atom_site_occupancy
  Gd  Gd0  1  0.864922  0.392498  0.705580  1
  Gd  Gd1  1  0.607502  0.294420  0.135078  1
  Gd  Gd2  1  0.294420  0.135078  0.607502  1
  Gd  Gd3  1  0.705580  0.864922  0.392498  1
  Gd  Gd4  1  0.392498  0.705580  0.864922  1
  Gd  Gd5  1  0.135078  0.607502  0.294420  1
  Hf  Hf6  1  0.000000  0.000000  0.000000  1
  O  O7  1  0.929457  0.050418  0.691445  1
  O  O8  1  0.949582  0.308555  0.070543  1
  O  O9  1  0.585766  0.177845  0.436755  1
  O  O10  1  0.822155  0.563245  0.414234  1
  O  O11  1  0.308555  0.070543  0.949582  1
  O  O12  1  0.563245  0.414234  0.822155  1
  O  O13  1  0.436755  0.585766  0.177845  1
  O  O14  1  0.691445  0.929457  0.050418  1
  O  O15  1  0.177845  0.436755  0.585766  1
  O  O16  1  0.414234  0.822155  0.563245  1
  O  O17  1  0.050418  0.691445  0.929457  1
  O  O18  1  0.070543  0.949582  0.308555  1
