# generated using pymatgen
data_La2Nd3SmOsI10
_symmetry_space_group_name_H-M   'P 1'
_cell_length_a   8.05963996
_cell_length_b   10.14516559
_cell_length_c   9.98727776
_cell_angle_alpha   107.21387736
_cell_angle_beta   96.26285453
_cell_angle_gamma   105.72000409
_symmetry_Int_Tables_number   1
_chemical_formula_structural   La2Nd3SmOsI10
_chemical_formula_sum   'La2 Nd3 Sm1 Os1 I10'
_cell_volume   734.78825661
_cell_formula_units_Z   1
loop_
 _symmetry_equiv_pos_site_id
 _symmetry_equiv_pos_as_xyz
  1  'x, y, z'
loop_
 _atom_site_type_symbol
 _atom_site_label
 _atom_site_symmetry_multiplicity
 _atom_site_fract_x
 _atom_site_fract_y
 _atom_site_fract_z
 _atom_site_occupancy
  La  La0  1  0.385690  0.957895  0.727811  1
  La  La1  1  0.612063  0.041254  0.271141  1
  Nd  Nd2  1  0.469429  0.293623  0.589616  1
  Nd  Nd3  1  0.529254  0.706148  0.409597  1
  Nd  Nd4  1  0.859445  0.132292  0.674395  1
  Sm  Sm5  1  0.144225  0.868236  0.326989  1
  Os  Os6  1  0.498526  0.999468  0.499436  1
  I  I7  1  0.415777  0.628878  0.678538  1
  I  I8  1  0.584249  0.371193  0.321441  1
  I  I9  1  0.287756  0.262380  0.849918  1
  I  I10  1  0.715453  0.738546  0.151322  1
  I  I11  1  0.854808  0.453820  0.770988  1
  I  I12  1  0.144114  0.549023  0.229399  1
  I  I13  1  0.048126  0.177768  0.410327  1
  I  I14  1  0.235532  0.911948  0.043548  1
  I  I15  1  0.762793  0.087314  0.958863  1
  I  I16  1  0.952762  0.820215  0.586672  1
