# generated using pymatgen
data_Er12Co4CuSn
_symmetry_space_group_name_H-M   'P 1'
_cell_length_a   8.21904347
_cell_length_b   8.21904334
_cell_length_c   8.21904423
_cell_angle_alpha   111.12867661
_cell_angle_beta   110.35629909
_cell_angle_gamma   106.95851578
_symmetry_Int_Tables_number   1
_chemical_formula_structural   Er12Co4CuSn
_chemical_formula_sum   'Er12 Co4 Cu1 Sn1'
_cell_volume   426.77389682
_cell_formula_units_Z   1
loop_
 _symmetry_equiv_pos_site_id
 _symmetry_equiv_pos_as_xyz
  1  'x, y, z'
loop_
 _atom_site_type_symbol
 _atom_site_label
 _atom_site_symmetry_multiplicity
 _atom_site_fract_x
 _atom_site_fract_y
 _atom_site_fract_z
 _atom_site_occupancy
  Er  Er0  1  0.314487  0.617878  0.303390  1
  Er  Er1  1  0.685513  0.382123  0.696610  1
  Er  Er2  1  0.314487  0.011097  0.696610  1
  Er  Er3  1  0.685513  0.988903  0.303390  1
  Er  Er4  1  0.419492  0.217673  0.201819  1
  Er  Er5  1  0.580508  0.782327  0.798181  1
  Er  Er6  1  0.015854  0.217673  0.798181  1
  Er  Er7  1  0.984146  0.782327  0.201819  1
  Er  Er8  1  0.184883  0.287999  0.472881  1
  Er  Er9  1  0.815117  0.712001  0.527119  1
  Er  Er10  1  0.184883  0.712001  0.896884  1
  Er  Er11  1  0.815117  0.287999  0.103116  1
  Co  Co12  1  0.113265  0.613265  0.500000  1
  Co  Co13  1  0.886736  0.386736  0.500000  1
  Co  Co14  1  0.377149  0.000000  0.377149  1
  Co  Co15  1  0.622851  0.000000  0.622851  1
  Cu  Cu16  1  0.000000  0.000000  0.000000  1
  Sn  Sn17  1  0.500000  0.500000  0.000000  1
