# generated using pymatgen
data_Tb3Pa(Ga3Ir)6
_symmetry_space_group_name_H-M   'P 1'
_cell_length_a   7.62400550
_cell_length_b   7.61355816
_cell_length_c   9.45761200
_cell_angle_alpha   90.00000000
_cell_angle_beta   90.00000000
_cell_angle_gamma   119.87558783
_symmetry_Int_Tables_number   1
_chemical_formula_structural   Tb3Pa(Ga3Ir)6
_chemical_formula_sum   'Tb3 Pa1 Ga18 Ir6'
_cell_volume   476.02097429
_cell_formula_units_Z   1
loop_
 _symmetry_equiv_pos_site_id
 _symmetry_equiv_pos_as_xyz
  1  'x, y, z'
loop_
 _atom_site_type_symbol
 _atom_site_label
 _atom_site_symmetry_multiplicity
 _atom_site_fract_x
 _atom_site_fract_y
 _atom_site_fract_z
 _atom_site_occupancy
  Tb  Tb0  1  0.004039  0.331366  0.750000  1
  Tb  Tb1  1  0.669504  0.996388  0.250000  1
  Tb  Tb2  1  0.331150  0.002976  0.750000  1
  Pa  Pa3  1  0.997527  0.668951  0.250000  1
  Ga  Ga4  1  0.130346  0.130166  0.250000  1
  Ga  Ga5  1  0.872973  0.873736  0.750000  1
  Ga  Ga6  1  0.998725  0.330979  0.080149  1
  Ga  Ga7  1  0.000945  0.665515  0.917205  1
  Ga  Ga8  1  0.000945  0.665515  0.582795  1
  Ga  Ga9  1  0.338077  0.002554  0.419627  1
  Ga  Ga10  1  0.998725  0.330979  0.419851  1
  Ga  Ga11  1  0.665683  0.001484  0.580834  1
  Ga  Ga12  1  0.665683  0.001484  0.919166  1
  Ga  Ga13  1  0.338077  0.002554  0.080373  1
  Ga  Ga14  1  0.331686  0.331678  0.566930  1
  Ga  Ga15  1  0.664235  0.667663  0.434470  1
  Ga  Ga16  1  0.664235  0.667663  0.065530  1
  Ga  Ga17  1  0.331686  0.331678  0.933070  1
  Ga  Ga18  1  0.339323  0.544401  0.250000  1
  Ga  Ga19  1  0.660498  0.452835  0.750000  1
  Ga  Ga20  1  0.543975  0.339836  0.250000  1
  Ga  Ga21  1  0.452963  0.661181  0.750000  1
  Ir  Ir22  1  0.673976  0.331614  0.002091  1
  Ir  Ir23  1  0.326165  0.671217  0.002141  1
  Ir  Ir24  1  0.326165  0.671217  0.497859  1
  Ir  Ir25  1  0.673976  0.331614  0.497909  1
  Ir  Ir26  1  0.999359  0.996379  0.002510  1
  Ir  Ir27  1  0.999359  0.996379  0.497490  1
