# generated using pymatgen
data_Y6Ho10CdHg3Ir3Pd
_symmetry_space_group_name_H-M   'P 1'
_cell_length_a   9.63441267
_cell_length_b   9.63441283
_cell_length_c   9.63441100
_cell_angle_alpha   60.15644722
_cell_angle_beta   60.15645352
_cell_angle_gamma   60.15644910
_symmetry_Int_Tables_number   1
_chemical_formula_structural   Y6Ho10CdHg3Ir3Pd
_chemical_formula_sum   'Y6 Ho10 Cd1 Hg3 Ir3 Pd1'
_cell_volume   634.59538815
_cell_formula_units_Z   1
loop_
 _symmetry_equiv_pos_site_id
 _symmetry_equiv_pos_as_xyz
  1  'x, y, z'
loop_
 _atom_site_type_symbol
 _atom_site_label
 _atom_site_symmetry_multiplicity
 _atom_site_fract_x
 _atom_site_fract_y
 _atom_site_fract_z
 _atom_site_occupancy
  Y  Y0  1  0.938569  0.562295  0.562295  1
  Y  Y1  1  0.563369  0.938291  0.938291  1
  Y  Y2  1  0.561843  0.939897  0.562134  1
  Y  Y3  1  0.936973  0.563846  0.939281  1
  Y  Y4  1  0.561843  0.562134  0.939897  1
  Y  Y5  1  0.936973  0.939281  0.563846  1
  Ho  Ho6  1  0.347676  0.347315  0.347315  1
  Ho  Ho7  1  0.354783  0.354185  0.946009  1
  Ho  Ho8  1  0.354783  0.946009  0.354185  1
  Ho  Ho9  1  0.944265  0.354938  0.354938  1
  Ho  Ho10  1  0.803928  0.190928  0.190928  1
  Ho  Ho11  1  0.187853  0.810620  0.810620  1
  Ho  Ho12  1  0.190101  0.804664  0.190411  1
  Ho  Ho13  1  0.810042  0.188561  0.810123  1
  Ho  Ho14  1  0.190101  0.190411  0.804664  1
  Ho  Ho15  1  0.810042  0.810123  0.188561  1
  Cd  Cd16  1  0.257680  0.580191  0.580191  1
  Hg  Hg17  1  0.582789  0.584436  0.584436  1
  Hg  Hg18  1  0.583122  0.584745  0.246273  1
  Hg  Hg19  1  0.583122  0.246273  0.584745  1
  Ir  Ir20  1  0.141435  0.141806  0.573859  1
  Ir  Ir21  1  0.141435  0.573859  0.141806  1
  Ir  Ir22  1  0.573966  0.141681  0.141681  1
  Pd  Pd23  1  0.143311  0.143512  0.143512  1
