# generated using pymatgen
data_YMgSiIrPt
_symmetry_space_group_name_H-M   'P 1'
_cell_length_a   4.09303900
_cell_length_b   4.09303900
_cell_length_c   11.03216900
_cell_angle_alpha   90.00000000
_cell_angle_beta   90.00000000
_cell_angle_gamma   90.00000000
_symmetry_Int_Tables_number   1
_chemical_formula_structural   YMgSiIrPt
_chemical_formula_sum   'Y2 Mg2 Si2 Ir2 Pt2'
_cell_volume   184.82157705
_cell_formula_units_Z   2
loop_
 _symmetry_equiv_pos_site_id
 _symmetry_equiv_pos_as_xyz
  1  'x, y, z'
loop_
 _atom_site_type_symbol
 _atom_site_label
 _atom_site_symmetry_multiplicity
 _atom_site_fract_x
 _atom_site_fract_y
 _atom_site_fract_z
 _atom_site_occupancy
  Y  Y0  1  0.500000  0.000000  0.228536  1
  Y  Y1  1  0.000000  0.500000  0.771464  1
  Mg  Mg2  1  0.500000  0.500000  0.500000  1
  Mg  Mg3  1  0.000000  0.000000  0.500000  1
  Si  Si4  1  0.000000  0.500000  0.117128  1
  Si  Si5  1  0.500000  0.000000  0.882872  1
  Ir  Ir6  1  0.500000  0.500000  0.000000  1
  Ir  Ir7  1  0.000000  0.000000  0.000000  1
  Pt  Pt8  1  0.000000  0.500000  0.333706  1
  Pt  Pt9  1  0.500000  0.000000  0.666294  1
