# generated using pymatgen
data_Sr6YbTm13Sn16
_symmetry_space_group_name_H-M   'P 1'
_cell_length_a   7.98397589
_cell_length_b   8.40990813
_cell_length_c   15.85528322
_cell_angle_alpha   89.97162506
_cell_angle_beta   90.19035940
_cell_angle_gamma   89.26245464
_symmetry_Int_Tables_number   1
_chemical_formula_structural   Sr6YbTm13Sn16
_chemical_formula_sum   'Sr6 Yb1 Tm13 Sn16'
_cell_volume   1064.50089286
_cell_formula_units_Z   1
loop_
 _symmetry_equiv_pos_site_id
 _symmetry_equiv_pos_as_xyz
  1  'x, y, z'
loop_
 _atom_site_type_symbol
 _atom_site_label
 _atom_site_symmetry_multiplicity
 _atom_site_fract_x
 _atom_site_fract_y
 _atom_site_fract_z
 _atom_site_occupancy
  Sr  Sr0  1  0.997230  0.822916  0.903959  1
  Sr  Sr1  1  0.502774  0.323345  0.091532  1
  Sr  Sr2  1  0.001056  0.177717  0.411781  1
  Sr  Sr3  1  0.501317  0.322621  0.411182  1
  Sr  Sr4  1  0.002282  0.176629  0.091567  1
  Sr  Sr5  1  0.496326  0.676656  0.905249  1
  Yb  Yb6  1  0.995802  0.816867  0.595102  1
  Tm  Tm7  1  0.672163  0.160331  0.625557  1
  Tm  Tm8  1  0.170484  0.337495  0.872026  1
  Tm  Tm9  1  0.330413  0.838514  0.124323  1
  Tm  Tm10  1  0.833093  0.662435  0.377549  1
  Tm  Tm11  1  0.332495  0.836870  0.376666  1
  Tm  Tm12  1  0.830986  0.663552  0.124348  1
  Tm  Tm13  1  0.671248  0.160474  0.871009  1
  Tm  Tm14  1  0.168382  0.339339  0.624560  1
  Tm  Tm15  1  0.498346  0.687414  0.597836  1
  Tm  Tm16  1  0.832507  0.504945  0.748091  1
  Tm  Tm17  1  0.332874  0.995262  0.747638  1
  Tm  Tm18  1  0.169161  0.496426  0.250878  1
  Tm  Tm19  1  0.667078  0.002914  0.250676  1
  Sn  Sn20  1  0.667560  0.949618  0.462927  1
  Sn  Sn21  1  0.166237  0.542576  0.042339  1
  Sn  Sn22  1  0.334774  0.041688  0.955064  1
  Sn  Sn23  1  0.820316  0.469354  0.547317  1
  Sn  Sn24  1  0.329078  0.028325  0.546531  1
  Sn  Sn25  1  0.834490  0.457959  0.955078  1
  Sn  Sn26  1  0.666160  0.958477  0.041971  1
  Sn  Sn27  1  0.173776  0.550602  0.462481  1
  Sn  Sn28  1  0.471760  0.374700  0.747047  1
  Sn  Sn29  1  0.974892  0.133074  0.747400  1
  Sn  Sn30  1  0.531653  0.628802  0.250061  1
  Sn  Sn31  1  0.029257  0.864740  0.251037  1
  Sn  Sn32  1  0.693357  0.853292  0.743876  1
  Sn  Sn33  1  0.201763  0.639448  0.742638  1
  Sn  Sn34  1  0.300103  0.137767  0.250924  1
  Sn  Sn35  1  0.798807  0.366856  0.251780  1
