# generated using pymatgen
data_TmSc3(MoN2)4
_symmetry_space_group_name_H-M   'P 1'
_cell_length_a   3.09154600
_cell_length_b   5.54625909
_cell_length_c   10.35439158
_cell_angle_alpha   90.29225074
_cell_angle_beta   90.00000000
_cell_angle_gamma   90.00000000
_symmetry_Int_Tables_number   1
_chemical_formula_structural   TmSc3(MoN2)4
_chemical_formula_sum   'Tm1 Sc3 Mo4 N8'
_cell_volume   177.53942197
_cell_formula_units_Z   1
loop_
 _symmetry_equiv_pos_site_id
 _symmetry_equiv_pos_as_xyz
  1  'x, y, z'
loop_
 _atom_site_type_symbol
 _atom_site_label
 _atom_site_symmetry_multiplicity
 _atom_site_fract_x
 _atom_site_fract_y
 _atom_site_fract_z
 _atom_site_occupancy
  Tm  Tm0  1  0.750000  0.418899  0.353617  1
  Sc  Sc1  1  0.250000  0.077717  0.853924  1
  Sc  Sc2  1  0.250000  0.577241  0.649022  1
  Sc  Sc3  1  0.750000  0.922017  0.145689  1
  Mo  Mo4  1  0.250000  0.429876  0.091924  1
  Mo  Mo5  1  0.250000  0.926353  0.405496  1
  Mo  Mo6  1  0.750000  0.572294  0.904617  1
  Mo  Mo7  1  0.750000  0.069911  0.596687  1
  N  N8  1  0.250000  0.156919  0.243855  1
  N  N9  1  0.250000  0.668354  0.249235  1
  N  N10  1  0.750000  0.839722  0.755028  1
  N  N11  1  0.750000  0.340795  0.746557  1
  N  N12  1  0.250000  0.773843  0.995893  1
  N  N13  1  0.250000  0.269851  0.507308  1
  N  N14  1  0.750000  0.226777  0.000769  1
  N  N15  1  0.750000  0.729430  0.500378  1
