# generated using pymatgen
data_Yb7Gd(Sc3Sn4)4
_symmetry_space_group_name_H-M   'P 1'
_cell_length_a   7.66126867
_cell_length_b   8.06107069
_cell_length_c   15.12787100
_cell_angle_alpha   90.01721488
_cell_angle_beta   90.08105340
_cell_angle_gamma   90.15971444
_symmetry_Int_Tables_number   1
_chemical_formula_structural   Yb7Gd(Sc3Sn4)4
_chemical_formula_sum   'Yb7 Gd1 Sc12 Sn16'
_cell_volume   934.26287754
_cell_formula_units_Z   1
loop_
 _symmetry_equiv_pos_site_id
 _symmetry_equiv_pos_as_xyz
  1  'x, y, z'
loop_
 _atom_site_type_symbol
 _atom_site_label
 _atom_site_symmetry_multiplicity
 _atom_site_fract_x
 _atom_site_fract_y
 _atom_site_fract_z
 _atom_site_occupancy
  Yb  Yb0  1  0.506867  0.322459  0.907659  1
  Yb  Yb1  1  0.007439  0.177374  0.592910  1
  Yb  Yb2  1  0.494078  0.678149  0.408169  1
  Yb  Yb3  1  0.993889  0.821706  0.092245  1
  Yb  Yb4  1  0.493424  0.678890  0.091848  1
  Yb  Yb5  1  0.994021  0.822018  0.408211  1
  Yb  Yb6  1  0.506420  0.322560  0.592617  1
  Gd  Gd7  1  0.003704  0.178568  0.905945  1
  Sc  Sc8  1  0.334192  0.840037  0.873801  1
  Sc  Sc9  1  0.832296  0.659573  0.626264  1
  Sc  Sc10  1  0.666483  0.159345  0.374489  1
  Sc  Sc11  1  0.166094  0.341240  0.126328  1
  Sc  Sc12  1  0.666293  0.159143  0.125702  1
  Sc  Sc13  1  0.166370  0.340693  0.374423  1
  Sc  Sc14  1  0.333830  0.839561  0.626103  1
  Sc  Sc15  1  0.833245  0.659251  0.873842  1
  Sc  Sc16  1  0.169600  0.499547  0.750044  1
  Sc  Sc17  1  0.668606  0.999916  0.749246  1
  Sc  Sc18  1  0.831861  0.500688  0.250436  1
  Sc  Sc19  1  0.331206  0.999243  0.250267  1
  Sn  Sn20  1  0.323416  0.044060  0.042442  1
  Sn  Sn21  1  0.827272  0.458461  0.456728  1
  Sn  Sn22  1  0.672959  0.958693  0.543603  1
  Sn  Sn23  1  0.172697  0.539617  0.956038  1
  Sn  Sn24  1  0.673491  0.958240  0.956086  1
  Sn  Sn25  1  0.172012  0.541423  0.543878  1
  Sn  Sn26  1  0.327331  0.042166  0.456747  1
  Sn  Sn27  1  0.827523  0.456967  0.042256  1
  Sn  Sn28  1  0.528853  0.629885  0.750409  1
  Sn  Sn29  1  0.028696  0.872809  0.750549  1
  Sn  Sn30  1  0.471284  0.370457  0.250058  1
  Sn  Sn31  1  0.970534  0.128447  0.250192  1
  Sn  Sn32  1  0.306476  0.143846  0.751079  1
  Sn  Sn33  1  0.808267  0.354628  0.749532  1
  Sn  Sn34  1  0.694251  0.856712  0.249751  1
  Sn  Sn35  1  0.195014  0.643629  0.250106  1
