# generated using pymatgen
data_Yb4ReSi8Tc5
_symmetry_space_group_name_H-M   'P 1'
_cell_length_a   6.76393800
_cell_length_b   6.76420044
_cell_length_c   12.58861002
_cell_angle_alpha   89.94853047
_cell_angle_beta   90.00000000
_cell_angle_gamma   90.00000000
_symmetry_Int_Tables_number   1
_chemical_formula_structural   Yb4ReSi8Tc5
_chemical_formula_sum   'Yb8 Re2 Si16 Tc10'
_cell_volume   575.96181364
_cell_formula_units_Z   2
loop_
 _symmetry_equiv_pos_site_id
 _symmetry_equiv_pos_as_xyz
  1  'x, y, z'
loop_
 _atom_site_type_symbol
 _atom_site_label
 _atom_site_symmetry_multiplicity
 _atom_site_fract_x
 _atom_site_fract_y
 _atom_site_fract_z
 _atom_site_occupancy
  Yb  Yb0  1  0.994602  0.667837  0.028087  1
  Yb  Yb1  1  0.005247  0.332475  0.527810  1
  Yb  Yb2  1  0.332437  0.005071  0.471906  1
  Yb  Yb3  1  0.167785  0.505519  0.777808  1
  Yb  Yb4  1  0.832437  0.494929  0.278094  1
  Yb  Yb5  1  0.505247  0.167525  0.222190  1
  Yb  Yb6  1  0.494602  0.832163  0.721913  1
  Yb  Yb7  1  0.667785  0.994481  0.972192  1
  Re  Re8  1  0.332766  0.331545  0.999332  1
  Re  Re9  1  0.832766  0.168455  0.750668  1
  Si  Si10  1  0.025635  0.715516  0.433235  1
  Si  Si11  1  0.623331  0.305224  0.439475  1
  Si  Si12  1  0.375968  0.695313  0.939310  1
  Si  Si13  1  0.194933  0.124141  0.689067  1
  Si  Si14  1  0.304881  0.623172  0.560352  1
  Si  Si15  1  0.694933  0.375859  0.060933  1
  Si  Si16  1  0.804881  0.876828  0.189648  1
  Si  Si17  1  0.123331  0.194776  0.310525  1
  Si  Si18  1  0.973974  0.285525  0.933258  1
  Si  Si19  1  0.715193  0.025589  0.566432  1
  Si  Si20  1  0.215193  0.474411  0.183568  1
  Si  Si21  1  0.785190  0.526115  0.682804  1
  Si  Si22  1  0.473974  0.214475  0.816742  1
  Si  Si23  1  0.525635  0.784484  0.316765  1
  Si  Si24  1  0.285190  0.973885  0.067196  1
  Si  Si25  1  0.875968  0.804687  0.810690  1
  Tc  Tc26  1  0.668082  0.666848  0.500623  1
  Tc  Tc27  1  0.168082  0.833152  0.249377  1
  Tc  Tc28  1  0.009598  0.828889  0.627015  1
  Tc  Tc29  1  0.990705  0.172197  0.126688  1
  Tc  Tc30  1  0.828202  0.009668  0.373168  1
  Tc  Tc31  1  0.328202  0.490332  0.376832  1
  Tc  Tc32  1  0.671469  0.509183  0.876854  1
  Tc  Tc33  1  0.490705  0.327803  0.623312  1
  Tc  Tc34  1  0.509598  0.671111  0.122985  1
  Tc  Tc35  1  0.171469  0.990817  0.873146  1
