# generated using pymatgen
data_Ba3Sr3Co4TcO15
_symmetry_space_group_name_H-M   'P 1'
_cell_length_a   7.11265163
_cell_length_b   7.11265226
_cell_length_c   7.11265175
_cell_angle_alpha   87.74767030
_cell_angle_beta   87.74767140
_cell_angle_gamma   87.74766563
_symmetry_Int_Tables_number   1
_chemical_formula_structural   Ba3Sr3Co4TcO15
_chemical_formula_sum   'Ba3 Sr3 Co4 Tc1 O15'
_cell_volume   359.01503423
_cell_formula_units_Z   1
loop_
 _symmetry_equiv_pos_site_id
 _symmetry_equiv_pos_as_xyz
  1  'x, y, z'
loop_
 _atom_site_type_symbol
 _atom_site_label
 _atom_site_symmetry_multiplicity
 _atom_site_fract_x
 _atom_site_fract_y
 _atom_site_fract_z
 _atom_site_occupancy
  Ba  Ba0  1  0.000000  0.680740  0.319260  1
  Ba  Ba1  1  0.319260  0.000000  0.680740  1
  Ba  Ba2  1  0.680740  0.319260  0.000000  1
  Sr  Sr3  1  0.500000  0.867839  0.132161  1
  Sr  Sr4  1  0.132161  0.500000  0.867839  1
  Sr  Sr5  1  0.867839  0.132161  0.500000  1
  Co  Co6  1  0.707618  0.707618  0.707618  1
  Co  Co7  1  0.292382  0.292382  0.292382  1
  Co  Co8  1  0.903382  0.903382  0.903382  1
  Co  Co9  1  0.096618  0.096618  0.096618  1
  Tc  Tc10  1  0.500000  0.500000  0.500000  1
  O  O11  1  0.394703  0.548358  0.252291  1
  O  O12  1  0.252291  0.394703  0.548358  1
  O  O13  1  0.548358  0.252291  0.394703  1
  O  O14  1  0.605297  0.747709  0.451642  1
  O  O15  1  0.451642  0.605297  0.747709  1
  O  O16  1  0.747709  0.451642  0.605297  1
  O  O17  1  0.201406  0.042186  0.339941  1
  O  O18  1  0.339941  0.201406  0.042186  1
  O  O19  1  0.042186  0.339941  0.201406  1
  O  O20  1  0.798594  0.660059  0.957814  1
  O  O21  1  0.957814  0.798594  0.660059  1
  O  O22  1  0.155255  0.844745  0.000000  1
  O  O23  1  0.844745  0.000000  0.155255  1
  O  O24  1  0.000000  0.155255  0.844745  1
  O  O25  1  0.660059  0.957814  0.798594  1
