# generated using pymatgen
data_TbY(TaSi)2
_symmetry_space_group_name_H-M   'P 1'
_cell_length_a   4.01069200
_cell_length_b   4.01069200
_cell_length_c   7.79532500
_cell_angle_alpha   90.00000000
_cell_angle_beta   90.00000000
_cell_angle_gamma   90.00000000
_symmetry_Int_Tables_number   1
_chemical_formula_structural   TbY(TaSi)2
_chemical_formula_sum   'Tb1 Y1 Ta2 Si2'
_cell_volume   125.39287207
_cell_formula_units_Z   1
loop_
 _symmetry_equiv_pos_site_id
 _symmetry_equiv_pos_as_xyz
  1  'x, y, z'
loop_
 _atom_site_type_symbol
 _atom_site_label
 _atom_site_symmetry_multiplicity
 _atom_site_fract_x
 _atom_site_fract_y
 _atom_site_fract_z
 _atom_site_occupancy
  Tb  Tb0  1  0.500001  0.000000  0.352365  1
  Y  Y1  1  0.000000  0.500001  0.647679  1
  Ta  Ta2  1  0.000000  0.000000  0.999985  1
  Ta  Ta3  1  0.500001  0.500001  0.999985  1
  Si  Si4  1  0.000000  0.500001  0.238092  1
  Si  Si5  1  0.500001  0.000000  0.761892  1
