# generated using pymatgen
data_ReTc4MoPt2
_symmetry_space_group_name_H-M   'P 1'
_cell_length_a   5.60160500
_cell_length_b   5.58326958
_cell_length_c   4.41957800
_cell_angle_alpha   90.00000000
_cell_angle_beta   90.00000000
_cell_angle_gamma   120.10868729
_symmetry_Int_Tables_number   1
_chemical_formula_structural   ReTc4MoPt2
_chemical_formula_sum   'Re1 Tc4 Mo1 Pt2'
_cell_volume   119.57374438
_cell_formula_units_Z   1
loop_
 _symmetry_equiv_pos_site_id
 _symmetry_equiv_pos_as_xyz
  1  'x, y, z'
loop_
 _atom_site_type_symbol
 _atom_site_label
 _atom_site_symmetry_multiplicity
 _atom_site_fract_x
 _atom_site_fract_y
 _atom_site_fract_z
 _atom_site_occupancy
  Re  Re0  1  0.842420  0.684838  0.750000  1
  Tc  Tc1  1  0.684580  0.842499  0.250000  1
  Tc  Tc2  1  0.157919  0.842499  0.250000  1
  Tc  Tc3  1  0.314694  0.155127  0.750000  1
  Tc  Tc4  1  0.840435  0.155127  0.750000  1
  Mo  Mo5  1  0.158956  0.317912  0.250000  1
  Pt  Pt6  1  0.334138  0.668277  0.750000  1
  Pt  Pt7  1  0.666860  0.333720  0.250000  1
