# generated using pymatgen
data_Np5Si3P9Rh19
_symmetry_space_group_name_H-M   'P 1'
_cell_length_a   13.03110000
_cell_length_b   13.03109721
_cell_length_c   3.97496700
_cell_angle_alpha   90.00000000
_cell_angle_beta   90.00000000
_cell_angle_gamma   120.00000199
_symmetry_Int_Tables_number   1
_chemical_formula_structural   Np5Si3P9Rh19
_chemical_formula_sum   'Np5 Si3 P9 Rh19'
_cell_volume   584.55612139
_cell_formula_units_Z   1
loop_
 _symmetry_equiv_pos_site_id
 _symmetry_equiv_pos_as_xyz
  1  'x, y, z'
loop_
 _atom_site_type_symbol
 _atom_site_label
 _atom_site_symmetry_multiplicity
 _atom_site_fract_x
 _atom_site_fract_y
 _atom_site_fract_z
 _atom_site_occupancy
  Np  Np0  1  0.333333  0.666667  0.500000  1
  Np  Np1  1  0.666667  0.333333  0.500000  1
  Np  Np2  1  0.183068  0.000000  0.000000  1
  Np  Np3  1  0.000000  0.183068  0.000000  1
  Np  Np4  1  0.816932  0.816932  0.000000  1
  Si  Si5  1  0.367964  0.000000  0.500000  1
  Si  Si6  1  0.000000  0.367964  0.500000  1
  Si  Si7  1  0.632036  0.632036  0.500000  1
  P  P8  1  0.313237  0.481981  0.000000  1
  P  P9  1  0.518019  0.831255  0.000000  1
  P  P10  1  0.168745  0.686763  0.000000  1
  P  P11  1  0.831255  0.518019  0.000000  1
  P  P12  1  0.686763  0.168745  0.000000  1
  P  P13  1  0.481981  0.313237  0.000000  1
  P  P14  1  0.817164  0.000000  0.500000  1
  P  P15  1  0.000000  0.817164  0.500000  1
  P  P16  1  0.182836  0.182836  0.500000  1
  Rh  Rh17  1  0.197529  0.376279  0.500000  1
  Rh  Rh18  1  0.623721  0.821250  0.500000  1
  Rh  Rh19  1  0.178750  0.802471  0.500000  1
  Rh  Rh20  1  0.821250  0.623721  0.500000  1
  Rh  Rh21  1  0.802471  0.178750  0.500000  1
  Rh  Rh22  1  0.376279  0.197529  0.500000  1
  Rh  Rh23  1  0.550063  0.000000  0.500000  1
  Rh  Rh24  1  0.000000  0.550063  0.500000  1
  Rh  Rh25  1  0.449937  0.449937  0.500000  1
  Rh  Rh26  1  0.129546  0.488965  0.000000  1
  Rh  Rh27  1  0.511035  0.640581  0.000000  1
  Rh  Rh28  1  0.359419  0.870454  0.000000  1
  Rh  Rh29  1  0.640581  0.511035  0.000000  1
  Rh  Rh30  1  0.870454  0.359419  0.000000  1
  Rh  Rh31  1  0.488965  0.129546  0.000000  1
  Rh  Rh32  1  0.715148  0.000000  0.000000  1
  Rh  Rh33  1  0.000000  0.715148  0.000000  1
  Rh  Rh34  1  0.284852  0.284852  0.000000  1
  Rh  Rh35  1  0.000000  0.000000  0.500000  1
