# generated using pymatgen
data_CePr5Al24Os7Au
_symmetry_space_group_name_H-M   'P 1'
_cell_length_a   8.95890105
_cell_length_b   8.95890165
_cell_length_c   9.67615302
_cell_angle_alpha   89.91385935
_cell_angle_beta   90.08614067
_cell_angle_gamma   119.96912454
_symmetry_Int_Tables_number   1
_chemical_formula_structural   CePr5Al24Os7Au
_chemical_formula_sum   'Ce1 Pr5 Al24 Os7 Au1'
_cell_volume   672.78646926
_cell_formula_units_Z   1
loop_
 _symmetry_equiv_pos_site_id
 _symmetry_equiv_pos_as_xyz
  1  'x, y, z'
loop_
 _atom_site_type_symbol
 _atom_site_label
 _atom_site_symmetry_multiplicity
 _atom_site_fract_x
 _atom_site_fract_y
 _atom_site_fract_z
 _atom_site_occupancy
  Ce  Ce0  1  0.805165  0.194835  0.743804  1
  Pr  Pr1  1  0.189338  0.382178  0.249720  1
  Pr  Pr2  1  0.812523  0.617100  0.750643  1
  Pr  Pr3  1  0.617822  0.810662  0.249720  1
  Pr  Pr4  1  0.382900  0.187477  0.750643  1
  Pr  Pr5  1  0.191284  0.808716  0.254465  1
  Al  Al6  1  0.327963  0.672037  0.014589  1
  Al  Al7  1  0.671161  0.328839  0.985610  1
  Al  Al8  1  0.665543  0.334457  0.510809  1
  Al  Al9  1  0.333183  0.666817  0.489089  1
  Al  Al10  1  0.162084  0.325486  0.574792  1
  Al  Al11  1  0.838022  0.673851  0.426137  1
  Al  Al12  1  0.674514  0.837916  0.574792  1
  Al  Al13  1  0.849166  0.677101  0.077841  1
  Al  Al14  1  0.326149  0.161978  0.426137  1
  Al  Al15  1  0.149634  0.321229  0.921195  1
  Al  Al16  1  0.163543  0.836457  0.575495  1
  Al  Al17  1  0.322899  0.150834  0.077841  1
  Al  Al18  1  0.836580  0.163420  0.425772  1
  Al  Al19  1  0.678771  0.850366  0.921195  1
  Al  Al20  1  0.836502  0.163498  0.072359  1
  Al  Al21  1  0.163606  0.836394  0.926227  1
  Al  Al22  1  0.562579  0.123605  0.249162  1
  Al  Al23  1  0.438305  0.874814  0.751257  1
  Al  Al24  1  0.876395  0.437421  0.249162  1
  Al  Al25  1  0.125186  0.561695  0.751257  1
  Al  Al26  1  0.565450  0.434550  0.256455  1
  Al  Al27  1  0.435482  0.564518  0.742905  1
  Al  Al28  1  0.999078  0.000922  0.250456  1
  Al  Al29  1  0.998594  0.001406  0.749590  1
  Os  Os30  1  0.501717  0.001282  0.997798  1
  Os  Os31  1  0.998718  0.498283  0.997798  1
  Os  Os32  1  0.502480  0.002134  0.503165  1
  Os  Os33  1  0.997866  0.497520  0.503165  1
  Os  Os34  1  0.499484  0.500516  0.499201  1
  Os  Os35  1  0.000241  0.999759  0.999774  1
  Os  Os36  1  0.000352  0.999648  0.500308  1
  Au  Au37  1  0.499719  0.500281  0.999670  1
