# generated using pymatgen
data_Ho5Er4Tm3Rh4
_symmetry_space_group_name_H-M   'P 1'
_cell_length_a   6.27652908
_cell_length_b   7.13261586
_cell_length_c   9.31438006
_cell_angle_alpha   90.01206571
_cell_angle_beta   89.94721340
_cell_angle_gamma   89.97113580
_symmetry_Int_Tables_number   1
_chemical_formula_structural   Ho5Er4Tm3Rh4
_chemical_formula_sum   'Ho5 Er4 Tm3 Rh4'
_cell_volume   416.98658740
_cell_formula_units_Z   1
loop_
 _symmetry_equiv_pos_site_id
 _symmetry_equiv_pos_as_xyz
  1  'x, y, z'
loop_
 _atom_site_type_symbol
 _atom_site_label
 _atom_site_symmetry_multiplicity
 _atom_site_fract_x
 _atom_site_fract_y
 _atom_site_fract_z
 _atom_site_occupancy
  Ho  Ho0  1  0.672739  0.178602  0.062971  1
  Ho  Ho1  1  0.867067  0.966085  0.749739  1
  Ho  Ho2  1  0.366640  0.534094  0.250162  1
  Ho  Ho3  1  0.632863  0.466185  0.749759  1
  Ho  Ho4  1  0.133317  0.033633  0.250209  1
  Er  Er5  1  0.327116  0.821450  0.936538  1
  Er  Er6  1  0.827414  0.678360  0.063510  1
  Er  Er7  1  0.172636  0.321616  0.563403  1
  Er  Er8  1  0.672755  0.178274  0.436932  1
  Tm  Tm9  1  0.172663  0.321664  0.936376  1
  Tm  Tm10  1  0.827198  0.678512  0.436561  1
  Tm  Tm11  1  0.327218  0.821603  0.563321  1
  Rh  Rh12  1  0.053822  0.615752  0.749960  1
  Rh  Rh13  1  0.554027  0.883788  0.250588  1
  Rh  Rh14  1  0.445814  0.115754  0.749670  1
  Rh  Rh15  1  0.946713  0.384629  0.250300  1
