# generated using pymatgen
data_Y11Ho9CoBi8Ru3
_symmetry_space_group_name_H-M   'P 1'
_cell_length_a   7.98367842
_cell_length_b   8.96331700
_cell_length_c   12.46981628
_cell_angle_alpha   90.00000000
_cell_angle_beta   89.77433348
_cell_angle_gamma   90.00000000
_symmetry_Int_Tables_number   1
_chemical_formula_structural   Y11Ho9CoBi8Ru3
_chemical_formula_sum   'Y11 Ho9 Co1 Bi8 Ru3'
_cell_volume   892.33613107
_cell_formula_units_Z   1
loop_
 _symmetry_equiv_pos_site_id
 _symmetry_equiv_pos_as_xyz
  1  'x, y, z'
loop_
 _atom_site_type_symbol
 _atom_site_label
 _atom_site_symmetry_multiplicity
 _atom_site_fract_x
 _atom_site_fract_y
 _atom_site_fract_z
 _atom_site_occupancy
  Y  Y0  1  0.345290  0.750000  0.702241  1
  Y  Y1  1  0.656440  0.250000  0.292676  1
  Y  Y2  1  0.843464  0.250000  0.792157  1
  Y  Y3  1  0.154975  0.750000  0.206331  1
  Y  Y4  1  0.878593  0.750000  0.806075  1
  Y  Y5  1  0.120721  0.250000  0.193366  1
  Y  Y6  1  0.378479  0.250000  0.692817  1
  Y  Y7  1  0.617464  0.750000  0.311297  1
  Y  Y8  1  0.053707  0.750000  0.497016  1
  Y  Y9  1  0.948327  0.250000  0.503158  1
  Y  Y10  1  0.446389  0.750000  0.995825  1
  Ho  Ho11  1  0.675230  0.543538  0.563775  1
  Ho  Ho12  1  0.325702  0.462007  0.437036  1
  Ho  Ho13  1  0.175419  0.457879  0.935973  1
  Ho  Ho14  1  0.325702  0.037993  0.437036  1
  Ho  Ho15  1  0.824282  0.542441  0.064267  1
  Ho  Ho16  1  0.675230  0.956462  0.563775  1
  Ho  Ho17  1  0.824282  0.957559  0.064267  1
  Ho  Ho18  1  0.175419  0.042121  0.935973  1
  Ho  Ho19  1  0.554769  0.250000  0.003443  1
  Co  Co20  1  0.430085  0.750000  0.491033  1
  Bi  Bi21  1  0.570751  0.508179  0.827170  1
  Bi  Bi22  1  0.428963  0.491996  0.172770  1
  Bi  Bi23  1  0.071886  0.491855  0.672222  1
  Bi  Bi24  1  0.428963  0.008004  0.172770  1
  Bi  Bi25  1  0.928680  0.508666  0.328173  1
  Bi  Bi26  1  0.570751  0.991821  0.827170  1
  Bi  Bi27  1  0.928680  0.991334  0.328173  1
  Bi  Bi28  1  0.071886  0.008145  0.672222  1
  Ru  Ru29  1  0.072728  0.750000  0.989117  1
  Ru  Ru30  1  0.925053  0.250000  0.010672  1
  Ru  Ru31  1  0.571691  0.250000  0.510004  1
