# generated using pymatgen
data_NdTh(Zn9Ag2)2
_symmetry_space_group_name_H-M   'P 1'
_cell_length_a   8.36117407
_cell_length_b   8.36117312
_cell_length_c   8.36771670
_cell_angle_alpha   100.08768437
_cell_angle_beta   99.95072950
_cell_angle_gamma   130.67548241
_symmetry_Int_Tables_number   1
_chemical_formula_structural   NdTh(Zn9Ag2)2
_chemical_formula_sum   'Nd1 Th1 Zn18 Ag4'
_cell_volume   403.25349206
_cell_formula_units_Z   1
loop_
 _symmetry_equiv_pos_site_id
 _symmetry_equiv_pos_as_xyz
  1  'x, y, z'
loop_
 _atom_site_type_symbol
 _atom_site_label
 _atom_site_symmetry_multiplicity
 _atom_site_fract_x
 _atom_site_fract_y
 _atom_site_fract_z
 _atom_site_occupancy
  Nd  Nd0  1  0.001018  0.001018  0.999999  1
  Th  Th1  1  0.249180  0.749181  0.500000  1
  Zn  Zn2  1  0.624195  0.377452  0.749049  1
  Zn  Zn3  1  0.126502  0.374797  0.746518  1
  Zn  Zn4  1  0.628278  0.379983  0.253481  1
  Zn  Zn5  1  0.628402  0.875146  0.250952  1
  Zn  Zn6  1  0.179641  0.097002  0.668743  1
  Zn  Zn7  1  0.758401  0.930912  0.585156  1
  Zn  Zn8  1  0.345757  0.173245  0.414844  1
  Zn  Zn9  1  0.428259  0.510898  0.331257  1
  Zn  Zn10  1  0.907261  0.820947  0.328991  1
  Zn  Zn11  1  0.491956  0.578271  0.671009  1
  Zn  Zn12  1  0.070106  0.243434  0.412498  1
  Zn  Zn13  1  0.830936  0.657608  0.587502  1
  Zn  Zn14  1  0.064173  0.646031  0.827253  1
  Zn  Zn15  1  0.490264  0.816088  0.915270  1
  Zn  Zn16  1  0.900818  0.574994  0.084730  1
  Zn  Zn17  1  0.818780  0.236921  0.172748  1
  Zn  Zn18  1  0.346641  0.933496  0.177089  1
  Zn  Zn19  1  0.756407  0.169552  0.822910  1
  Ag  Ag20  1  0.419459  0.090605  0.912926  1
  Ag  Ag21  1  0.177679  0.506533  0.087074  1
  Ag  Ag22  1  0.506503  0.506503  0.000000  1
  Ag  Ag23  1  0.749384  0.249385  0.500000  1
