# generated using pymatgen
data_K6Li4TiSiAs6
_symmetry_space_group_name_H-M   'P 1'
_cell_length_a   10.01734653
_cell_length_b   10.01734684
_cell_length_c   15.17784100
_cell_angle_alpha   90.00000000
_cell_angle_beta   90.00000000
_cell_angle_gamma   142.79971851
_symmetry_Int_Tables_number   1
_chemical_formula_structural   K6Li4TiSiAs6
_chemical_formula_sum   'K12 Li8 Ti2 Si2 As12'
_cell_volume   920.84328428
_cell_formula_units_Z   2
loop_
 _symmetry_equiv_pos_site_id
 _symmetry_equiv_pos_as_xyz
  1  'x, y, z'
loop_
 _atom_site_type_symbol
 _atom_site_label
 _atom_site_symmetry_multiplicity
 _atom_site_fract_x
 _atom_site_fract_y
 _atom_site_fract_z
 _atom_site_occupancy
  K  K0  1  0.601699  0.939228  0.830234  1
  K  K1  1  0.280258  0.278147  0.322148  1
  K  K2  1  0.219742  0.221853  0.822148  1
  K  K3  1  0.721853  0.719742  0.677852  1
  K  K4  1  0.439228  0.101699  0.669766  1
  K  K5  1  0.898301  0.560772  0.330234  1
  K  K6  1  0.060772  0.398301  0.169766  1
  K  K7  1  0.394434  0.052237  0.171067  1
  K  K8  1  0.552237  0.894434  0.328933  1
  K  K9  1  0.105566  0.447763  0.671067  1
  K  K10  1  0.947763  0.605566  0.828933  1
  K  K11  1  0.778147  0.780258  0.177852  1
  Li  Li12  1  0.081495  0.918505  0.000000  1
  Li  Li13  1  0.583814  0.416186  0.500000  1
  Li  Li14  1  0.916186  0.083814  0.000000  1
  Li  Li15  1  0.751957  0.248043  0.000000  1
  Li  Li16  1  0.748043  0.251957  0.500000  1
  Li  Li17  1  0.249533  0.750467  0.000000  1
  Li  Li18  1  0.250467  0.749533  0.500000  1
  Li  Li19  1  0.418505  0.581495  0.500000  1
  Ti  Ti20  1  0.916444  0.083556  0.500000  1
  Ti  Ti21  1  0.583556  0.416444  0.000000  1
  Si  Si22  1  0.085333  0.914667  0.500000  1
  Si  Si23  1  0.414667  0.585333  0.000000  1
  As  As24  1  0.065194  0.384842  0.407616  1
  As  As25  1  0.884842  0.565194  0.092384  1
  As  As26  1  0.434806  0.115158  0.907616  1
  As  As27  1  0.615158  0.934806  0.592384  1
  As  As28  1  0.935641  0.620806  0.591658  1
  As  As29  1  0.120806  0.435641  0.908342  1
  As  As30  1  0.564359  0.879194  0.091658  1
  As  As31  1  0.379194  0.064359  0.408342  1
  As  As32  1  0.219555  0.214262  0.588689  1
  As  As33  1  0.714262  0.719555  0.911311  1
  As  As34  1  0.280445  0.285738  0.088689  1
  As  As35  1  0.785738  0.780445  0.411311  1
