# generated using pymatgen
data_LaHo3(WO6)2
_symmetry_space_group_name_H-M   'P 1'
_cell_length_a   5.46530600
_cell_length_b   7.78353157
_cell_length_c   11.58363848
_cell_angle_alpha   75.55142232
_cell_angle_beta   90.00000000
_cell_angle_gamma   90.00000000
_symmetry_Int_Tables_number   1
_chemical_formula_structural   LaHo3(WO6)2
_chemical_formula_sum   'La2 Ho6 W4 O24'
_cell_volume   477.17576314
_cell_formula_units_Z   2
loop_
 _symmetry_equiv_pos_site_id
 _symmetry_equiv_pos_as_xyz
  1  'x, y, z'
loop_
 _atom_site_type_symbol
 _atom_site_label
 _atom_site_symmetry_multiplicity
 _atom_site_fract_x
 _atom_site_fract_y
 _atom_site_fract_z
 _atom_site_occupancy
  La  La0  1  0.687105  0.500000  0.750000  1
  La  La1  1  0.312895  0.500000  0.250000  1
  Ho  Ho2  1  0.740415  0.000000  0.750000  1
  Ho  Ho3  1  0.259585  0.000000  0.250000  1
  Ho  Ho4  1  0.188903  0.800332  0.576518  1
  Ho  Ho5  1  0.811097  0.800332  0.076518  1
  Ho  Ho6  1  0.188903  0.199668  0.923482  1
  Ho  Ho7  1  0.811097  0.199668  0.423482  1
  W  W8  1  0.251696  0.728052  0.884845  1
  W  W9  1  0.748304  0.728052  0.384845  1
  W  W10  1  0.251696  0.271948  0.615155  1
  W  W11  1  0.748304  0.271948  0.115155  1
  O  O12  1  0.037524  0.941760  0.895739  1
  O  O13  1  0.529045  0.847817  0.931228  1
  O  O14  1  0.962476  0.941760  0.395739  1
  O  O15  1  0.455905  0.795743  0.727949  1
  O  O16  1  0.470955  0.847817  0.431228  1
  O  O17  1  0.990034  0.721149  0.768636  1
  O  O18  1  0.544095  0.795743  0.227949  1
  O  O19  1  0.861658  0.643290  0.544489  1
  O  O20  1  0.347854  0.493705  0.889699  1
  O  O21  1  0.009966  0.721149  0.268636  1
  O  O22  1  0.347854  0.506295  0.610301  1
  O  O23  1  0.861658  0.356710  0.955511  1
  O  O24  1  0.138342  0.643290  0.044489  1
  O  O25  1  0.652146  0.493705  0.389699  1
  O  O26  1  0.990034  0.278851  0.731364  1
  O  O27  1  0.652146  0.506295  0.110301  1
  O  O28  1  0.138342  0.356710  0.455511  1
  O  O29  1  0.455905  0.204257  0.772051  1
  O  O30  1  0.009966  0.278851  0.231364  1
  O  O31  1  0.529045  0.152183  0.568772  1
  O  O32  1  0.544095  0.204257  0.272051  1
  O  O33  1  0.037524  0.058240  0.604261  1
  O  O34  1  0.470955  0.152183  0.068772  1
  O  O35  1  0.962476  0.058240  0.104261  1
