# generated using pymatgen
data_Tb8ZnCu3Si11Pd
_symmetry_space_group_name_H-M   'P 1'
_cell_length_a   8.10293800
_cell_length_b   8.09100438
_cell_length_c   8.10785000
_cell_angle_alpha   89.99658257
_cell_angle_beta   90.00000000
_cell_angle_gamma   120.04880212
_symmetry_Int_Tables_number   1
_chemical_formula_structural   Tb8ZnCu3Si11Pd
_chemical_formula_sum   'Tb8 Zn1 Cu3 Si11 Pd1'
_cell_volume   460.11618314
_cell_formula_units_Z   1
loop_
 _symmetry_equiv_pos_site_id
 _symmetry_equiv_pos_as_xyz
  1  'x, y, z'
loop_
 _atom_site_type_symbol
 _atom_site_label
 _atom_site_symmetry_multiplicity
 _atom_site_fract_x
 _atom_site_fract_y
 _atom_site_fract_z
 _atom_site_occupancy
  Tb  Tb0  1  0.500886  0.001770  0.248445  1
  Tb  Tb1  1  0.500978  0.001958  0.751601  1
  Tb  Tb2  1  0.998147  0.500721  0.248740  1
  Tb  Tb3  1  0.997924  0.500640  0.751301  1
  Tb  Tb4  1  0.502575  0.500721  0.248740  1
  Tb  Tb5  1  0.502715  0.500640  0.751301  1
  Tb  Tb6  1  0.997704  0.995408  0.250761  1
  Tb  Tb7  1  0.997684  0.995368  0.749255  1
  Zn  Zn8  1  0.167060  0.334120  0.999816  1
  Cu  Cu9  1  0.336257  0.672515  0.000478  1
  Cu  Cu10  1  0.666059  0.332117  0.999732  1
  Cu  Cu11  1  0.666750  0.333499  0.499193  1
  Si  Si12  1  0.831019  0.662036  0.000185  1
  Si  Si13  1  0.660644  0.831046  0.999871  1
  Si  Si14  1  0.831987  0.663973  0.500098  1
  Si  Si15  1  0.336276  0.167824  0.000133  1
  Si  Si16  1  0.165463  0.330927  0.499884  1
  Si  Si17  1  0.170402  0.831046  0.999871  1
  Si  Si18  1  0.338219  0.169529  0.500154  1
  Si  Si19  1  0.831549  0.167824  0.000133  1
  Si  Si20  1  0.668328  0.835176  0.499880  1
  Si  Si21  1  0.831311  0.169529  0.500154  1
  Si  Si22  1  0.166848  0.835176  0.499880  1
  Pd  Pd23  1  0.333217  0.666436  0.500391  1
