# generated using pymatgen
data_Tb3NdRh4F28
_symmetry_space_group_name_H-M   'P 1'
_cell_length_a   5.55437817
_cell_length_b   9.00053295
_cell_length_c   12.03825490
_cell_angle_alpha   62.37128968
_cell_angle_beta   89.97733849
_cell_angle_gamma   89.97479554
_symmetry_Int_Tables_number   1
_chemical_formula_structural   Tb3NdRh4F28
_chemical_formula_sum   'Tb3 Nd1 Rh4 F28'
_cell_volume   533.19591762
_cell_formula_units_Z   1
loop_
 _symmetry_equiv_pos_site_id
 _symmetry_equiv_pos_as_xyz
  1  'x, y, z'
loop_
 _atom_site_type_symbol
 _atom_site_label
 _atom_site_symmetry_multiplicity
 _atom_site_fract_x
 _atom_site_fract_y
 _atom_site_fract_z
 _atom_site_occupancy
  Tb  Tb0  1  0.739053  0.186278  0.735449  1
  Tb  Tb1  1  0.761738  0.191430  0.234475  1
  Tb  Tb2  1  0.239204  0.814388  0.764524  1
  Nd  Nd3  1  0.260648  0.814030  0.264995  1
  Rh  Rh4  1  0.756266  0.725562  0.040059  1
  Rh  Rh5  1  0.241743  0.276384  0.954940  1
  Rh  Rh6  1  0.257382  0.270574  0.458417  1
  Rh  Rh7  1  0.742528  0.725147  0.546625  1
  F  F8  1  0.933836  0.706158  0.418299  1
  F  F9  1  0.060376  0.290272  0.585077  1
  F  F10  1  0.438609  0.293146  0.082816  1
  F  F11  1  0.561644  0.707580  0.912559  1
  F  F12  1  0.466038  0.727687  0.129832  1
  F  F13  1  0.530362  0.271098  0.863789  1
  F  F14  1  0.967279  0.269300  0.366612  1
  F  F15  1  0.033428  0.730071  0.636046  1
  F  F16  1  0.943618  0.740399  0.171175  1
  F  F17  1  0.047156  0.258140  0.826219  1
  F  F18  1  0.451748  0.254345  0.328590  1
  F  F19  1  0.550422  0.743216  0.675764  1
  F  F20  1  0.766958  0.483019  0.136712  1
  F  F21  1  0.232144  0.518470  0.860168  1
  F  F22  1  0.268252  0.511988  0.362697  1
  F  F23  1  0.733826  0.482723  0.641249  1
  F  F24  1  0.946812  0.282565  0.042448  1
  F  F25  1  0.054880  0.718878  0.955142  1
  F  F26  1  0.446883  0.715834  0.462492  1
  F  F27  1  0.553405  0.279034  0.545041  1
  F  F28  1  0.739395  0.966690  0.452183  1
  F  F29  1  0.259489  0.028403  0.551025  1
  F  F30  1  0.240126  0.034668  0.046404  1
  F  F31  1  0.758871  0.968264  0.948728  1
  F  F32  1  0.600972  0.973947  0.229199  1
  F  F33  1  0.412769  0.029838  0.769281  1
  F  F34  1  0.089316  0.039731  0.270212  1
  F  F35  1  0.912824  0.970742  0.730761  1
