# generated using pymatgen
data_Tb3Hg3Pd2Rh
_symmetry_space_group_name_H-M   'P 1'
_cell_length_a   7.69823600
_cell_length_b   7.69823642
_cell_length_c   3.86019400
_cell_angle_alpha   90.00000000
_cell_angle_beta   90.00000000
_cell_angle_gamma   119.99998961
_symmetry_Int_Tables_number   1
_chemical_formula_structural   Tb3Hg3Pd2Rh
_chemical_formula_sum   'Tb3 Hg3 Pd2 Rh1'
_cell_volume   198.11724213
_cell_formula_units_Z   1
loop_
 _symmetry_equiv_pos_site_id
 _symmetry_equiv_pos_as_xyz
  1  'x, y, z'
loop_
 _atom_site_type_symbol
 _atom_site_label
 _atom_site_symmetry_multiplicity
 _atom_site_fract_x
 _atom_site_fract_y
 _atom_site_fract_z
 _atom_site_occupancy
  Tb  Tb0  1  0.408849  0.393587  0.500000  1
  Tb  Tb1  1  0.606413  0.015262  0.500000  1
  Tb  Tb2  1  0.984738  0.591151  0.500000  1
  Hg  Hg3  1  0.731422  0.734652  0.000000  1
  Hg  Hg4  1  0.265348  0.996770  0.000000  1
  Hg  Hg5  1  0.003230  0.268578  0.000000  1
  Pd  Pd6  1  0.333333  0.666667  0.000000  1
  Pd  Pd7  1  0.000000  0.000000  0.500000  1
  Rh  Rh8  1  0.666667  0.333333  0.000000  1
