# generated using pymatgen
data_TbNd4Dy3(ReB6)4
_symmetry_space_group_name_H-M   'P 1'
_cell_length_a   3.73692900
_cell_length_b   9.26364804
_cell_length_c   11.72020700
_cell_angle_alpha   90.00390030
_cell_angle_beta   90.00000000
_cell_angle_gamma   90.00000000
_symmetry_Int_Tables_number   1
_chemical_formula_structural   TbNd4Dy3(ReB6)4
_chemical_formula_sum   'Tb1 Nd4 Dy3 Re4 B24'
_cell_volume   405.72537859
_cell_formula_units_Z   1
loop_
 _symmetry_equiv_pos_site_id
 _symmetry_equiv_pos_as_xyz
  1  'x, y, z'
loop_
 _atom_site_type_symbol
 _atom_site_label
 _atom_site_symmetry_multiplicity
 _atom_site_fract_x
 _atom_site_fract_y
 _atom_site_fract_z
 _atom_site_occupancy
  Tb  Tb0  1  0.000000  0.942846  0.369546  1
  Nd  Nd1  1  0.000000  0.322799  0.414021  1
  Nd  Nd2  1  0.000000  0.677110  0.586043  1
  Nd  Nd3  1  0.000000  0.822780  0.085925  1
  Nd  Nd4  1  0.000000  0.177250  0.913985  1
  Dy  Dy5  1  0.000000  0.057293  0.630914  1
  Dy  Dy6  1  0.000000  0.442792  0.130488  1
  Dy  Dy7  1  0.000000  0.557247  0.869364  1
  Re  Re8  1  0.000000  0.638733  0.319500  1
  Re  Re9  1  0.000000  0.360961  0.680532  1
  Re  Re10  1  0.000000  0.139328  0.180204  1
  Re  Re11  1  0.000000  0.860835  0.819665  1
  B  B12  1  0.500000  0.554520  0.430708  1
  B  B13  1  0.500000  0.445141  0.569347  1
  B  B14  1  0.500000  0.054880  0.069133  1
  B  B15  1  0.500000  0.945214  0.930699  1
  B  B16  1  0.500000  0.748606  0.416129  1
  B  B17  1  0.500000  0.250822  0.583885  1
  B  B18  1  0.500000  0.249320  0.083684  1
  B  B19  1  0.500000  0.750808  0.916176  1
  B  B20  1  0.500000  0.790590  0.266318  1
  B  B21  1  0.500000  0.209060  0.733643  1
  B  B22  1  0.500000  0.291228  0.233469  1
  B  B23  1  0.500000  0.708970  0.766433  1
  B  B24  1  0.500000  0.629656  0.186666  1
  B  B25  1  0.500000  0.370241  0.813220  1
  B  B26  1  0.500000  0.130211  0.312920  1
  B  B27  1  0.500000  0.870160  0.686872  1
  B  B28  1  0.500000  0.984475  0.212636  1
  B  B29  1  0.500000  0.015792  0.787157  1
  B  B30  1  0.500000  0.483985  0.286990  1
  B  B31  1  0.500000  0.515861  0.712920  1
  B  B32  1  0.500000  0.596772  0.026908  1
  B  B33  1  0.500000  0.403270  0.972975  1
  B  B34  1  0.500000  0.097370  0.473427  1
  B  B35  1  0.500000  0.903074  0.527494  1
