# generated using pymatgen
data_Hf3U(InPt2)2
_symmetry_space_group_name_H-M   'P 1'
_cell_length_a   7.55164600
_cell_length_b   7.55164624
_cell_length_c   7.09880200
_cell_angle_alpha   90.00000000
_cell_angle_beta   90.00000000
_cell_angle_gamma   87.42177652
_symmetry_Int_Tables_number   1
_chemical_formula_structural   Hf3U(InPt2)2
_chemical_formula_sum   'Hf6 U2 In4 Pt8'
_cell_volume   404.41614132
_cell_formula_units_Z   2
loop_
 _symmetry_equiv_pos_site_id
 _symmetry_equiv_pos_as_xyz
  1  'x, y, z'
loop_
 _atom_site_type_symbol
 _atom_site_label
 _atom_site_symmetry_multiplicity
 _atom_site_fract_x
 _atom_site_fract_y
 _atom_site_fract_z
 _atom_site_occupancy
  Hf  Hf0  1  0.689170  0.310830  0.500000  1
  Hf  Hf1  1  0.310830  0.689170  0.500000  1
  Hf  Hf2  1  0.182779  0.182779  0.000000  1
  Hf  Hf3  1  0.817221  0.817221  0.000000  1
  Hf  Hf4  1  0.854397  0.854397  0.500000  1
  Hf  Hf5  1  0.145603  0.145603  0.500000  1
  U  U6  1  0.367674  0.632326  0.000000  1
  U  U7  1  0.632326  0.367674  0.000000  1
  In  In8  1  0.500000  0.000000  0.256781  1
  In  In9  1  0.000000  0.500000  0.743219  1
  In  In10  1  0.500000  0.000000  0.743219  1
  In  In11  1  0.000000  0.500000  0.256781  1
  Pt  Pt12  1  0.865510  0.134490  0.210832  1
  Pt  Pt13  1  0.134490  0.865510  0.210832  1
  Pt  Pt14  1  0.362703  0.362703  0.703350  1
  Pt  Pt15  1  0.637297  0.637297  0.703350  1
  Pt  Pt16  1  0.134490  0.865510  0.789168  1
  Pt  Pt17  1  0.865510  0.134490  0.789168  1
  Pt  Pt18  1  0.637297  0.637297  0.296650  1
  Pt  Pt19  1  0.362703  0.362703  0.296650  1
