# generated using pymatgen
data_Ho16In6NiOs
_symmetry_space_group_name_H-M   'P 1'
_cell_length_a   10.38048000
_cell_length_b   10.38047967
_cell_length_c   6.99099300
_cell_angle_alpha   90.00000000
_cell_angle_beta   90.00000000
_cell_angle_gamma   120.00000106
_symmetry_Int_Tables_number   1
_chemical_formula_structural   Ho16In6NiOs
_chemical_formula_sum   'Ho16 In6 Ni1 Os1'
_cell_volume   652.38557918
_cell_formula_units_Z   1
loop_
 _symmetry_equiv_pos_site_id
 _symmetry_equiv_pos_as_xyz
  1  'x, y, z'
loop_
 _atom_site_type_symbol
 _atom_site_label
 _atom_site_symmetry_multiplicity
 _atom_site_fract_x
 _atom_site_fract_y
 _atom_site_fract_z
 _atom_site_occupancy
  Ho  Ho0  1  0.532762  0.065524  0.507332  1
  Ho  Ho1  1  0.934476  0.467238  0.507332  1
  Ho  Ho2  1  0.532762  0.467238  0.507332  1
  Ho  Ho3  1  0.466409  0.932818  0.006251  1
  Ho  Ho4  1  0.067182  0.533591  0.006251  1
  Ho  Ho5  1  0.466409  0.533591  0.006251  1
  Ho  Ho6  1  0.176867  0.353733  0.713634  1
  Ho  Ho7  1  0.646267  0.823133  0.713634  1
  Ho  Ho8  1  0.176867  0.823133  0.713634  1
  Ho  Ho9  1  0.822364  0.644730  0.212964  1
  Ho  Ho10  1  0.355270  0.177636  0.212964  1
  Ho  Ho11  1  0.822364  0.177636  0.212964  1
  Ho  Ho12  1  0.666667  0.333333  0.892164  1
  Ho  Ho13  1  0.333333  0.666667  0.384417  1
  Ho  Ho14  1  0.000000  0.000000  0.489757  1
  Ho  Ho15  1  0.000000  0.000000  0.995665  1
  In  In16  1  0.836678  0.673357  0.752361  1
  In  In17  1  0.326643  0.163322  0.752361  1
  In  In18  1  0.836678  0.163322  0.752361  1
  In  In19  1  0.161965  0.323930  0.252008  1
  In  In20  1  0.676070  0.838035  0.252008  1
  In  In21  1  0.161965  0.838035  0.252008  1
  Ni  Ni22  1  0.666667  0.333333  0.279982  1
  Os  Os23  1  0.333333  0.666667  0.782411  1
