# generated using pymatgen
data_Gd3AlS6
_symmetry_space_group_name_H-M   'P 1'
_cell_length_a   8.63261987
_cell_length_b   8.63261927
_cell_length_c   6.51012700
_cell_angle_alpha   90.00000000
_cell_angle_beta   90.00000000
_cell_angle_gamma   102.52373692
_symmetry_Int_Tables_number   1
_chemical_formula_structural   Gd3AlS6
_chemical_formula_sum   'Gd6 Al2 S12'
_cell_volume   473.60497097
_cell_formula_units_Z   2
loop_
 _symmetry_equiv_pos_site_id
 _symmetry_equiv_pos_as_xyz
  1  'x, y, z'
loop_
 _atom_site_type_symbol
 _atom_site_label
 _atom_site_symmetry_multiplicity
 _atom_site_fract_x
 _atom_site_fract_y
 _atom_site_fract_z
 _atom_site_occupancy
  Gd  Gd0  1  0.285910  0.083949  0.222940  1
  Gd  Gd1  1  0.916051  0.714090  0.222940  1
  Gd  Gd2  1  0.714090  0.916051  0.722940  1
  Gd  Gd3  1  0.083949  0.285910  0.722940  1
  Gd  Gd4  1  0.400259  0.599741  0.142164  1
  Gd  Gd5  1  0.599741  0.400259  0.642164  1
  Al  Al6  1  0.199251  0.800749  0.766570  1
  Al  Al7  1  0.800749  0.199251  0.266570  1
  S  S8  1  0.571230  0.103047  0.435777  1
  S  S9  1  0.896953  0.428770  0.435777  1
  S  S10  1  0.428770  0.896953  0.935777  1
  S  S11  1  0.103047  0.571230  0.935777  1
  S  S12  1  0.635889  0.688495  0.432480  1
  S  S13  1  0.311505  0.364111  0.432480  1
  S  S14  1  0.364111  0.311505  0.932480  1
  S  S15  1  0.688495  0.635889  0.932480  1
  S  S16  1  0.215256  0.784744  0.420888  1
  S  S17  1  0.784744  0.215256  0.920888  1
  S  S18  1  0.957509  0.042491  0.402984  1
  S  S19  1  0.042491  0.957509  0.902984  1
