# generated using pymatgen
data_K8TbEu2YF20
_symmetry_space_group_name_H-M   'P 1'
_cell_length_a   6.77220246
_cell_length_b   7.49094700
_cell_length_c   10.97385911
_cell_angle_alpha   90.00000000
_cell_angle_beta   91.28717874
_cell_angle_gamma   90.00000000
_symmetry_Int_Tables_number   1
_chemical_formula_structural   K8TbEu2YF20
_chemical_formula_sum   'K8 Tb1 Eu2 Y1 F20'
_cell_volume   556.56569555
_cell_formula_units_Z   1
loop_
 _symmetry_equiv_pos_site_id
 _symmetry_equiv_pos_as_xyz
  1  'x, y, z'
loop_
 _atom_site_type_symbol
 _atom_site_label
 _atom_site_symmetry_multiplicity
 _atom_site_fract_x
 _atom_site_fract_y
 _atom_site_fract_z
 _atom_site_occupancy
  K  K0  1  0.528518  0.496780  0.827957  1
  K  K1  1  0.472848  0.502681  0.171852  1
  K  K2  1  0.029052  0.501095  0.670308  1
  K  K3  1  0.472848  0.997319  0.171852  1
  K  K4  1  0.969542  0.498725  0.329950  1
  K  K5  1  0.528518  0.003220  0.827957  1
  K  K6  1  0.969542  0.001275  0.329950  1
  K  K7  1  0.029052  0.998905  0.670308  1
  Tb  Tb8  1  0.437424  0.250000  0.496608  1
  Eu  Eu9  1  0.061736  0.250000  0.999869  1
  Eu  Eu10  1  0.939517  0.750000  0.000621  1
  Y  Y11  1  0.561458  0.750000  0.502576  1
  F  F12  1  0.831364  0.750000  0.804069  1
  F  F13  1  0.169384  0.250000  0.196876  1
  F  F14  1  0.341922  0.250000  0.689863  1
  F  F15  1  0.657474  0.750000  0.310186  1
  F  F16  1  0.371119  0.750000  0.663706  1
  F  F17  1  0.629747  0.250000  0.334945  1
  F  F18  1  0.866160  0.250000  0.830477  1
  F  F19  1  0.131443  0.750000  0.171041  1
  F  F20  1  0.888617  0.750000  0.515717  1
  F  F21  1  0.109466  0.250000  0.484689  1
  F  F22  1  0.398648  0.250000  0.989529  1
  F  F23  1  0.603222  0.750000  0.011188  1
  F  F24  1  0.644246  0.032889  0.576251  1
  F  F25  1  0.355138  0.966750  0.422884  1
  F  F26  1  0.144991  0.968401  0.919007  1
  F  F27  1  0.355138  0.533250  0.422884  1
  F  F28  1  0.856314  0.031835  0.080811  1
  F  F29  1  0.644246  0.467111  0.576251  1
  F  F30  1  0.856314  0.468165  0.080811  1
  F  F31  1  0.144991  0.531599  0.919007  1
