# generated using pymatgen
data_K6Ca5MnAl12F54
_symmetry_space_group_name_H-M   'P 1'
_cell_length_a   7.22918367
_cell_length_b   7.25923897
_cell_length_c   22.93610345
_cell_angle_alpha   90.10818361
_cell_angle_beta   89.88565184
_cell_angle_gamma   119.58505379
_symmetry_Int_Tables_number   1
_chemical_formula_structural   K6Ca5MnAl12F54
_chemical_formula_sum   'K6 Ca5 Mn1 Al12 F54'
_cell_volume   1046.71942535
_cell_formula_units_Z   1
loop_
 _symmetry_equiv_pos_site_id
 _symmetry_equiv_pos_as_xyz
  1  'x, y, z'
loop_
 _atom_site_type_symbol
 _atom_site_label
 _atom_site_symmetry_multiplicity
 _atom_site_fract_x
 _atom_site_fract_y
 _atom_site_fract_z
 _atom_site_occupancy
  K  K0  1  0.012137  0.988498  0.249654  1
  K  K1  1  0.964557  0.005242  0.082337  1
  K  K2  1  0.990494  0.014159  0.750408  1
  K  K3  1  0.002580  0.963593  0.916358  1
  K  K4  1  0.993140  0.035773  0.417019  1
  K  K5  1  0.034347  0.993027  0.584572  1
  Ca  Ca6  1  0.515612  0.515077  0.500349  1
  Ca  Ca7  1  0.987937  0.499812  0.166295  1
  Ca  Ca8  1  0.485026  0.484656  0.999329  1
  Ca  Ca9  1  0.009521  0.500324  0.667062  1
  Ca  Ca10  1  0.500147  0.011881  0.333361  1
  Mn  Mn11  1  0.499446  0.986692  0.833332  1
  Al  Al12  1  0.000780  0.483224  0.836051  1
  Al  Al13  1  0.521058  0.017309  0.504218  1
  Al  Al14  1  0.984603  0.480344  0.995830  1
  Al  Al15  1  0.483676  0.001198  0.162604  1
  Al  Al16  1  0.496882  0.512520  0.330176  1
  Al  Al17  1  0.998747  0.515911  0.336335  1
  Al  Al18  1  0.482816  0.982802  0.000657  1
  Al  Al19  1  0.017835  0.520585  0.497044  1
  Al  Al20  1  0.487030  0.502864  0.169524  1
  Al  Al21  1  0.510087  0.497530  0.670871  1
  Al  Al22  1  0.503461  0.486531  0.830555  1
  Al  Al23  1  0.512792  0.998937  0.666232  1
  F  F24  1  0.457918  0.521353  0.092683  1
  F  F25  1  0.224604  0.337143  0.664898  1
  F  F26  1  0.794517  0.659036  0.679984  1
  F  F27  1  0.535836  0.464780  0.906788  1
  F  F28  1  0.251088  0.714414  0.007818  1
  F  F29  1  0.427085  0.968841  0.923291  1
  F  F30  1  0.476030  0.509918  0.750772  1
  F  F31  1  0.884350  0.669800  0.482434  1
  F  F32  1  0.474920  0.539967  0.407040  1
  F  F33  1  0.202430  0.341567  0.178342  1
  F  F34  1  0.794619  0.128323  0.651435  1
  F  F35  1  0.542468  0.483863  0.593953  1
  F  F36  1  0.753599  0.285646  0.511156  1
  F  F37  1  0.646514  0.860412  0.992346  1
  F  F38  1  0.239907  0.458386  0.846702  1
  F  F39  1  0.009073  0.462743  0.416596  1
  F  F40  1  0.731468  0.482687  0.345354  1
  F  F41  1  0.582316  0.031260  0.427295  1
  F  F42  1  0.228563  0.875243  0.676102  1
  F  F43  1  0.515953  0.485368  0.249773  1
  F  F44  1  0.517147  0.268296  0.154490  1
  F  F45  1  0.673511  0.885975  0.517767  1
  F  F46  1  0.162681  0.765351  0.824950  1
  F  F47  1  0.985665  0.572218  0.260174  1
  F  F48  1  0.768090  0.514233  0.819372  1
  F  F49  1  0.833292  0.203999  0.850815  1
  F  F50  1  0.477982  0.731608  0.658099  1
  F  F51  1  0.659425  0.796700  0.322043  1
  F  F52  1  0.772835  0.661917  0.164742  1
  F  F53  1  0.872754  0.233571  0.324098  1
  F  F54  1  0.541898  0.262263  0.678998  1
  F  F55  1  0.286513  0.753369  0.490179  1
  F  F56  1  0.716479  0.247359  0.989136  1
  F  F57  1  0.132343  0.795793  0.352616  1
  F  F58  1  0.975171  0.421706  0.072602  1
  F  F59  1  0.993009  0.537440  0.915847  1
  F  F60  1  0.326864  0.111335  0.013474  1
  F  F61  1  0.466212  0.008010  0.585003  1
  F  F62  1  0.029620  0.583025  0.573698  1
  F  F63  1  0.009920  0.425069  0.760034  1
  F  F64  1  0.767431  0.126024  0.173771  1
  F  F65  1  0.628194  0.772125  0.836291  1
  F  F66  1  0.358673  0.140579  0.494558  1
  F  F67  1  0.337173  0.227297  0.334705  1
  F  F68  1  0.859825  0.640099  0.006982  1
  F  F69  1  0.456136  0.738974  0.178087  1
  F  F70  1  0.374625  0.201514  0.821336  1
  F  F71  1  0.115739  0.328160  0.981441  1
  F  F72  1  0.142687  0.360714  0.507599  1
  F  F73  1  0.202328  0.868408  0.147173  1
  F  F74  1  0.429769  0.014695  0.239134  1
  F  F75  1  0.563085  0.988015  0.743224  1
  F  F76  1  0.533920  0.991944  0.082016  1
  F  F77  1  0.261034  0.542976  0.320613  1
