# generated using pymatgen
data_Nd3Dy13Cd4(IrPt)2
_symmetry_space_group_name_H-M   'P 1'
_cell_length_a   9.71462221
_cell_length_b   9.71558631
_cell_length_c   9.68789106
_cell_angle_alpha   60.05194087
_cell_angle_beta   60.13536672
_cell_angle_gamma   60.20476758
_symmetry_Int_Tables_number   1
_chemical_formula_structural   Nd3Dy13Cd4(IrPt)2
_chemical_formula_sum   'Nd3 Dy13 Cd4 Ir2 Pt2'
_cell_volume   648.47245526
_cell_formula_units_Z   1
loop_
 _symmetry_equiv_pos_site_id
 _symmetry_equiv_pos_as_xyz
  1  'x, y, z'
loop_
 _atom_site_type_symbol
 _atom_site_label
 _atom_site_symmetry_multiplicity
 _atom_site_fract_x
 _atom_site_fract_y
 _atom_site_fract_z
 _atom_site_occupancy
  Nd  Nd0  1  0.939367  0.562708  0.937046  1
  Nd  Nd1  1  0.563355  0.566766  0.935433  1
  Nd  Nd2  1  0.936226  0.936749  0.561441  1
  Dy  Dy3  1  0.348850  0.349412  0.346062  1
  Dy  Dy4  1  0.352763  0.350588  0.952890  1
  Dy  Dy5  1  0.356061  0.944888  0.351617  1
  Dy  Dy6  1  0.942673  0.355864  0.352945  1
  Dy  Dy7  1  0.807688  0.188470  0.189543  1
  Dy  Dy8  1  0.190213  0.808520  0.814240  1
  Dy  Dy9  1  0.191350  0.807723  0.187327  1
  Dy  Dy10  1  0.808862  0.186798  0.814188  1
  Dy  Dy11  1  0.191715  0.187884  0.810634  1
  Dy  Dy12  1  0.812629  0.812331  0.184900  1
  Dy  Dy13  1  0.940793  0.563476  0.555982  1
  Dy  Dy14  1  0.557420  0.943615  0.939884  1
  Dy  Dy15  1  0.562323  0.940834  0.558822  1
  Cd  Cd16  1  0.582302  0.581623  0.578446  1
  Cd  Cd17  1  0.578558  0.581790  0.258446  1
  Cd  Cd18  1  0.577816  0.256444  0.582771  1
  Cd  Cd19  1  0.259925  0.577732  0.579202  1
  Ir  Ir20  1  0.138580  0.573457  0.146121  1
  Ir  Ir21  1  0.573773  0.138151  0.145041  1
  Pt  Pt22  1  0.144550  0.141671  0.144580  1
  Pt  Pt23  1  0.142207  0.142507  0.572439  1
