# generated using pymatgen
data_Ti7VAs6
_symmetry_space_group_name_H-M   'P 1'
_cell_length_a   7.29880729
_cell_length_b   7.29880745
_cell_length_c   18.69121500
_cell_angle_alpha   90.00000000
_cell_angle_beta   90.00000000
_cell_angle_gamma   151.99763559
_symmetry_Int_Tables_number   1
_chemical_formula_structural   Ti7VAs6
_chemical_formula_sum   'Ti14 V2 As12'
_cell_volume   467.50292496
_cell_formula_units_Z   2
loop_
 _symmetry_equiv_pos_site_id
 _symmetry_equiv_pos_as_xyz
  1  'x, y, z'
loop_
 _atom_site_type_symbol
 _atom_site_label
 _atom_site_symmetry_multiplicity
 _atom_site_fract_x
 _atom_site_fract_y
 _atom_site_fract_z
 _atom_site_occupancy
  Ti  Ti0  1  0.060969  0.939031  0.750000  1
  Ti  Ti1  1  0.939031  0.060969  0.250000  1
  Ti  Ti2  1  0.732278  0.267722  0.161425  1
  Ti  Ti3  1  0.267722  0.732278  0.838575  1
  Ti  Ti4  1  0.267722  0.732278  0.661425  1
  Ti  Ti5  1  0.732278  0.267722  0.338575  1
  Ti  Ti6  1  0.534493  0.465507  0.115978  1
  Ti  Ti7  1  0.465507  0.534493  0.884022  1
  Ti  Ti8  1  0.465507  0.534493  0.615978  1
  Ti  Ti9  1  0.534493  0.465507  0.384022  1
  Ti  Ti10  1  0.662774  0.337226  0.973341  1
  Ti  Ti11  1  0.337226  0.662774  0.026659  1
  Ti  Ti12  1  0.337226  0.662774  0.473341  1
  Ti  Ti13  1  0.662774  0.337226  0.526659  1
  V  V14  1  0.000000  0.000000  0.000000  1
  V  V15  1  0.000000  0.000000  0.500000  1
  As  As16  1  0.419603  0.580397  0.750000  1
  As  As17  1  0.580397  0.419603  0.250000  1
  As  As18  1  0.699912  0.300088  0.750000  1
  As  As19  1  0.300088  0.699912  0.250000  1
  As  As20  1  0.902452  0.097548  0.116123  1
  As  As21  1  0.097548  0.902452  0.883877  1
  As  As22  1  0.097548  0.902452  0.616123  1
  As  As23  1  0.902452  0.097548  0.383877  1
  As  As24  1  0.840334  0.159666  0.925441  1
  As  As25  1  0.159666  0.840334  0.074559  1
  As  As26  1  0.159666  0.840334  0.425441  1
  As  As27  1  0.840334  0.159666  0.574559  1
