# generated using pymatgen
data_YEr4InSb2
_symmetry_space_group_name_H-M   'P 1'
_cell_length_a   8.92090893
_cell_length_b   8.88818604
_cell_length_c   6.42475900
_cell_angle_alpha   90.00000000
_cell_angle_beta   90.00000000
_cell_angle_gamma   119.87872738
_symmetry_Int_Tables_number   1
_chemical_formula_structural   YEr4InSb2
_chemical_formula_sum   'Y2 Er8 In2 Sb4'
_cell_volume   441.71193845
_cell_formula_units_Z   2
loop_
 _symmetry_equiv_pos_site_id
 _symmetry_equiv_pos_as_xyz
  1  'x, y, z'
loop_
 _atom_site_type_symbol
 _atom_site_label
 _atom_site_symmetry_multiplicity
 _atom_site_fract_x
 _atom_site_fract_y
 _atom_site_fract_z
 _atom_site_occupancy
  Y  Y0  1  0.002173  0.760669  0.750000  1
  Y  Y1  1  0.002173  0.241505  0.250000  1
  Er  Er2  1  0.757624  0.759455  0.250000  1
  Er  Er3  1  0.757624  0.998169  0.750000  1
  Er  Er4  1  0.241644  0.237669  0.750000  1
  Er  Er5  1  0.241644  0.003976  0.250000  1
  Er  Er6  1  0.333995  0.666998  0.500000  1
  Er  Er7  1  0.663208  0.331604  0.000000  1
  Er  Er8  1  0.663208  0.331604  0.500000  1
  Er  Er9  1  0.333995  0.666998  0.000000  1
  In  In10  1  0.394918  0.998882  0.750000  1
  In  In11  1  0.394918  0.396037  0.250000  1
  Sb  Sb12  1  0.999079  0.608520  0.250000  1
  Sb  Sb13  1  0.999079  0.390558  0.750000  1
  Sb  Sb14  1  0.607358  0.607390  0.750000  1
  Sb  Sb15  1  0.607358  0.999968  0.250000  1
