# generated using pymatgen
data_MgV2Fe(BiO5)2
_symmetry_space_group_name_H-M   'P 1'
_cell_length_a   7.80880340
_cell_length_b   11.75465000
_cell_length_c   5.39082878
_cell_angle_alpha   90.00000000
_cell_angle_beta   107.53582280
_cell_angle_gamma   90.00000000
_symmetry_Int_Tables_number   1
_chemical_formula_structural   MgV2Fe(BiO5)2
_chemical_formula_sum   'Mg2 V4 Fe2 Bi4 O20'
_cell_volume   471.82779769
_cell_formula_units_Z   2
loop_
 _symmetry_equiv_pos_site_id
 _symmetry_equiv_pos_as_xyz
  1  'x, y, z'
loop_
 _atom_site_type_symbol
 _atom_site_label
 _atom_site_symmetry_multiplicity
 _atom_site_fract_x
 _atom_site_fract_y
 _atom_site_fract_z
 _atom_site_occupancy
  Mg  Mg0  1  0.176837  0.920648  0.628662  1
  Mg  Mg1  1  0.323163  0.420648  0.871338  1
  V  V2  1  0.032812  0.352072  0.213343  1
  V  V3  1  0.467188  0.852072  0.286659  1
  V  V4  1  0.527982  0.148484  0.712743  1
  V  V5  1  0.972018  0.648483  0.787258  1
  Fe  Fe6  1  0.676868  0.578692  0.126102  1
  Fe  Fe7  1  0.823132  0.078692  0.373897  1
  Bi  Bi8  1  0.176348  0.096278  0.119274  1
  Bi  Bi9  1  0.323651  0.596278  0.380726  1
  Bi  Bi10  1  0.673237  0.403810  0.614648  1
  Bi  Bi11  1  0.826763  0.903811  0.885351  1
  O  O12  1  0.869353  0.676065  0.022247  1
  O  O13  1  0.325841  0.933563  0.030739  1
  O  O14  1  0.832745  0.426135  0.067454  1
  O  O15  1  0.509615  0.715182  0.190762  1
  O  O16  1  0.481207  0.472677  0.243693  1
  O  O17  1  0.018793  0.972677  0.256307  1
  O  O18  1  0.990385  0.215183  0.309239  1
  O  O19  1  0.667254  0.926136  0.432545  1
  O  O20  1  0.174159  0.433563  0.469261  1
  O  O21  1  0.630647  0.176065  0.477754  1
  O  O22  1  0.357963  0.824247  0.513803  1
  O  O23  1  0.825099  0.568455  0.533636  1
  O  O24  1  0.328796  0.072143  0.575284  1
  O  O25  1  0.014890  0.785889  0.692723  1
  O  O26  1  0.985870  0.025660  0.743997  1
  O  O27  1  0.514129  0.525660  0.756002  1
  O  O28  1  0.485111  0.285889  0.807277  1
  O  O29  1  0.171204  0.572143  0.924716  1
  O  O30  1  0.674901  0.068455  0.966364  1
  O  O31  1  0.142039  0.324246  0.986197  1
