# generated using pymatgen
data_Zr6Al16Co3(CuNi)2
_symmetry_space_group_name_H-M   'P 1'
_cell_length_a   8.56489620
_cell_length_b   8.58039253
_cell_length_c   8.56473167
_cell_angle_alpha   59.89907589
_cell_angle_beta   60.10332046
_cell_angle_gamma   59.87192404
_symmetry_Int_Tables_number   1
_chemical_formula_structural   Zr6Al16Co3(CuNi)2
_chemical_formula_sum   'Zr6 Al16 Co3 Cu2 Ni2'
_cell_volume   444.64249973
_cell_formula_units_Z   1
loop_
 _symmetry_equiv_pos_site_id
 _symmetry_equiv_pos_as_xyz
  1  'x, y, z'
loop_
 _atom_site_type_symbol
 _atom_site_label
 _atom_site_symmetry_multiplicity
 _atom_site_fract_x
 _atom_site_fract_y
 _atom_site_fract_z
 _atom_site_occupancy
  Zr  Zr0  1  0.695984  0.695100  0.304859  1
  Zr  Zr1  1  0.314962  0.683950  0.314949  1
  Zr  Zr2  1  0.695103  0.304937  0.304040  1
  Zr  Zr3  1  0.304016  0.304900  0.695141  1
  Zr  Zr4  1  0.685038  0.316050  0.685051  1
  Zr  Zr5  1  0.304897  0.695063  0.695960  1
  Al  Al6  1  0.889785  0.875011  0.353141  1
  Al  Al7  1  0.877228  0.354276  0.877186  1
  Al  Al8  1  0.353132  0.875041  0.889766  1
  Al  Al9  1  0.879952  0.888113  0.879928  1
  Al  Al10  1  0.110215  0.124989  0.646859  1
  Al  Al11  1  0.122772  0.645724  0.122814  1
  Al  Al12  1  0.646868  0.124959  0.110234  1
  Al  Al13  1  0.120048  0.111887  0.120072  1
  Al  Al14  1  0.663273  0.666716  0.000174  1
  Al  Al15  1  0.667885  0.000018  0.667889  1
  Al  Al16  1  0.000201  0.666658  0.663220  1
  Al  Al17  1  0.668652  0.662350  0.668524  1
  Al  Al18  1  0.336727  0.333284  0.999826  1
  Al  Al19  1  0.332115  0.999982  0.332111  1
  Al  Al20  1  0.999799  0.333342  0.336780  1
  Al  Al21  1  0.331348  0.337650  0.331476  1
  Co  Co22  1  0.000000  0.000000  0.000000  1
  Co  Co23  1  0.000000  0.500000  0.500000  1
  Co  Co24  1  0.500000  0.500000  0.000000  1
  Cu  Cu25  1  0.500000  0.000000  0.500000  1
  Cu  Cu26  1  0.000000  0.500000  0.000000  1
  Ni  Ni27  1  0.000000  0.000000  0.500000  1
  Ni  Ni28  1  0.500000  0.000000  0.000000  1
