# generated using pymatgen
data_Ho4InPt10Rh
_symmetry_space_group_name_H-M   'P 1'
_cell_length_a   4.18148300
_cell_length_b   5.82193027
_cell_length_c   11.64744638
_cell_angle_alpha   87.19635815
_cell_angle_beta   90.00000000
_cell_angle_gamma   90.00000000
_symmetry_Int_Tables_number   1
_chemical_formula_structural   Ho4InPt10Rh
_chemical_formula_sum   'Ho4 In1 Pt10 Rh1'
_cell_volume   283.20955808
_cell_formula_units_Z   1
loop_
 _symmetry_equiv_pos_site_id
 _symmetry_equiv_pos_as_xyz
  1  'x, y, z'
loop_
 _atom_site_type_symbol
 _atom_site_label
 _atom_site_symmetry_multiplicity
 _atom_site_fract_x
 _atom_site_fract_y
 _atom_site_fract_z
 _atom_site_occupancy
  Ho  Ho0  1  0.500000  0.752758  0.374575  1
  Ho  Ho1  1  0.500000  0.717218  0.865300  1
  Ho  Ho2  1  0.500000  0.282782  0.134700  1
  Ho  Ho3  1  0.500000  0.247242  0.625425  1
  In  In4  1  0.000000  0.000000  0.000000  1
  Pt  Pt5  1  0.000000  0.012889  0.249940  1
  Pt  Pt6  1  0.000000  0.987111  0.750060  1
  Pt  Pt7  1  0.000000  0.500000  0.500000  1
  Pt  Pt8  1  0.000000  0.513806  0.250298  1
  Pt  Pt9  1  0.000000  0.486194  0.749702  1
  Pt  Pt10  1  0.500000  0.250333  0.378238  1
  Pt  Pt11  1  0.500000  0.232315  0.880713  1
  Pt  Pt12  1  0.500000  0.767685  0.119287  1
  Pt  Pt13  1  0.500000  0.749667  0.621762  1
  Pt  Pt14  1  0.000000  0.000000  0.500000  1
  Rh  Rh15  1  0.000000  0.500000  0.000000  1
