# generated using pymatgen
data_Rb3Na2GeP3
_symmetry_space_group_name_H-M   'P 1'
_cell_length_a   10.56563215
_cell_length_b   10.56563154
_cell_length_c   15.44113300
_cell_angle_alpha   90.00000000
_cell_angle_beta   90.00000000
_cell_angle_gamma   142.75202567
_symmetry_Int_Tables_number   1
_chemical_formula_structural   Rb3Na2GeP3
_chemical_formula_sum   'Rb12 Na8 Ge4 P12'
_cell_volume   1043.31698824
_cell_formula_units_Z   4
loop_
 _symmetry_equiv_pos_site_id
 _symmetry_equiv_pos_as_xyz
  1  'x, y, z'
loop_
 _atom_site_type_symbol
 _atom_site_label
 _atom_site_symmetry_multiplicity
 _atom_site_fract_x
 _atom_site_fract_y
 _atom_site_fract_z
 _atom_site_occupancy
  Rb  Rb0  1  0.938626  0.606743  0.827375  1
  Rb  Rb1  1  0.561374  0.893257  0.327375  1
  Rb  Rb2  1  0.393257  0.061374  0.172625  1
  Rb  Rb3  1  0.061374  0.393257  0.172625  1
  Rb  Rb4  1  0.893257  0.561374  0.327375  1
  Rb  Rb5  1  0.438626  0.106743  0.672625  1
  Rb  Rb6  1  0.606743  0.938626  0.827375  1
  Rb  Rb7  1  0.265794  0.265794  0.321363  1
  Rb  Rb8  1  0.765794  0.765794  0.178637  1
  Rb  Rb9  1  0.234206  0.234206  0.821363  1
  Rb  Rb10  1  0.734206  0.734206  0.678637  1
  Rb  Rb11  1  0.106743  0.438626  0.672625  1
  Na  Na12  1  0.920451  0.079549  0.000000  1
  Na  Na13  1  0.579549  0.420451  0.500000  1
  Na  Na14  1  0.079549  0.920451  0.000000  1
  Na  Na15  1  0.420451  0.579549  0.500000  1
  Na  Na16  1  0.754898  0.245102  0.000000  1
  Na  Na17  1  0.745102  0.254898  0.500000  1
  Na  Na18  1  0.245102  0.754898  0.000000  1
  Na  Na19  1  0.254898  0.745102  0.500000  1
  Ge  Ge20  1  0.585960  0.414040  0.000000  1
  Ge  Ge21  1  0.914040  0.085960  0.500000  1
  Ge  Ge22  1  0.414040  0.585960  0.000000  1
  Ge  Ge23  1  0.085960  0.914040  0.500000  1
  P  P24  1  0.858648  0.551286  0.093879  1
  P  P25  1  0.448714  0.141352  0.906121  1
  P  P26  1  0.641352  0.948714  0.593879  1
  P  P27  1  0.948714  0.641352  0.593879  1
  P  P28  1  0.141352  0.448714  0.906121  1
  P  P29  1  0.551286  0.858648  0.093879  1
  P  P30  1  0.358648  0.051286  0.406121  1
  P  P31  1  0.185314  0.185314  0.581172  1
  P  P32  1  0.685314  0.685314  0.918828  1
  P  P33  1  0.314686  0.314686  0.081172  1
  P  P34  1  0.051286  0.358648  0.406121  1
  P  P35  1  0.814686  0.814686  0.418828  1
