# generated using pymatgen
data_Sc5(GeBi)2
_symmetry_space_group_name_H-M   'P 1'
_cell_length_a   8.19287991
_cell_length_b   8.19287959
_cell_length_c   7.53190300
_cell_angle_alpha   90.00000000
_cell_angle_beta   90.00000000
_cell_angle_gamma   125.31900143
_symmetry_Int_Tables_number   1
_chemical_formula_structural   Sc5(GeBi)2
_chemical_formula_sum   'Sc10 Ge4 Bi4'
_cell_volume   412.51452727
_cell_formula_units_Z   2
loop_
 _symmetry_equiv_pos_site_id
 _symmetry_equiv_pos_as_xyz
  1  'x, y, z'
loop_
 _atom_site_type_symbol
 _atom_site_label
 _atom_site_symmetry_multiplicity
 _atom_site_fract_x
 _atom_site_fract_y
 _atom_site_fract_z
 _atom_site_occupancy
  Sc  Sc0  1  0.041671  0.283775  0.336725  1
  Sc  Sc1  1  0.958329  0.716225  0.663275  1
  Sc  Sc2  1  0.458329  0.216225  0.836725  1
  Sc  Sc3  1  0.783775  0.541671  0.163275  1
  Sc  Sc4  1  0.541671  0.783775  0.163275  1
  Sc  Sc5  1  0.216225  0.458329  0.836725  1
  Sc  Sc6  1  0.716225  0.958329  0.663275  1
  Sc  Sc7  1  0.283775  0.041671  0.336725  1
  Sc  Sc8  1  0.000000  0.000000  0.000000  1
  Sc  Sc9  1  0.500000  0.500000  0.500000  1
  Ge  Ge10  1  0.361190  0.361190  0.137521  1
  Ge  Ge11  1  0.638810  0.638810  0.862479  1
  Ge  Ge12  1  0.138810  0.138810  0.637521  1
  Ge  Ge13  1  0.861190  0.861190  0.362479  1
  Bi  Bi14  1  0.792128  0.207872  0.000000  1
  Bi  Bi15  1  0.207873  0.792128  0.000000  1
  Bi  Bi16  1  0.707872  0.292128  0.500000  1
  Bi  Bi17  1  0.292128  0.707872  0.500000  1
