# generated using pymatgen
data_Y3In3Rh2Pb
_symmetry_space_group_name_H-M   'P 1'
_cell_length_a   7.89915600
_cell_length_b   7.89915744
_cell_length_c   3.90655800
_cell_angle_alpha   90.00000000
_cell_angle_beta   90.00000000
_cell_angle_gamma   119.99998561
_symmetry_Int_Tables_number   1
_chemical_formula_structural   Y3In3Rh2Pb
_chemical_formula_sum   'Y3 In3 Rh2 Pb1'
_cell_volume   211.09912431
_cell_formula_units_Z   1
loop_
 _symmetry_equiv_pos_site_id
 _symmetry_equiv_pos_as_xyz
  1  'x, y, z'
loop_
 _atom_site_type_symbol
 _atom_site_label
 _atom_site_symmetry_multiplicity
 _atom_site_fract_x
 _atom_site_fract_y
 _atom_site_fract_z
 _atom_site_occupancy
  Y  Y0  1  0.032594  0.613559  0.500000  1
  Y  Y1  1  0.386441  0.419035  0.500000  1
  Y  Y2  1  0.580965  0.967406  0.500000  1
  In  In3  1  0.243976  0.987342  0.000000  1
  In  In4  1  0.743365  0.756024  0.000000  1
  In  In5  1  0.012658  0.256635  0.000000  1
  Rh  Rh6  1  0.333333  0.666667  0.000000  1
  Rh  Rh7  1  0.000000  0.000000  0.500000  1
  Pb  Pb8  1  0.666667  0.333333  0.000000  1
