# generated using pymatgen
data_PrNd4(PdO6)2
_symmetry_space_group_name_H-M   'P 1'
_cell_length_a   7.13482194
_cell_length_b   7.13482220
_cell_length_c   7.57352410
_cell_angle_alpha   74.57085415
_cell_angle_beta   74.57085201
_cell_angle_gamma   50.48613926
_symmetry_Int_Tables_number   1
_chemical_formula_structural   PrNd4(PdO6)2
_chemical_formula_sum   'Pr1 Nd4 Pd2 O12'
_cell_volume   284.27222878
_cell_formula_units_Z   1
loop_
 _symmetry_equiv_pos_site_id
 _symmetry_equiv_pos_as_xyz
  1  'x, y, z'
loop_
 _atom_site_type_symbol
 _atom_site_label
 _atom_site_symmetry_multiplicity
 _atom_site_fract_x
 _atom_site_fract_y
 _atom_site_fract_z
 _atom_site_occupancy
  Pr  Pr0  1  0.000000  0.000000  0.500000  1
  Nd  Nd1  1  0.303349  0.303349  0.357799  1
  Nd  Nd2  1  0.696651  0.696651  0.642201  1
  Nd  Nd3  1  0.695071  0.695071  0.163984  1
  Nd  Nd4  1  0.304929  0.304929  0.836016  1
  Pd  Pd5  1  0.753128  0.246872  0.000000  1
  Pd  Pd6  1  0.246872  0.753128  0.000000  1
  O  O7  1  0.095876  0.596265  0.576419  1
  O  O8  1  0.999325  0.999325  0.176369  1
  O  O9  1  0.403735  0.904124  0.423581  1
  O  O10  1  0.500166  0.500166  0.178477  1
  O  O11  1  0.100193  0.573850  0.080616  1
  O  O12  1  0.904124  0.403735  0.423581  1
  O  O13  1  0.000675  0.000675  0.823631  1
  O  O14  1  0.596265  0.095875  0.576419  1
  O  O15  1  0.499834  0.499834  0.821523  1
  O  O16  1  0.573850  0.100193  0.080616  1
  O  O17  1  0.426150  0.899807  0.919384  1
  O  O18  1  0.899807  0.426150  0.919384  1
