# generated using pymatgen
data_Yb7Nb(Si4Mo3)4
_symmetry_space_group_name_H-M   'P 1'
_cell_length_a   6.69894410
_cell_length_b   6.87404262
_cell_length_c   12.97216360
_cell_angle_alpha   89.64394464
_cell_angle_beta   89.98347491
_cell_angle_gamma   90.18396141
_symmetry_Int_Tables_number   1
_chemical_formula_structural   Yb7Nb(Si4Mo3)4
_chemical_formula_sum   'Yb7 Nb1 Si16 Mo12'
_cell_volume   597.33827875
_cell_formula_units_Z   1
loop_
 _symmetry_equiv_pos_site_id
 _symmetry_equiv_pos_as_xyz
  1  'x, y, z'
loop_
 _atom_site_type_symbol
 _atom_site_label
 _atom_site_symmetry_multiplicity
 _atom_site_fract_x
 _atom_site_fract_y
 _atom_site_fract_z
 _atom_site_occupancy
  Yb  Yb0  1  0.998164  0.165654  0.090623  1
  Yb  Yb1  1  0.002876  0.836162  0.908545  1
  Yb  Yb2  1  0.503450  0.663725  0.910379  1
  Yb  Yb3  1  0.002904  0.835972  0.589609  1
  Yb  Yb4  1  0.497630  0.332957  0.090554  1
  Yb  Yb5  1  0.000213  0.166770  0.411122  1
  Yb  Yb6  1  0.498876  0.332413  0.410482  1
  Nb  Nb7  1  0.497592  0.675849  0.604019  1
  Si  Si8  1  0.033827  0.132419  0.747477  1
  Si  Si9  1  0.964737  0.874315  0.250805  1
  Si  Si10  1  0.465302  0.621409  0.249050  1
  Si  Si11  1  0.535272  0.375103  0.746325  1
  Si  Si12  1  0.301068  0.865793  0.749206  1
  Si  Si13  1  0.698630  0.130859  0.251005  1
  Si  Si14  1  0.198680  0.364727  0.250515  1
  Si  Si15  1  0.799893  0.636781  0.749397  1
  Si  Si16  1  0.171802  0.464612  0.545025  1
  Si  Si17  1  0.837010  0.543686  0.458116  1
  Si  Si18  1  0.342566  0.948381  0.459730  1
  Si  Si19  1  0.842170  0.542978  0.045212  1
  Si  Si20  1  0.656362  0.035203  0.545231  1
  Si  Si21  1  0.156924  0.457314  0.952292  1
  Si  Si22  1  0.658016  0.044202  0.953343  1
  Si  Si23  1  0.342054  0.956988  0.044811  1
  Mo  Mo24  1  0.166097  0.500785  0.745850  1
  Mo  Mo25  1  0.837960  0.506435  0.251869  1
  Mo  Mo26  1  0.338816  0.989051  0.250809  1
  Mo  Mo27  1  0.662369  0.002144  0.746085  1
  Mo  Mo28  1  0.332896  0.164753  0.624222  1
  Mo  Mo29  1  0.661453  0.826348  0.375264  1
  Mo  Mo30  1  0.166350  0.666736  0.373234  1
  Mo  Mo31  1  0.664755  0.831202  0.128040  1
  Mo  Mo32  1  0.830874  0.339470  0.624434  1
  Mo  Mo33  1  0.335078  0.168204  0.868797  1
  Mo  Mo34  1  0.832415  0.333296  0.871026  1
  Mo  Mo35  1  0.164919  0.667307  0.127500  1
