# generated using pymatgen
data_Hg3P2F12
_symmetry_space_group_name_H-M   'P 1'
_cell_length_a   8.69558000
_cell_length_b   5.93617796
_cell_length_c   11.28285015
_cell_angle_alpha   88.12284520
_cell_angle_beta   90.00000000
_cell_angle_gamma   90.00000000
_symmetry_Int_Tables_number   1
_chemical_formula_structural   Hg3P2F12
_chemical_formula_sum   'Hg6 P4 F24'
_cell_volume   582.09137354
_cell_formula_units_Z   2
loop_
 _symmetry_equiv_pos_site_id
 _symmetry_equiv_pos_as_xyz
  1  'x, y, z'
loop_
 _atom_site_type_symbol
 _atom_site_label
 _atom_site_symmetry_multiplicity
 _atom_site_fract_x
 _atom_site_fract_y
 _atom_site_fract_z
 _atom_site_occupancy
  Hg  Hg0  1  0.740795  0.758183  0.570145  1
  Hg  Hg1  1  0.240795  0.241817  0.929855  1
  Hg  Hg2  1  0.259205  0.241817  0.429855  1
  Hg  Hg3  1  0.759205  0.758183  0.070145  1
  Hg  Hg4  1  0.500000  0.000000  0.500000  1
  Hg  Hg5  1  0.000000  0.000000  0.000000  1
  P  P6  1  0.142912  0.698799  0.672182  1
  P  P7  1  0.642912  0.301201  0.827818  1
  P  P8  1  0.857088  0.301201  0.327818  1
  P  P9  1  0.357088  0.698799  0.172182  1
  F  F10  1  0.982329  0.573516  0.623775  1
  F  F11  1  0.482329  0.426484  0.876225  1
  F  F12  1  0.017671  0.426484  0.376225  1
  F  F13  1  0.517671  0.573516  0.123775  1
  F  F14  1  0.214733  0.447110  0.699159  1
  F  F15  1  0.714733  0.552890  0.800841  1
  F  F16  1  0.785267  0.552890  0.300841  1
  F  F17  1  0.285267  0.447110  0.199159  1
  F  F18  1  0.069861  0.695807  0.805962  1
  F  F19  1  0.569861  0.304193  0.694038  1
  F  F20  1  0.201592  0.818945  0.218317  1
  F  F21  1  0.701592  0.181055  0.281683  1
  F  F22  1  0.798408  0.181055  0.781683  1
  F  F23  1  0.298408  0.818945  0.718317  1
  F  F24  1  0.287068  0.692336  0.036801  1
  F  F25  1  0.787068  0.307664  0.463199  1
  F  F26  1  0.712932  0.307664  0.963199  1
  F  F27  1  0.212932  0.692336  0.536801  1
  F  F28  1  0.435715  0.942997  0.141609  1
  F  F29  1  0.935715  0.057003  0.358391  1
  F  F30  1  0.564285  0.057003  0.858391  1
  F  F31  1  0.064285  0.942997  0.641609  1
  F  F32  1  0.430139  0.695807  0.305962  1
  F  F33  1  0.930139  0.304193  0.194038  1
