# generated using pymatgen
data_TbZn4Ru
_symmetry_space_group_name_H-M   'P 1'
_cell_length_a   5.16804400
_cell_length_b   5.16804366
_cell_length_c   8.28947400
_cell_angle_alpha   90.00000000
_cell_angle_beta   90.00000000
_cell_angle_gamma   120.00000217
_symmetry_Int_Tables_number   1
_chemical_formula_structural   TbZn4Ru
_chemical_formula_sum   'Tb2 Zn8 Ru2'
_cell_volume   191.73878562
_cell_formula_units_Z   2
loop_
 _symmetry_equiv_pos_site_id
 _symmetry_equiv_pos_as_xyz
  1  'x, y, z'
loop_
 _atom_site_type_symbol
 _atom_site_label
 _atom_site_symmetry_multiplicity
 _atom_site_fract_x
 _atom_site_fract_y
 _atom_site_fract_z
 _atom_site_occupancy
  Tb  Tb0  1  0.666667  0.333333  0.432553  1
  Tb  Tb1  1  0.333333  0.666667  0.932553  1
  Zn  Zn2  1  0.000000  0.000000  0.003430  1
  Zn  Zn3  1  0.000000  0.000000  0.503430  1
  Zn  Zn4  1  0.171259  0.342515  0.249708  1
  Zn  Zn5  1  0.828741  0.171259  0.749708  1
  Zn  Zn6  1  0.342515  0.171259  0.749708  1
  Zn  Zn7  1  0.657485  0.828741  0.249708  1
  Zn  Zn8  1  0.171259  0.828741  0.249708  1
  Zn  Zn9  1  0.828741  0.657485  0.749708  1
  Ru  Ru10  1  0.333333  0.666667  0.564893  1
  Ru  Ru11  1  0.666667  0.333333  0.064893  1
