# generated using pymatgen
data_Tb7Yb12HoSn16
_symmetry_space_group_name_H-M   'P 1'
_cell_length_a   7.84231210
_cell_length_b   8.44030514
_cell_length_c   16.07992400
_cell_angle_alpha   89.99186076
_cell_angle_beta   90.00928590
_cell_angle_gamma   89.99345056
_symmetry_Int_Tables_number   1
_chemical_formula_structural   Tb7Yb12HoSn16
_chemical_formula_sum   'Tb7 Yb12 Ho1 Sn16'
_cell_volume   1064.35437282
_cell_formula_units_Z   1
loop_
 _symmetry_equiv_pos_site_id
 _symmetry_equiv_pos_as_xyz
  1  'x, y, z'
loop_
 _atom_site_type_symbol
 _atom_site_label
 _atom_site_symmetry_multiplicity
 _atom_site_fract_x
 _atom_site_fract_y
 _atom_site_fract_z
 _atom_site_occupancy
  Tb  Tb0  1  0.673294  0.166111  0.621982  1
  Tb  Tb1  1  0.173281  0.333980  0.877981  1
  Tb  Tb2  1  0.326672  0.834011  0.121957  1
  Tb  Tb3  1  0.826737  0.665967  0.378097  1
  Tb  Tb4  1  0.326664  0.834006  0.378124  1
  Tb  Tb5  1  0.826666  0.665975  0.121955  1
  Tb  Tb6  1  0.673368  0.166036  0.877972  1
  Yb  Yb7  1  0.505077  0.688636  0.592892  1
  Yb  Yb8  1  0.005196  0.811280  0.907111  1
  Yb  Yb9  1  0.494812  0.311297  0.092868  1
  Yb  Yb10  1  0.994881  0.188741  0.407201  1
  Yb  Yb11  1  0.494764  0.311306  0.407138  1
  Yb  Yb12  1  0.994787  0.188721  0.092870  1
  Yb  Yb13  1  0.505160  0.688673  0.907111  1
  Yb  Yb14  1  0.005246  0.811223  0.592866  1
  Yb  Yb15  1  0.836011  0.512050  0.749952  1
  Yb  Yb16  1  0.335915  0.987955  0.749935  1
  Yb  Yb17  1  0.164048  0.487842  0.250018  1
  Yb  Yb18  1  0.664033  0.012137  0.249986  1
  Ho  Ho19  1  0.173320  0.334184  0.622036  1
  Sn  Sn20  1  0.671112  0.964566  0.459152  1
  Sn  Sn21  1  0.171155  0.535502  0.040872  1
  Sn  Sn22  1  0.328857  0.035502  0.959095  1
  Sn  Sn23  1  0.829459  0.464313  0.541036  1
  Sn  Sn24  1  0.328300  0.035979  0.541013  1
  Sn  Sn25  1  0.828809  0.464463  0.959118  1
  Sn  Sn26  1  0.671163  0.964501  0.040881  1
  Sn  Sn27  1  0.171313  0.535086  0.459484  1
  Sn  Sn28  1  0.471601  0.375391  0.749728  1
  Sn  Sn29  1  0.972199  0.124839  0.749799  1
  Sn  Sn30  1  0.528051  0.624410  0.250008  1
  Sn  Sn31  1  0.028071  0.875532  0.250016  1
  Sn  Sn32  1  0.718408  0.872941  0.749943  1
  Sn  Sn33  1  0.218186  0.626882  0.749785  1
  Sn  Sn34  1  0.281675  0.127093  0.250006  1
  Sn  Sn35  1  0.781709  0.372868  0.250012  1
