# generated using pymatgen
data_K5GaS4
_symmetry_space_group_name_H-M   'P 1'
_cell_length_a   12.14334000
_cell_length_b   12.39480000
_cell_length_c   15.11355900
_cell_angle_alpha   90.00000000
_cell_angle_beta   90.00000000
_cell_angle_gamma   90.00000000
_symmetry_Int_Tables_number   1
_chemical_formula_structural   K5GaS4
_chemical_formula_sum   'K40 Ga8 S32'
_cell_volume   2274.80630954
_cell_formula_units_Z   8
loop_
 _symmetry_equiv_pos_site_id
 _symmetry_equiv_pos_as_xyz
  1  'x, y, z'
loop_
 _atom_site_type_symbol
 _atom_site_label
 _atom_site_symmetry_multiplicity
 _atom_site_fract_x
 _atom_site_fract_y
 _atom_site_fract_z
 _atom_site_occupancy
  K  K0  1  0.054194  0.339734  0.278321  1
  K  K1  1  0.554194  0.160266  0.721679  1
  K  K2  1  0.945806  0.839734  0.221679  1
  K  K3  1  0.445806  0.660266  0.778321  1
  K  K4  1  0.945806  0.660266  0.721679  1
  K  K5  1  0.445806  0.839734  0.278321  1
  K  K6  1  0.054194  0.160266  0.778321  1
  K  K7  1  0.554194  0.339734  0.221679  1
  K  K8  1  0.386289  0.014027  0.059344  1
  K  K9  1  0.886289  0.485973  0.940656  1
  K  K10  1  0.613711  0.514027  0.440656  1
  K  K11  1  0.113711  0.985973  0.559344  1
  K  K12  1  0.613711  0.985973  0.940656  1
  K  K13  1  0.113711  0.514027  0.059344  1
  K  K14  1  0.386289  0.485973  0.559344  1
  K  K15  1  0.886289  0.014027  0.440656  1
  K  K16  1  0.058971  0.070412  0.108932  1
  K  K17  1  0.558971  0.429588  0.891068  1
  K  K18  1  0.941029  0.570412  0.391068  1
  K  K19  1  0.441029  0.929588  0.608932  1
  K  K20  1  0.941029  0.929588  0.891068  1
  K  K21  1  0.441029  0.570412  0.108932  1
  K  K22  1  0.058971  0.429588  0.608932  1
  K  K23  1  0.558971  0.070412  0.391068  1
  K  K24  1  0.179088  0.647749  0.267890  1
  K  K25  1  0.679088  0.852251  0.732110  1
  K  K26  1  0.820912  0.147749  0.232110  1
  K  K27  1  0.320912  0.352251  0.767890  1
  K  K28  1  0.820912  0.352251  0.732110  1
  K  K29  1  0.320912  0.147749  0.267890  1
  K  K30  1  0.179088  0.852251  0.767890  1
  K  K31  1  0.679088  0.647749  0.232110  1
  K  K32  1  0.272025  0.788805  0.985057  1
  K  K33  1  0.772025  0.711195  0.014943  1
  K  K34  1  0.727975  0.288805  0.514943  1
  K  K35  1  0.227975  0.211195  0.485057  1
  K  K36  1  0.727975  0.211195  0.014943  1
  K  K37  1  0.227975  0.288805  0.985057  1
  K  K38  1  0.272025  0.711195  0.485057  1
  K  K39  1  0.772025  0.788805  0.514943  1
  Ga  Ga40  1  0.164673  0.934933  0.335805  1
  Ga  Ga41  1  0.664673  0.565067  0.664195  1
  Ga  Ga42  1  0.835327  0.434933  0.164195  1
  Ga  Ga43  1  0.335327  0.065067  0.835805  1
  Ga  Ga44  1  0.835327  0.065067  0.664195  1
  Ga  Ga45  1  0.335327  0.434933  0.335805  1
  Ga  Ga46  1  0.164673  0.565067  0.835805  1
  Ga  Ga47  1  0.664673  0.934933  0.164195  1
  S  S48  1  0.070827  0.097171  0.321942  1
  S  S49  1  0.570827  0.402829  0.678058  1
  S  S50  1  0.929173  0.597171  0.178058  1
  S  S51  1  0.429173  0.902829  0.821942  1
  S  S52  1  0.929173  0.902829  0.678058  1
  S  S53  1  0.429173  0.597171  0.321942  1
  S  S54  1  0.070827  0.402829  0.821942  1
  S  S55  1  0.570827  0.097171  0.178058  1
  S  S56  1  0.318086  0.965023  0.426272  1
  S  S57  1  0.818086  0.534977  0.573728  1
  S  S58  1  0.681914  0.465023  0.073728  1
  S  S59  1  0.181914  0.034977  0.926272  1
  S  S60  1  0.681914  0.034977  0.573728  1
  S  S61  1  0.181914  0.465023  0.426272  1
  S  S62  1  0.318086  0.534977  0.926272  1
  S  S63  1  0.818086  0.965023  0.073728  1
  S  S64  1  0.213820  0.885167  0.192417  1
  S  S65  1  0.713820  0.614833  0.807583  1
  S  S66  1  0.786180  0.385167  0.307583  1
  S  S67  1  0.286180  0.114833  0.692417  1
  S  S68  1  0.786180  0.114833  0.807583  1
  S  S69  1  0.286180  0.385167  0.192417  1
  S  S70  1  0.213820  0.614833  0.692417  1
  S  S71  1  0.713820  0.885167  0.307583  1
  S  S72  1  0.054984  0.809344  0.408119  1
  S  S73  1  0.554984  0.690656  0.591881  1
  S  S74  1  0.945016  0.309344  0.091881  1
  S  S75  1  0.445016  0.190656  0.908119  1
  S  S76  1  0.945016  0.190656  0.591881  1
  S  S77  1  0.445016  0.309344  0.408119  1
  S  S78  1  0.054984  0.690656  0.908119  1
  S  S79  1  0.554984  0.809344  0.091881  1
