# generated using pymatgen
data_Y2Sc2CrB12Ir
_symmetry_space_group_name_H-M   'P 1'
_cell_length_a   3.51510500
_cell_length_b   8.98951224
_cell_length_c   11.38542657
_cell_angle_alpha   90.06019055
_cell_angle_beta   90.00000000
_cell_angle_gamma   90.00000000
_symmetry_Int_Tables_number   1
_chemical_formula_structural   Y2Sc2CrB12Ir
_chemical_formula_sum   'Y4 Sc4 Cr2 B24 Ir2'
_cell_volume   359.76879995
_cell_formula_units_Z   2
loop_
 _symmetry_equiv_pos_site_id
 _symmetry_equiv_pos_as_xyz
  1  'x, y, z'
loop_
 _atom_site_type_symbol
 _atom_site_label
 _atom_site_symmetry_multiplicity
 _atom_site_fract_x
 _atom_site_fract_y
 _atom_site_fract_z
 _atom_site_occupancy
  Y  Y0  1  0.500000  0.316609  0.411461  1
  Y  Y1  1  0.500000  0.683391  0.588539  1
  Y  Y2  1  0.500000  0.175603  0.916625  1
  Y  Y3  1  0.500000  0.824397  0.083375  1
  Sc  Sc4  1  0.500000  0.440612  0.125509  1
  Sc  Sc5  1  0.500000  0.559388  0.874491  1
  Sc  Sc6  1  0.500000  0.050573  0.628036  1
  Sc  Sc7  1  0.500000  0.949427  0.371964  1
  Cr  Cr8  1  0.500000  0.141618  0.183035  1
  Cr  Cr9  1  0.500000  0.858382  0.816965  1
  B  B10  1  0.000000  0.099575  0.473585  1
  B  B11  1  0.000000  0.900425  0.526415  1
  B  B12  1  0.000000  0.400761  0.972933  1
  B  B13  1  0.000000  0.599239  0.027067  1
  B  B14  1  0.000000  0.129923  0.316542  1
  B  B15  1  0.000000  0.870077  0.683458  1
  B  B16  1  0.000000  0.370642  0.818189  1
  B  B17  1  0.000000  0.629358  0.181811  1
  B  B18  1  0.000000  0.054791  0.068235  1
  B  B19  1  0.000000  0.945209  0.931765  1
  B  B20  1  0.000000  0.444973  0.566659  1
  B  B21  1  0.000000  0.555027  0.433341  1
  B  B22  1  0.000000  0.481019  0.284876  1
  B  B23  1  0.000000  0.518981  0.715124  1
  B  B24  1  0.000000  0.017190  0.785626  1
  B  B25  1  0.000000  0.982810  0.214374  1
  B  B26  1  0.000000  0.251980  0.081967  1
  B  B27  1  0.000000  0.748020  0.918033  1
  B  B28  1  0.000000  0.244866  0.580522  1
  B  B29  1  0.000000  0.755134  0.419478  1
  B  B30  1  0.000000  0.294584  0.234168  1
  B  B31  1  0.000000  0.705416  0.765832  1
  B  B32  1  0.000000  0.204703  0.735180  1
  B  B33  1  0.000000  0.795297  0.264820  1
  Ir  Ir34  1  0.500000  0.359678  0.680782  1
  Ir  Ir35  1  0.500000  0.640322  0.319218  1
