# generated using pymatgen
data_Dy18HoErPb16
_symmetry_space_group_name_H-M   'P 1'
_cell_length_a   8.21235201
_cell_length_b   8.28805821
_cell_length_c   15.65366300
_cell_angle_alpha   90.00000000
_cell_angle_beta   90.00000000
_cell_angle_gamma   90.01633950
_symmetry_Int_Tables_number   1
_chemical_formula_structural   Dy18HoErPb16
_chemical_formula_sum   'Dy18 Ho1 Er1 Pb16'
_cell_volume   1065.45794330
_cell_formula_units_Z   1
loop_
 _symmetry_equiv_pos_site_id
 _symmetry_equiv_pos_as_xyz
  1  'x, y, z'
loop_
 _atom_site_type_symbol
 _atom_site_label
 _atom_site_symmetry_multiplicity
 _atom_site_fract_x
 _atom_site_fract_y
 _atom_site_fract_z
 _atom_site_occupancy
  Dy  Dy0  1  0.377551  0.840869  0.879380  1
  Dy  Dy1  1  0.877506  0.659183  0.620667  1
  Dy  Dy2  1  0.622345  0.159073  0.379334  1
  Dy  Dy3  1  0.122570  0.340789  0.120657  1
  Dy  Dy4  1  0.622345  0.159073  0.120666  1
  Dy  Dy5  1  0.122570  0.340789  0.379343  1
  Dy  Dy6  1  0.377551  0.840869  0.620620  1
  Dy  Dy7  1  0.877506  0.659183  0.879333  1
  Dy  Dy8  1  0.535153  0.323428  0.899973  1
  Dy  Dy9  1  0.035107  0.176549  0.599991  1
  Dy  Dy10  1  0.464818  0.676657  0.399987  1
  Dy  Dy11  1  0.964951  0.823504  0.100014  1
  Dy  Dy12  1  0.464818  0.676657  0.100013  1
  Dy  Dy13  1  0.964951  0.823504  0.399986  1
  Dy  Dy14  1  0.535153  0.323428  0.600027  1
  Dy  Dy15  1  0.035107  0.176549  0.900009  1
  Dy  Dy16  1  0.208891  0.503929  0.750000  1
  Dy  Dy17  1  0.791107  0.496107  0.250000  1
  Ho  Ho18  1  0.708932  0.996112  0.750000  1
  Er  Er19  1  0.290846  0.003912  0.250000  1
  Pb  Pb20  1  0.280968  0.033487  0.042826  1
  Pb  Pb21  1  0.780923  0.466488  0.457371  1
  Pb  Pb22  1  0.719100  0.966454  0.542625  1
  Pb  Pb23  1  0.219078  0.533518  0.957403  1
  Pb  Pb24  1  0.719100  0.966454  0.957375  1
  Pb  Pb25  1  0.219078  0.533518  0.542597  1
  Pb  Pb26  1  0.280968  0.033487  0.457174  1
  Pb  Pb27  1  0.780923  0.466488  0.042629  1
  Pb  Pb28  1  0.572755  0.626093  0.750000  1
  Pb  Pb29  1  0.072687  0.874049  0.750000  1
  Pb  Pb30  1  0.427047  0.373755  0.250000  1
  Pb  Pb31  1  0.927580  0.125647  0.250000  1
  Pb  Pb32  1  0.347272  0.153119  0.750000  1
  Pb  Pb33  1  0.847270  0.346658  0.750000  1
  Pb  Pb34  1  0.652596  0.846950  0.250000  1
  Pb  Pb35  1  0.152878  0.653669  0.250000  1
