# generated using pymatgen
data_Ti2Al2TcRh3
_symmetry_space_group_name_H-M   'P 1'
_cell_length_a   4.33869900
_cell_length_b   6.14568909
_cell_length_c   12.93479721
_cell_angle_alpha   89.97964621
_cell_angle_beta   90.00007062
_cell_angle_gamma   89.99996816
_symmetry_Int_Tables_number   1
_chemical_formula_structural   Ti2Al2TcRh3
_chemical_formula_sum   'Ti6 Al6 Tc3 Rh9'
_cell_volume   344.89722845
_cell_formula_units_Z   3
loop_
 _symmetry_equiv_pos_site_id
 _symmetry_equiv_pos_as_xyz
  1  'x, y, z'
loop_
 _atom_site_type_symbol
 _atom_site_label
 _atom_site_symmetry_multiplicity
 _atom_site_fract_x
 _atom_site_fract_y
 _atom_site_fract_z
 _atom_site_occupancy
  Ti  Ti0  1  0.000003  0.003419  0.002544  1
  Ti  Ti1  1  0.500019  0.492783  0.161492  1
  Ti  Ti2  1  0.000018  0.004440  0.328430  1
  Ti  Ti3  1  0.500000  0.500777  0.499582  1
  Ti  Ti4  1  0.999981  0.999992  0.668062  1
  Ti  Ti5  1  0.499979  0.501404  0.840607  1
  Al  Al6  1  0.000004  0.498518  0.001394  1
  Al  Al7  1  0.500001  0.000335  0.164647  1
  Al  Al8  1  0.000004  0.501226  0.332913  1
  Al  Al9  1  0.499999  0.999567  0.500302  1
  Al  Al10  1  0.999987  0.500646  0.666563  1
  Al  Al11  1  0.499998  0.999383  0.834081  1
  Tc  Tc12  1  0.500001  0.249090  0.997830  1
  Tc  Tc13  1  0.500004  0.748685  0.997971  1
  Tc  Tc14  1  0.999999  0.248493  0.170726  1
  Rh  Rh15  1  0.000006  0.749506  0.169227  1
  Rh  Rh16  1  0.500007  0.248862  0.338309  1
  Rh  Rh17  1  0.500010  0.751585  0.336757  1
  Rh  Rh18  1  0.000000  0.250817  0.501535  1
  Rh  Rh19  1  0.999999  0.749565  0.501034  1
  Rh  Rh20  1  0.499989  0.248901  0.663693  1
  Rh  Rh21  1  0.499988  0.750702  0.664711  1
  Rh  Rh22  1  0.999999  0.250829  0.828311  1
  Rh  Rh23  1  0.999997  0.750476  0.829280  1
