# generated using pymatgen
data_Pr5TeRhO12
_symmetry_space_group_name_H-M   'P 1'
_cell_length_a   7.19905168
_cell_length_b   7.19905134
_cell_length_c   7.65704689
_cell_angle_alpha   74.42300293
_cell_angle_beta   74.42300313
_cell_angle_gamma   50.37318240
_symmetry_Int_Tables_number   1
_chemical_formula_structural   Pr5TeRhO12
_chemical_formula_sum   'Pr5 Te1 Rh1 O12'
_cell_volume   291.88201629
_cell_formula_units_Z   1
loop_
 _symmetry_equiv_pos_site_id
 _symmetry_equiv_pos_as_xyz
  1  'x, y, z'
loop_
 _atom_site_type_symbol
 _atom_site_label
 _atom_site_symmetry_multiplicity
 _atom_site_fract_x
 _atom_site_fract_y
 _atom_site_fract_z
 _atom_site_occupancy
  Pr  Pr0  1  0.285524  0.318969  0.358624  1
  Pr  Pr1  1  0.681031  0.714476  0.641376  1
  Pr  Pr2  1  0.690477  0.700016  0.165053  1
  Pr  Pr3  1  0.299984  0.309523  0.834947  1
  Pr  Pr4  1  0.990379  0.009621  0.500000  1
  Te  Te5  1  0.767988  0.232012  0.000000  1
  Rh  Rh6  1  0.259719  0.740281  0.000000  1
  O  O7  1  0.084240  0.604505  0.578950  1
  O  O8  1  0.000100  0.999584  0.174659  1
  O  O9  1  0.395495  0.915760  0.421050  1
  O  O10  1  0.523241  0.477776  0.174015  1
  O  O11  1  0.096175  0.568548  0.081248  1
  O  O12  1  0.893454  0.407551  0.428306  1
  O  O13  1  0.000416  0.999900  0.825341  1
  O  O14  1  0.592449  0.106545  0.571694  1
  O  O15  1  0.522224  0.476759  0.825985  1
  O  O16  1  0.587339  0.101687  0.079739  1
  O  O17  1  0.431452  0.903825  0.918752  1
  O  O18  1  0.898313  0.412661  0.920261  1
