# generated using pymatgen
data_YEr9Cd2NiHg
_symmetry_space_group_name_H-M   'P 1'
_cell_length_a   9.57674643
_cell_length_b   9.56387110
_cell_length_c   9.53747200
_cell_angle_alpha   90.00000000
_cell_angle_beta   90.00000000
_cell_angle_gamma   119.92679565
_symmetry_Int_Tables_number   1
_chemical_formula_structural   YEr9Cd2NiHg
_chemical_formula_sum   'Y2 Er18 Cd4 Ni2 Hg2'
_cell_volume   757.06906052
_cell_formula_units_Z   2
loop_
 _symmetry_equiv_pos_site_id
 _symmetry_equiv_pos_as_xyz
  1  'x, y, z'
loop_
 _atom_site_type_symbol
 _atom_site_label
 _atom_site_symmetry_multiplicity
 _atom_site_fract_x
 _atom_site_fract_y
 _atom_site_fract_z
 _atom_site_occupancy
  Y  Y0  1  0.455687  0.911835  0.750000  1
  Y  Y1  1  0.088967  0.544534  0.750000  1
  Er  Er2  1  0.996888  0.998472  0.493928  1
  Er  Er3  1  0.996888  0.998472  0.006072  1
  Er  Er4  1  0.546506  0.458874  0.250000  1
  Er  Er5  1  0.547154  0.088390  0.250000  1
  Er  Er6  1  0.912307  0.455928  0.250000  1
  Er  Er7  1  0.456433  0.543185  0.750000  1
  Er  Er8  1  0.210530  0.790348  0.436320  1
  Er  Er9  1  0.210893  0.420497  0.436191  1
  Er  Er10  1  0.579021  0.789304  0.436373  1
  Er  Er11  1  0.789875  0.210653  0.562689  1
  Er  Er12  1  0.789344  0.579056  0.563410  1
  Er  Er13  1  0.420785  0.210781  0.562699  1
  Er  Er14  1  0.789875  0.210653  0.937311  1
  Er  Er15  1  0.789344  0.579056  0.936590  1
  Er  Er16  1  0.420785  0.210781  0.937301  1
  Er  Er17  1  0.210530  0.790348  0.063680  1
  Er  Er18  1  0.210893  0.420497  0.063809  1
  Er  Er19  1  0.579021  0.789304  0.063627  1
  Cd  Cd20  1  0.236483  0.117898  0.250000  1
  Cd  Cd21  1  0.113699  0.885806  0.750000  1
  Cd  Cd22  1  0.113986  0.228455  0.750000  1
  Cd  Cd23  1  0.770369  0.885143  0.750000  1
  Ni  Ni24  1  0.333631  0.666912  0.250000  1
  Ni  Ni25  1  0.666059  0.332994  0.750000  1
  Hg  Hg26  1  0.881844  0.121516  0.250000  1
  Hg  Hg27  1  0.882201  0.760315  0.250000  1
