# generated using pymatgen
data_HoEr5NbCo17P12
_symmetry_space_group_name_H-M   'P 1'
_cell_length_a   3.69060300
_cell_length_b   10.54770300
_cell_length_c   12.23112500
_cell_angle_alpha   90.00000000
_cell_angle_beta   90.00000000
_cell_angle_gamma   90.00000000
_symmetry_Int_Tables_number   1
_chemical_formula_structural   HoEr5NbCo17P12
_chemical_formula_sum   'Ho1 Er5 Nb1 Co17 P12'
_cell_volume   476.12570372
_cell_formula_units_Z   1
loop_
 _symmetry_equiv_pos_site_id
 _symmetry_equiv_pos_as_xyz
  1  'x, y, z'
loop_
 _atom_site_type_symbol
 _atom_site_label
 _atom_site_symmetry_multiplicity
 _atom_site_fract_x
 _atom_site_fract_y
 _atom_site_fract_z
 _atom_site_occupancy
  Ho  Ho0  1  0.250000  0.750000  0.522178  1
  Er  Er1  1  0.750000  0.250000  0.473306  1
  Er  Er2  1  0.250000  0.930196  0.792895  1
  Er  Er3  1  0.250000  0.569804  0.792895  1
  Er  Er4  1  0.750000  0.067279  0.204202  1
  Er  Er5  1  0.750000  0.432721  0.204202  1
  Nb  Nb6  1  0.250000  0.250000  0.845021  1
  Co  Co7  1  0.750000  0.750000  0.161316  1
  Co  Co8  1  0.250000  0.250000  0.298523  1
  Co  Co9  1  0.750000  0.750000  0.703167  1
  Co  Co10  1  0.750000  0.250000  0.015976  1
  Co  Co11  1  0.250000  0.750000  0.985588  1
  Co  Co12  1  0.250000  0.420291  0.010897  1
  Co  Co13  1  0.250000  0.079709  0.010897  1
  Co  Co14  1  0.750000  0.586225  0.995690  1
  Co  Co15  1  0.750000  0.913775  0.995690  1
  Co  Co16  1  0.250000  0.454839  0.567127  1
  Co  Co17  1  0.250000  0.045161  0.567127  1
  Co  Co18  1  0.750000  0.547471  0.430298  1
  Co  Co19  1  0.750000  0.952529  0.430298  1
  Co  Co20  1  0.250000  0.870800  0.291680  1
  Co  Co21  1  0.250000  0.629200  0.291680  1
  Co  Co22  1  0.750000  0.126624  0.705476  1
  Co  Co23  1  0.750000  0.373376  0.705476  1
  P  P24  1  0.250000  0.250000  0.119833  1
  P  P25  1  0.750000  0.750000  0.882245  1
  P  P26  1  0.250000  0.250000  0.643543  1
  P  P27  1  0.750000  0.750000  0.344327  1
  P  P28  1  0.250000  0.439734  0.382625  1
  P  P29  1  0.250000  0.060266  0.382625  1
  P  P30  1  0.750000  0.562227  0.614613  1
  P  P31  1  0.750000  0.937773  0.614613  1
  P  P32  1  0.250000  0.899105  0.110228  1
  P  P33  1  0.250000  0.600895  0.110228  1
  P  P34  1  0.750000  0.088632  0.896760  1
  P  P35  1  0.750000  0.411368  0.896760  1
