# generated using pymatgen
data_Lu3TcB7
_symmetry_space_group_name_H-M   'P 1'
_cell_length_a   7.92891080
_cell_length_b   7.92891070
_cell_length_c   9.21494000
_cell_angle_alpha   90.00000000
_cell_angle_beta   90.00000000
_cell_angle_gamma   154.64764080
_symmetry_Int_Tables_number   1
_chemical_formula_structural   Lu3TcB7
_chemical_formula_sum   'Lu6 Tc2 B14'
_cell_volume   248.05607972
_cell_formula_units_Z   2
loop_
 _symmetry_equiv_pos_site_id
 _symmetry_equiv_pos_as_xyz
  1  'x, y, z'
loop_
 _atom_site_type_symbol
 _atom_site_label
 _atom_site_symmetry_multiplicity
 _atom_site_fract_x
 _atom_site_fract_y
 _atom_site_fract_z
 _atom_site_occupancy
  Lu  Lu0  1  0.757675  0.242325  0.250000  1
  Lu  Lu1  1  0.242325  0.757675  0.750000  1
  Lu  Lu2  1  0.894481  0.105519  0.559814  1
  Lu  Lu3  1  0.105519  0.894481  0.440186  1
  Lu  Lu4  1  0.105519  0.894481  0.059814  1
  Lu  Lu5  1  0.894481  0.105519  0.940186  1
  Tc  Tc6  1  0.947865  0.052135  0.250000  1
  Tc  Tc7  1  0.052135  0.947865  0.750000  1
  B  B8  1  0.546294  0.453706  0.250000  1
  B  B9  1  0.453706  0.546294  0.750000  1
  B  B10  1  0.519736  0.480264  0.905989  1
  B  B11  1  0.480264  0.519736  0.094011  1
  B  B12  1  0.480264  0.519736  0.405989  1
  B  B13  1  0.519736  0.480264  0.594011  1
  B  B14  1  0.632357  0.367643  0.849992  1
  B  B15  1  0.367643  0.632357  0.150008  1
  B  B16  1  0.727598  0.272402  0.966608  1
  B  B17  1  0.272402  0.727598  0.033392  1
  B  B18  1  0.272402  0.727598  0.466608  1
  B  B19  1  0.727598  0.272402  0.533392  1
  B  B20  1  0.632357  0.367643  0.650008  1
  B  B21  1  0.367643  0.632357  0.349992  1
