# generated using pymatgen
data_Hf6Cu2CN
_symmetry_space_group_name_H-M   'P 1'
_cell_length_a   5.81586720
_cell_length_b   5.81586532
_cell_length_c   8.83637878
_cell_angle_alpha   90.35130090
_cell_angle_beta   89.64869891
_cell_angle_gamma   146.98893750
_symmetry_Int_Tables_number   1
_chemical_formula_structural   Hf6Cu2CN
_chemical_formula_sum   'Hf6 Cu2 C1 N1'
_cell_volume   162.82913852
_cell_formula_units_Z   1
loop_
 _symmetry_equiv_pos_site_id
 _symmetry_equiv_pos_as_xyz
  1  'x, y, z'
loop_
 _atom_site_type_symbol
 _atom_site_label
 _atom_site_symmetry_multiplicity
 _atom_site_fract_x
 _atom_site_fract_y
 _atom_site_fract_z
 _atom_site_occupancy
  Hf  Hf0  1  0.631146  0.368854  0.441726  1
  Hf  Hf1  1  0.368854  0.631146  0.558274  1
  Hf  Hf2  1  0.628662  0.371338  0.052647  1
  Hf  Hf3  1  0.371338  0.628662  0.947353  1
  Hf  Hf4  1  0.943501  0.056499  0.251281  1
  Hf  Hf5  1  0.056499  0.943501  0.748719  1
  Cu  Cu6  1  0.250060  0.749940  0.245657  1
  Cu  Cu7  1  0.749940  0.250060  0.754343  1
  C  C8  1  0.000000  0.000000  0.500000  1
  N  N9  1  0.000000  0.000000  0.000000  1
