# generated using pymatgen
data_CeNd2Sm5(SiPd)8
_symmetry_space_group_name_H-M   'P 1'
_cell_length_a   5.79517598
_cell_length_b   7.84680367
_cell_length_c   10.79375137
_cell_angle_alpha   88.24220801
_cell_angle_beta   90.08426669
_cell_angle_gamma   89.94695511
_symmetry_Int_Tables_number   1
_chemical_formula_structural   CeNd2Sm5(SiPd)8
_chemical_formula_sum   'Ce1 Nd2 Sm5 Si8 Pd8'
_cell_volume   490.59908721
_cell_formula_units_Z   1
loop_
 _symmetry_equiv_pos_site_id
 _symmetry_equiv_pos_as_xyz
  1  'x, y, z'
loop_
 _atom_site_type_symbol
 _atom_site_label
 _atom_site_symmetry_multiplicity
 _atom_site_fract_x
 _atom_site_fract_y
 _atom_site_fract_z
 _atom_site_occupancy
  Ce  Ce0  1  0.631677  0.324696  0.370577  1
  Nd  Nd1  1  0.130894  0.173996  0.630095  1
  Nd  Nd2  1  0.368697  0.676550  0.629832  1
  Sm  Sm3  1  0.364478  0.964402  0.143381  1
  Sm  Sm4  1  0.634436  0.034987  0.856371  1
  Sm  Sm5  1  0.864740  0.535224  0.855970  1
  Sm  Sm6  1  0.134968  0.465850  0.143330  1
  Sm  Sm7  1  0.870866  0.824914  0.369852  1
  Si  Si8  1  0.861537  0.536894  0.573870  1
  Si  Si9  1  0.133622  0.463815  0.423179  1
  Si  Si10  1  0.368906  0.964884  0.421387  1
  Si  Si11  1  0.636913  0.037409  0.574645  1
  Si  Si12  1  0.645217  0.621240  0.146547  1
  Si  Si13  1  0.357109  0.377971  0.855741  1
  Si  Si14  1  0.142850  0.877877  0.855642  1
  Si  Si15  1  0.854800  0.120906  0.146516  1
  Pd  Pd16  1  0.900418  0.834019  0.051435  1
  Pd  Pd17  1  0.097344  0.166053  0.949411  1
  Pd  Pd18  1  0.402953  0.666215  0.949585  1
  Pd  Pd19  1  0.598958  0.333779  0.051607  1
  Pd  Pd20  1  0.892003  0.821321  0.668626  1
  Pd  Pd21  1  0.104206  0.178506  0.331549  1
  Pd  Pd22  1  0.395450  0.676612  0.331694  1
  Pd  Pd23  1  0.606955  0.321878  0.669158  1
