# generated using pymatgen
data_Cs2Tb6LuBBr18
_symmetry_space_group_name_H-M   'P 1'
_cell_length_a   10.71899606
_cell_length_b   10.71826798
_cell_length_c   11.64398405
_cell_angle_alpha   117.56451270
_cell_angle_beta   62.41873538
_cell_angle_gamma   119.91707374
_symmetry_Int_Tables_number   1
_chemical_formula_structural   Cs2Tb6LuBBr18
_chemical_formula_sum   'Cs2 Tb6 Lu1 B1 Br18'
_cell_volume   979.82627959
_cell_formula_units_Z   1
loop_
 _symmetry_equiv_pos_site_id
 _symmetry_equiv_pos_as_xyz
  1  'x, y, z'
loop_
 _atom_site_type_symbol
 _atom_site_label
 _atom_site_symmetry_multiplicity
 _atom_site_fract_x
 _atom_site_fract_y
 _atom_site_fract_z
 _atom_site_occupancy
  Cs  Cs0  1  0.222380  0.777931  0.333698  1
  Cs  Cs1  1  0.777865  0.221843  0.666236  1
  Tb  Tb2  1  0.777683  0.108192  0.155566  1
  Tb  Tb3  1  0.892404  0.824160  0.155192  1
  Tb  Tb4  1  0.176151  0.222669  0.155509  1
  Tb  Tb5  1  0.499515  0.501343  0.500898  1
  Tb  Tb6  1  0.825150  0.776651  0.843574  1
  Tb  Tb7  1  0.109137  0.175363  0.843599  1
  Lu  Lu8  1  0.220900  0.893112  0.845495  1
  B  B9  1  0.000324  0.999996  0.999838  1
  Br  Br10  1  0.287065  0.425193  0.007583  1
  Br  Br11  1  0.574812  0.869369  0.007713  1
  Br  Br12  1  0.134487  0.716566  0.002181  1
  Br  Br13  1  0.946218  0.349187  0.334368  1
  Br  Br14  1  0.068772  0.053749  0.333998  1
  Br  Br15  1  0.650971  0.931225  0.334022  1
  Br  Br16  1  0.522061  0.214164  0.334989  1
  Br  Br17  1  0.786358  0.643626  0.334802  1
  Br  Br18  1  0.356813  0.477618  0.334517  1
  Br  Br19  1  0.643582  0.522467  0.665200  1
  Br  Br20  1  0.213699  0.356379  0.665309  1
  Br  Br21  1  0.471029  0.787299  0.669410  1
  Br  Br22  1  0.347669  0.064273  0.668711  1
  Br  Br23  1  0.931491  0.946006  0.665685  1
  Br  Br24  1  0.059020  0.655827  0.669323  1
  Br  Br25  1  0.869320  0.287010  0.992463  1
  Br  Br26  1  0.422061  0.124221  0.987873  1
  Br  Br27  1  0.713062  0.574557  0.992244  1
