# generated using pymatgen
data_Ca19Yb(Cd3Pd)2
_symmetry_space_group_name_H-M   'P 1'
_cell_length_a   10.26728200
_cell_length_b   10.26728283
_cell_length_c   10.15793000
_cell_angle_alpha   90.00000000
_cell_angle_beta   90.00000000
_cell_angle_gamma   119.99999732
_symmetry_Int_Tables_number   1
_chemical_formula_structural   Ca19Yb(Cd3Pd)2
_chemical_formula_sum   'Ca19 Yb1 Cd6 Pd2'
_cell_volume   927.35683072
_cell_formula_units_Z   1
loop_
 _symmetry_equiv_pos_site_id
 _symmetry_equiv_pos_as_xyz
  1  'x, y, z'
loop_
 _atom_site_type_symbol
 _atom_site_label
 _atom_site_symmetry_multiplicity
 _atom_site_fract_x
 _atom_site_fract_y
 _atom_site_fract_z
 _atom_site_occupancy
  Ca  Ca0  1  0.205439  0.794561  0.936649  1
  Ca  Ca1  1  0.205439  0.410880  0.936649  1
  Ca  Ca2  1  0.589120  0.794561  0.936649  1
  Ca  Ca3  1  0.794561  0.205439  0.063351  1
  Ca  Ca4  1  0.794561  0.589120  0.063351  1
  Ca  Ca5  1  0.410880  0.205439  0.063351  1
  Ca  Ca6  1  0.794256  0.205744  0.436633  1
  Ca  Ca7  1  0.794256  0.588511  0.436633  1
  Ca  Ca8  1  0.411489  0.205744  0.436633  1
  Ca  Ca9  1  0.205744  0.794256  0.563367  1
  Ca  Ca10  1  0.205744  0.411489  0.563367  1
  Ca  Ca11  1  0.588511  0.794256  0.563367  1
  Ca  Ca12  1  0.539265  0.460735  0.749939  1
  Ca  Ca13  1  0.539265  0.078529  0.749939  1
  Ca  Ca14  1  0.921471  0.460735  0.749939  1
  Ca  Ca15  1  0.460735  0.539265  0.250061  1
  Ca  Ca16  1  0.460735  0.921471  0.250061  1
  Ca  Ca17  1  0.078529  0.539265  0.250061  1
  Ca  Ca18  1  0.000000  0.000000  0.500000  1
  Yb  Yb19  1  0.000000  0.000000  0.000000  1
  Cd  Cd20  1  0.881892  0.118108  0.750693  1
  Cd  Cd21  1  0.881892  0.763783  0.750693  1
  Cd  Cd22  1  0.236217  0.118108  0.750693  1
  Cd  Cd23  1  0.118108  0.881892  0.249307  1
  Cd  Cd24  1  0.118108  0.236217  0.249307  1
  Cd  Cd25  1  0.763783  0.881892  0.249307  1
  Pd  Pd26  1  0.333333  0.666667  0.750134  1
  Pd  Pd27  1  0.666667  0.333333  0.249866  1
