# generated using pymatgen
data_AlCdSbSe
_symmetry_space_group_name_H-M   'P 1'
_cell_length_a   7.58948242
_cell_length_b   7.58948264
_cell_length_c   7.58948255
_cell_angle_alpha   33.68725264
_cell_angle_beta   33.68725161
_cell_angle_gamma   33.68725619
_symmetry_Int_Tables_number   1
_chemical_formula_structural   AlCdSbSe
_chemical_formula_sum   'Al1 Cd1 Sb1 Se1'
_cell_volume   119.81882154
_cell_formula_units_Z   1
loop_
 _symmetry_equiv_pos_site_id
 _symmetry_equiv_pos_as_xyz
  1  'x, y, z'
loop_
 _atom_site_type_symbol
 _atom_site_label
 _atom_site_symmetry_multiplicity
 _atom_site_fract_x
 _atom_site_fract_y
 _atom_site_fract_z
 _atom_site_occupancy
  Al  Al0  1  0.503489  0.503489  0.503489  1
  Cd  Cd1  1  0.998905  0.998905  0.998905  1
  Sb  Sb2  1  0.129655  0.129655  0.129655  1
  Se  Se3  1  0.617949  0.617949  0.617949  1
