# generated using pymatgen
data_Ho4As6IrRh6
_symmetry_space_group_name_H-M   'P 1'
_cell_length_a   7.28439222
_cell_length_b   7.28450871
_cell_length_c   7.28450771
_cell_angle_alpha   109.39271801
_cell_angle_beta   109.50995484
_cell_angle_gamma   109.50996434
_symmetry_Int_Tables_number   1
_chemical_formula_structural   Ho4As6IrRh6
_chemical_formula_sum   'Ho4 As6 Ir1 Rh6'
_cell_volume   297.56163968
_cell_formula_units_Z   1
loop_
 _symmetry_equiv_pos_site_id
 _symmetry_equiv_pos_as_xyz
  1  'x, y, z'
loop_
 _atom_site_type_symbol
 _atom_site_label
 _atom_site_symmetry_multiplicity
 _atom_site_fract_x
 _atom_site_fract_y
 _atom_site_fract_z
 _atom_site_occupancy
  Ho  Ho0  1  0.500000  0.500009  0.499991  1
  Ho  Ho1  1  0.000016  0.500008  0.000010  1
  Ho  Ho2  1  0.500000  0.999993  0.000007  1
  Ho  Ho3  1  0.999984  0.999990  0.499992  1
  As  As4  1  0.681600  0.000455  0.682072  1
  As  As5  1  0.681602  0.681150  0.999532  1
  As  As6  1  0.318400  0.317928  0.999545  1
  As  As7  1  0.000000  0.681197  0.681197  1
  As  As8  1  0.000000  0.318803  0.318803  1
  As  As9  1  0.318398  0.000468  0.318850  1
  Ir  Ir10  1  0.500000  0.749994  0.250006  1
  Rh  Rh11  1  0.750296  0.249849  0.499550  1
  Rh  Rh12  1  0.249711  0.749238  0.499542  1
  Rh  Rh13  1  0.249704  0.500450  0.750151  1
  Rh  Rh14  1  0.000000  0.000002  0.999998  1
  Rh  Rh15  1  0.500000  0.250008  0.749992  1
  Rh  Rh16  1  0.750289  0.500458  0.250762  1
