# generated using pymatgen
data_Yb4Sn5SbRh7
_symmetry_space_group_name_H-M   'P 1'
_cell_length_a   7.60040108
_cell_length_b   7.60040229
_cell_length_c   7.60040211
_cell_angle_alpha   109.46151721
_cell_angle_beta   109.46152887
_cell_angle_gamma   109.49062055
_symmetry_Int_Tables_number   1
_chemical_formula_structural   Yb4Sn5SbRh7
_chemical_formula_sum   'Yb4 Sn5 Sb1 Rh7'
_cell_volume   337.97744335
_cell_formula_units_Z   1
loop_
 _symmetry_equiv_pos_site_id
 _symmetry_equiv_pos_as_xyz
  1  'x, y, z'
loop_
 _atom_site_type_symbol
 _atom_site_label
 _atom_site_symmetry_multiplicity
 _atom_site_fract_x
 _atom_site_fract_y
 _atom_site_fract_z
 _atom_site_occupancy
  Yb  Yb0  1  0.499814  0.999090  0.000000  1
  Yb  Yb1  1  0.999090  0.499814  0.000000  1
  Yb  Yb2  1  0.999090  0.999090  0.499276  1
  Yb  Yb3  1  0.499814  0.499814  0.500724  1
  Sn  Sn4  1  0.317054  0.999196  0.317858  1
  Sn  Sn5  1  0.999196  0.681337  0.682142  1
  Sn  Sn6  1  0.685714  0.685714  0.000000  1
  Sn  Sn7  1  0.681337  0.999196  0.682142  1
  Sn  Sn8  1  0.999196  0.317054  0.317858  1
  Sb  Sb9  1  0.320399  0.320399  0.000000  1
  Rh  Rh10  1  0.250286  0.499552  0.750734  1
  Rh  Rh11  1  0.499552  0.250286  0.750734  1
  Rh  Rh12  1  0.749065  0.249065  0.500000  1
  Rh  Rh13  1  0.499552  0.748819  0.249266  1
  Rh  Rh14  1  0.002955  0.002955  0.000000  1
  Rh  Rh15  1  0.249065  0.749065  0.500000  1
  Rh  Rh16  1  0.748819  0.499552  0.249266  1
