# generated using pymatgen
data_Tb3Er4Co6Sn22Au
_symmetry_space_group_name_H-M   'P 1'
_cell_length_a   9.66567993
_cell_length_b   9.66379081
_cell_length_c   9.93296118
_cell_angle_alpha   90.00000219
_cell_angle_beta   90.04849115
_cell_angle_gamma   119.99353983
_symmetry_Int_Tables_number   1
_chemical_formula_structural   Tb3Er4Co6Sn22Au
_chemical_formula_sum   'Tb3 Er4 Co6 Sn22 Au1'
_cell_volume   803.55824282
_cell_formula_units_Z   1
loop_
 _symmetry_equiv_pos_site_id
 _symmetry_equiv_pos_as_xyz
  1  'x, y, z'
loop_
 _atom_site_type_symbol
 _atom_site_label
 _atom_site_symmetry_multiplicity
 _atom_site_fract_x
 _atom_site_fract_y
 _atom_site_fract_z
 _atom_site_occupancy
  Tb  Tb0  1  0.000000  0.000000  0.000000  1
  Tb  Tb1  1  0.042573  0.521286  0.306332  1
  Tb  Tb2  1  0.957427  0.478714  0.693668  1
  Er  Er3  1  0.479064  0.521121  0.306630  1
  Er  Er4  1  0.520936  0.478879  0.693370  1
  Er  Er5  1  0.479064  0.957943  0.306630  1
  Er  Er6  1  0.520936  0.042057  0.693370  1
  Co  Co7  1  0.831812  0.167666  0.196422  1
  Co  Co8  1  0.168188  0.832334  0.803578  1
  Co  Co9  1  0.831812  0.664146  0.196422  1
  Co  Co10  1  0.168188  0.335854  0.803578  1
  Co  Co11  1  0.336091  0.168045  0.196571  1
  Co  Co12  1  0.663909  0.831955  0.803429  1
  Sn  Sn13  1  0.346677  0.000134  0.999990  1
  Sn  Sn14  1  0.653323  0.999866  0.000010  1
  Sn  Sn15  1  0.000000  0.346544  0.000000  1
  Sn  Sn16  1  0.000000  0.653456  0.000000  1
  Sn  Sn17  1  0.653323  0.653457  0.000010  1
  Sn  Sn18  1  0.346677  0.346543  0.999990  1
  Sn  Sn19  1  0.333516  0.666759  0.816120  1
  Sn  Sn20  1  0.666484  0.333241  0.183880  1
  Sn  Sn21  1  0.782451  0.215529  0.452911  1
  Sn  Sn22  1  0.217549  0.784471  0.547089  1
  Sn  Sn23  1  0.782451  0.566922  0.452911  1
  Sn  Sn24  1  0.217549  0.433078  0.547089  1
  Sn  Sn25  1  0.433113  0.216556  0.453042  1
  Sn  Sn26  1  0.566887  0.783444  0.546958  1
  Sn  Sn27  1  0.334249  0.667125  0.118747  1
  Sn  Sn28  1  0.665751  0.332875  0.881253  1
  Sn  Sn29  1  0.113624  0.887048  0.278531  1
  Sn  Sn30  1  0.886376  0.112952  0.721469  1
  Sn  Sn31  1  0.113624  0.226578  0.278531  1
  Sn  Sn32  1  0.886376  0.773422  0.721469  1
  Sn  Sn33  1  0.772951  0.886476  0.278611  1
  Sn  Sn34  1  0.227049  0.113524  0.721389  1
  Au  Au35  1  0.000000  0.000000  0.500000  1
