# generated using pymatgen
data_Eu2VMoO8
_symmetry_space_group_name_H-M   'P 1'
_cell_length_a   6.29244127
_cell_length_b   6.29244066
_cell_length_c   6.29244057
_cell_angle_alpha   106.29350501
_cell_angle_beta   116.03270618
_cell_angle_gamma   106.29350548
_symmetry_Int_Tables_number   1
_chemical_formula_structural   Eu2VMoO8
_chemical_formula_sum   'Eu2 V1 Mo1 O8'
_cell_volume   189.88669573
_cell_formula_units_Z   1
loop_
 _symmetry_equiv_pos_site_id
 _symmetry_equiv_pos_as_xyz
  1  'x, y, z'
loop_
 _atom_site_type_symbol
 _atom_site_label
 _atom_site_symmetry_multiplicity
 _atom_site_fract_x
 _atom_site_fract_y
 _atom_site_fract_z
 _atom_site_occupancy
  Eu  Eu0  1  0.000000  0.000000  0.000000  1
  Eu  Eu1  1  0.250000  0.500000  0.750000  1
  V  V2  1  0.500000  0.000000  0.500000  1
  Mo  Mo3  1  0.750000  0.500000  0.250000  1
  O  O4  1  0.396025  0.315086  0.080939  1
  O  O5  1  0.765852  0.684914  0.080939  1
  O  O6  1  0.334382  0.819235  0.153617  1
  O  O7  1  0.919061  0.315086  0.234148  1
  O  O8  1  0.334382  0.180765  0.515147  1
  O  O9  1  0.919061  0.684914  0.603976  1
  O  O10  1  0.484853  0.819235  0.665618  1
  O  O11  1  0.846384  0.180765  0.665618  1
