# generated using pymatgen
data_Sc12Mo(PtBr8)2
_symmetry_space_group_name_H-M   'P 1'
_cell_length_a   9.00442389
_cell_length_b   11.13260380
_cell_length_c   11.75155937
_cell_angle_alpha   117.11426442
_cell_angle_beta   101.80219585
_cell_angle_gamma   101.36771510
_symmetry_Int_Tables_number   1
_chemical_formula_structural   Sc12Mo(PtBr8)2
_chemical_formula_sum   'Sc12 Mo1 Pt2 Br16'
_cell_volume   967.72069774
_cell_formula_units_Z   1
loop_
 _symmetry_equiv_pos_site_id
 _symmetry_equiv_pos_as_xyz
  1  'x, y, z'
loop_
 _atom_site_type_symbol
 _atom_site_label
 _atom_site_symmetry_multiplicity
 _atom_site_fract_x
 _atom_site_fract_y
 _atom_site_fract_z
 _atom_site_occupancy
  Sc  Sc0  1  0.081032  0.254134  0.348849  1
  Sc  Sc1  1  0.917279  0.747360  0.652095  1
  Sc  Sc2  1  0.773997  0.537883  0.316765  1
  Sc  Sc3  1  0.224539  0.462310  0.682336  1
  Sc  Sc4  1  0.284042  0.746839  0.651755  1
  Sc  Sc5  1  0.713332  0.251650  0.347352  1
  Sc  Sc6  1  0.141050  0.537528  0.318606  1
  Sc  Sc7  1  0.857472  0.462413  0.682111  1
  Sc  Sc8  1  0.396357  0.349767  0.260435  1
  Sc  Sc9  1  0.596186  0.649885  0.738981  1
  Sc  Sc10  1  0.452199  0.296905  0.521518  1
  Sc  Sc11  1  0.540728  0.703119  0.478343  1
  Mo  Mo12  1  0.330852  0.500056  0.499248  1
  Pt  Pt13  1  0.994404  0.500098  0.500182  1
  Pt  Pt14  1  0.658837  0.499836  0.500505  1
  Br  Br15  1  0.398668  0.745305  0.890221  1
  Br  Br16  1  0.603539  0.256470  0.112712  1
  Br  Br17  1  0.190344  0.972700  0.788131  1
  Br  Br18  1  0.805969  0.027202  0.212358  1
  Br  Br19  1  0.348336  0.088906  0.247220  1
  Br  Br20  1  0.673888  0.911292  0.753108  1
  Br  Br21  1  0.563172  0.437411  0.803232  1
  Br  Br22  1  0.456687  0.562308  0.196869  1
  Br  Br23  1  0.309605  0.831248  0.461586  1
  Br  Br24  1  0.692178  0.171535  0.538109  1
  Br  Br25  1  0.164574  0.166527  0.532834  1
  Br  Br26  1  0.835232  0.830899  0.467380  1
  Br  Br27  1  0.923188  0.577431  0.156207  1
  Br  Br28  1  0.072923  0.423005  0.844100  1
  Br  Br29  1  0.926026  0.741506  0.887067  1
  Br  Br30  1  0.073365  0.256472  0.109784  1
