# generated using pymatgen
data_Tb2Tm6Ga3Ir
_symmetry_space_group_name_H-M   'P 1'
_cell_length_a   9.94990900
_cell_length_b   9.93921205
_cell_length_c   7.02231320
_cell_angle_alpha   90.02411601
_cell_angle_beta   90.00000000
_cell_angle_gamma   120.03560470
_symmetry_Int_Tables_number   1
_chemical_formula_structural   Tb2Tm6Ga3Ir
_chemical_formula_sum   'Tb4 Tm12 Ga6 Ir2'
_cell_volume   601.20961084
_cell_formula_units_Z   2
loop_
 _symmetry_equiv_pos_site_id
 _symmetry_equiv_pos_as_xyz
  1  'x, y, z'
loop_
 _atom_site_type_symbol
 _atom_site_label
 _atom_site_symmetry_multiplicity
 _atom_site_fract_x
 _atom_site_fract_y
 _atom_site_fract_z
 _atom_site_occupancy
  Tb  Tb0  1  0.067299  0.533896  0.293909  1
  Tb  Tb1  1  0.466595  0.533896  0.293909  1
  Tb  Tb2  1  0.000104  0.000208  0.766836  1
  Tb  Tb3  1  0.999997  0.999993  0.266919  1
  Tm  Tm4  1  0.828487  0.656976  0.490648  1
  Tm  Tm5  1  0.343430  0.170980  0.489873  1
  Tm  Tm6  1  0.827548  0.170980  0.489873  1
  Tm  Tm7  1  0.171504  0.343007  0.987802  1
  Tm  Tm8  1  0.656713  0.828780  0.988333  1
  Tm  Tm9  1  0.172069  0.828780  0.988333  1
  Tm  Tm10  1  0.666259  0.332517  0.163055  1
  Tm  Tm11  1  0.333807  0.667614  0.663987  1
  Tm  Tm12  1  0.534792  0.069582  0.793807  1
  Tm  Tm13  1  0.929769  0.464915  0.793860  1
  Tm  Tm14  1  0.535148  0.464915  0.793860  1
  Tm  Tm15  1  0.465604  0.931210  0.293838  1
  Ga  Ga16  1  0.835806  0.671615  0.042660  1
  Ga  Ga17  1  0.328457  0.164224  0.043032  1
  Ga  Ga18  1  0.835764  0.164224  0.043032  1
  Ga  Ga19  1  0.163788  0.327574  0.544133  1
  Ga  Ga20  1  0.671943  0.836230  0.543581  1
  Ga  Ga21  1  0.164289  0.836230  0.543581  1
  Ir  Ir22  1  0.666625  0.333248  0.554603  1
  Ir  Ir23  1  0.334203  0.668406  0.052604  1
