# generated using pymatgen
data_Nd5CuBi3Au3O20
_symmetry_space_group_name_H-M   'P 1'
_cell_length_a   8.62303681
_cell_length_b   8.66480773
_cell_length_c   5.92469092
_cell_angle_alpha   88.94643033
_cell_angle_beta   91.52455077
_cell_angle_gamma   89.52932073
_symmetry_Int_Tables_number   1
_chemical_formula_structural   Nd5CuBi3Au3O20
_chemical_formula_sum   'Nd5 Cu1 Bi3 Au3 O20'
_cell_volume   442.42658241
_cell_formula_units_Z   1
loop_
 _symmetry_equiv_pos_site_id
 _symmetry_equiv_pos_as_xyz
  1  'x, y, z'
loop_
 _atom_site_type_symbol
 _atom_site_label
 _atom_site_symmetry_multiplicity
 _atom_site_fract_x
 _atom_site_fract_y
 _atom_site_fract_z
 _atom_site_occupancy
  Nd  Nd0  1  0.350736  0.658650  0.252138  1
  Nd  Nd1  1  0.849112  0.150551  0.743857  1
  Nd  Nd2  1  0.649337  0.651546  0.748050  1
  Nd  Nd3  1  0.647362  0.344914  0.252824  1
  Nd  Nd4  1  0.840581  0.852752  0.251863  1
  Cu  Cu5  1  0.493118  0.000114  0.401534  1
  Bi  Bi6  1  0.144817  0.843847  0.762441  1
  Bi  Bi7  1  0.358182  0.355460  0.749130  1
  Bi  Bi8  1  0.156751  0.141342  0.252304  1
  Au  Au9  1  0.501642  0.007460  0.901823  1
  Au  Au10  1  0.997329  0.489816  0.096908  1
  Au  Au11  1  0.006957  0.500249  0.595018  1
  O  O12  1  0.109718  0.291581  0.593044  1
  O  O13  1  0.912877  0.275314  0.123224  1
  O  O14  1  0.914635  0.714829  0.613495  1
  O  O15  1  0.716886  0.914252  0.888923  1
  O  O16  1  0.219448  0.588760  0.626277  1
  O  O17  1  0.410932  0.795621  0.898479  1
  O  O18  1  0.402869  0.195692  0.397473  1
  O  O19  1  0.782867  0.588113  0.110221  1
  O  O20  1  0.293600  0.925076  0.370898  1
  O  O21  1  0.586356  0.221435  0.876796  1
  O  O22  1  0.483763  0.499486  0.992518  1
  O  O23  1  0.494246  0.488301  0.503397  1
  O  O24  1  0.792381  0.409616  0.601206  1
  O  O25  1  0.087610  0.706092  0.096674  1
  O  O26  1  0.293518  0.107890  0.898597  1
  O  O27  1  0.576800  0.799340  0.397033  1
  O  O28  1  0.206354  0.385282  0.105897  1
  O  O29  1  0.017074  0.002869  0.007924  1
  O  O30  1  0.009142  0.011693  0.488841  1
  O  O31  1  0.692997  0.082058  0.401195  1
