# generated using pymatgen
data_Yb2Gd2HoIr2
_symmetry_space_group_name_H-M   'P 1'
_cell_length_a   6.52751455
_cell_length_b   7.26945946
_cell_length_c   8.50353600
_cell_angle_alpha   97.05319715
_cell_angle_beta   112.56999411
_cell_angle_gamma   90.00000185
_symmetry_Int_Tables_number   1
_chemical_formula_structural   Yb2Gd2HoIr2
_chemical_formula_sum   'Yb4 Gd4 Ho2 Ir4'
_cell_volume   369.29267029
_cell_formula_units_Z   2
loop_
 _symmetry_equiv_pos_site_id
 _symmetry_equiv_pos_as_xyz
  1  'x, y, z'
loop_
 _atom_site_type_symbol
 _atom_site_label
 _atom_site_symmetry_multiplicity
 _atom_site_fract_x
 _atom_site_fract_y
 _atom_site_fract_z
 _atom_site_occupancy
  Yb  Yb0  1  0.974087  0.920797  0.181810  1
  Yb  Yb1  1  0.792278  0.579203  0.818190  1
  Yb  Yb2  1  0.025913  0.079203  0.818190  1
  Yb  Yb3  1  0.207722  0.420797  0.181810  1
  Gd  Gd4  1  0.650349  0.817771  0.439289  1
  Gd  Gd5  1  0.211059  0.682229  0.560711  1
  Gd  Gd6  1  0.349651  0.182229  0.560711  1
  Gd  Gd7  1  0.788941  0.317771  0.439289  1
  Ho  Ho8  1  0.432104  0.750000  0.000000  1
  Ho  Ho9  1  0.567896  0.250000  0.000000  1
  Ir  Ir10  1  0.813778  0.571517  0.223990  1
  Ir  Ir11  1  0.589788  0.928483  0.776010  1
  Ir  Ir12  1  0.186222  0.428483  0.776010  1
  Ir  Ir13  1  0.410212  0.071517  0.223990  1
