# generated using pymatgen
data_Lu12Si11GeIr4
_symmetry_space_group_name_H-M   'P 1'
_cell_length_a   4.18805700
_cell_length_b   10.49511000
_cell_length_c   12.03246900
_cell_angle_alpha   89.99703010
_cell_angle_beta   90.00000000
_cell_angle_gamma   90.00000000
_symmetry_Int_Tables_number   1
_chemical_formula_structural   Lu12Si11GeIr4
_chemical_formula_sum   'Lu12 Si11 Ge1 Ir4'
_cell_volume   528.87657275
_cell_formula_units_Z   1
loop_
 _symmetry_equiv_pos_site_id
 _symmetry_equiv_pos_as_xyz
  1  'x, y, z'
loop_
 _atom_site_type_symbol
 _atom_site_label
 _atom_site_symmetry_multiplicity
 _atom_site_fract_x
 _atom_site_fract_y
 _atom_site_fract_z
 _atom_site_occupancy
  Lu  Lu0  1  0.250000  0.878202  0.019845  1
  Lu  Lu1  1  0.250000  0.620803  0.519891  1
  Lu  Lu2  1  0.750000  0.121919  0.980916  1
  Lu  Lu3  1  0.750000  0.378992  0.479771  1
  Lu  Lu4  1  0.250000  0.919061  0.602106  1
  Lu  Lu5  1  0.250000  0.580209  0.103160  1
  Lu  Lu6  1  0.750000  0.080415  0.397342  1
  Lu  Lu7  1  0.750000  0.420379  0.897553  1
  Lu  Lu8  1  0.250000  0.658644  0.800207  1
  Lu  Lu9  1  0.250000  0.841108  0.300337  1
  Lu  Lu10  1  0.750000  0.341058  0.200119  1
  Lu  Lu11  1  0.750000  0.160972  0.699048  1
  Si  Si12  1  0.250000  0.487296  0.321586  1
  Si  Si13  1  0.750000  0.987086  0.178410  1
  Si  Si14  1  0.750000  0.512543  0.678172  1
  Si  Si15  1  0.250000  0.253256  0.841695  1
  Si  Si16  1  0.250000  0.252149  0.341141  1
  Si  Si17  1  0.750000  0.752128  0.159046  1
  Si  Si18  1  0.750000  0.746557  0.657965  1
  Si  Si19  1  0.250000  0.197126  0.543769  1
  Si  Si20  1  0.250000  0.303231  0.044681  1
  Si  Si21  1  0.750000  0.802440  0.455446  1
  Si  Si22  1  0.750000  0.695996  0.956580  1
  Ge  Ge23  1  0.250000  0.015728  0.821099  1
  Ir  Ir24  1  0.250000  0.390649  0.678131  1
  Ir  Ir25  1  0.250000  0.109690  0.178396  1
  Ir  Ir26  1  0.750000  0.609468  0.321133  1
  Ir  Ir27  1  0.750000  0.882896  0.822454  1
