# generated using pymatgen
data_Y8ZnSi12PdPt2
_symmetry_space_group_name_H-M   'P 1'
_cell_length_a   8.13730700
_cell_length_b   8.13730625
_cell_length_c   8.18773600
_cell_angle_alpha   90.00000000
_cell_angle_beta   90.00000000
_cell_angle_gamma   119.99999899
_symmetry_Int_Tables_number   1
_chemical_formula_structural   Y8ZnSi12PdPt2
_chemical_formula_sum   'Y8 Zn1 Si12 Pd1 Pt2'
_cell_volume   469.52187336
_cell_formula_units_Z   1
loop_
 _symmetry_equiv_pos_site_id
 _symmetry_equiv_pos_as_xyz
  1  'x, y, z'
loop_
 _atom_site_type_symbol
 _atom_site_label
 _atom_site_symmetry_multiplicity
 _atom_site_fract_x
 _atom_site_fract_y
 _atom_site_fract_z
 _atom_site_occupancy
  Y  Y0  1  0.499841  0.999682  0.251045  1
  Y  Y1  1  0.500138  0.000276  0.749127  1
  Y  Y2  1  0.000318  0.500159  0.251045  1
  Y  Y3  1  0.999724  0.499862  0.749127  1
  Y  Y4  1  0.499841  0.500159  0.251045  1
  Y  Y5  1  0.500138  0.499862  0.749127  1
  Y  Y6  1  0.000000  0.000000  0.249283  1
  Y  Y7  1  0.000000  0.000000  0.749915  1
  Zn  Zn8  1  0.333333  0.666667  0.000989  1
  Si  Si9  1  0.165291  0.330581  0.998587  1
  Si  Si10  1  0.832932  0.665865  0.000630  1
  Si  Si11  1  0.669419  0.834709  0.998587  1
  Si  Si12  1  0.834114  0.668229  0.500002  1
  Si  Si13  1  0.334135  0.167068  0.000630  1
  Si  Si14  1  0.165815  0.331631  0.500148  1
  Si  Si15  1  0.165291  0.834709  0.998587  1
  Si  Si16  1  0.331771  0.165886  0.500002  1
  Si  Si17  1  0.832932  0.167068  0.000630  1
  Si  Si18  1  0.668369  0.834185  0.500148  1
  Si  Si19  1  0.834114  0.165886  0.500002  1
  Si  Si20  1  0.165815  0.834185  0.500148  1
  Pd  Pd21  1  0.666667  0.333333  0.001140  1
  Pt  Pt22  1  0.666667  0.333333  0.500217  1
  Pt  Pt23  1  0.333333  0.666667  0.499837  1
