# generated using pymatgen
data_Ti12Tc6Ir5Ru
_symmetry_space_group_name_H-M   'P 1'
_cell_length_a   4.38607200
_cell_length_b   6.20322600
_cell_length_c   13.18471100
_cell_angle_alpha   90.00000000
_cell_angle_beta   90.00010877
_cell_angle_gamma   90.00000000
_symmetry_Int_Tables_number   1
_chemical_formula_structural   Ti12Tc6Ir5Ru
_chemical_formula_sum   'Ti12 Tc6 Ir5 Ru1'
_cell_volume   358.72692547
_cell_formula_units_Z   1
loop_
 _symmetry_equiv_pos_site_id
 _symmetry_equiv_pos_as_xyz
  1  'x, y, z'
loop_
 _atom_site_type_symbol
 _atom_site_label
 _atom_site_symmetry_multiplicity
 _atom_site_fract_x
 _atom_site_fract_y
 _atom_site_fract_z
 _atom_site_occupancy
  Ti  Ti0  1  0.499987  0.248806  0.998175  1
  Ti  Ti1  1  0.499987  0.751193  0.998175  1
  Ti  Ti2  1  0.000037  0.249821  0.166326  1
  Ti  Ti3  1  0.000037  0.750178  0.166326  1
  Ti  Ti4  1  0.500045  0.250484  0.333334  1
  Ti  Ti5  1  0.500045  0.749516  0.333334  1
  Ti  Ti6  1  0.999998  0.249822  0.500343  1
  Ti  Ti7  1  0.999998  0.750179  0.500343  1
  Ti  Ti8  1  0.499939  0.248806  0.668485  1
  Ti  Ti9  1  0.499939  0.751194  0.668485  1
  Ti  Ti10  1  0.999934  0.246727  0.833329  1
  Ti  Ti11  1  0.999934  0.753272  0.833329  1
  Tc  Tc12  1  0.999990  0.000000  0.001124  1
  Tc  Tc13  1  0.500037  0.500000  0.166919  1
  Tc  Tc14  1  0.000040  0.000000  0.333340  1
  Tc  Tc15  1  0.500001  0.500000  0.499738  1
  Tc  Tc16  1  0.999948  0.000000  0.665538  1
  Tc  Tc17  1  0.499941  0.500000  0.833336  1
  Ir  Ir18  1  0.999989  0.500000  0.000225  1
  Ir  Ir19  1  0.500040  0.000000  0.167175  1
  Ir  Ir20  1  0.000047  0.500000  0.333338  1
  Ir  Ir21  1  0.499999  0.000000  0.499487  1
  Ir  Ir22  1  0.999941  0.500000  0.666437  1
  Ru  Ru23  1  0.499944  0.000000  0.833364  1
