# generated using pymatgen
data_Ca20Al2Zn8CdGa
_symmetry_space_group_name_H-M   'P 1'
_cell_length_a   8.00033200
_cell_length_b   8.00033200
_cell_length_c   14.95993400
_cell_angle_alpha   90.00000000
_cell_angle_beta   90.00000000
_cell_angle_gamma   90.00000000
_symmetry_Int_Tables_number   1
_chemical_formula_structural   Ca20Al2Zn8CdGa
_chemical_formula_sum   'Ca20 Al2 Zn8 Cd1 Ga1'
_cell_volume   957.51524482
_cell_formula_units_Z   1
loop_
 _symmetry_equiv_pos_site_id
 _symmetry_equiv_pos_as_xyz
  1  'x, y, z'
loop_
 _atom_site_type_symbol
 _atom_site_label
 _atom_site_symmetry_multiplicity
 _atom_site_fract_x
 _atom_site_fract_y
 _atom_site_fract_z
 _atom_site_occupancy
  Ca  Ca0  1  0.676785  0.164119  0.101928  1
  Ca  Ca1  1  0.171516  0.672054  0.603496  1
  Ca  Ca2  1  0.323215  0.835881  0.101928  1
  Ca  Ca3  1  0.828484  0.327946  0.603496  1
  Ca  Ca4  1  0.835881  0.676785  0.101928  1
  Ca  Ca5  1  0.327946  0.171516  0.603496  1
  Ca  Ca6  1  0.164119  0.323215  0.101928  1
  Ca  Ca7  1  0.672054  0.828484  0.603496  1
  Ca  Ca8  1  0.835881  0.323215  0.898072  1
  Ca  Ca9  1  0.327946  0.828484  0.396504  1
  Ca  Ca10  1  0.164119  0.676785  0.898072  1
  Ca  Ca11  1  0.672054  0.171516  0.396504  1
  Ca  Ca12  1  0.676785  0.835881  0.898072  1
  Ca  Ca13  1  0.171516  0.327946  0.396504  1
  Ca  Ca14  1  0.323215  0.164119  0.898072  1
  Ca  Ca15  1  0.828484  0.672054  0.396504  1
  Ca  Ca16  1  0.500000  0.500000  0.754148  1
  Ca  Ca17  1  0.000000  0.000000  0.250617  1
  Ca  Ca18  1  0.000000  0.000000  0.749383  1
  Ca  Ca19  1  0.500000  0.500000  0.245852  1
  Al  Al20  1  0.500000  0.500000  0.500000  1
  Al  Al21  1  0.000000  0.000000  0.500000  1
  Zn  Zn22  1  0.616319  0.117427  0.751592  1
  Zn  Zn23  1  0.117427  0.616319  0.248408  1
  Zn  Zn24  1  0.882573  0.383681  0.248408  1
  Zn  Zn25  1  0.383681  0.882573  0.751592  1
  Zn  Zn26  1  0.882573  0.616319  0.751592  1
  Zn  Zn27  1  0.383681  0.117427  0.248408  1
  Zn  Zn28  1  0.117427  0.383681  0.751592  1
  Zn  Zn29  1  0.616319  0.882573  0.248408  1
  Cd  Cd30  1  0.500000  0.500000  0.000000  1
  Ga  Ga31  1  0.000000  0.000000  0.000000  1
