# generated using pymatgen
data_Tm8TiTc11Ge16
_symmetry_space_group_name_H-M   'P 1'
_cell_length_a   6.92917359
_cell_length_b   6.93139051
_cell_length_c   12.88718098
_cell_angle_alpha   90.28568635
_cell_angle_beta   89.88786887
_cell_angle_gamma   89.77771149
_symmetry_Int_Tables_number   1
_chemical_formula_structural   Tm8TiTc11Ge16
_chemical_formula_sum   'Tm8 Ti1 Tc11 Ge16'
_cell_volume   618.94238047
_cell_formula_units_Z   1
loop_
 _symmetry_equiv_pos_site_id
 _symmetry_equiv_pos_as_xyz
  1  'x, y, z'
loop_
 _atom_site_type_symbol
 _atom_site_label
 _atom_site_symmetry_multiplicity
 _atom_site_fract_x
 _atom_site_fract_y
 _atom_site_fract_z
 _atom_site_occupancy
  Tm  Tm0  1  0.013341  0.660139  0.030062  1
  Tm  Tm1  1  0.996249  0.338966  0.526193  1
  Tm  Tm2  1  0.664033  0.004320  0.973803  1
  Tm  Tm3  1  0.160533  0.496755  0.776801  1
  Tm  Tm4  1  0.842631  0.506499  0.277744  1
  Tm  Tm5  1  0.496217  0.158972  0.223228  1
  Tm  Tm6  1  0.508288  0.836382  0.719711  1
  Tm  Tm7  1  0.341167  0.992557  0.471426  1
  Ti  Ti8  1  0.673676  0.493290  0.872287  1
  Tc  Tc9  1  0.307406  0.471653  0.382115  1
  Tc  Tc10  1  0.810971  0.021807  0.372801  1
  Tc  Tc11  1  0.990043  0.182549  0.128819  1
  Tc  Tc12  1  0.018011  0.818207  0.627669  1
  Tc  Tc13  1  0.474048  0.320823  0.625618  1
  Tc  Tc14  1  0.177661  0.987998  0.874955  1
  Tc  Tc15  1  0.666019  0.665545  0.497823  1
  Tc  Tc16  1  0.834171  0.170704  0.751708  1
  Tc  Tc17  1  0.164402  0.832139  0.250700  1
  Tc  Tc18  1  0.340816  0.337748  0.998878  1
  Tc  Tc19  1  0.528301  0.695094  0.117899  1
  Ge  Ge20  1  0.018294  0.726129  0.434209  1
  Ge  Ge21  1  0.981504  0.282439  0.935144  1
  Ge  Ge22  1  0.722232  0.023896  0.566313  1
  Ge  Ge23  1  0.235225  0.482183  0.185662  1
  Ge  Ge24  1  0.777176  0.524783  0.678168  1
  Ge  Ge25  1  0.464745  0.207768  0.816897  1
  Ge  Ge26  1  0.516244  0.768251  0.314060  1
  Ge  Ge27  1  0.281778  0.980085  0.065995  1
  Ge  Ge28  1  0.813587  0.886765  0.183318  1
  Ge  Ge29  1  0.308077  0.617957  0.568060  1
  Ge  Ge30  1  0.694349  0.387438  0.070258  1
  Ge  Ge31  1  0.614025  0.312750  0.432724  1
  Ge  Ge32  1  0.384609  0.696015  0.928814  1
  Ge  Ge33  1  0.112962  0.186160  0.318100  1
  Ge  Ge34  1  0.186617  0.115361  0.683672  1
  Ge  Ge35  1  0.880594  0.809876  0.818364  1
