# generated using pymatgen
data_TbSc2SbO7
_symmetry_space_group_name_H-M   'P 1'
_cell_length_a   6.24156605
_cell_length_b   6.24156665
_cell_length_c   7.35592800
_cell_angle_alpha   90.00000000
_cell_angle_beta   90.00000000
_cell_angle_gamma   109.39675568
_symmetry_Int_Tables_number   1
_chemical_formula_structural   TbSc2SbO7
_chemical_formula_sum   'Tb2 Sc4 Sb2 O14'
_cell_volume   270.30092814
_cell_formula_units_Z   2
loop_
 _symmetry_equiv_pos_site_id
 _symmetry_equiv_pos_as_xyz
  1  'x, y, z'
loop_
 _atom_site_type_symbol
 _atom_site_label
 _atom_site_symmetry_multiplicity
 _atom_site_fract_x
 _atom_site_fract_y
 _atom_site_fract_z
 _atom_site_occupancy
  Tb  Tb0  1  0.500000  0.500000  0.500000  1
  Tb  Tb1  1  0.500000  0.500000  0.000000  1
  Sc  Sc2  1  0.527867  0.004228  0.750000  1
  Sc  Sc3  1  0.004228  0.527867  0.250000  1
  Sc  Sc4  1  0.472133  0.995772  0.250000  1
  Sc  Sc5  1  0.995772  0.472133  0.750000  1
  Sb  Sb6  1  0.000000  0.000000  0.500000  1
  Sb  Sb7  1  0.000000  0.000000  0.000000  1
  O  O8  1  0.668116  0.926201  0.466300  1
  O  O9  1  0.926201  0.668116  0.533700  1
  O  O10  1  0.668116  0.926201  0.033700  1
  O  O11  1  0.926201  0.668116  0.966300  1
  O  O12  1  0.331884  0.073799  0.533700  1
  O  O13  1  0.073799  0.331884  0.466300  1
  O  O14  1  0.331884  0.073799  0.966300  1
  O  O15  1  0.073799  0.331884  0.033700  1
  O  O16  1  0.922652  0.077348  0.750000  1
  O  O17  1  0.077348  0.922652  0.250000  1
  O  O18  1  0.359545  0.640455  0.750000  1
  O  O19  1  0.640455  0.359545  0.250000  1
  O  O20  1  0.648506  0.351494  0.750000  1
  O  O21  1  0.351494  0.648506  0.250000  1
