# generated using pymatgen
data_Sm2Hg3(SCl4)2
_symmetry_space_group_name_H-M   'P 1'
_cell_length_a   7.61047019
_cell_length_b   7.61047069
_cell_length_c   9.76787678
_cell_angle_alpha   64.58191806
_cell_angle_beta   64.58191810
_cell_angle_gamma   58.76660281
_symmetry_Int_Tables_number   1
_chemical_formula_structural   Sm2Hg3(SCl4)2
_chemical_formula_sum   'Sm2 Hg3 S2 Cl8'
_cell_volume   420.98936060
_cell_formula_units_Z   1
loop_
 _symmetry_equiv_pos_site_id
 _symmetry_equiv_pos_as_xyz
  1  'x, y, z'
loop_
 _atom_site_type_symbol
 _atom_site_label
 _atom_site_symmetry_multiplicity
 _atom_site_fract_x
 _atom_site_fract_y
 _atom_site_fract_z
 _atom_site_occupancy
  Sm  Sm0  1  0.138412  0.138412  0.549244  1
  Sm  Sm1  1  0.861588  0.861588  0.450756  1
  Hg  Hg2  1  0.000000  0.500000  0.000000  1
  Hg  Hg3  1  0.500000  0.000000  0.000000  1
  Hg  Hg4  1  0.500000  0.500000  0.000000  1
  S  S5  1  0.618275  0.618275  0.125213  1
  S  S6  1  0.381725  0.381725  0.874787  1
  Cl  Cl7  1  0.230814  0.769186  0.500000  1
  Cl  Cl8  1  0.769186  0.230814  0.500000  1
  Cl  Cl9  1  0.931291  0.472008  0.693502  1
  Cl  Cl10  1  0.472008  0.931291  0.693502  1
  Cl  Cl11  1  0.068709  0.527992  0.306498  1
  Cl  Cl12  1  0.527992  0.068709  0.306498  1
  Cl  Cl13  1  0.954045  0.954045  0.849025  1
  Cl  Cl14  1  0.045955  0.045955  0.150975  1
