# generated using pymatgen
data_Nd3SnIr(PtPb)2
_symmetry_space_group_name_H-M   'P 1'
_cell_length_a   7.75790619
_cell_length_b   7.75790517
_cell_length_c   4.13213000
_cell_angle_alpha   90.00000000
_cell_angle_beta   90.00000000
_cell_angle_gamma   120.21916644
_symmetry_Int_Tables_number   1
_chemical_formula_structural   Nd3SnIr(PtPb)2
_chemical_formula_sum   'Nd3 Sn1 Ir1 Pt2 Pb2'
_cell_volume   214.89693970
_cell_formula_units_Z   1
loop_
 _symmetry_equiv_pos_site_id
 _symmetry_equiv_pos_as_xyz
  1  'x, y, z'
loop_
 _atom_site_type_symbol
 _atom_site_label
 _atom_site_symmetry_multiplicity
 _atom_site_fract_x
 _atom_site_fract_y
 _atom_site_fract_z
 _atom_site_occupancy
  Nd  Nd0  1  0.592900  0.997041  0.000000  1
  Nd  Nd1  1  0.997041  0.592900  0.000000  1
  Nd  Nd2  1  0.409185  0.409185  0.000000  1
  Sn  Sn3  1  0.748242  0.748242  0.500000  1
  Ir  Ir4  1  0.985695  0.985695  0.000000  1
  Pt  Pt5  1  0.344785  0.669407  0.500000  1
  Pt  Pt6  1  0.669407  0.344785  0.500000  1
  Pb  Pb7  1  0.253406  0.999339  0.500000  1
  Pb  Pb8  1  0.999339  0.253406  0.500000  1
