# generated using pymatgen
data_Tb3Er4Co4Tc2Sn23
_symmetry_space_group_name_H-M   'P 1'
_cell_length_a   9.74024758
_cell_length_b   9.74024861
_cell_length_c   9.99458319
_cell_angle_alpha   89.79685928
_cell_angle_beta   90.20314126
_cell_angle_gamma   119.38882390
_symmetry_Int_Tables_number   1
_chemical_formula_structural   Tb3Er4Co4Tc2Sn23
_chemical_formula_sum   'Tb3 Er4 Co4 Tc2 Sn23'
_cell_volume   826.17783123
_cell_formula_units_Z   1
loop_
 _symmetry_equiv_pos_site_id
 _symmetry_equiv_pos_as_xyz
  1  'x, y, z'
loop_
 _atom_site_type_symbol
 _atom_site_label
 _atom_site_symmetry_multiplicity
 _atom_site_fract_x
 _atom_site_fract_y
 _atom_site_fract_z
 _atom_site_occupancy
  Tb  Tb0  1  0.481481  0.518519  0.307151  1
  Tb  Tb1  1  0.518519  0.481481  0.692849  1
  Tb  Tb2  1  0.000000  0.000000  0.000000  1
  Er  Er3  1  0.484409  0.962612  0.305238  1
  Er  Er4  1  0.515591  0.037388  0.694762  1
  Er  Er5  1  0.037388  0.515591  0.305238  1
  Er  Er6  1  0.962612  0.484409  0.694762  1
  Co  Co7  1  0.830554  0.658399  0.198541  1
  Co  Co8  1  0.169446  0.341601  0.801459  1
  Co  Co9  1  0.341601  0.169446  0.198541  1
  Co  Co10  1  0.658399  0.830554  0.801459  1
  Tc  Tc11  1  0.835494  0.164506  0.203894  1
  Tc  Tc12  1  0.164506  0.835494  0.796106  1
  Sn  Sn13  1  0.118384  0.881616  0.272754  1
  Sn  Sn14  1  0.881616  0.118384  0.727246  1
  Sn  Sn15  1  0.129558  0.239571  0.270572  1
  Sn  Sn16  1  0.870442  0.760429  0.729428  1
  Sn  Sn17  1  0.760429  0.870442  0.270572  1
  Sn  Sn18  1  0.239571  0.129558  0.729428  1
  Sn  Sn19  1  0.779951  0.220049  0.461299  1
  Sn  Sn20  1  0.220049  0.779951  0.538701  1
  Sn  Sn21  1  0.782965  0.563190  0.453954  1
  Sn  Sn22  1  0.217035  0.436810  0.546046  1
  Sn  Sn23  1  0.436810  0.217035  0.453954  1
  Sn  Sn24  1  0.563190  0.782965  0.546046  1
  Sn  Sn25  1  0.347707  0.000790  0.003761  1
  Sn  Sn26  1  0.652293  0.999210  0.996239  1
  Sn  Sn27  1  0.000790  0.347707  0.996239  1
  Sn  Sn28  1  0.999210  0.652293  0.003761  1
  Sn  Sn29  1  0.651297  0.651297  0.000000  1
  Sn  Sn30  1  0.348703  0.348703  0.000000  1
  Sn  Sn31  1  0.332592  0.667408  0.122678  1
  Sn  Sn32  1  0.667408  0.332592  0.877322  1
  Sn  Sn33  1  0.332703  0.667297  0.818194  1
  Sn  Sn34  1  0.667297  0.332703  0.181806  1
  Sn  Sn35  1  0.000000  0.000000  0.500000  1
