# generated using pymatgen
data_KAlSiSe4
_symmetry_space_group_name_H-M   'P 1'
_cell_length_a   16.81697700
_cell_length_b   7.22645001
_cell_length_c   7.60729789
_cell_angle_alpha   69.48425359
_cell_angle_beta   90.00000000
_cell_angle_gamma   90.00000000
_symmetry_Int_Tables_number   1
_chemical_formula_structural   KAlSiSe4
_chemical_formula_sum   'K4 Al4 Si4 Se16'
_cell_volume   865.85732945
_cell_formula_units_Z   4
loop_
 _symmetry_equiv_pos_site_id
 _symmetry_equiv_pos_as_xyz
  1  'x, y, z'
loop_
 _atom_site_type_symbol
 _atom_site_label
 _atom_site_symmetry_multiplicity
 _atom_site_fract_x
 _atom_site_fract_y
 _atom_site_fract_z
 _atom_site_occupancy
  K  K0  1  0.394425  0.972333  0.182913  1
  K  K1  1  0.894425  0.027667  0.817087  1
  K  K2  1  0.604095  0.515432  0.815694  1
  K  K3  1  0.104095  0.484568  0.184306  1
  Al  Al4  1  0.582253  0.165923  0.476131  1
  Al  Al5  1  0.082253  0.834077  0.523869  1
  Al  Al6  1  0.273769  0.592402  0.708716  1
  Al  Al7  1  0.773769  0.407598  0.291284  1
  Si  Si8  1  0.421094  0.329742  0.533411  1
  Si  Si9  1  0.921094  0.670258  0.466589  1
  Si  Si10  1  0.725471  0.911147  0.269679  1
  Si  Si11  1  0.225471  0.088853  0.730321  1
  Se  Se12  1  0.596823  0.883410  0.377000  1
  Se  Se13  1  0.096823  0.116590  0.623000  1
  Se  Se14  1  0.412906  0.603048  0.620362  1
  Se  Se15  1  0.912906  0.396952  0.379638  1
  Se  Se16  1  0.800404  0.778385  0.543606  1
  Se  Se17  1  0.300404  0.221615  0.456394  1
  Se  Se18  1  0.201160  0.726460  0.426428  1
  Se  Se19  1  0.701160  0.273540  0.573572  1
  Se  Se20  1  0.763163  0.222617  0.079713  1
  Se  Se21  1  0.263163  0.777383  0.920287  1
  Se  Se22  1  0.237843  0.266513  0.926645  1
  Se  Se23  1  0.737843  0.733487  0.073355  1
  Se  Se24  1  0.994330  0.912557  0.251584  1
  Se  Se25  1  0.494330  0.087443  0.748416  1
  Se  Se26  1  0.992262  0.598224  0.740963  1
  Se  Se27  1  0.492262  0.401776  0.259037  1
