# generated using pymatgen
data_TlHgPdF6
_symmetry_space_group_name_H-M   'P 1'
_cell_length_a   8.24182900
_cell_length_b   7.49217200
_cell_length_c   10.33366900
_cell_angle_alpha   90.00000000
_cell_angle_beta   90.00000000
_cell_angle_gamma   90.00000000
_symmetry_Int_Tables_number   1
_chemical_formula_structural   TlHgPdF6
_chemical_formula_sum   'Tl4 Hg4 Pd4 F24'
_cell_volume   638.09579860
_cell_formula_units_Z   4
loop_
 _symmetry_equiv_pos_site_id
 _symmetry_equiv_pos_as_xyz
  1  'x, y, z'
loop_
 _atom_site_type_symbol
 _atom_site_label
 _atom_site_symmetry_multiplicity
 _atom_site_fract_x
 _atom_site_fract_y
 _atom_site_fract_z
 _atom_site_occupancy
  Tl  Tl0  1  0.485259  0.249998  0.101612  1
  Tl  Tl1  1  0.014742  0.750001  0.601613  1
  Tl  Tl2  1  0.985259  0.249998  0.398387  1
  Tl  Tl3  1  0.514741  0.750001  0.898387  1
  Hg  Hg4  1  0.000000  0.000000  0.000000  1
  Hg  Hg5  1  0.500000  0.000000  0.499999  1
  Hg  Hg6  1  0.500000  0.499999  0.499999  1
  Hg  Hg7  1  0.000000  0.499999  0.000000  1
  Pd  Pd8  1  0.258369  0.249998  0.752870  1
  Pd  Pd9  1  0.241630  0.750001  0.252869  1
  Pd  Pd10  1  0.758369  0.249998  0.747131  1
  Pd  Pd11  1  0.741630  0.750001  0.247131  1
  F  F12  1  0.007292  0.249998  0.809184  1
  F  F13  1  0.492708  0.750001  0.309185  1
  F  F14  1  0.507292  0.249998  0.690816  1
  F  F15  1  0.992710  0.750001  0.190815  1
  F  F16  1  0.997472  0.249998  0.115338  1
  F  F17  1  0.502528  0.750001  0.615337  1
  F  F18  1  0.497472  0.249998  0.384662  1
  F  F19  1  0.002527  0.750001  0.884662  1
  F  F20  1  0.231968  0.060412  0.620261  1
  F  F21  1  0.268031  0.939586  0.120260  1
  F  F22  1  0.731968  0.439587  0.879740  1
  F  F23  1  0.768031  0.560412  0.379741  1
  F  F24  1  0.768031  0.939586  0.379741  1
  F  F25  1  0.731968  0.060412  0.879740  1
  F  F26  1  0.268031  0.560412  0.120260  1
  F  F27  1  0.231968  0.439587  0.620261  1
  F  F28  1  0.282935  0.062796  0.886851  1
  F  F29  1  0.217065  0.937205  0.386851  1
  F  F30  1  0.782934  0.437207  0.613149  1
  F  F31  1  0.717065  0.562795  0.113148  1
  F  F32  1  0.717065  0.937205  0.113148  1
  F  F33  1  0.782934  0.062796  0.613149  1
  F  F34  1  0.217065  0.562795  0.386851  1
  F  F35  1  0.282935  0.437207  0.886851  1
