# generated using pymatgen
data_Li3CoNi8As7Rh2
_symmetry_space_group_name_H-M   'P 1'
_cell_length_a   9.45678236
_cell_length_b   9.48432388
_cell_length_c   3.72091500
_cell_angle_alpha   90.00000000
_cell_angle_beta   90.00000000
_cell_angle_gamma   119.95498684
_symmetry_Int_Tables_number   1
_chemical_formula_structural   Li3CoNi8As7Rh2
_chemical_formula_sum   'Li3 Co1 Ni8 As7 Rh2'
_cell_volume   289.15250662
_cell_formula_units_Z   1
loop_
 _symmetry_equiv_pos_site_id
 _symmetry_equiv_pos_as_xyz
  1  'x, y, z'
loop_
 _atom_site_type_symbol
 _atom_site_label
 _atom_site_symmetry_multiplicity
 _atom_site_fract_x
 _atom_site_fract_y
 _atom_site_fract_z
 _atom_site_occupancy
  Li  Li0  1  0.786792  0.233215  0.500000  1
  Li  Li1  1  0.331473  0.666370  0.000000  1
  Li  Li2  1  0.994954  0.999605  0.500000  1
  Co  Co3  1  0.499549  0.453766  0.000000  1
  Ni  Ni4  1  0.280732  0.382486  0.500000  1
  Ni  Ni5  1  0.621762  0.901211  0.500000  1
  Ni  Ni6  1  0.103089  0.720556  0.500000  1
  Ni  Ni7  1  0.552281  0.051043  0.000000  1
  Ni  Ni8  1  0.948722  0.495341  0.000000  1
  Ni  Ni9  1  0.724195  0.765930  0.000000  1
  Ni  Ni10  1  0.236192  0.956867  0.000000  1
  Ni  Ni11  1  0.046948  0.283746  0.000000  1
  As  As12  1  0.961467  0.754068  0.000000  1
  As  As13  1  0.247375  0.208288  0.000000  1
  As  As14  1  0.796813  0.036794  0.000000  1
  As  As15  1  0.660661  0.336161  0.000000  1
  As  As16  1  0.538920  0.622277  0.500000  1
  As  As17  1  0.377203  0.914000  0.500000  1
  As  As18  1  0.086958  0.462892  0.500000  1
  Rh  Rh19  1  0.760352  0.551637  0.500000  1
  Rh  Rh20  1  0.443565  0.203745  0.500000  1
