# generated using pymatgen
data_Ho11Er5Cd4Co3Ni
_symmetry_space_group_name_H-M   'P 1'
_cell_length_a   9.44049931
_cell_length_b   9.46501352
_cell_length_c   9.45451965
_cell_angle_alpha   59.96328241
_cell_angle_beta   59.88437965
_cell_angle_gamma   59.91406577
_symmetry_Int_Tables_number   1
_chemical_formula_structural   Ho11Er5Cd4Co3Ni
_chemical_formula_sum   'Ho11 Er5 Cd4 Co3 Ni1'
_cell_volume   596.28942221
_cell_formula_units_Z   1
loop_
 _symmetry_equiv_pos_site_id
 _symmetry_equiv_pos_as_xyz
  1  'x, y, z'
loop_
 _atom_site_type_symbol
 _atom_site_label
 _atom_site_symmetry_multiplicity
 _atom_site_fract_x
 _atom_site_fract_y
 _atom_site_fract_z
 _atom_site_occupancy
  Ho  Ho0  1  0.344728  0.346885  0.348332  1
  Ho  Ho1  1  0.561349  0.936971  0.938404  1
  Ho  Ho2  1  0.562056  0.937397  0.563151  1
  Ho  Ho3  1  0.187037  0.811935  0.810871  1
  Ho  Ho4  1  0.187037  0.190157  0.810871  1
  Ho  Ho5  1  0.345325  0.348057  0.958563  1
  Ho  Ho6  1  0.344728  0.960057  0.348332  1
  Ho  Ho7  1  0.815125  0.188227  0.808421  1
  Ho  Ho8  1  0.561349  0.563277  0.938404  1
  Ho  Ho9  1  0.187740  0.811480  0.189299  1
  Ho  Ho10  1  0.959859  0.346575  0.346993  1
  Er  Er11  1  0.937706  0.937145  0.562368  1
  Er  Er12  1  0.814211  0.189110  0.187684  1
  Er  Er13  1  0.937706  0.562782  0.562368  1
  Er  Er14  1  0.937245  0.562266  0.938222  1
  Er  Er15  1  0.814211  0.808994  0.187684  1
  Cd  Cd16  1  0.581415  0.580665  0.257256  1
  Cd  Cd17  1  0.255463  0.581514  0.581511  1
  Cd  Cd18  1  0.580723  0.580412  0.579888  1
  Cd  Cd19  1  0.580723  0.258978  0.579888  1
  Co  Co20  1  0.142126  0.140671  0.142151  1
  Co  Co21  1  0.142126  0.575054  0.142151  1
  Co  Co22  1  0.142407  0.141019  0.575558  1
  Ni  Ni23  1  0.577609  0.140378  0.141636  1
