# generated using pymatgen
data_La23Cd4Co7
_symmetry_space_group_name_H-M   'P 1'
_cell_length_a   10.09568200
_cell_length_b   10.09568193
_cell_length_c   22.91171500
_cell_angle_alpha   90.00000000
_cell_angle_beta   90.00000000
_cell_angle_gamma   120.00000023
_symmetry_Int_Tables_number   1
_chemical_formula_structural   La23Cd4Co7
_chemical_formula_sum   'La46 Cd8 Co14'
_cell_volume   2022.36504873
_cell_formula_units_Z   2
loop_
 _symmetry_equiv_pos_site_id
 _symmetry_equiv_pos_as_xyz
  1  'x, y, z'
loop_
 _atom_site_type_symbol
 _atom_site_label
 _atom_site_symmetry_multiplicity
 _atom_site_fract_x
 _atom_site_fract_y
 _atom_site_fract_z
 _atom_site_occupancy
  La  La0  1  0.206998  0.413995  0.719513  1
  La  La1  1  0.206998  0.793002  0.719513  1
  La  La2  1  0.793002  0.586005  0.219513  1
  La  La3  1  0.586005  0.793002  0.719513  1
  La  La4  1  0.793002  0.206998  0.219513  1
  La  La5  1  0.413995  0.206998  0.219513  1
  La  La6  1  0.792798  0.585597  0.949672  1
  La  La7  1  0.792798  0.207202  0.949672  1
  La  La8  1  0.207202  0.414403  0.449672  1
  La  La9  1  0.414403  0.207202  0.949672  1
  La  La10  1  0.207202  0.792798  0.449672  1
  La  La11  1  0.585597  0.792798  0.449672  1
  La  La12  1  0.208012  0.416024  0.990253  1
  La  La13  1  0.208012  0.791988  0.990253  1
  La  La14  1  0.791988  0.583976  0.490253  1
  La  La15  1  0.583976  0.791988  0.990253  1
  La  La16  1  0.791988  0.208012  0.490253  1
  La  La17  1  0.416024  0.208012  0.490253  1
  La  La18  1  0.874502  0.749004  0.630978  1
  La  La19  1  0.874502  0.125498  0.630978  1
  La  La20  1  0.125498  0.250996  0.130978  1
  La  La21  1  0.250996  0.125498  0.630978  1
  La  La22  1  0.125498  0.874502  0.130978  1
  La  La23  1  0.749004  0.874502  0.130978  1
  La  La24  1  0.461958  0.923914  0.854731  1
  La  La25  1  0.461958  0.538042  0.854731  1
  La  La26  1  0.538042  0.076086  0.354731  1
  La  La27  1  0.076086  0.538042  0.854731  1
  La  La28  1  0.538042  0.461958  0.354731  1
  La  La29  1  0.923914  0.461958  0.354731  1
  La  La30  1  0.000000  0.000000  0.000891  1
  La  La31  1  0.000000  0.000000  0.500891  1
  La  La32  1  0.459624  0.919247  0.587095  1
  La  La33  1  0.459624  0.540376  0.587095  1
  La  La34  1  0.540376  0.080753  0.087095  1
  La  La35  1  0.080753  0.540376  0.587095  1
  La  La36  1  0.540376  0.459624  0.087095  1
  La  La37  1  0.919247  0.459624  0.087095  1
  La  La38  1  0.794844  0.589689  0.780412  1
  La  La39  1  0.794844  0.205156  0.780412  1
  La  La40  1  0.205156  0.410311  0.280412  1
  La  La41  1  0.410311  0.205156  0.780412  1
  La  La42  1  0.205156  0.794844  0.280412  1
  La  La43  1  0.589689  0.794844  0.280412  1
  La  La44  1  0.666667  0.333333  0.650121  1
  La  La45  1  0.333333  0.666667  0.150121  1
  Cd  Cd46  1  0.000000  0.000000  0.748676  1
  Cd  Cd47  1  0.000000  0.000000  0.248676  1
  Cd  Cd48  1  0.105548  0.211095  0.862687  1
  Cd  Cd49  1  0.105548  0.894452  0.862687  1
  Cd  Cd50  1  0.894452  0.788905  0.362687  1
  Cd  Cd51  1  0.788905  0.894452  0.862687  1
  Cd  Cd52  1  0.894452  0.105548  0.362687  1
  Cd  Cd53  1  0.211095  0.105548  0.362687  1
  Co  Co54  1  0.516594  0.033186  0.714444  1
  Co  Co55  1  0.516594  0.483406  0.714444  1
  Co  Co56  1  0.483406  0.966814  0.214444  1
  Co  Co57  1  0.966814  0.483406  0.714444  1
  Co  Co58  1  0.483406  0.516594  0.214444  1
  Co  Co59  1  0.033186  0.516594  0.214444  1
  Co  Co60  1  0.666667  0.333333  0.869465  1
  Co  Co61  1  0.333333  0.666667  0.369465  1
  Co  Co62  1  0.145293  0.290585  0.559404  1
  Co  Co63  1  0.145293  0.854707  0.559404  1
  Co  Co64  1  0.854707  0.709415  0.059404  1
  Co  Co65  1  0.709415  0.854707  0.559404  1
  Co  Co66  1  0.854707  0.145293  0.059404  1
  Co  Co67  1  0.290585  0.145293  0.059404  1
