# generated using pymatgen
data_Hf8Co2TcPt
_symmetry_space_group_name_H-M   'P 1'
_cell_length_a   8.61904254
_cell_length_b   8.61904182
_cell_length_c   8.59711900
_cell_angle_alpha   60.08409996
_cell_angle_beta   60.08410271
_cell_angle_gamma   60.17029630
_symmetry_Int_Tables_number   1
_chemical_formula_structural   Hf8Co2TcPt
_chemical_formula_sum   'Hf16 Co4 Tc2 Pt2'
_cell_volume   452.75588510
_cell_formula_units_Z   2
loop_
 _symmetry_equiv_pos_site_id
 _symmetry_equiv_pos_as_xyz
  1  'x, y, z'
loop_
 _atom_site_type_symbol
 _atom_site_label
 _atom_site_symmetry_multiplicity
 _atom_site_fract_x
 _atom_site_fract_y
 _atom_site_fract_z
 _atom_site_occupancy
  Hf  Hf0  1  0.060782  0.646613  0.646303  1
  Hf  Hf1  1  0.646613  0.060782  0.646303  1
  Hf  Hf2  1  0.648871  0.648871  0.055255  1
  Hf  Hf3  1  0.648871  0.648871  0.647004  1
  Hf  Hf4  1  0.799521  0.799521  0.200479  1
  Hf  Hf5  1  0.197331  0.197331  0.802669  1
  Hf  Hf6  1  0.805555  0.197401  0.800719  1
  Hf  Hf7  1  0.197401  0.805555  0.196325  1
  Hf  Hf8  1  0.197401  0.805555  0.800719  1
  Hf  Hf9  1  0.805555  0.197401  0.196325  1
  Hf  Hf10  1  0.436365  0.436365  0.063635  1
  Hf  Hf11  1  0.063093  0.063093  0.436907  1
  Hf  Hf12  1  0.435627  0.056839  0.436596  1
  Hf  Hf13  1  0.056839  0.435627  0.070938  1
  Hf  Hf14  1  0.056839  0.435627  0.436596  1
  Hf  Hf15  1  0.435627  0.056839  0.070938  1
  Co  Co16  1  0.424197  0.861315  0.857245  1
  Co  Co17  1  0.861315  0.424197  0.857245  1
  Co  Co18  1  0.859264  0.859264  0.425382  1
  Co  Co19  1  0.859264  0.859264  0.856092  1
  Tc  Tc20  1  0.752111  0.417671  0.415109  1
  Tc  Tc21  1  0.417671  0.752111  0.415109  1
  Pt  Pt22  1  0.416945  0.416945  0.753528  1
  Pt  Pt23  1  0.416945  0.416945  0.412583  1
