# generated using pymatgen
data_Ca5Yb(Si3Ru)8
_symmetry_space_group_name_H-M   'P 1'
_cell_length_a   10.18530591
_cell_length_b   10.18530632
_cell_length_c   8.17021264
_cell_angle_alpha   89.97744943
_cell_angle_beta   90.02255169
_cell_angle_gamma   132.67624202
_symmetry_Int_Tables_number   1
_chemical_formula_structural   Ca5Yb(Si3Ru)8
_chemical_formula_sum   'Ca5 Yb1 Si24 Ru8'
_cell_volume   623.13833654
_cell_formula_units_Z   1
loop_
 _symmetry_equiv_pos_site_id
 _symmetry_equiv_pos_as_xyz
  1  'x, y, z'
loop_
 _atom_site_type_symbol
 _atom_site_label
 _atom_site_symmetry_multiplicity
 _atom_site_fract_x
 _atom_site_fract_y
 _atom_site_fract_z
 _atom_site_occupancy
  Ca  Ca0  1  0.001856  0.501856  0.750000  1
  Ca  Ca1  1  0.501972  0.001972  0.750000  1
  Ca  Ca2  1  0.998173  0.498173  0.250000  1
  Ca  Ca3  1  0.499931  0.499905  0.499912  1
  Ca  Ca4  1  0.999905  0.999931  0.000088  1
  Yb  Yb5  1  0.497692  0.997692  0.250000  1
  Si  Si6  1  0.386396  0.153220  0.008965  1
  Si  Si7  1  0.653220  0.886396  0.491035  1
  Si  Si8  1  0.113779  0.346861  0.508346  1
  Si  Si9  1  0.846861  0.613779  0.991654  1
  Si  Si10  1  0.613303  0.846633  0.992524  1
  Si  Si11  1  0.346633  0.113303  0.507476  1
  Si  Si12  1  0.886140  0.653028  0.491610  1
  Si  Si13  1  0.153028  0.386140  0.008390  1
  Si  Si14  1  0.606312  0.373532  0.230447  1
  Si  Si15  1  0.873532  0.106312  0.269553  1
  Si  Si16  1  0.893507  0.126132  0.730724  1
  Si  Si17  1  0.626132  0.393507  0.769276  1
  Si  Si18  1  0.393321  0.625876  0.769279  1
  Si  Si19  1  0.125876  0.893321  0.730721  1
  Si  Si20  1  0.705085  0.293831  0.000508  1
  Si  Si21  1  0.793831  0.205085  0.499492  1
  Si  Si22  1  0.294613  0.705901  0.000264  1
  Si  Si23  1  0.205901  0.794613  0.499736  1
  Si  Si24  1  0.166589  0.167127  0.332562  1
  Si  Si25  1  0.667127  0.666589  0.167438  1
  Si  Si26  1  0.333429  0.332923  0.832626  1
  Si  Si27  1  0.832923  0.833429  0.667374  1
  Si  Si28  1  0.374716  0.607653  0.230271  1
  Si  Si29  1  0.107653  0.874716  0.269729  1
  Ru  Ru30  1  0.625813  0.626076  0.874994  1
  Ru  Ru31  1  0.126076  0.125813  0.625006  1
  Ru  Ru32  1  0.874463  0.874035  0.375012  1
  Ru  Ru33  1  0.374035  0.374463  0.124988  1
  Ru  Ru34  1  0.330816  0.669847  0.499796  1
  Ru  Ru35  1  0.169847  0.830816  0.000204  1
  Ru  Ru36  1  0.669238  0.330277  0.499800  1
  Ru  Ru37  1  0.830277  0.169238  0.000200  1
