# generated using pymatgen
data_CeNd(ZnRh)2
_symmetry_space_group_name_H-M   'P 1'
_cell_length_a   4.02992000
_cell_length_b   7.15540289
_cell_length_c   8.38686627
_cell_angle_alpha   91.62538026
_cell_angle_beta   90.00000000
_cell_angle_gamma   90.00000000
_symmetry_Int_Tables_number   1
_chemical_formula_structural   CeNd(ZnRh)2
_chemical_formula_sum   'Ce2 Nd2 Zn4 Rh4'
_cell_volume   241.74386472
_cell_formula_units_Z   2
loop_
 _symmetry_equiv_pos_site_id
 _symmetry_equiv_pos_as_xyz
  1  'x, y, z'
loop_
 _atom_site_type_symbol
 _atom_site_label
 _atom_site_symmetry_multiplicity
 _atom_site_fract_x
 _atom_site_fract_y
 _atom_site_fract_z
 _atom_site_occupancy
  Ce  Ce0  1  0.250000  0.544738  0.188570  1
  Ce  Ce1  1  0.750000  0.455262  0.811430  1
  Nd  Nd2  1  0.750000  0.949780  0.685559  1
  Nd  Nd3  1  0.250000  0.050220  0.314441  1
  Zn  Zn4  1  0.250000  0.629680  0.557936  1
  Zn  Zn5  1  0.750000  0.370320  0.442064  1
  Zn  Zn6  1  0.750000  0.875038  0.060838  1
  Zn  Zn7  1  0.250000  0.124962  0.939162  1
  Rh  Rh8  1  0.250000  0.732699  0.879072  1
  Rh  Rh9  1  0.750000  0.267301  0.120928  1
  Rh  Rh10  1  0.750000  0.739322  0.362020  1
  Rh  Rh11  1  0.250000  0.260678  0.637980  1
