# generated using pymatgen
data_Ho2AsS
_symmetry_space_group_name_H-M   'P 1'
_cell_length_a   6.92035527
_cell_length_b   6.92035463
_cell_length_c   6.92035494
_cell_angle_alpha   131.77304249
_cell_angle_beta   131.77303242
_cell_angle_gamma   70.58772474
_symmetry_Int_Tables_number   1
_chemical_formula_structural   Ho2AsS
_chemical_formula_sum   'Ho4 As2 S2'
_cell_volume   180.60164934
_cell_formula_units_Z   2
loop_
 _symmetry_equiv_pos_site_id
 _symmetry_equiv_pos_as_xyz
  1  'x, y, z'
loop_
 _atom_site_type_symbol
 _atom_site_label
 _atom_site_symmetry_multiplicity
 _atom_site_fract_x
 _atom_site_fract_y
 _atom_site_fract_z
 _atom_site_occupancy
  Ho  Ho0  1  0.749816  0.749816  0.000000  1
  Ho  Ho1  1  0.250184  0.250184  0.000000  1
  Ho  Ho2  1  0.000184  0.500184  0.500000  1
  Ho  Ho3  1  0.499816  0.999816  0.500000  1
  As  As4  1  0.500000  0.500000  0.000000  1
  As  As5  1  0.250000  0.750000  0.500000  1
  S  S6  1  0.000000  0.000000  0.000000  1
  S  S7  1  0.750000  0.250000  0.500000  1
