# generated using pymatgen
data_Sr2(Al3Pt)3
_symmetry_space_group_name_H-M   'P 1'
_cell_length_a   7.71055967
_cell_length_b   7.71056013
_cell_length_c   9.68739200
_cell_angle_alpha   90.00000000
_cell_angle_beta   90.00000000
_cell_angle_gamma   119.47038644
_symmetry_Int_Tables_number   1
_chemical_formula_structural   Sr2(Al3Pt)3
_chemical_formula_sum   'Sr4 Al18 Pt6'
_cell_volume   501.42086451
_cell_formula_units_Z   2
loop_
 _symmetry_equiv_pos_site_id
 _symmetry_equiv_pos_as_xyz
  1  'x, y, z'
loop_
 _atom_site_type_symbol
 _atom_site_label
 _atom_site_symmetry_multiplicity
 _atom_site_fract_x
 _atom_site_fract_y
 _atom_site_fract_z
 _atom_site_occupancy
  Sr  Sr0  1  0.995806  0.670474  0.250000  1
  Sr  Sr1  1  0.004194  0.329526  0.750000  1
  Sr  Sr2  1  0.670474  0.995806  0.250000  1
  Sr  Sr3  1  0.329526  0.004194  0.750000  1
  Al  Al4  1  0.134284  0.134284  0.250000  1
  Al  Al5  1  0.865716  0.865716  0.750000  1
  Al  Al6  1  0.002309  0.334694  0.073997  1
  Al  Al7  1  0.997691  0.665306  0.926003  1
  Al  Al8  1  0.997691  0.665306  0.573997  1
  Al  Al9  1  0.334694  0.002309  0.426003  1
  Al  Al10  1  0.002309  0.334694  0.426003  1
  Al  Al11  1  0.665306  0.997691  0.573997  1
  Al  Al12  1  0.665306  0.997691  0.926003  1
  Al  Al13  1  0.334694  0.002309  0.073997  1
  Al  Al14  1  0.334022  0.334022  0.548686  1
  Al  Al15  1  0.665978  0.665978  0.451314  1
  Al  Al16  1  0.665978  0.665978  0.048686  1
  Al  Al17  1  0.334022  0.334022  0.951314  1
  Al  Al18  1  0.340870  0.542319  0.250000  1
  Al  Al19  1  0.659130  0.457681  0.750000  1
  Al  Al20  1  0.542319  0.340870  0.250000  1
  Al  Al21  1  0.457681  0.659130  0.750000  1
  Pt  Pt22  1  0.670433  0.329567  0.000000  1
  Pt  Pt23  1  0.329567  0.670433  0.000000  1
  Pt  Pt24  1  0.329567  0.670433  0.500000  1
  Pt  Pt25  1  0.670433  0.329567  0.500000  1
  Pt  Pt26  1  0.000000  0.000000  0.000000  1
  Pt  Pt27  1  0.000000  0.000000  0.500000  1
