# generated using pymatgen
data_Tm4Ga2MoOs5
_symmetry_space_group_name_H-M   'P 1'
_cell_length_a   5.43797199
_cell_length_b   5.29089192
_cell_length_c   8.81699500
_cell_angle_alpha   90.00000000
_cell_angle_beta   90.00000000
_cell_angle_gamma   121.11483417
_symmetry_Int_Tables_number   1
_chemical_formula_structural   Tm4Ga2MoOs5
_chemical_formula_sum   'Tm4 Ga2 Mo1 Os5'
_cell_volume   217.18401256
_cell_formula_units_Z   1
loop_
 _symmetry_equiv_pos_site_id
 _symmetry_equiv_pos_as_xyz
  1  'x, y, z'
loop_
 _atom_site_type_symbol
 _atom_site_label
 _atom_site_symmetry_multiplicity
 _atom_site_fract_x
 _atom_site_fract_y
 _atom_site_fract_z
 _atom_site_occupancy
  Tm  Tm0  1  0.671964  0.340204  0.565446  1
  Tm  Tm1  1  0.340238  0.669309  0.441370  1
  Tm  Tm2  1  0.340238  0.669309  0.058630  1
  Tm  Tm3  1  0.671964  0.340204  0.934554  1
  Ga  Ga4  1  0.815708  0.653418  0.250000  1
  Ga  Ga5  1  0.818593  0.162464  0.250000  1
  Mo  Mo6  1  0.164351  0.327415  0.750000  1
  Os  Os7  1  0.011073  0.013078  0.496578  1
  Os  Os8  1  0.011073  0.013078  0.003422  1
  Os  Os9  1  0.174744  0.829051  0.750000  1
  Os  Os10  1  0.650280  0.822601  0.750000  1
  Os  Os11  1  0.329773  0.159866  0.250000  1
