# generated using pymatgen
data_Ta2Nb4Ga3Ge
_symmetry_space_group_name_H-M   'P 1'
_cell_length_a   6.92396721
_cell_length_b   6.92396721
_cell_length_c   3.52784700
_cell_angle_alpha   90.00000000
_cell_angle_beta   90.00000000
_cell_angle_gamma   89.63975587
_symmetry_Int_Tables_number   1
_chemical_formula_structural   Ta2Nb4Ga3Ge
_chemical_formula_sum   'Ta2 Nb4 Ga3 Ge1'
_cell_volume   169.12630596
_cell_formula_units_Z   1
loop_
 _symmetry_equiv_pos_site_id
 _symmetry_equiv_pos_as_xyz
  1  'x, y, z'
loop_
 _atom_site_type_symbol
 _atom_site_label
 _atom_site_symmetry_multiplicity
 _atom_site_fract_x
 _atom_site_fract_y
 _atom_site_fract_z
 _atom_site_occupancy
  Ta  Ta0  1  0.500204  0.500382  0.000000  1
  Ta  Ta1  1  0.000382  0.000204  0.000000  1
  Nb  Nb2  1  0.827517  0.674463  0.500000  1
  Nb  Nb3  1  0.323338  0.823338  0.500000  1
  Nb  Nb4  1  0.174463  0.327517  0.500000  1
  Nb  Nb5  1  0.675109  0.175109  0.500000  1
  Ga  Ga6  1  0.626888  0.873819  0.000000  1
  Ga  Ga7  1  0.373819  0.126888  0.000000  1
  Ga  Ga8  1  0.871309  0.371309  0.000000  1
  Ge  Ge9  1  0.126971  0.626971  0.000000  1
