# generated using pymatgen
data_Pr3PaBi5
_symmetry_space_group_name_H-M   'P 1'
_cell_length_a   9.98522500
_cell_length_b   9.98522617
_cell_length_c   6.52973000
_cell_angle_alpha   89.99997011
_cell_angle_beta   89.99997975
_cell_angle_gamma   119.99296497
_symmetry_Int_Tables_number   1
_chemical_formula_structural   Pr3PaBi5
_chemical_formula_sum   'Pr6 Pa2 Bi10'
_cell_volume   563.86144509
_cell_formula_units_Z   2
loop_
 _symmetry_equiv_pos_site_id
 _symmetry_equiv_pos_as_xyz
  1  'x, y, z'
loop_
 _atom_site_type_symbol
 _atom_site_label
 _atom_site_symmetry_multiplicity
 _atom_site_fract_x
 _atom_site_fract_y
 _atom_site_fract_z
 _atom_site_occupancy
  Pr  Pr0  1  0.615213  0.000058  0.249985  1
  Pr  Pr1  1  0.000058  0.615213  0.249985  1
  Pr  Pr2  1  0.384816  0.384817  0.250022  1
  Pr  Pr3  1  0.384786  0.999942  0.749985  1
  Pr  Pr4  1  0.999942  0.384786  0.749985  1
  Pr  Pr5  1  0.615183  0.615183  0.750019  1
  Pa  Pa6  1  0.000001  0.000001  0.999996  1
  Pa  Pa7  1  0.999999  0.999999  0.500008  1
  Bi  Bi8  1  0.666658  0.333339  0.000001  1
  Bi  Bi9  1  0.333339  0.666658  0.000001  1
  Bi  Bi10  1  0.274474  0.999995  0.249998  1
  Bi  Bi11  1  0.999995  0.274474  0.249998  1
  Bi  Bi12  1  0.725563  0.725563  0.250015  1
  Bi  Bi13  1  0.666661  0.333342  0.500006  1
  Bi  Bi14  1  0.333342  0.666660  0.500006  1
  Bi  Bi15  1  0.725527  0.000005  0.749991  1
  Bi  Bi16  1  0.000005  0.725528  0.749991  1
  Bi  Bi17  1  0.274437  0.274437  0.750008  1
