# generated using pymatgen
data_Ce4ZnIn2PtRh2
_symmetry_space_group_name_H-M   'P 1'
_cell_length_a   7.80163873
_cell_length_b   7.80163784
_cell_length_c   3.78438500
_cell_angle_alpha   90.00000000
_cell_angle_beta   90.00000000
_cell_angle_gamma   89.26811774
_symmetry_Int_Tables_number   1
_chemical_formula_structural   Ce4ZnIn2PtRh2
_chemical_formula_sum   'Ce4 Zn1 In2 Pt1 Rh2'
_cell_volume   230.31992027
_cell_formula_units_Z   1
loop_
 _symmetry_equiv_pos_site_id
 _symmetry_equiv_pos_as_xyz
  1  'x, y, z'
loop_
 _atom_site_type_symbol
 _atom_site_label
 _atom_site_symmetry_multiplicity
 _atom_site_fract_x
 _atom_site_fract_y
 _atom_site_fract_z
 _atom_site_occupancy
  Ce  Ce0  1  0.673304  0.173304  0.500000  1
  Ce  Ce1  1  0.343620  0.843620  0.500000  1
  Ce  Ce2  1  0.171818  0.308499  0.500000  1
  Ce  Ce3  1  0.808499  0.671818  0.500000  1
  Zn  Zn4  1  0.126124  0.626124  0.000000  1
  In  In5  1  0.998617  0.992077  0.000000  1
  In  In6  1  0.492077  0.498617  0.000000  1
  Pt  Pt7  1  0.882541  0.382541  0.000000  1
  Rh  Rh8  1  0.638387  0.865013  0.000000  1
  Rh  Rh9  1  0.365013  0.138387  0.000000  1
