# generated using pymatgen
data_Pr4OsRu7
_symmetry_space_group_name_H-M   'P 1'
_cell_length_a   5.34343384
_cell_length_b   5.47274508
_cell_length_c   9.15731200
_cell_angle_alpha   90.00000000
_cell_angle_beta   90.00000000
_cell_angle_gamma   120.80382335
_symmetry_Int_Tables_number   1
_chemical_formula_structural   Pr4OsRu7
_chemical_formula_sum   'Pr4 Os1 Ru7'
_cell_volume   230.01135570
_cell_formula_units_Z   1
loop_
 _symmetry_equiv_pos_site_id
 _symmetry_equiv_pos_as_xyz
  1  'x, y, z'
loop_
 _atom_site_type_symbol
 _atom_site_label
 _atom_site_symmetry_multiplicity
 _atom_site_fract_x
 _atom_site_fract_y
 _atom_site_fract_z
 _atom_site_occupancy
  Pr  Pr0  1  0.320524  0.660263  0.432391  1
  Pr  Pr1  1  0.655012  0.327506  0.566487  1
  Pr  Pr2  1  0.655012  0.327506  0.933513  1
  Pr  Pr3  1  0.320524  0.660263  0.067609  1
  Os  Os4  1  0.697625  0.848812  0.750000  1
  Ru  Ru5  1  0.971535  0.985768  0.500665  1
  Ru  Ru6  1  0.971535  0.985768  0.999335  1
  Ru  Ru7  1  0.837620  0.156509  0.250000  1
  Ru  Ru8  1  0.837620  0.681111  0.250000  1
  Ru  Ru9  1  0.368771  0.184386  0.250000  1
  Ru  Ru10  1  0.182111  0.825630  0.750000  1
  Ru  Ru11  1  0.182111  0.356481  0.750000  1
