# generated using pymatgen
data_CeErFe9Ni3P7
_symmetry_space_group_name_H-M   'P 1'
_cell_length_a   9.03723500
_cell_length_b   9.03723604
_cell_length_c   3.64680100
_cell_angle_alpha   90.00000000
_cell_angle_beta   90.00000000
_cell_angle_gamma   119.99999986
_symmetry_Int_Tables_number   1
_chemical_formula_structural   CeErFe9Ni3P7
_chemical_formula_sum   'Ce1 Er1 Fe9 Ni3 P7'
_cell_volume   257.93715102
_cell_formula_units_Z   1
loop_
 _symmetry_equiv_pos_site_id
 _symmetry_equiv_pos_as_xyz
  1  'x, y, z'
loop_
 _atom_site_type_symbol
 _atom_site_label
 _atom_site_symmetry_multiplicity
 _atom_site_fract_x
 _atom_site_fract_y
 _atom_site_fract_z
 _atom_site_occupancy
  Ce  Ce0  1  0.000000  0.000000  0.000000  1
  Er  Er1  1  0.333333  0.666667  0.500000  1
  Fe  Fe2  1  0.822656  0.216335  0.000000  1
  Fe  Fe3  1  0.783665  0.606322  0.000000  1
  Fe  Fe4  1  0.393678  0.177344  0.000000  1
  Fe  Fe5  1  0.053727  0.285022  0.500000  1
  Fe  Fe6  1  0.714978  0.768705  0.500000  1
  Fe  Fe7  1  0.231295  0.946273  0.500000  1
  Fe  Fe8  1  0.883396  0.452541  0.500000  1
  Fe  Fe9  1  0.547459  0.430853  0.500000  1
  Fe  Fe10  1  0.569147  0.116604  0.500000  1
  Ni  Ni11  1  0.096701  0.697770  0.000000  1
  Ni  Ni12  1  0.302230  0.398931  0.000000  1
  Ni  Ni13  1  0.601069  0.903299  0.000000  1
  P  P14  1  0.075756  0.439809  0.000000  1
  P  P15  1  0.560191  0.635947  0.000000  1
  P  P16  1  0.364053  0.924244  0.000000  1
  P  P17  1  0.780848  0.050388  0.500000  1
  P  P18  1  0.949612  0.730458  0.500000  1
  P  P19  1  0.269542  0.219152  0.500000  1
  P  P20  1  0.666667  0.333333  0.000000  1
