# generated using pymatgen
data_Er2LuAgSn3Ir2
_symmetry_space_group_name_H-M   'P 1'
_cell_length_a   7.66337753
_cell_length_b   7.66443064
_cell_length_c   3.82274700
_cell_angle_alpha   90.00000000
_cell_angle_beta   90.00000000
_cell_angle_gamma   120.15605320
_symmetry_Int_Tables_number   1
_chemical_formula_structural   Er2LuAgSn3Ir2
_chemical_formula_sum   'Er2 Lu1 Ag1 Sn3 Ir2'
_cell_volume   194.14277426
_cell_formula_units_Z   1
loop_
 _symmetry_equiv_pos_site_id
 _symmetry_equiv_pos_as_xyz
  1  'x, y, z'
loop_
 _atom_site_type_symbol
 _atom_site_label
 _atom_site_symmetry_multiplicity
 _atom_site_fract_x
 _atom_site_fract_y
 _atom_site_fract_z
 _atom_site_occupancy
  Er  Er0  1  0.975984  0.383663  0.500000  1
  Er  Er1  1  0.615646  0.591761  0.500000  1
  Lu  Lu2  1  0.407953  0.025681  0.500000  1
  Ag  Ag3  1  0.333255  0.668057  0.000000  1
  Sn  Sn4  1  0.005946  0.742353  0.000000  1
  Sn  Sn5  1  0.258772  0.262792  0.000000  1
  Sn  Sn6  1  0.736947  0.995315  0.000000  1
  Ir  Ir7  1  0.664544  0.330415  0.000000  1
  Ir  Ir8  1  0.000955  0.999963  0.500000  1
