# generated using pymatgen
data_Pr10SiBBr15
_symmetry_space_group_name_H-M   'P 1'
_cell_length_a   9.56467981
_cell_length_b   10.34525975
_cell_length_c   11.24475404
_cell_angle_alpha   90.81710270
_cell_angle_beta   114.66281787
_cell_angle_gamma   110.98561886
_symmetry_Int_Tables_number   1
_chemical_formula_structural   Pr10SiBBr15
_chemical_formula_sum   'Pr10 Si1 B1 Br15'
_cell_volume   926.35349511
_cell_formula_units_Z   1
loop_
 _symmetry_equiv_pos_site_id
 _symmetry_equiv_pos_as_xyz
  1  'x, y, z'
loop_
 _atom_site_type_symbol
 _atom_site_label
 _atom_site_symmetry_multiplicity
 _atom_site_fract_x
 _atom_site_fract_y
 _atom_site_fract_z
 _atom_site_occupancy
  Pr  Pr0  1  0.803124  0.411304  0.274506  1
  Pr  Pr1  1  0.185028  0.577628  0.716596  1
  Pr  Pr2  1  0.684816  0.743016  0.817348  1
  Pr  Pr3  1  0.324897  0.254293  0.176460  1
  Pr  Pr4  1  0.528312  0.694730  0.107000  1
  Pr  Pr5  1  0.474433  0.295743  0.904124  1
  Pr  Pr6  1  0.587576  0.041551  0.326037  1
  Pr  Pr7  1  0.407611  0.963211  0.660393  1
  Pr  Pr8  1  0.736399  0.086001  0.055126  1
  Pr  Pr9  1  0.265856  0.927687  0.954050  1
  Si  Si10  1  0.468009  0.825237  0.880731  1
  B  B11  1  0.534667  0.183329  0.125364  1
  Br  Br12  1  0.998156  0.001858  0.001485  1
  Br  Br13  1  0.636188  0.882811  0.582185  1
  Br  Br14  1  0.363814  0.118941  0.412605  1
  Br  Br15  1  0.881370  0.296580  0.525111  1
  Br  Br16  1  0.113483  0.699002  0.470959  1
  Br  Br17  1  0.295031  0.764650  0.183049  1
  Br  Br18  1  0.704565  0.237133  0.817668  1
  Br  Br19  1  0.062038  0.349015  0.230012  1
  Br  Br20  1  0.167040  0.059346  0.703986  1
  Br  Br21  1  0.832596  0.942569  0.297300  1
  Br  Br22  1  0.234571  0.408711  0.944129  1
  Br  Br23  1  0.764238  0.586820  0.053520  1
  Br  Br24  1  0.407357  0.463372  0.661235  1
  Br  Br25  1  0.595247  0.530639  0.345703  1
  Br  Br26  1  0.943577  0.654823  0.773318  1
