# generated using pymatgen
data_TmTa2Be2Co5
_symmetry_space_group_name_H-M   'P 1'
_cell_length_a   8.88741659
_cell_length_b   8.88741659
_cell_length_c   3.19655800
_cell_angle_alpha   90.00000000
_cell_angle_beta   90.00000000
_cell_angle_gamma   89.93152163
_symmetry_Int_Tables_number   1
_chemical_formula_structural   TmTa2Be2Co5
_chemical_formula_sum   'Tm2 Ta4 Be4 Co10'
_cell_volume   252.48370475
_cell_formula_units_Z   2
loop_
 _symmetry_equiv_pos_site_id
 _symmetry_equiv_pos_as_xyz
  1  'x, y, z'
loop_
 _atom_site_type_symbol
 _atom_site_label
 _atom_site_symmetry_multiplicity
 _atom_site_fract_x
 _atom_site_fract_y
 _atom_site_fract_z
 _atom_site_occupancy
  Tm  Tm0  1  0.823558  0.323558  0.000000  1
  Tm  Tm1  1  0.176442  0.676442  0.000000  1
  Ta  Ta2  1  0.500000  0.500000  0.000000  1
  Ta  Ta3  1  0.000000  0.000000  0.000000  1
  Ta  Ta4  1  0.325053  0.174947  0.000000  1
  Ta  Ta5  1  0.674947  0.825053  0.000000  1
  Be  Be6  1  0.614115  0.114115  0.000000  1
  Be  Be7  1  0.385885  0.885885  0.000000  1
  Be  Be8  1  0.122023  0.377977  0.000000  1
  Be  Be9  1  0.877977  0.622023  0.000000  1
  Co  Co10  1  0.500000  0.000000  0.500000  1
  Co  Co11  1  0.000000  0.500000  0.500000  1
  Co  Co12  1  0.711059  0.581229  0.500000  1
  Co  Co13  1  0.288941  0.418771  0.500000  1
  Co  Co14  1  0.221595  0.944971  0.500000  1
  Co  Co15  1  0.778405  0.055029  0.500000  1
  Co  Co16  1  0.444971  0.721595  0.500000  1
  Co  Co17  1  0.555029  0.278405  0.500000  1
  Co  Co18  1  0.081229  0.211059  0.500000  1
  Co  Co19  1  0.918771  0.788941  0.500000  1
