# generated using pymatgen
data_Th2GaSbSe2
_symmetry_space_group_name_H-M   'P 1'
_cell_length_a   4.14958600
_cell_length_b   4.14958600
_cell_length_c   8.93316400
_cell_angle_alpha   90.00000000
_cell_angle_beta   90.00000000
_cell_angle_gamma   90.00000000
_symmetry_Int_Tables_number   1
_chemical_formula_structural   Th2GaSbSe2
_chemical_formula_sum   'Th2 Ga1 Sb1 Se2'
_cell_volume   153.82072238
_cell_formula_units_Z   1
loop_
 _symmetry_equiv_pos_site_id
 _symmetry_equiv_pos_as_xyz
  1  'x, y, z'
loop_
 _atom_site_type_symbol
 _atom_site_label
 _atom_site_symmetry_multiplicity
 _atom_site_fract_x
 _atom_site_fract_y
 _atom_site_fract_z
 _atom_site_occupancy
  Th  Th0  1  0.000000  0.500000  0.718293  1
  Th  Th1  1  0.500000  0.000000  0.281707  1
  Ga  Ga2  1  0.000000  0.000000  0.000000  1
  Sb  Sb3  1  0.500000  0.500000  0.000000  1
  Se  Se4  1  0.000000  0.500000  0.369989  1
  Se  Se5  1  0.500000  0.000000  0.630011  1
