# generated using pymatgen
data_Dy4Y12MgHg3Pd3Pt
_symmetry_space_group_name_H-M   'P 1'
_cell_length_a   9.70523324
_cell_length_b   9.70724419
_cell_length_c   9.70724500
_cell_angle_alpha   60.00000064
_cell_angle_beta   59.99314621
_cell_angle_gamma   59.99313002
_symmetry_Int_Tables_number   1
_chemical_formula_structural   Dy4Y12MgHg3Pd3Pt
_chemical_formula_sum   'Dy4 Y12 Mg1 Hg3 Pd3 Pt1'
_cell_volume   646.60323782
_cell_formula_units_Z   1
loop_
 _symmetry_equiv_pos_site_id
 _symmetry_equiv_pos_as_xyz
  1  'x, y, z'
loop_
 _atom_site_type_symbol
 _atom_site_label
 _atom_site_symmetry_multiplicity
 _atom_site_fract_x
 _atom_site_fract_y
 _atom_site_fract_z
 _atom_site_occupancy
  Dy  Dy0  1  0.606862  0.601528  0.601528  1
  Dy  Dy1  1  0.606862  0.601528  0.190083  1
  Dy  Dy2  1  0.606862  0.190083  0.601528  1
  Dy  Dy3  1  0.177913  0.607363  0.607363  1
  Y  Y4  1  0.057377  0.440539  0.440539  1
  Y  Y5  1  0.436720  0.062323  0.062323  1
  Y  Y6  1  0.436720  0.062323  0.438634  1
  Y  Y7  1  0.057377  0.440539  0.061546  1
  Y  Y8  1  0.436720  0.438634  0.062323  1
  Y  Y9  1  0.057377  0.061546  0.440539  1
  Y  Y10  1  0.182819  0.816202  0.816202  1
  Y  Y11  1  0.814939  0.185274  0.185274  1
  Y  Y12  1  0.814939  0.185274  0.814513  1
  Y  Y13  1  0.182819  0.816202  0.184778  1
  Y  Y14  1  0.814939  0.814513  0.185274  1
  Y  Y15  1  0.182819  0.184778  0.816202  1
  Mg  Mg16  1  0.532659  0.822447  0.822447  1
  Hg  Hg17  1  0.833434  0.838775  0.838775  1
  Hg  Hg18  1  0.833434  0.838775  0.489015  1
  Hg  Hg19  1  0.833434  0.489015  0.838775  1
  Pd  Pd20  1  0.392369  0.396587  0.396587  1
  Pd  Pd21  1  0.392369  0.396587  0.814459  1
  Pd  Pd22  1  0.392369  0.814459  0.396587  1
  Pt  Pt23  1  0.815877  0.394708  0.394708  1
