# generated using pymatgen
data_Dy10Tl5BiCl2
_symmetry_space_group_name_H-M   'P 1'
_cell_length_a   9.14357200
_cell_length_b   9.14357162
_cell_length_c   6.68296000
_cell_angle_alpha   90.00000000
_cell_angle_beta   90.00000000
_cell_angle_gamma   120.16419803
_symmetry_Int_Tables_number   1
_chemical_formula_structural   Dy10Tl5BiCl2
_chemical_formula_sum   'Dy10 Tl5 Bi1 Cl2'
_cell_volume   483.07026224
_cell_formula_units_Z   1
loop_
 _symmetry_equiv_pos_site_id
 _symmetry_equiv_pos_as_xyz
  1  'x, y, z'
loop_
 _atom_site_type_symbol
 _atom_site_label
 _atom_site_symmetry_multiplicity
 _atom_site_fract_x
 _atom_site_fract_y
 _atom_site_fract_z
 _atom_site_occupancy
  Dy  Dy0  1  0.260595  0.001392  0.750000  1
  Dy  Dy1  1  0.744290  0.007405  0.250000  1
  Dy  Dy2  1  0.001392  0.260595  0.750000  1
  Dy  Dy3  1  0.007405  0.744290  0.250000  1
  Dy  Dy4  1  0.742248  0.742248  0.750000  1
  Dy  Dy5  1  0.253627  0.253627  0.250000  1
  Dy  Dy6  1  0.328670  0.666943  0.502541  1
  Dy  Dy7  1  0.666943  0.328670  0.502541  1
  Dy  Dy8  1  0.666943  0.328670  0.997459  1
  Dy  Dy9  1  0.328670  0.666943  0.997459  1
  Tl  Tl10  1  0.607050  0.998924  0.750000  1
  Tl  Tl11  1  0.395362  0.001850  0.250000  1
  Tl  Tl12  1  0.998924  0.607050  0.750000  1
  Tl  Tl13  1  0.001850  0.395362  0.250000  1
  Tl  Tl14  1  0.391633  0.391633  0.750000  1
  Bi  Bi15  1  0.608948  0.608948  0.250000  1
  Cl  Cl16  1  0.997725  0.997725  0.498553  1
  Cl  Cl17  1  0.997725  0.997725  0.001447  1
