# generated using pymatgen
data_Th5Si3S2
_symmetry_space_group_name_H-M   'P 1'
_cell_length_a   10.96340243
_cell_length_b   10.96340302
_cell_length_c   7.19737100
_cell_angle_alpha   83.72758445
_cell_angle_beta   83.72758936
_cell_angle_gamma   141.21823626
_symmetry_Int_Tables_number   1
_chemical_formula_structural   Th5Si3S2
_chemical_formula_sum   'Th10 Si6 S4'
_cell_volume   511.67924290
_cell_formula_units_Z   2
loop_
 _symmetry_equiv_pos_site_id
 _symmetry_equiv_pos_as_xyz
  1  'x, y, z'
loop_
 _atom_site_type_symbol
 _atom_site_label
 _atom_site_symmetry_multiplicity
 _atom_site_fract_x
 _atom_site_fract_y
 _atom_site_fract_z
 _atom_site_occupancy
  Th  Th0  1  0.599373  0.902134  0.999760  1
  Th  Th1  1  0.199076  0.297121  0.000767  1
  Th  Th2  1  0.097866  0.400627  0.500240  1
  Th  Th3  1  0.800924  0.702879  0.999233  1
  Th  Th4  1  0.702879  0.800924  0.499233  1
  Th  Th5  1  0.400627  0.097866  0.000240  1
  Th  Th6  1  0.297121  0.199076  0.500767  1
  Th  Th7  1  0.000000  0.500000  0.000000  1
  Th  Th8  1  0.902134  0.599373  0.499760  1
  Th  Th9  1  0.500000  0.000000  0.500000  1
  Si  Si10  1  0.350862  0.649138  0.750000  1
  Si  Si11  1  0.948762  0.051238  0.750000  1
  Si  Si12  1  0.850535  0.149465  0.250000  1
  Si  Si13  1  0.149465  0.850535  0.750000  1
  Si  Si14  1  0.051238  0.948762  0.250000  1
  Si  Si15  1  0.649138  0.350862  0.250000  1
  S  S16  1  0.750897  0.249103  0.750000  1
  S  S17  1  0.552162  0.447838  0.750000  1
  S  S18  1  0.447838  0.552162  0.250000  1
  S  S19  1  0.249103  0.750897  0.250000  1
