# generated using pymatgen
data_Tb5Hg4IrPd
_symmetry_space_group_name_H-M   'P 1'
_cell_length_a   7.98757116
_cell_length_b   18.03296393
_cell_length_c   3.71427300
_cell_angle_alpha   90.00000000
_cell_angle_beta   90.00000000
_cell_angle_gamma   90.39210620
_symmetry_Int_Tables_number   1
_chemical_formula_structural   Tb5Hg4IrPd
_chemical_formula_sum   'Tb10 Hg8 Ir2 Pd2'
_cell_volume   534.98980469
_cell_formula_units_Z   2
loop_
 _symmetry_equiv_pos_site_id
 _symmetry_equiv_pos_as_xyz
  1  'x, y, z'
loop_
 _atom_site_type_symbol
 _atom_site_label
 _atom_site_symmetry_multiplicity
 _atom_site_fract_x
 _atom_site_fract_y
 _atom_site_fract_z
 _atom_site_occupancy
  Tb  Tb0  1  0.500000  0.500000  0.000000  1
  Tb  Tb1  1  0.000000  0.000000  0.000000  1
  Tb  Tb2  1  0.723347  0.283024  0.000000  1
  Tb  Tb3  1  0.276653  0.716976  0.000000  1
  Tb  Tb4  1  0.750813  0.784288  0.000000  1
  Tb  Tb5  1  0.249187  0.215712  0.000000  1
  Tb  Tb6  1  0.611280  0.088146  0.000000  1
  Tb  Tb7  1  0.388720  0.911854  0.000000  1
  Tb  Tb8  1  0.887522  0.585877  0.000000  1
  Tb  Tb9  1  0.112478  0.414123  0.000000  1
  Hg  Hg10  1  0.711981  0.938352  0.500000  1
  Hg  Hg11  1  0.288019  0.061648  0.500000  1
  Hg  Hg12  1  0.790839  0.436894  0.500000  1
  Hg  Hg13  1  0.209161  0.563106  0.500000  1
  Hg  Hg14  1  0.586418  0.644962  0.500000  1
  Hg  Hg15  1  0.413582  0.355038  0.500000  1
  Hg  Hg16  1  0.918495  0.146961  0.500000  1
  Hg  Hg17  1  0.081505  0.853039  0.500000  1
  Ir  Ir18  1  0.525108  0.196644  0.500000  1
  Ir  Ir19  1  0.474892  0.803356  0.500000  1
  Pd  Pd20  1  0.976354  0.698247  0.500000  1
  Pd  Pd21  1  0.023646  0.301753  0.500000  1
