# generated using pymatgen
data_Pr5Rh4
_symmetry_space_group_name_H-M   'P 1'
_cell_length_a   7.64086200
_cell_length_b   7.74670100
_cell_length_c   15.16360900
_cell_angle_alpha   90.00000000
_cell_angle_beta   90.00000000
_cell_angle_gamma   90.00000000
_symmetry_Int_Tables_number   1
_chemical_formula_structural   Pr5Rh4
_chemical_formula_sum   'Pr20 Rh16'
_cell_volume   897.55635720
_cell_formula_units_Z   4
loop_
 _symmetry_equiv_pos_site_id
 _symmetry_equiv_pos_as_xyz
  1  'x, y, z'
loop_
 _atom_site_type_symbol
 _atom_site_label
 _atom_site_symmetry_multiplicity
 _atom_site_fract_x
 _atom_site_fract_y
 _atom_site_fract_z
 _atom_site_occupancy
  Pr  Pr0  1  0.660750  0.168855  0.621819  1
  Pr  Pr1  1  0.160750  0.331145  0.878181  1
  Pr  Pr2  1  0.339250  0.831145  0.121819  1
  Pr  Pr3  1  0.839250  0.668855  0.378181  1
  Pr  Pr4  1  0.339250  0.831145  0.378181  1
  Pr  Pr5  1  0.839250  0.668855  0.121819  1
  Pr  Pr6  1  0.660750  0.168855  0.878181  1
  Pr  Pr7  1  0.160750  0.331145  0.621819  1
  Pr  Pr8  1  0.512597  0.681168  0.592777  1
  Pr  Pr9  1  0.012597  0.818832  0.907223  1
  Pr  Pr10  1  0.487403  0.318832  0.092777  1
  Pr  Pr11  1  0.987403  0.181168  0.407223  1
  Pr  Pr12  1  0.487403  0.318832  0.407223  1
  Pr  Pr13  1  0.987403  0.181168  0.092777  1
  Pr  Pr14  1  0.512597  0.681168  0.907223  1
  Pr  Pr15  1  0.012597  0.818832  0.592777  1
  Pr  Pr16  1  0.822338  0.514107  0.750000  1
  Pr  Pr17  1  0.322338  0.985893  0.750000  1
  Pr  Pr18  1  0.177662  0.485893  0.250000  1
  Pr  Pr19  1  0.677662  0.014107  0.250000  1
  Rh  Rh20  1  0.677739  0.969720  0.459893  1
  Rh  Rh21  1  0.177739  0.530280  0.040107  1
  Rh  Rh22  1  0.322261  0.030280  0.959893  1
  Rh  Rh23  1  0.822261  0.469720  0.540107  1
  Rh  Rh24  1  0.322261  0.030280  0.540107  1
  Rh  Rh25  1  0.822261  0.469720  0.959893  1
  Rh  Rh26  1  0.677739  0.969720  0.040107  1
  Rh  Rh27  1  0.177739  0.530280  0.459893  1
  Rh  Rh28  1  0.456794  0.397328  0.750000  1
  Rh  Rh29  1  0.956794  0.102672  0.750000  1
  Rh  Rh30  1  0.543206  0.602672  0.250000  1
  Rh  Rh31  1  0.043206  0.897328  0.250000  1
  Rh  Rh32  1  0.699448  0.859064  0.750000  1
  Rh  Rh33  1  0.199448  0.640936  0.750000  1
  Rh  Rh34  1  0.300552  0.140936  0.250000  1
  Rh  Rh35  1  0.800552  0.359064  0.250000  1
