# generated using pymatgen
data_Dy7Y8Tm5Bi12
_symmetry_space_group_name_H-M   'P 1'
_cell_length_a   8.23669223
_cell_length_b   9.51701003
_cell_length_c   12.05888676
_cell_angle_alpha   90.00183092
_cell_angle_beta   89.93810907
_cell_angle_gamma   90.00857667
_symmetry_Int_Tables_number   1
_chemical_formula_structural   Dy7Y8Tm5Bi12
_chemical_formula_sum   'Dy7 Y8 Tm5 Bi12'
_cell_volume   945.27968296
_cell_formula_units_Z   1
loop_
 _symmetry_equiv_pos_site_id
 _symmetry_equiv_pos_as_xyz
  1  'x, y, z'
loop_
 _atom_site_type_symbol
 _atom_site_label
 _atom_site_symmetry_multiplicity
 _atom_site_fract_x
 _atom_site_fract_y
 _atom_site_fract_z
 _atom_site_occupancy
  Dy  Dy0  1  0.307273  0.435876  0.940513  1
  Dy  Dy1  1  0.807156  0.064413  0.559382  1
  Dy  Dy2  1  0.692671  0.935900  0.059477  1
  Dy  Dy3  1  0.193005  0.564005  0.440425  1
  Dy  Dy4  1  0.692780  0.564035  0.059443  1
  Dy  Dy5  1  0.192501  0.935852  0.440629  1
  Dy  Dy6  1  0.307322  0.064120  0.940528  1
  Y  Y7  1  0.186337  0.749967  0.718668  1
  Y  Y8  1  0.686206  0.750034  0.781347  1
  Y  Y9  1  0.813743  0.250291  0.281504  1
  Y  Y10  1  0.313785  0.250013  0.218799  1
  Y  Y11  1  0.354251  0.750060  0.215546  1
  Y  Y12  1  0.854320  0.750240  0.284401  1
  Y  Y13  1  0.646536  0.250519  0.784276  1
  Y  Y14  1  0.145468  0.250413  0.715257  1
  Tm  Tm15  1  0.025248  0.750169  0.988720  1
  Tm  Tm16  1  0.525593  0.749986  0.511198  1
  Tm  Tm17  1  0.974704  0.249969  0.011188  1
  Tm  Tm18  1  0.475340  0.250267  0.488902  1
  Tm  Tm19  1  0.806996  0.434395  0.559496  1
  Bi  Bi20  1  0.433888  0.003980  0.672374  1
  Bi  Bi21  1  0.933760  0.496258  0.827349  1
  Bi  Bi22  1  0.566019  0.503961  0.327731  1
  Bi  Bi23  1  0.066044  0.996283  0.172517  1
  Bi  Bi24  1  0.566151  0.996324  0.327563  1
  Bi  Bi25  1  0.065926  0.503864  0.172604  1
  Bi  Bi26  1  0.434227  0.496228  0.672282  1
  Bi  Bi27  1  0.933862  0.003912  0.827464  1
  Bi  Bi28  1  0.406482  0.749987  0.957529  1
  Bi  Bi29  1  0.905925  0.748165  0.542757  1
  Bi  Bi30  1  0.593499  0.249964  0.042400  1
  Bi  Bi31  1  0.092982  0.250549  0.457729  1
