# generated using pymatgen
data_SrYPa(Si3Pd10)2
_symmetry_space_group_name_H-M   'P 1'
_cell_length_a   8.76474044
_cell_length_b   8.76474076
_cell_length_c   8.76474000
_cell_angle_alpha   60.00000288
_cell_angle_beta   60.00000164
_cell_angle_gamma   60.00000015
_symmetry_Int_Tables_number   1
_chemical_formula_structural   SrYPa(Si3Pd10)2
_chemical_formula_sum   'Sr1 Y1 Pa1 Si6 Pd20'
_cell_volume   476.10439396
_cell_formula_units_Z   1
loop_
 _symmetry_equiv_pos_site_id
 _symmetry_equiv_pos_as_xyz
  1  'x, y, z'
loop_
 _atom_site_type_symbol
 _atom_site_label
 _atom_site_symmetry_multiplicity
 _atom_site_fract_x
 _atom_site_fract_y
 _atom_site_fract_z
 _atom_site_occupancy
  Sr  Sr0  1  0.250000  0.250000  0.250000  1
  Y  Y1  1  0.750000  0.750000  0.750000  1
  Pa  Pa2  1  0.000000  0.000000  0.000000  1
  Si  Si3  1  0.729196  0.270804  0.270804  1
  Si  Si4  1  0.270804  0.729196  0.729196  1
  Si  Si5  1  0.270804  0.729196  0.270804  1
  Si  Si6  1  0.729196  0.270804  0.729196  1
  Si  Si7  1  0.270804  0.270804  0.729196  1
  Si  Si8  1  0.729196  0.729196  0.270804  1
  Pd  Pd9  1  0.387516  0.387516  0.387516  1
  Pd  Pd10  1  0.617382  0.617382  0.617382  1
  Pd  Pd11  1  0.387516  0.387516  0.837455  1
  Pd  Pd12  1  0.387516  0.837455  0.387516  1
  Pd  Pd13  1  0.617382  0.617382  0.147855  1
  Pd  Pd14  1  0.617382  0.147855  0.617382  1
  Pd  Pd15  1  0.837455  0.387516  0.387516  1
  Pd  Pd16  1  0.147855  0.617382  0.617382  1
  Pd  Pd17  1  0.345251  0.997223  0.997223  1
  Pd  Pd18  1  0.660304  0.997223  0.997223  1
  Pd  Pd19  1  0.997223  0.345251  0.660304  1
  Pd  Pd20  1  0.997223  0.660304  0.345251  1
  Pd  Pd21  1  0.997223  0.345251  0.997223  1
  Pd  Pd22  1  0.660304  0.997223  0.345251  1
  Pd  Pd23  1  0.997223  0.660304  0.997223  1
  Pd  Pd24  1  0.345251  0.997223  0.660304  1
  Pd  Pd25  1  0.997223  0.997223  0.345251  1
  Pd  Pd26  1  0.997223  0.997223  0.660304  1
  Pd  Pd27  1  0.660304  0.345251  0.997223  1
  Pd  Pd28  1  0.345251  0.660304  0.997223  1
