# generated using pymatgen
data_Lu6AlTcNi
_symmetry_space_group_name_H-M   'P 1'
_cell_length_a   8.25054154
_cell_length_b   8.25054203
_cell_length_c   8.25054194
_cell_angle_alpha   113.55348339
_cell_angle_beta   111.62619168
_cell_angle_gamma   103.40575407
_symmetry_Int_Tables_number   1
_chemical_formula_structural   Lu6AlTcNi
_chemical_formula_sum   'Lu12 Al2 Tc2 Ni2'
_cell_volume   428.62240632
_cell_formula_units_Z   2
loop_
 _symmetry_equiv_pos_site_id
 _symmetry_equiv_pos_as_xyz
  1  'x, y, z'
loop_
 _atom_site_type_symbol
 _atom_site_label
 _atom_site_symmetry_multiplicity
 _atom_site_fract_x
 _atom_site_fract_y
 _atom_site_fract_z
 _atom_site_occupancy
  Lu  Lu0  1  0.050916  0.743328  0.307588  1
  Lu  Lu1  1  0.949084  0.256672  0.692412  1
  Lu  Lu2  1  0.564261  0.256672  0.307588  1
  Lu  Lu3  1  0.435739  0.743328  0.692412  1
  Lu  Lu4  1  0.666547  0.850437  0.183889  1
  Lu  Lu5  1  0.333453  0.517342  0.183889  1
  Lu  Lu6  1  0.333453  0.149563  0.816111  1
  Lu  Lu7  1  0.666547  0.482658  0.816111  1
  Lu  Lu8  1  0.182028  0.213216  0.395245  1
  Lu  Lu9  1  0.817972  0.213216  0.031188  1
  Lu  Lu10  1  0.182028  0.786784  0.968812  1
  Lu  Lu11  1  0.817972  0.786784  0.604755  1
  Al  Al12  1  0.000000  0.500000  0.500000  1
  Al  Al13  1  0.500000  0.000000  0.500000  1
  Tc  Tc14  1  0.683904  0.500000  0.183904  1
  Tc  Tc15  1  0.316096  0.500000  0.816096  1
  Ni  Ni16  1  0.879140  0.879140  0.000000  1
  Ni  Ni17  1  0.120860  0.120860  0.000000  1
