# generated using pymatgen
data_NaCaU4(TaSb5)2
_symmetry_space_group_name_H-M   'P 1'
_cell_length_a   9.23203500
_cell_length_b   9.23974445
_cell_length_c   6.15041200
_cell_angle_alpha   90.00000000
_cell_angle_beta   90.00000000
_cell_angle_gamma   119.97239920
_symmetry_Int_Tables_number   1
_chemical_formula_structural   NaCaU4(TaSb5)2
_chemical_formula_sum   'Na1 Ca1 U4 Ta2 Sb10'
_cell_volume   454.47810297
_cell_formula_units_Z   1
loop_
 _symmetry_equiv_pos_site_id
 _symmetry_equiv_pos_as_xyz
  1  'x, y, z'
loop_
 _atom_site_type_symbol
 _atom_site_label
 _atom_site_symmetry_multiplicity
 _atom_site_fract_x
 _atom_site_fract_y
 _atom_site_fract_z
 _atom_site_occupancy
  Na  Na0  1  0.614151  0.000000  0.750000  1
  Ca  Ca1  1  0.390144  0.000000  0.250000  1
  U  U2  1  0.010993  0.621887  0.750000  1
  U  U3  1  0.987002  0.376794  0.250000  1
  U  U4  1  0.389106  0.378113  0.750000  1
  U  U5  1  0.610208  0.623206  0.250000  1
  Ta  Ta6  1  0.000486  0.000000  0.504044  1
  Ta  Ta7  1  0.000486  0.000000  0.995956  1
  Sb  Sb8  1  0.264807  0.000000  0.750000  1
  Sb  Sb9  1  0.740598  0.000000  0.250000  1
  Sb  Sb10  1  0.002213  0.266861  0.750000  1
  Sb  Sb11  1  0.995562  0.733045  0.250000  1
  Sb  Sb12  1  0.735351  0.733139  0.750000  1
  Sb  Sb13  1  0.262518  0.266955  0.250000  1
  Sb  Sb14  1  0.322513  0.646841  0.499993  1
  Sb  Sb15  1  0.675674  0.353159  0.499993  1
  Sb  Sb16  1  0.675674  0.353159  0.000007  1
  Sb  Sb17  1  0.322513  0.646841  0.000007  1
