# generated using pymatgen
data_Tm16In4Co3Ru
_symmetry_space_group_name_H-M   'P 1'
_cell_length_a   9.43231111
_cell_length_b   9.43231057
_cell_length_c   9.45544097
_cell_angle_alpha   60.08088909
_cell_angle_beta   60.08088257
_cell_angle_gamma   60.00000297
_symmetry_Int_Tables_number   1
_chemical_formula_structural   Tm16In4Co3Ru
_chemical_formula_sum   'Tm16 In4 Co3 Ru1'
_cell_volume   595.57010727
_cell_formula_units_Z   1
loop_
 _symmetry_equiv_pos_site_id
 _symmetry_equiv_pos_as_xyz
  1  'x, y, z'
loop_
 _atom_site_type_symbol
 _atom_site_label
 _atom_site_symmetry_multiplicity
 _atom_site_fract_x
 _atom_site_fract_y
 _atom_site_fract_z
 _atom_site_occupancy
  Tm  Tm0  1  0.059073  0.059073  0.438682  1
  Tm  Tm1  1  0.443173  0.059073  0.438682  1
  Tm  Tm2  1  0.060781  0.439212  0.060796  1
  Tm  Tm3  1  0.043722  0.649890  0.656499  1
  Tm  Tm4  1  0.439212  0.439212  0.060796  1
  Tm  Tm5  1  0.649890  0.043722  0.656499  1
  Tm  Tm6  1  0.191960  0.811050  0.185940  1
  Tm  Tm7  1  0.188327  0.188327  0.811934  1
  Tm  Tm8  1  0.811050  0.811050  0.185940  1
  Tm  Tm9  1  0.439212  0.060781  0.060796  1
  Tm  Tm10  1  0.811050  0.191960  0.185940  1
  Tm  Tm11  1  0.059073  0.443173  0.438682  1
  Tm  Tm12  1  0.811412  0.188327  0.811934  1
  Tm  Tm13  1  0.188327  0.811412  0.811934  1
  Tm  Tm14  1  0.653530  0.653530  0.039409  1
  Tm  Tm15  1  0.649890  0.649890  0.656499  1
  In  In16  1  0.416976  0.416976  0.415945  1
  In  In17  1  0.750103  0.416976  0.415945  1
  In  In18  1  0.416976  0.750103  0.415945  1
  In  In19  1  0.416657  0.416657  0.750027  1
  Co  Co20  1  0.859311  0.859311  0.859016  1
  Co  Co21  1  0.422363  0.859311  0.859016  1
  Co  Co22  1  0.859311  0.422363  0.859016  1
  Ru  Ru23  1  0.858623  0.858623  0.424129  1
