# generated using pymatgen
data_NdY2Cu4(SiSn)2
_symmetry_space_group_name_H-M   'P 1'
_cell_length_a   8.26458390
_cell_length_b   8.26458573
_cell_length_c   8.26458440
_cell_angle_alpha   149.43071209
_cell_angle_beta   132.00183341
_cell_angle_gamma   57.98311126
_symmetry_Int_Tables_number   1
_chemical_formula_structural   NdY2Cu4(SiSn)2
_chemical_formula_sum   'Nd1 Y2 Cu4 Si2 Sn2'
_cell_volume   211.76045183
_cell_formula_units_Z   1
loop_
 _symmetry_equiv_pos_site_id
 _symmetry_equiv_pos_as_xyz
  1  'x, y, z'
loop_
 _atom_site_type_symbol
 _atom_site_label
 _atom_site_symmetry_multiplicity
 _atom_site_fract_x
 _atom_site_fract_y
 _atom_site_fract_z
 _atom_site_occupancy
  Nd  Nd0  1  0.500000  0.000000  0.500000  1
  Y  Y1  1  0.123768  0.123768  0.000000  1
  Y  Y2  1  0.876232  0.876232  0.000000  1
  Cu  Cu3  1  0.464522  0.653538  0.810984  1
  Cu  Cu4  1  0.842553  0.653538  0.189016  1
  Cu  Cu5  1  0.157447  0.346462  0.810984  1
  Cu  Cu6  1  0.535478  0.346462  0.189016  1
  Si  Si7  1  0.178649  0.500000  0.678649  1
  Si  Si8  1  0.821351  0.500000  0.321351  1
  Sn  Sn9  1  0.719756  0.219756  0.500000  1
  Sn  Sn10  1  0.280244  0.780244  0.500000  1
