# generated using pymatgen
data_Pr5Er3(Si3Rh)4
_symmetry_space_group_name_H-M   'P 1'
_cell_length_a   8.24632500
_cell_length_b   8.24632530
_cell_length_c   8.19728400
_cell_angle_alpha   90.00000000
_cell_angle_beta   90.00000000
_cell_angle_gamma   120.00000279
_symmetry_Int_Tables_number   1
_chemical_formula_structural   Pr5Er3(Si3Rh)4
_chemical_formula_sum   'Pr5 Er3 Si12 Rh4'
_cell_volume   482.74914272
_cell_formula_units_Z   1
loop_
 _symmetry_equiv_pos_site_id
 _symmetry_equiv_pos_as_xyz
  1  'x, y, z'
loop_
 _atom_site_type_symbol
 _atom_site_label
 _atom_site_symmetry_multiplicity
 _atom_site_fract_x
 _atom_site_fract_y
 _atom_site_fract_z
 _atom_site_occupancy
  Pr  Pr0  1  0.000000  0.000000  0.250000  1
  Pr  Pr1  1  0.000000  0.000000  0.750000  1
  Pr  Pr2  1  0.499377  0.500623  0.250000  1
  Pr  Pr3  1  0.499377  0.998753  0.250000  1
  Pr  Pr4  1  0.001247  0.500623  0.250000  1
  Er  Er5  1  0.505158  0.494842  0.750000  1
  Er  Er6  1  0.989684  0.494842  0.750000  1
  Er  Er7  1  0.505158  0.010316  0.750000  1
  Si  Si8  1  0.833537  0.166463  0.505902  1
  Si  Si9  1  0.833537  0.667075  0.505902  1
  Si  Si10  1  0.332925  0.166463  0.505902  1
  Si  Si11  1  0.833537  0.166463  0.994098  1
  Si  Si12  1  0.833537  0.667075  0.994098  1
  Si  Si13  1  0.332925  0.166463  0.994098  1
  Si  Si14  1  0.168783  0.831217  0.993665  1
  Si  Si15  1  0.662435  0.831217  0.993665  1
  Si  Si16  1  0.168783  0.337565  0.993665  1
  Si  Si17  1  0.168783  0.831217  0.506335  1
  Si  Si18  1  0.662435  0.831217  0.506335  1
  Si  Si19  1  0.168783  0.337565  0.506335  1
  Rh  Rh20  1  0.666667  0.333333  0.516686  1
  Rh  Rh21  1  0.666667  0.333333  0.983314  1
  Rh  Rh22  1  0.333333  0.666667  0.952672  1
  Rh  Rh23  1  0.333333  0.666667  0.547328  1
