# generated using pymatgen
data_CdGa3FePbCl16
_symmetry_space_group_name_H-M   'P 1'
_cell_length_a   7.29937512
_cell_length_b   7.41799966
_cell_length_c   13.75961272
_cell_angle_alpha   87.40644233
_cell_angle_beta   89.95278407
_cell_angle_gamma   89.96144796
_symmetry_Int_Tables_number   1
_chemical_formula_structural   CdGa3FePbCl16
_chemical_formula_sum   'Cd1 Ga3 Fe1 Pb1 Cl16'
_cell_volume   744.27490479
_cell_formula_units_Z   1
loop_
 _symmetry_equiv_pos_site_id
 _symmetry_equiv_pos_as_xyz
  1  'x, y, z'
loop_
 _atom_site_type_symbol
 _atom_site_label
 _atom_site_symmetry_multiplicity
 _atom_site_fract_x
 _atom_site_fract_y
 _atom_site_fract_z
 _atom_site_occupancy
  Cd  Cd0  1  0.249703  0.076083  0.313355  1
  Ga  Ga1  1  0.070577  0.218234  0.084899  1
  Ga  Ga2  1  0.558531  0.638820  0.777453  1
  Ga  Ga3  1  0.420040  0.637552  0.276843  1
  Fe  Fe4  1  0.944889  0.223734  0.571096  1
  Pb  Pb5  1  0.764018  0.083410  0.817762  1
  Cl  Cl6  1  0.424745  0.609107  0.640924  1
  Cl  Cl7  1  0.572812  0.610195  0.145429  1
  Cl  Cl8  1  0.853880  0.720036  0.761783  1
  Cl  Cl9  1  0.133591  0.737870  0.260513  1
  Cl  Cl10  1  0.937242  0.481135  0.494276  1
  Cl  Cl11  1  0.056453  0.465734  0.998860  1
  Cl  Cl12  1  0.931312  0.993488  0.012712  1
  Cl  Cl13  1  0.090867  0.015615  0.485492  1
  Cl  Cl14  1  0.662136  0.130485  0.614256  1
  Cl  Cl15  1  0.355731  0.130422  0.125057  1
  Cl  Cl16  1  0.546312  0.394328  0.877105  1
  Cl  Cl17  1  0.420463  0.380288  0.369990  1
  Cl  Cl18  1  0.438786  0.862041  0.861664  1
  Cl  Cl19  1  0.535089  0.864310  0.363017  1
  Cl  Cl20  1  0.950322  0.229421  0.235172  1
  Cl  Cl21  1  0.082500  0.232495  0.716746  1
