# generated using pymatgen
data_Dy4Al2Os5W
_symmetry_space_group_name_H-M   'P 1'
_cell_length_a   5.30726547
_cell_length_b   5.33688778
_cell_length_c   8.91340600
_cell_angle_alpha   90.00000000
_cell_angle_beta   90.00000000
_cell_angle_gamma   117.98031332
_symmetry_Int_Tables_number   1
_chemical_formula_structural   Dy4Al2Os5W
_chemical_formula_sum   'Dy4 Al2 Os5 W1'
_cell_volume   222.95479068
_cell_formula_units_Z   1
loop_
 _symmetry_equiv_pos_site_id
 _symmetry_equiv_pos_as_xyz
  1  'x, y, z'
loop_
 _atom_site_type_symbol
 _atom_site_label
 _atom_site_symmetry_multiplicity
 _atom_site_fract_x
 _atom_site_fract_y
 _atom_site_fract_z
 _atom_site_occupancy
  Dy  Dy0  1  0.327095  0.670047  0.433583  1
  Dy  Dy1  1  0.661283  0.329208  0.557813  1
  Dy  Dy2  1  0.661283  0.329208  0.942187  1
  Dy  Dy3  1  0.327095  0.670047  0.066417  1
  Al  Al4  1  0.184172  0.840674  0.750000  1
  Al  Al5  1  0.179705  0.342200  0.750000  1
  Os  Os6  1  0.982248  0.002946  0.506140  1
  Os  Os7  1  0.982248  0.002946  0.993860  1
  Os  Os8  1  0.827788  0.651641  0.250000  1
  Os  Os9  1  0.352089  0.173204  0.250000  1
  Os  Os10  1  0.673183  0.827551  0.750000  1
  W  W11  1  0.841812  0.160328  0.250000  1
