# generated using pymatgen
data_LiCrCo4P3
_symmetry_space_group_name_H-M   'P 1'
_cell_length_a   3.53963600
_cell_length_b   10.11613000
_cell_length_c   11.68804200
_cell_angle_alpha   90.00000000
_cell_angle_beta   90.00000000
_cell_angle_gamma   90.00000000
_symmetry_Int_Tables_number   1
_chemical_formula_structural   LiCrCo4P3
_chemical_formula_sum   'Li4 Cr4 Co16 P12'
_cell_volume   418.51860466
_cell_formula_units_Z   4
loop_
 _symmetry_equiv_pos_site_id
 _symmetry_equiv_pos_as_xyz
  1  'x, y, z'
loop_
 _atom_site_type_symbol
 _atom_site_label
 _atom_site_symmetry_multiplicity
 _atom_site_fract_x
 _atom_site_fract_y
 _atom_site_fract_z
 _atom_site_occupancy
  Li  Li0  1  0.250000  0.581128  0.704434  1
  Li  Li1  1  0.250000  0.918872  0.204434  1
  Li  Li2  1  0.750000  0.418872  0.295566  1
  Li  Li3  1  0.750000  0.081128  0.795566  1
  Cr  Cr4  1  0.250000  0.706901  0.988022  1
  Cr  Cr5  1  0.250000  0.793099  0.488022  1
  Cr  Cr6  1  0.750000  0.293099  0.011978  1
  Cr  Cr7  1  0.750000  0.206901  0.511978  1
  Co  Co8  1  0.250000  0.406335  0.486261  1
  Co  Co9  1  0.250000  0.093665  0.986261  1
  Co  Co10  1  0.750000  0.593665  0.513739  1
  Co  Co11  1  0.750000  0.906335  0.013739  1
  Co  Co12  1  0.250000  0.217996  0.174970  1
  Co  Co13  1  0.250000  0.282004  0.674970  1
  Co  Co14  1  0.750000  0.782004  0.825030  1
  Co  Co15  1  0.750000  0.717996  0.325030  1
  Co  Co16  1  0.250000  0.882073  0.700453  1
  Co  Co17  1  0.250000  0.617927  0.200453  1
  Co  Co18  1  0.750000  0.117927  0.299547  1
  Co  Co19  1  0.750000  0.382073  0.799547  1
  Co  Co20  1  0.250000  0.463732  0.933149  1
  Co  Co21  1  0.250000  0.036268  0.433149  1
  Co  Co22  1  0.750000  0.536268  0.066851  1
  Co  Co23  1  0.750000  0.963732  0.566851  1
  P  P24  1  0.250000  0.419318  0.119239  1
  P  P25  1  0.250000  0.080682  0.619239  1
  P  P26  1  0.750000  0.580682  0.880761  1
  P  P27  1  0.750000  0.919318  0.380761  1
  P  P28  1  0.250000  0.260402  0.863576  1
  P  P29  1  0.250000  0.239598  0.363576  1
  P  P30  1  0.750000  0.739598  0.136424  1
  P  P31  1  0.750000  0.760402  0.636424  1
  P  P32  1  0.250000  0.592142  0.388166  1
  P  P33  1  0.250000  0.907858  0.888166  1
  P  P34  1  0.750000  0.407858  0.611834  1
  P  P35  1  0.750000  0.092142  0.111834  1
