# generated using pymatgen
data_Pr2SeF4
_symmetry_space_group_name_H-M   'P 1'
_cell_length_a   8.10560342
_cell_length_b   8.10560392
_cell_length_c   8.10560346
_cell_angle_alpha   29.76579951
_cell_angle_beta   29.76579137
_cell_angle_gamma   29.76579761
_symmetry_Int_Tables_number   1
_chemical_formula_structural   Pr2SeF4
_chemical_formula_sum   'Pr2 Se1 F4'
_cell_volume   116.22349713
_cell_formula_units_Z   1
loop_
 _symmetry_equiv_pos_site_id
 _symmetry_equiv_pos_as_xyz
  1  'x, y, z'
loop_
 _atom_site_type_symbol
 _atom_site_label
 _atom_site_symmetry_multiplicity
 _atom_site_fract_x
 _atom_site_fract_y
 _atom_site_fract_z
 _atom_site_occupancy
  Pr  Pr0  1  0.243044  0.243044  0.243044  1
  Pr  Pr1  1  0.756956  0.756956  0.756956  1
  Se  Se2  1  0.000000  0.000000  0.000000  1
  F  F3  1  0.138953  0.138953  0.138953  1
  F  F4  1  0.430179  0.430179  0.430179  1
  F  F5  1  0.569821  0.569821  0.569821  1
  F  F6  1  0.861047  0.861047  0.861047  1
