# generated using pymatgen
data_TbTm2CoSn3Pt2
_symmetry_space_group_name_H-M   'P 1'
_cell_length_a   7.57025421
_cell_length_b   7.54767587
_cell_length_c   3.78818500
_cell_angle_alpha   90.00000000
_cell_angle_beta   90.00000000
_cell_angle_gamma   119.90139002
_symmetry_Int_Tables_number   1
_chemical_formula_structural   TbTm2CoSn3Pt2
_chemical_formula_sum   'Tb1 Tm2 Co1 Sn3 Pt2'
_cell_volume   187.63601473
_cell_formula_units_Z   1
loop_
 _symmetry_equiv_pos_site_id
 _symmetry_equiv_pos_as_xyz
  1  'x, y, z'
loop_
 _atom_site_type_symbol
 _atom_site_label
 _atom_site_symmetry_multiplicity
 _atom_site_fract_x
 _atom_site_fract_y
 _atom_site_fract_z
 _atom_site_occupancy
  Tb  Tb0  1  0.000000  0.403471  0.000000  1
  Tm  Tm1  1  0.597312  0.597272  0.000000  1
  Tm  Tm2  1  0.402688  0.999960  0.000000  1
  Co  Co3  1  0.000000  0.998621  0.000000  1
  Sn  Sn4  1  0.000000  0.750711  0.500000  1
  Sn  Sn5  1  0.250492  0.249108  0.500000  1
  Sn  Sn6  1  0.749508  0.998616  0.500000  1
  Pt  Pt7  1  0.337471  0.669857  0.500000  1
  Pt  Pt8  1  0.662529  0.332385  0.500000  1
