# generated using pymatgen
data_LiCa4FeC8
_symmetry_space_group_name_H-M   'P 1'
_cell_length_a   6.86860901
_cell_length_b   6.86860877
_cell_length_c   6.86860800
_cell_angle_alpha   134.58005080
_cell_angle_beta   112.45124716
_cell_angle_gamma   85.19284217
_symmetry_Int_Tables_number   1
_chemical_formula_structural   LiCa4FeC8
_chemical_formula_sum   'Li1 Ca4 Fe1 C8'
_cell_volume   204.78775579
_cell_formula_units_Z   1
loop_
 _symmetry_equiv_pos_site_id
 _symmetry_equiv_pos_as_xyz
  1  'x, y, z'
loop_
 _atom_site_type_symbol
 _atom_site_label
 _atom_site_symmetry_multiplicity
 _atom_site_fract_x
 _atom_site_fract_y
 _atom_site_fract_z
 _atom_site_occupancy
  Li  Li0  1  0.000000  0.250000  0.250000  1
  Ca  Ca1  1  0.198263  0.349920  0.839513  1
  Ca  Ca2  1  0.801737  0.641250  0.151657  1
  Ca  Ca3  1  0.510406  0.858750  0.660487  1
  Ca  Ca4  1  0.489594  0.150080  0.348343  1
  Fe  Fe5  1  0.000000  0.750000  0.750000  1
  C  C6  1  0.799558  0.135672  0.682173  1
  C  C7  1  0.200442  0.882614  0.336112  1
  C  C8  1  0.453497  0.617386  0.817827  1
  C  C9  1  0.546503  0.364328  0.163888  1
  C  C10  1  0.907578  0.018039  0.759327  1
  C  C11  1  0.092422  0.851749  0.110461  1
  C  C12  1  0.258711  0.648251  0.740673  1
  C  C13  1  0.741289  0.481961  0.389539  1
