# generated using pymatgen
data_Gd2MnIr3
_symmetry_space_group_name_H-M   'P 1'
_cell_length_a   5.22606900
_cell_length_b   5.45221440
_cell_length_c   8.82103800
_cell_angle_alpha   90.00000000
_cell_angle_beta   90.00000000
_cell_angle_gamma   121.44208839
_symmetry_Int_Tables_number   1
_chemical_formula_structural   Gd2MnIr3
_chemical_formula_sum   'Gd4 Mn2 Ir6'
_cell_volume   214.43824089
_cell_formula_units_Z   2
loop_
 _symmetry_equiv_pos_site_id
 _symmetry_equiv_pos_as_xyz
  1  'x, y, z'
loop_
 _atom_site_type_symbol
 _atom_site_label
 _atom_site_symmetry_multiplicity
 _atom_site_fract_x
 _atom_site_fract_y
 _atom_site_fract_z
 _atom_site_occupancy
  Gd  Gd0  1  0.336222  0.668111  0.068017  1
  Gd  Gd1  1  0.663778  0.331889  0.568017  1
  Gd  Gd2  1  0.663778  0.331889  0.931983  1
  Gd  Gd3  1  0.336222  0.668111  0.431983  1
  Mn  Mn4  1  0.670739  0.835369  0.750000  1
  Mn  Mn5  1  0.329261  0.164631  0.250000  1
  Ir  Ir6  1  0.000000  0.000000  0.500000  1
  Ir  Ir7  1  0.000000  0.000000  0.000000  1
  Ir  Ir8  1  0.178802  0.345123  0.750000  1
  Ir  Ir9  1  0.821198  0.166322  0.250000  1
  Ir  Ir10  1  0.821198  0.654877  0.250000  1
  Ir  Ir11  1  0.178802  0.833678  0.750000  1
