# generated using pymatgen
data_Lu4FeOs5Ru2
_symmetry_space_group_name_H-M   'P 1'
_cell_length_a   5.20630313
_cell_length_b   5.26591648
_cell_length_c   8.81928800
_cell_angle_alpha   90.00000000
_cell_angle_beta   90.00000000
_cell_angle_gamma   120.37949781
_symmetry_Int_Tables_number   1
_chemical_formula_structural   Lu4FeOs5Ru2
_chemical_formula_sum   'Lu4 Fe1 Os5 Ru2'
_cell_volume   208.59027984
_cell_formula_units_Z   1
loop_
 _symmetry_equiv_pos_site_id
 _symmetry_equiv_pos_as_xyz
  1  'x, y, z'
loop_
 _atom_site_type_symbol
 _atom_site_label
 _atom_site_symmetry_multiplicity
 _atom_site_fract_x
 _atom_site_fract_y
 _atom_site_fract_z
 _atom_site_occupancy
  Lu  Lu0  1  0.336044  0.668022  0.435307  1
  Lu  Lu1  1  0.665022  0.332510  0.566938  1
  Lu  Lu2  1  0.665022  0.332510  0.933062  1
  Lu  Lu3  1  0.336044  0.668022  0.064693  1
  Fe  Fe4  1  0.667002  0.833502  0.750000  1
  Os  Os5  1  0.828312  0.172383  0.250000  1
  Os  Os6  1  0.828312  0.655928  0.250000  1
  Os  Os7  1  0.336772  0.168385  0.250000  1
  Os  Os8  1  0.170998  0.824917  0.750000  1
  Os  Os9  1  0.170998  0.346083  0.750000  1
  Ru  Ru10  1  0.997737  0.998869  0.502158  1
  Ru  Ru11  1  0.997737  0.998869  0.997842  1
