# generated using pymatgen
data_Pr5Nd6In9Pt4
_symmetry_space_group_name_H-M   'P 1'
_cell_length_a   13.52395475
_cell_length_b   13.52391828
_cell_length_c   3.84156100
_cell_angle_alpha   90.00000000
_cell_angle_beta   90.00000000
_cell_angle_gamma   111.03694608
_symmetry_Int_Tables_number   1
_chemical_formula_structural   Pr5Nd6In9Pt4
_chemical_formula_sum   'Pr5 Nd6 In9 Pt4'
_cell_volume   655.77992048
_cell_formula_units_Z   1
loop_
 _symmetry_equiv_pos_site_id
 _symmetry_equiv_pos_as_xyz
  1  'x, y, z'
loop_
 _atom_site_type_symbol
 _atom_site_label
 _atom_site_symmetry_multiplicity
 _atom_site_fract_x
 _atom_site_fract_y
 _atom_site_fract_z
 _atom_site_occupancy
  Pr  Pr0  1  0.500000  0.500000  0.500000  1
  Pr  Pr1  1  0.128614  0.871390  0.500000  1
  Pr  Pr2  1  0.871386  0.128610  0.500000  1
  Pr  Pr3  1  0.340739  0.659261  0.500000  1
  Pr  Pr4  1  0.659261  0.340739  0.500000  1
  Nd  Nd5  1  0.810043  0.810045  0.500000  1
  Nd  Nd6  1  0.189957  0.189955  0.500000  1
  Nd  Nd7  1  0.572630  0.917522  0.500000  1
  Nd  Nd8  1  0.427370  0.082478  0.500000  1
  Nd  Nd9  1  0.917524  0.572629  0.500000  1
  Nd  Nd10  1  0.082476  0.427371  0.500000  1
  In  In11  1  0.339923  0.867130  0.000000  1
  In  In12  1  0.660077  0.132870  0.000000  1
  In  In13  1  0.867130  0.339924  0.000000  1
  In  In14  1  0.132870  0.660076  0.000000  1
  In  In15  1  0.576673  0.719339  0.000000  1
  In  In16  1  0.423327  0.280661  0.000000  1
  In  In17  1  0.719338  0.576673  0.000000  1
  In  In18  1  0.280662  0.423327  0.000000  1
  In  In19  1  0.000000  0.000000  0.000000  1
  Pt  Pt20  1  0.745881  0.948484  0.000000  1
  Pt  Pt21  1  0.254119  0.051516  0.000000  1
  Pt  Pt22  1  0.948487  0.745884  0.000000  1
  Pt  Pt23  1  0.051513  0.254116  0.000000  1
