# generated using pymatgen
data_Cs6Ti3VBr18
_symmetry_space_group_name_H-M   'P 1'
_cell_length_a   7.76233227
_cell_length_b   7.76314775
_cell_length_c   19.50271700
_cell_angle_alpha   89.98661918
_cell_angle_beta   90.01511682
_cell_angle_gamma   119.99998696
_symmetry_Int_Tables_number   1
_chemical_formula_structural   Cs6Ti3VBr18
_chemical_formula_sum   'Cs6 Ti3 V1 Br18'
_cell_volume   1017.78458796
_cell_formula_units_Z   1
loop_
 _symmetry_equiv_pos_site_id
 _symmetry_equiv_pos_as_xyz
  1  'x, y, z'
loop_
 _atom_site_type_symbol
 _atom_site_label
 _atom_site_symmetry_multiplicity
 _atom_site_fract_x
 _atom_site_fract_y
 _atom_site_fract_z
 _atom_site_occupancy
  Cs  Cs0  1  0.666700  0.333370  0.567846  1
  Cs  Cs1  1  0.333745  0.666934  0.072547  1
  Cs  Cs2  1  0.333031  0.666351  0.428106  1
  Cs  Cs3  1  0.666562  0.333258  0.939032  1
  Cs  Cs4  1  0.000056  0.000056  0.243985  1
  Cs  Cs5  1  0.000263  0.000135  0.750404  1
  Ti  Ti6  1  0.333292  0.666139  0.665951  1
  Ti  Ti7  1  0.666604  0.333128  0.333485  1
  Ti  Ti8  1  0.333664  0.666518  0.833513  1
  V  V9  1  0.666702  0.333387  0.166568  1
  Br  Br10  1  0.823535  0.646978  0.405304  1
  Br  Br11  1  0.175943  0.824741  0.594823  1
  Br  Br12  1  0.647564  0.823873  0.595043  1
  Br  Br13  1  0.823880  0.176457  0.405417  1
  Br  Br14  1  0.352968  0.176613  0.405362  1
  Br  Br15  1  0.176760  0.353659  0.903479  1
  Br  Br16  1  0.019604  0.510034  0.749597  1
  Br  Br17  1  0.647089  0.823580  0.903271  1
  Br  Br18  1  0.823899  0.647592  0.094894  1
  Br  Br19  1  0.175910  0.351604  0.594990  1
  Br  Br20  1  0.489449  0.980116  0.749957  1
  Br  Br21  1  0.512169  0.487875  0.250963  1
  Br  Br22  1  0.489808  0.509578  0.749880  1
  Br  Br23  1  0.176675  0.823673  0.903485  1
  Br  Br24  1  0.352466  0.176179  0.094951  1
  Br  Br25  1  0.975815  0.487944  0.251041  1
  Br  Br26  1  0.511991  0.023974  0.251098  1
  Br  Br27  1  0.823852  0.176256  0.095010  1
