# generated using pymatgen
data_Tm3VFeP6Rh7
_symmetry_space_group_name_H-M   'P 1'
_cell_length_a   3.86371000
_cell_length_b   11.06991600
_cell_length_c   12.70565500
_cell_angle_alpha   90.00000000
_cell_angle_beta   90.00000000
_cell_angle_gamma   90.00000000
_symmetry_Int_Tables_number   1
_chemical_formula_structural   Tm3VFeP6Rh7
_chemical_formula_sum   'Tm6 V2 Fe2 P12 Rh14'
_cell_volume   543.43287308
_cell_formula_units_Z   2
loop_
 _symmetry_equiv_pos_site_id
 _symmetry_equiv_pos_as_xyz
  1  'x, y, z'
loop_
 _atom_site_type_symbol
 _atom_site_label
 _atom_site_symmetry_multiplicity
 _atom_site_fract_x
 _atom_site_fract_y
 _atom_site_fract_z
 _atom_site_occupancy
  Tm  Tm0  1  0.000000  0.500000  0.519376  1
  Tm  Tm1  1  0.500000  0.000000  0.480624  1
  Tm  Tm2  1  0.500000  0.819747  0.198861  1
  Tm  Tm3  1  0.500000  0.180253  0.198861  1
  Tm  Tm4  1  0.000000  0.680253  0.801139  1
  Tm  Tm5  1  0.000000  0.319747  0.801139  1
  V  V6  1  0.500000  0.500000  0.157150  1
  V  V7  1  0.000000  0.000000  0.842850  1
  Fe  Fe8  1  0.000000  0.500000  0.988377  1
  Fe  Fe9  1  0.500000  0.000000  0.011623  1
  P  P10  1  0.500000  0.500000  0.884880  1
  P  P11  1  0.000000  0.000000  0.115120  1
  P  P12  1  0.500000  0.500000  0.345117  1
  P  P13  1  0.000000  0.000000  0.654883  1
  P  P14  1  0.500000  0.313938  0.619383  1
  P  P15  1  0.500000  0.686062  0.619383  1
  P  P16  1  0.000000  0.186062  0.380617  1
  P  P17  1  0.000000  0.813938  0.380617  1
  P  P18  1  0.500000  0.853410  0.893906  1
  P  P19  1  0.500000  0.146590  0.893906  1
  P  P20  1  0.000000  0.646590  0.106094  1
  P  P21  1  0.000000  0.353410  0.106094  1
  Rh  Rh22  1  0.500000  0.500000  0.701794  1
  Rh  Rh23  1  0.000000  0.000000  0.298206  1
  Rh  Rh24  1  0.500000  0.333160  0.991979  1
  Rh  Rh25  1  0.500000  0.666840  0.991979  1
  Rh  Rh26  1  0.000000  0.166840  0.008021  1
  Rh  Rh27  1  0.000000  0.833160  0.008021  1
  Rh  Rh28  1  0.500000  0.295073  0.431252  1
  Rh  Rh29  1  0.500000  0.704927  0.431252  1
  Rh  Rh30  1  0.000000  0.204927  0.568748  1
  Rh  Rh31  1  0.000000  0.795073  0.568748  1
  Rh  Rh32  1  0.500000  0.874343  0.711695  1
  Rh  Rh33  1  0.500000  0.125657  0.711695  1
  Rh  Rh34  1  0.000000  0.625657  0.288305  1
  Rh  Rh35  1  0.000000  0.374343  0.288305  1
