# generated using pymatgen
data_Eu5TmCo16(P6Os)2
_symmetry_space_group_name_H-M   'P 1'
_cell_length_a   3.76403900
_cell_length_b   10.63589972
_cell_length_c   12.36226753
_cell_angle_alpha   90.09695073
_cell_angle_beta   90.00000000
_cell_angle_gamma   90.00000000
_symmetry_Int_Tables_number   1
_chemical_formula_structural   Eu5TmCo16(P6Os)2
_chemical_formula_sum   'Eu5 Tm1 Co16 P12 Os2'
_cell_volume   494.90958454
_cell_formula_units_Z   1
loop_
 _symmetry_equiv_pos_site_id
 _symmetry_equiv_pos_as_xyz
  1  'x, y, z'
loop_
 _atom_site_type_symbol
 _atom_site_label
 _atom_site_symmetry_multiplicity
 _atom_site_fract_x
 _atom_site_fract_y
 _atom_site_fract_z
 _atom_site_occupancy
  Eu  Eu0  1  0.000000  0.500337  0.526227  1
  Eu  Eu1  1  0.500000  0.000300  0.474413  1
  Eu  Eu2  1  0.500000  0.818611  0.204420  1
  Eu  Eu3  1  0.500000  0.180189  0.206932  1
  Eu  Eu4  1  0.000000  0.680655  0.793378  1
  Tm  Tm5  1  0.000000  0.318263  0.795452  1
  Co  Co6  1  0.500000  0.496212  0.703894  1
  Co  Co7  1  0.000000  0.999854  0.297702  1
  Co  Co8  1  0.000000  0.496957  0.987187  1
  Co  Co9  1  0.500000  0.000905  0.009399  1
  Co  Co10  1  0.500000  0.331849  0.988119  1
  Co  Co11  1  0.500000  0.665579  0.991173  1
  Co  Co12  1  0.000000  0.169566  0.006974  1
  Co  Co13  1  0.000000  0.832197  0.006130  1
  Co  Co14  1  0.500000  0.297105  0.433522  1
  Co  Co15  1  0.500000  0.702637  0.430005  1
  Co  Co16  1  0.000000  0.204274  0.573719  1
  Co  Co17  1  0.000000  0.797618  0.568841  1
  Co  Co18  1  0.500000  0.883843  0.709112  1
  Co  Co19  1  0.500000  0.123069  0.713192  1
  Co  Co20  1  0.000000  0.617950  0.289074  1
  Co  Co21  1  0.000000  0.381088  0.292309  1
  P  P22  1  0.500000  0.498026  0.881916  1
  P  P23  1  0.000000  0.000165  0.114459  1
  P  P24  1  0.500000  0.499979  0.345631  1
  P  P25  1  0.000000  0.000929  0.654466  1
  P  P26  1  0.500000  0.308051  0.619548  1
  P  P27  1  0.500000  0.694724  0.614773  1
  P  P28  1  0.000000  0.194139  0.387439  1
  P  P29  1  0.000000  0.805666  0.383753  1
  P  P30  1  0.500000  0.846473  0.893996  1
  P  P31  1  0.500000  0.154872  0.893662  1
  P  P32  1  0.000000  0.651982  0.103350  1
  P  P33  1  0.000000  0.346833  0.106809  1
  Os  Os34  1  0.500000  0.496724  0.155701  1
  Os  Os35  1  0.000000  0.002377  0.843326  1
