# generated using pymatgen
data_Yb20P13Au3
_symmetry_space_group_name_H-M   'P 1'
_cell_length_a   7.47458416
_cell_length_b   7.69316122
_cell_length_c   14.50543200
_cell_angle_alpha   90.00000000
_cell_angle_beta   90.00000000
_cell_angle_gamma   88.15086189
_symmetry_Int_Tables_number   1
_chemical_formula_structural   Yb20P13Au3
_chemical_formula_sum   'Yb20 P13 Au3'
_cell_volume   833.67412324
_cell_formula_units_Z   1
loop_
 _symmetry_equiv_pos_site_id
 _symmetry_equiv_pos_as_xyz
  1  'x, y, z'
loop_
 _atom_site_type_symbol
 _atom_site_label
 _atom_site_symmetry_multiplicity
 _atom_site_fract_x
 _atom_site_fract_y
 _atom_site_fract_z
 _atom_site_occupancy
  Yb  Yb0  1  0.027218  0.194095  0.406998  1
  Yb  Yb1  1  0.872189  0.639279  0.386502  1
  Yb  Yb2  1  0.533566  0.311315  0.098303  1
  Yb  Yb3  1  0.130328  0.354476  0.612485  1
  Yb  Yb4  1  0.375665  0.859903  0.388738  1
  Yb  Yb5  1  0.130328  0.354476  0.887515  1
  Yb  Yb6  1  0.375665  0.859903  0.111262  1
  Yb  Yb7  1  0.205140  0.495596  0.250000  1
  Yb  Yb8  1  0.533566  0.311315  0.401697  1
  Yb  Yb9  1  0.786346  0.505765  0.750000  1
  Yb  Yb10  1  0.972257  0.804965  0.911370  1
  Yb  Yb11  1  0.972257  0.804965  0.588630  1
  Yb  Yb12  1  0.471028  0.677294  0.598490  1
  Yb  Yb13  1  0.617794  0.147876  0.609880  1
  Yb  Yb14  1  0.292961  0.001261  0.750000  1
  Yb  Yb15  1  0.617794  0.147876  0.890120  1
  Yb  Yb16  1  0.704691  0.005548  0.250000  1
  Yb  Yb17  1  0.872189  0.639279  0.113498  1
  Yb  Yb18  1  0.471028  0.677294  0.901510  1
  Yb  Yb19  1  0.027218  0.194095  0.093002  1
  P  P20  1  0.831088  0.357257  0.250000  1
  P  P21  1  0.406283  0.409511  0.750000  1
  P  P22  1  0.675057  0.867077  0.750000  1
  P  P23  1  0.778189  0.458120  0.547985  1
  P  P24  1  0.730730  0.965714  0.051835  1
  P  P25  1  0.778189  0.458120  0.952015  1
  P  P26  1  0.231611  0.540351  0.449410  1
  P  P27  1  0.231611  0.540351  0.050590  1
  P  P28  1  0.185195  0.624703  0.750000  1
  P  P29  1  0.330745  0.141135  0.250000  1
  P  P30  1  0.267093  0.030193  0.946511  1
  P  P31  1  0.730730  0.965714  0.448165  1
  P  P32  1  0.267093  0.030193  0.553489  1
  Au  Au33  1  0.572474  0.620036  0.250000  1
  Au  Au34  1  0.075785  0.880357  0.250000  1
  Au  Au35  1  0.918899  0.124594  0.750000  1
