# generated using pymatgen
data_SrPr3Mn4O12
_symmetry_space_group_name_H-M   'P 1'
_cell_length_a   7.84799800
_cell_length_b   5.53777440
_cell_length_c   5.60359143
_cell_angle_alpha   89.87481023
_cell_angle_beta   90.00000000
_cell_angle_gamma   90.00000000
_symmetry_Int_Tables_number   1
_chemical_formula_structural   SrPr3Mn4O12
_chemical_formula_sum   'Sr1 Pr3 Mn4 O12'
_cell_volume   243.53398164
_cell_formula_units_Z   1
loop_
 _symmetry_equiv_pos_site_id
 _symmetry_equiv_pos_as_xyz
  1  'x, y, z'
loop_
 _atom_site_type_symbol
 _atom_site_label
 _atom_site_symmetry_multiplicity
 _atom_site_fract_x
 _atom_site_fract_y
 _atom_site_fract_z
 _atom_site_occupancy
  Sr  Sr0  1  0.000000  0.507026  0.470281  1
  Pr  Pr1  1  0.500000  0.006394  0.039843  1
  Pr  Pr2  1  0.500000  0.490457  0.543307  1
  Pr  Pr3  1  0.000000  0.989591  0.958067  1
  Mn  Mn4  1  0.249707  0.501415  0.001673  1
  Mn  Mn5  1  0.249968  0.998381  0.499144  1
  Mn  Mn6  1  0.750032  0.998381  0.499144  1
  Mn  Mn7  1  0.750293  0.501415  0.001673  1
  O  O8  1  0.295091  0.281506  0.284044  1
  O  O9  1  0.216143  0.790741  0.204490  1
  O  O10  1  0.707163  0.220955  0.785192  1
  O  O11  1  0.779765  0.721941  0.720292  1
  O  O12  1  0.220235  0.721941  0.720292  1
  O  O13  1  0.292837  0.220955  0.785192  1
  O  O14  1  0.783857  0.790741  0.204490  1
  O  O15  1  0.704909  0.281506  0.284044  1
  O  O16  1  0.500000  0.923333  0.481482  1
  O  O17  1  0.000000  0.423147  0.007878  1
  O  O18  1  0.500000  0.571827  0.987378  1
  O  O19  1  0.000000  0.058348  0.522093  1
