# generated using pymatgen
data_Sr4Ta2MnMoO12
_symmetry_space_group_name_H-M   'P 1'
_cell_length_a   5.76629686
_cell_length_b   5.75793997
_cell_length_c   9.96814690
_cell_angle_alpha   54.67594996
_cell_angle_beta   90.31777371
_cell_angle_gamma   90.41283238
_symmetry_Int_Tables_number   1
_chemical_formula_structural   Sr4Ta2MnMoO12
_chemical_formula_sum   'Sr4 Ta2 Mn1 Mo1 O12'
_cell_volume   270.02309804
_cell_formula_units_Z   1
loop_
 _symmetry_equiv_pos_site_id
 _symmetry_equiv_pos_as_xyz
  1  'x, y, z'
loop_
 _atom_site_type_symbol
 _atom_site_label
 _atom_site_symmetry_multiplicity
 _atom_site_fract_x
 _atom_site_fract_y
 _atom_site_fract_z
 _atom_site_occupancy
  Sr  Sr0  1  0.468878  0.233195  0.760826  1
  Sr  Sr1  1  0.531122  0.766805  0.239174  1
  Sr  Sr2  1  0.977589  0.744401  0.759935  1
  Sr  Sr3  1  0.022411  0.255599  0.240065  1
  Ta  Ta4  1  0.000000  0.500000  0.500000  1
  Ta  Ta5  1  0.500000  0.500000  0.000000  1
  Mn  Mn6  1  0.000000  0.000000  0.000000  1
  Mo  Mo7  1  0.500000  0.000000  0.500000  1
  O  O8  1  0.011844  0.332325  0.735706  1
  O  O9  1  0.988156  0.667675  0.264294  1
  O  O10  1  0.508504  0.691685  0.749183  1
  O  O11  1  0.491496  0.308315  0.250817  1
  O  O12  1  0.702959  0.804890  0.968558  1
  O  O13  1  0.297041  0.195110  0.031442  1
  O  O14  1  0.221670  0.197044  0.537323  1
  O  O15  1  0.778330  0.802956  0.462677  1
  O  O16  1  0.226335  0.731490  0.970331  1
  O  O17  1  0.773665  0.268510  0.029669  1
  O  O18  1  0.724873  0.240711  0.535253  1
  O  O19  1  0.275127  0.759289  0.464747  1
