# generated using pymatgen
data_Rb2NaTb(AsS2)6
_symmetry_space_group_name_H-M   'P 1'
_cell_length_a   9.63016000
_cell_length_b   9.63015896
_cell_length_c   7.72380500
_cell_angle_alpha   90.00000000
_cell_angle_beta   90.00000000
_cell_angle_gamma   120.00000358
_symmetry_Int_Tables_number   1
_chemical_formula_structural   Rb2NaTb(AsS2)6
_chemical_formula_sum   'Rb2 Na1 Tb1 As6 S12'
_cell_volume   620.33869968
_cell_formula_units_Z   1
loop_
 _symmetry_equiv_pos_site_id
 _symmetry_equiv_pos_as_xyz
  1  'x, y, z'
loop_
 _atom_site_type_symbol
 _atom_site_label
 _atom_site_symmetry_multiplicity
 _atom_site_fract_x
 _atom_site_fract_y
 _atom_site_fract_z
 _atom_site_occupancy
  Rb  Rb0  1  0.333333  0.666667  0.846092  1
  Rb  Rb1  1  0.666667  0.333333  0.153908  1
  Na  Na2  1  0.000000  0.000000  0.000000  1
  Tb  Tb3  1  0.000000  0.000000  0.500000  1
  As  As4  1  0.280112  0.832540  0.378396  1
  As  As5  1  0.167460  0.447572  0.378396  1
  As  As6  1  0.552428  0.719888  0.378396  1
  As  As7  1  0.719888  0.167460  0.621604  1
  As  As8  1  0.832540  0.552428  0.621604  1
  As  As9  1  0.447572  0.280112  0.621604  1
  S  S10  1  0.237127  0.024149  0.276642  1
  S  S11  1  0.975851  0.212978  0.276642  1
  S  S12  1  0.787022  0.762873  0.276642  1
  S  S13  1  0.762873  0.975851  0.723358  1
  S  S14  1  0.024149  0.787022  0.723358  1
  S  S15  1  0.212978  0.237127  0.723358  1
  S  S16  1  0.513347  0.903450  0.221892  1
  S  S17  1  0.096550  0.609898  0.221892  1
  S  S18  1  0.390102  0.486653  0.221892  1
  S  S19  1  0.486653  0.096550  0.778108  1
  S  S20  1  0.903450  0.390102  0.778108  1
  S  S21  1  0.609898  0.513347  0.778108  1
