# generated using pymatgen
data_Y5(In2Ir)2
_symmetry_space_group_name_H-M   'P 1'
_cell_length_a   3.67207900
_cell_length_b   8.03858200
_cell_length_c   18.31308800
_cell_angle_alpha   90.00000000
_cell_angle_beta   90.00000000
_cell_angle_gamma   90.00000000
_symmetry_Int_Tables_number   1
_chemical_formula_structural   Y5(In2Ir)2
_chemical_formula_sum   'Y10 In8 Ir4'
_cell_volume   540.57137480
_cell_formula_units_Z   2
loop_
 _symmetry_equiv_pos_site_id
 _symmetry_equiv_pos_as_xyz
  1  'x, y, z'
loop_
 _atom_site_type_symbol
 _atom_site_label
 _atom_site_symmetry_multiplicity
 _atom_site_fract_x
 _atom_site_fract_y
 _atom_site_fract_z
 _atom_site_occupancy
  Y  Y0  1  0.500000  0.243021  0.778417  1
  Y  Y1  1  0.500000  0.756979  0.221583  1
  Y  Y2  1  0.500000  0.256979  0.278417  1
  Y  Y3  1  0.500000  0.743021  0.721583  1
  Y  Y4  1  0.500000  0.114917  0.588694  1
  Y  Y5  1  0.500000  0.885083  0.411306  1
  Y  Y6  1  0.500000  0.385083  0.088694  1
  Y  Y7  1  0.500000  0.614917  0.911306  1
  Y  Y8  1  0.500000  0.000000  0.000000  1
  Y  Y9  1  0.500000  0.500000  0.500000  1
  In  In10  1  0.000000  0.073356  0.149954  1
  In  In11  1  0.000000  0.926644  0.850046  1
  In  In12  1  0.000000  0.426644  0.649954  1
  In  In13  1  0.000000  0.573356  0.350046  1
  In  In14  1  0.000000  0.208154  0.431962  1
  In  In15  1  0.000000  0.791846  0.568038  1
  In  In16  1  0.000000  0.291846  0.931962  1
  In  In17  1  0.000000  0.708154  0.068038  1
  Ir  Ir18  1  0.000000  0.018248  0.695497  1
  Ir  Ir19  1  0.000000  0.981752  0.304503  1
  Ir  Ir20  1  0.000000  0.481752  0.195497  1
  Ir  Ir21  1  0.000000  0.518248  0.804503  1
