# generated using pymatgen
data_Y11HoInCo4Ir
_symmetry_space_group_name_H-M   'P 1'
_cell_length_a   8.33880919
_cell_length_b   8.33589581
_cell_length_c   8.33584290
_cell_angle_alpha   111.12980731
_cell_angle_beta   110.58087994
_cell_angle_gamma   106.71907522
_symmetry_Int_Tables_number   1
_chemical_formula_structural   Y11HoInCo4Ir
_chemical_formula_sum   'Y11 Ho1 In1 Co4 Ir1'
_cell_volume   445.37936773
_cell_formula_units_Z   1
loop_
 _symmetry_equiv_pos_site_id
 _symmetry_equiv_pos_as_xyz
  1  'x, y, z'
loop_
 _atom_site_type_symbol
 _atom_site_label
 _atom_site_symmetry_multiplicity
 _atom_site_fract_x
 _atom_site_fract_y
 _atom_site_fract_z
 _atom_site_occupancy
  Y  Y0  1  0.314555  0.619054  0.304126  1
  Y  Y1  1  0.685824  0.381469  0.696582  1
  Y  Y2  1  0.314578  0.010378  0.695442  1
  Y  Y3  1  0.685837  0.989192  0.304278  1
  Y  Y4  1  0.184443  0.287955  0.472938  1
  Y  Y5  1  0.815366  0.710906  0.525491  1
  Y  Y6  1  0.184476  0.711464  0.896481  1
  Y  Y7  1  0.815422  0.289790  0.104433  1
  Y  Y8  1  0.409594  0.214351  0.195232  1
  Y  Y9  1  0.592319  0.786622  0.805672  1
  Y  Y10  1  0.018680  0.213095  0.805551  1
  Ho  Ho11  1  0.982471  0.787254  0.195209  1
  In  In12  1  0.499722  0.499655  0.999765  1
  Co  Co13  1  0.110225  0.610677  0.499619  1
  Co  Co14  1  0.889115  0.389154  0.500022  1
  Co  Co15  1  0.378773  0.999220  0.379469  1
  Co  Co16  1  0.617556  0.000049  0.617434  1
  Ir  Ir17  1  0.001042  0.999716  0.002252  1
