# generated using pymatgen
data_Sc8Ta11Si16Ag
_symmetry_space_group_name_H-M   'P 1'
_cell_length_a   6.68071347
_cell_length_b   6.90455936
_cell_length_c   13.13948300
_cell_angle_alpha   90.00000000
_cell_angle_beta   90.00000000
_cell_angle_gamma   89.46736526
_symmetry_Int_Tables_number   1
_chemical_formula_structural   Sc8Ta11Si16Ag
_chemical_formula_sum   'Sc8 Ta11 Si16 Ag1'
_cell_volume   606.06377237
_cell_formula_units_Z   1
loop_
 _symmetry_equiv_pos_site_id
 _symmetry_equiv_pos_as_xyz
  1  'x, y, z'
loop_
 _atom_site_type_symbol
 _atom_site_label
 _atom_site_symmetry_multiplicity
 _atom_site_fract_x
 _atom_site_fract_y
 _atom_site_fract_z
 _atom_site_occupancy
  Sc  Sc0  1  0.499025  0.671846  0.597825  1
  Sc  Sc1  1  0.002955  0.827672  0.904550  1
  Sc  Sc2  1  0.497466  0.328400  0.092171  1
  Sc  Sc3  1  0.002114  0.174943  0.408410  1
  Sc  Sc4  1  0.497466  0.328400  0.407829  1
  Sc  Sc5  1  0.002114  0.174943  0.091590  1
  Sc  Sc6  1  0.499025  0.671846  0.902175  1
  Sc  Sc7  1  0.002955  0.827672  0.595450  1
  Ta  Ta8  1  0.663261  0.175422  0.624348  1
  Ta  Ta9  1  0.162641  0.326363  0.875044  1
  Ta  Ta10  1  0.342294  0.822058  0.125687  1
  Ta  Ta11  1  0.832393  0.672996  0.374039  1
  Ta  Ta12  1  0.342294  0.822058  0.374313  1
  Ta  Ta13  1  0.832393  0.672996  0.125961  1
  Ta  Ta14  1  0.663261  0.175422  0.875652  1
  Ta  Ta15  1  0.162641  0.326363  0.624956  1
  Ta  Ta16  1  0.837322  0.495075  0.750000  1
  Ta  Ta17  1  0.338390  0.006724  0.750000  1
  Ta  Ta18  1  0.162643  0.500598  0.250000  1
  Si  Si19  1  0.669952  0.959247  0.467938  1
  Si  Si20  1  0.166928  0.534318  0.039679  1
  Si  Si21  1  0.331410  0.032799  0.961234  1
  Si  Si22  1  0.829719  0.468589  0.539649  1
  Si  Si23  1  0.331410  0.032799  0.538766  1
  Si  Si24  1  0.829719  0.468589  0.960351  1
  Si  Si25  1  0.669952  0.959247  0.032062  1
  Si  Si26  1  0.166928  0.534318  0.460321  1
  Si  Si27  1  0.459270  0.387107  0.750000  1
  Si  Si28  1  0.960882  0.113121  0.750000  1
  Si  Si29  1  0.537183  0.604539  0.250000  1
  Si  Si30  1  0.040411  0.879972  0.250000  1
  Si  Si31  1  0.706921  0.863027  0.750000  1
  Si  Si32  1  0.203224  0.639045  0.750000  1
  Si  Si33  1  0.285606  0.132670  0.250000  1
  Si  Si34  1  0.798591  0.368693  0.250000  1
  Ag  Ag35  1  0.669241  0.020120  0.250000  1
