# generated using pymatgen
data_ErBeRe2C
_symmetry_space_group_name_H-M   'P 1'
_cell_length_a   5.65003299
_cell_length_b   5.65003357
_cell_length_c   7.28471600
_cell_angle_alpha   90.00000000
_cell_angle_beta   90.00000000
_cell_angle_gamma   141.36180071
_symmetry_Int_Tables_number   1
_chemical_formula_structural   ErBeRe2C
_chemical_formula_sum   'Er2 Be2 Re4 C2'
_cell_volume   145.20376583
_cell_formula_units_Z   2
loop_
 _symmetry_equiv_pos_site_id
 _symmetry_equiv_pos_as_xyz
  1  'x, y, z'
loop_
 _atom_site_type_symbol
 _atom_site_label
 _atom_site_symmetry_multiplicity
 _atom_site_fract_x
 _atom_site_fract_y
 _atom_site_fract_z
 _atom_site_occupancy
  Er  Er0  1  0.534958  0.465042  0.250000  1
  Er  Er1  1  0.465042  0.534958  0.750000  1
  Be  Be2  1  0.256002  0.743998  0.250000  1
  Be  Be3  1  0.743998  0.256002  0.750000  1
  Re  Re4  1  0.821043  0.178957  0.062782  1
  Re  Re5  1  0.178957  0.821043  0.937218  1
  Re  Re6  1  0.178957  0.821043  0.562782  1
  Re  Re7  1  0.821043  0.178957  0.437218  1
  C  C8  1  0.000000  0.000000  0.000000  1
  C  C9  1  0.000000  0.000000  0.500000  1
