# generated using pymatgen
data_Er10In8Pt3Rh
_symmetry_space_group_name_H-M   'P 1'
_cell_length_a   3.61677700
_cell_length_b   8.07657344
_cell_length_c   18.12473418
_cell_angle_alpha   90.06815728
_cell_angle_beta   90.00000000
_cell_angle_gamma   90.00000000
_symmetry_Int_Tables_number   1
_chemical_formula_structural   Er10In8Pt3Rh
_chemical_formula_sum   'Er10 In8 Pt3 Rh1'
_cell_volume   529.44422715
_cell_formula_units_Z   1
loop_
 _symmetry_equiv_pos_site_id
 _symmetry_equiv_pos_as_xyz
  1  'x, y, z'
loop_
 _atom_site_type_symbol
 _atom_site_label
 _atom_site_symmetry_multiplicity
 _atom_site_fract_x
 _atom_site_fract_y
 _atom_site_fract_z
 _atom_site_occupancy
  Er  Er0  1  0.000000  0.114424  0.411979  1
  Er  Er1  1  0.000000  0.883150  0.585379  1
  Er  Er2  1  0.000000  0.384473  0.914732  1
  Er  Er3  1  0.000000  0.616969  0.086980  1
  Er  Er4  1  0.000000  0.240241  0.222275  1
  Er  Er5  1  0.000000  0.756417  0.778141  1
  Er  Er6  1  0.000000  0.256230  0.721485  1
  Er  Er7  1  0.000000  0.748501  0.278855  1
  Er  Er8  1  0.000000  0.000731  0.000474  1
  Er  Er9  1  0.000000  0.500970  0.499374  1
  In  In10  1  0.500000  0.423215  0.352164  1
  In  In11  1  0.500000  0.573399  0.647405  1
  In  In12  1  0.500000  0.074840  0.852443  1
  In  In13  1  0.500000  0.928761  0.149128  1
  In  In14  1  0.500000  0.292012  0.067220  1
  In  In15  1  0.500000  0.709389  0.933799  1
  In  In16  1  0.500000  0.207534  0.565694  1
  In  In17  1  0.500000  0.793197  0.431456  1
  Pt  Pt18  1  0.500000  0.976030  0.696024  1
  Pt  Pt19  1  0.500000  0.476010  0.804121  1
  Pt  Pt20  1  0.500000  0.521676  0.196544  1
  Rh  Rh21  1  0.500000  0.021832  0.304329  1
