# generated using pymatgen
data_Rb4Mg(PS4)2
_symmetry_space_group_name_H-M   'P 1'
_cell_length_a   9.18069678
_cell_length_b   9.29111133
_cell_length_c   11.20759534
_cell_angle_alpha   104.94180010
_cell_angle_beta   104.85568742
_cell_angle_gamma   91.53938065
_symmetry_Int_Tables_number   1
_chemical_formula_structural   Rb4Mg(PS4)2
_chemical_formula_sum   'Rb8 Mg2 P4 S16'
_cell_volume   888.36236736
_cell_formula_units_Z   2
loop_
 _symmetry_equiv_pos_site_id
 _symmetry_equiv_pos_as_xyz
  1  'x, y, z'
loop_
 _atom_site_type_symbol
 _atom_site_label
 _atom_site_symmetry_multiplicity
 _atom_site_fract_x
 _atom_site_fract_y
 _atom_site_fract_z
 _atom_site_occupancy
  Rb  Rb0  1  0.435648  0.519564  0.749067  1
  Rb  Rb1  1  0.564352  0.480436  0.250933  1
  Rb  Rb2  1  0.263156  0.987130  0.960895  1
  Rb  Rb3  1  0.736844  0.012870  0.039105  1
  Rb  Rb4  1  0.099865  0.741311  0.521319  1
  Rb  Rb5  1  0.900135  0.258689  0.478681  1
  Rb  Rb6  1  0.883051  0.319169  0.877178  1
  Rb  Rb7  1  0.116949  0.680831  0.122822  1
  Mg  Mg8  1  0.648333  0.867304  0.575122  1
  Mg  Mg9  1  0.351667  0.132696  0.424878  1
  P  P10  1  0.452802  0.109937  0.723056  1
  P  P11  1  0.547198  0.890063  0.276944  1
  P  P12  1  0.865666  0.688262  0.752364  1
  P  P13  1  0.134334  0.311738  0.247636  1
  S  S14  1  0.508966  0.247906  0.903731  1
  S  S15  1  0.491034  0.752094  0.096269  1
  S  S16  1  0.472034  0.890904  0.727203  1
  S  S17  1  0.527966  0.109096  0.272797  1
  S  S18  1  0.240082  0.133767  0.616976  1
  S  S19  1  0.759918  0.866233  0.383024  1
  S  S20  1  0.903463  0.911034  0.752819  1
  S  S21  1  0.096537  0.088966  0.247181  1
  S  S22  1  0.060431  0.583910  0.757594  1
  S  S23  1  0.939569  0.416090  0.242406  1
  S  S24  1  0.597618  0.160741  0.619680  1
  S  S25  1  0.402382  0.839259  0.380320  1
  S  S26  1  0.790647  0.671201  0.904954  1
  S  S27  1  0.209353  0.328799  0.095046  1
  S  S28  1  0.699559  0.593884  0.582568  1
  S  S29  1  0.300441  0.406116  0.417432  1
