# generated using pymatgen
data_Tb4HoInGa2
_symmetry_space_group_name_H-M   'P 1'
_cell_length_a   7.76159200
_cell_length_b   7.76159200
_cell_length_c   14.39933800
_cell_angle_alpha   90.00000000
_cell_angle_beta   90.00000000
_cell_angle_gamma   90.00000000
_symmetry_Int_Tables_number   1
_chemical_formula_structural   Tb4HoInGa2
_chemical_formula_sum   'Tb16 Ho4 In4 Ga8'
_cell_volume   867.44938898
_cell_formula_units_Z   4
loop_
 _symmetry_equiv_pos_site_id
 _symmetry_equiv_pos_as_xyz
  1  'x, y, z'
loop_
 _atom_site_type_symbol
 _atom_site_label
 _atom_site_symmetry_multiplicity
 _atom_site_fract_x
 _atom_site_fract_y
 _atom_site_fract_z
 _atom_site_occupancy
  Tb  Tb0  1  0.673541  0.661139  0.605839  1
  Tb  Tb1  1  0.673541  0.338861  0.105839  1
  Tb  Tb2  1  0.826459  0.838861  0.394161  1
  Tb  Tb3  1  0.173541  0.838861  0.894161  1
  Tb  Tb4  1  0.326459  0.338861  0.605839  1
  Tb  Tb5  1  0.326459  0.661139  0.105839  1
  Tb  Tb6  1  0.173541  0.161139  0.394161  1
  Tb  Tb7  1  0.826459  0.161139  0.894161  1
  Tb  Tb8  1  0.661139  0.326459  0.394161  1
  Tb  Tb9  1  0.338861  0.326459  0.894161  1
  Tb  Tb10  1  0.161139  0.826459  0.605839  1
  Tb  Tb11  1  0.838861  0.826459  0.105839  1
  Tb  Tb12  1  0.338861  0.673541  0.394161  1
  Tb  Tb13  1  0.661139  0.673541  0.894161  1
  Tb  Tb14  1  0.838861  0.173541  0.605839  1
  Tb  Tb15  1  0.161139  0.173541  0.105839  1
  Ho  Ho16  1  0.000000  0.500000  0.760358  1
  Ho  Ho17  1  0.000000  0.500000  0.260358  1
  Ho  Ho18  1  0.500000  0.000000  0.239642  1
  Ho  Ho19  1  0.500000  0.000000  0.739642  1
  In  In20  1  0.000000  0.500000  0.496074  1
  In  In21  1  0.000000  0.500000  0.996074  1
  In  In22  1  0.500000  0.000000  0.503926  1
  In  In23  1  0.500000  0.000000  0.003926  1
  Ga  Ga24  1  0.875905  0.875905  0.750000  1
  Ga  Ga25  1  0.875905  0.124095  0.250000  1
  Ga  Ga26  1  0.624095  0.624095  0.250000  1
  Ga  Ga27  1  0.375905  0.624095  0.750000  1
  Ga  Ga28  1  0.124095  0.124095  0.750000  1
  Ga  Ga29  1  0.124095  0.875905  0.250000  1
  Ga  Ga30  1  0.375905  0.375905  0.250000  1
  Ga  Ga31  1  0.624095  0.375905  0.750000  1
