# generated using pymatgen
data_NaTl2Cr3F12
_symmetry_space_group_name_H-M   'P 1'
_cell_length_a   7.43701200
_cell_length_b   7.37427145
_cell_length_c   10.31207100
_cell_angle_alpha   89.95329641
_cell_angle_beta   90.00000000
_cell_angle_gamma   90.00000000
_symmetry_Int_Tables_number   1
_chemical_formula_structural   NaTl2Cr3F12
_chemical_formula_sum   'Na2 Tl4 Cr6 F24'
_cell_volume   565.54003270
_cell_formula_units_Z   2
loop_
 _symmetry_equiv_pos_site_id
 _symmetry_equiv_pos_as_xyz
  1  'x, y, z'
loop_
 _atom_site_type_symbol
 _atom_site_label
 _atom_site_symmetry_multiplicity
 _atom_site_fract_x
 _atom_site_fract_y
 _atom_site_fract_z
 _atom_site_occupancy
  Na  Na0  1  0.750000  0.793542  0.241897  1
  Na  Na1  1  0.250000  0.206458  0.758103  1
  Tl  Tl2  1  0.250000  0.540242  0.365469  1
  Tl  Tl3  1  0.250000  0.984300  0.103945  1
  Tl  Tl4  1  0.750000  0.459758  0.634531  1
  Tl  Tl5  1  0.750000  0.015700  0.896055  1
  Cr  Cr6  1  0.000000  0.500000  0.000000  1
  Cr  Cr7  1  0.250000  0.693792  0.719793  1
  Cr  Cr8  1  0.750000  0.306208  0.280207  1
  Cr  Cr9  1  0.500000  0.000000  0.500000  1
  Cr  Cr10  1  0.500000  0.500000  0.000000  1
  Cr  Cr11  1  0.000000  0.000000  0.500000  1
  F  F12  1  0.437714  0.781039  0.600251  1
  F  F13  1  0.038135  0.864799  0.343752  1
  F  F14  1  0.449492  0.259384  0.940934  1
  F  F15  1  0.961865  0.135201  0.656248  1
  F  F16  1  0.937714  0.218961  0.399749  1
  F  F17  1  0.250000  0.536383  0.058078  1
  F  F18  1  0.445508  0.592304  0.826000  1
  F  F19  1  0.250000  0.084804  0.502988  1
  F  F20  1  0.949492  0.740616  0.059066  1
  F  F21  1  0.250000  0.470011  0.625415  1
  F  F22  1  0.050508  0.259384  0.940934  1
  F  F23  1  0.554492  0.407696  0.174000  1
  F  F24  1  0.945508  0.407696  0.174000  1
  F  F25  1  0.750000  0.463617  0.941922  1
  F  F26  1  0.062286  0.781039  0.600251  1
  F  F27  1  0.250000  0.908996  0.820439  1
  F  F28  1  0.750000  0.091004  0.179561  1
  F  F29  1  0.461865  0.864799  0.343752  1
  F  F30  1  0.750000  0.529989  0.374585  1
  F  F31  1  0.538135  0.135201  0.656248  1
  F  F32  1  0.562286  0.218961  0.399749  1
  F  F33  1  0.054492  0.592304  0.826000  1
  F  F34  1  0.750000  0.915196  0.497012  1
  F  F35  1  0.550508  0.740616  0.059066  1
