# generated using pymatgen
data_KF7
_symmetry_space_group_name_H-M   'P 1'
_cell_length_a   4.61578220
_cell_length_b   4.21275891
_cell_length_c   8.78768134
_cell_angle_alpha   99.46572483
_cell_angle_beta   58.43814859
_cell_angle_gamma   90.31787035
_symmetry_Int_Tables_number   1
_chemical_formula_structural   KF7
_chemical_formula_sum   'K1 F7'
_cell_volume   142.95771527
_cell_formula_units_Z   1
loop_
 _symmetry_equiv_pos_site_id
 _symmetry_equiv_pos_as_xyz
  1  'x, y, z'
loop_
 _atom_site_type_symbol
 _atom_site_label
 _atom_site_symmetry_multiplicity
 _atom_site_fract_x
 _atom_site_fract_y
 _atom_site_fract_z
 _atom_site_occupancy
  K  K0  1  0.569950  0.913491  0.509176  1
  F  F1  1  0.951162  0.748911  0.056092  1
  F  F2  1  0.158785  0.461008  0.647078  1
  F  F3  1  0.977145  0.340925  0.305662  1
  F  F4  1  0.745499  0.830824  0.795725  1
  F  F5  1  0.650422  0.579180  0.126700  1
  F  F6  1  0.070938  0.393395  0.467217  1
  F  F7  1  0.452950  0.086346  0.891929  1
