# generated using pymatgen
data_TbPa2(GaPd)3
_symmetry_space_group_name_H-M   'P 1'
_cell_length_a   7.17944700
_cell_length_b   7.18944258
_cell_length_c   4.04025200
_cell_angle_alpha   90.00000000
_cell_angle_beta   90.00000000
_cell_angle_gamma   119.95401486
_symmetry_Int_Tables_number   1
_chemical_formula_structural   TbPa2(GaPd)3
_chemical_formula_sum   'Tb1 Pa2 Ga3 Pd3'
_cell_volume   180.68676994
_cell_formula_units_Z   1
loop_
 _symmetry_equiv_pos_site_id
 _symmetry_equiv_pos_as_xyz
  1  'x, y, z'
loop_
 _atom_site_type_symbol
 _atom_site_label
 _atom_site_symmetry_multiplicity
 _atom_site_fract_x
 _atom_site_fract_y
 _atom_site_fract_z
 _atom_site_occupancy
  Tb  Tb0  1  0.411280  0.000000  0.000000  1
  Pa  Pa1  1  0.001891  0.417120  0.000000  1
  Pa  Pa2  1  0.584771  0.582880  0.000000  1
  Ga  Ga3  1  0.006075  0.757863  0.500000  1
  Ga  Ga4  1  0.248211  0.242137  0.500000  1
  Ga  Ga5  1  0.748002  0.000000  0.500000  1
  Pd  Pd6  1  0.991107  0.000000  0.000000  1
  Pd  Pd7  1  0.331290  0.653918  0.500000  1
  Pd  Pd8  1  0.677373  0.346082  0.500000  1
