# generated using pymatgen
data_SrHo3(Rh2O7)2
_symmetry_space_group_name_H-M   'P 1'
_cell_length_a   7.28012228
_cell_length_b   7.28012081
_cell_length_c   7.28012066
_cell_angle_alpha   59.75586269
_cell_angle_beta   59.75586730
_cell_angle_gamma   59.75586163
_symmetry_Int_Tables_number   1
_chemical_formula_structural   SrHo3(Rh2O7)2
_chemical_formula_sum   'Sr1 Ho3 Rh4 O14'
_cell_volume   271.32298097
_cell_formula_units_Z   1
loop_
 _symmetry_equiv_pos_site_id
 _symmetry_equiv_pos_as_xyz
  1  'x, y, z'
loop_
 _atom_site_type_symbol
 _atom_site_label
 _atom_site_symmetry_multiplicity
 _atom_site_fract_x
 _atom_site_fract_y
 _atom_site_fract_z
 _atom_site_occupancy
  Sr  Sr0  1  0.625000  0.625000  0.625000  1
  Ho  Ho1  1  0.625000  0.625000  0.125000  1
  Ho  Ho2  1  0.625000  0.125000  0.625000  1
  Ho  Ho3  1  0.125000  0.625000  0.625000  1
  Rh  Rh4  1  0.125000  0.125000  0.125000  1
  Rh  Rh5  1  0.625000  0.125000  0.125000  1
  Rh  Rh6  1  0.125000  0.625000  0.125000  1
  Rh  Rh7  1  0.125000  0.125000  0.625000  1
  O  O8  1  0.057838  0.455700  0.455700  1
  O  O9  1  0.794300  0.794300  0.192162  1
  O  O10  1  0.792389  0.209064  0.209064  1
  O  O11  1  0.455700  0.057838  0.455700  1
  O  O12  1  0.757608  0.757608  0.757608  1
  O  O13  1  0.040936  0.040936  0.457611  1
  O  O14  1  0.040936  0.457611  0.040936  1
  O  O15  1  0.794300  0.192162  0.794300  1
  O  O16  1  0.209064  0.792389  0.209064  1
  O  O17  1  0.209064  0.209064  0.792389  1
  O  O18  1  0.492392  0.492392  0.492392  1
  O  O19  1  0.457611  0.040936  0.040936  1
  O  O20  1  0.455700  0.455700  0.057838  1
  O  O21  1  0.192162  0.794300  0.794300  1
