# generated using pymatgen
data_Zr5PaTc4
_symmetry_space_group_name_H-M   'P 1'
_cell_length_a   4.72965214
_cell_length_b   8.92946385
_cell_length_c   4.72717400
_cell_angle_alpha   90.00000000
_cell_angle_beta   90.00000000
_cell_angle_gamma   75.02051818
_symmetry_Int_Tables_number   1
_chemical_formula_structural   Zr5PaTc4
_chemical_formula_sum   'Zr5 Pa1 Tc4'
_cell_volume   192.85974721
_cell_formula_units_Z   1
loop_
 _symmetry_equiv_pos_site_id
 _symmetry_equiv_pos_as_xyz
  1  'x, y, z'
loop_
 _atom_site_type_symbol
 _atom_site_label
 _atom_site_symmetry_multiplicity
 _atom_site_fract_x
 _atom_site_fract_y
 _atom_site_fract_z
 _atom_site_occupancy
  Zr  Zr0  1  0.475120  0.216797  0.000000  1
  Zr  Zr1  1  0.090291  0.983197  0.000000  1
  Zr  Zr2  1  0.972481  0.221471  0.500001  1
  Zr  Zr3  1  0.784037  0.599998  0.500001  1
  Zr  Zr4  1  0.593132  0.978541  0.500001  1
  Pa  Pa5  1  0.284140  0.599998  0.000000  1
  Tc  Tc6  1  0.877925  0.410108  0.000000  1
  Tc  Tc7  1  0.689053  0.789890  0.000000  1
  Tc  Tc8  1  0.378092  0.409733  0.500001  1
  Tc  Tc9  1  0.188904  0.790267  0.500001  1
