# generated using pymatgen
data_HoTh2Co11B4
_symmetry_space_group_name_H-M   'P 1'
_cell_length_a   5.04514300
_cell_length_b   5.04590412
_cell_length_c   9.93280200
_cell_angle_alpha   89.99999282
_cell_angle_beta   90.00008977
_cell_angle_gamma   119.99623335
_symmetry_Int_Tables_number   1
_chemical_formula_structural   HoTh2Co11B4
_chemical_formula_sum   'Ho1 Th2 Co11 B4'
_cell_volume   218.99357158
_cell_formula_units_Z   1
loop_
 _symmetry_equiv_pos_site_id
 _symmetry_equiv_pos_as_xyz
  1  'x, y, z'
loop_
 _atom_site_type_symbol
 _atom_site_label
 _atom_site_symmetry_multiplicity
 _atom_site_fract_x
 _atom_site_fract_y
 _atom_site_fract_z
 _atom_site_occupancy
  Ho  Ho0  1  0.000005  0.000001  0.658853  1
  Th  Th1  1  0.999982  0.000002  0.997378  1
  Th  Th2  1  0.999993  0.000000  0.341180  1
  Co  Co3  1  0.333341  0.666664  0.998357  1
  Co  Co4  1  0.666623  0.333337  0.998376  1
  Co  Co5  1  0.499993  0.999988  0.502322  1
  Co  Co6  1  0.499992  0.500006  0.502319  1
  Co  Co7  1  0.000011  0.500006  0.502307  1
  Co  Co8  1  0.500003  0.000023  0.203856  1
  Co  Co9  1  0.500001  0.499986  0.203846  1
  Co  Co10  1  0.999966  0.499988  0.203882  1
  Co  Co11  1  0.500014  0.000025  0.794714  1
  Co  Co12  1  0.500014  0.499987  0.794661  1
  Co  Co13  1  0.999976  0.499987  0.794622  1
  B  B14  1  0.333268  0.666626  0.350625  1
  B  B15  1  0.666718  0.333374  0.350645  1
  B  B16  1  0.666756  0.333450  0.651019  1
  B  B17  1  0.333243  0.666550  0.651039  1
