# generated using pymatgen
data_Hf16Fe4Pt3W
_symmetry_space_group_name_H-M   'P 1'
_cell_length_a   8.66902469
_cell_length_b   8.59959229
_cell_length_c   8.60021400
_cell_angle_alpha   60.00347076
_cell_angle_beta   60.26177693
_cell_angle_gamma   60.26582981
_symmetry_Int_Tables_number   1
_chemical_formula_structural   Hf16Fe4Pt3W
_chemical_formula_sum   'Hf16 Fe4 Pt3 W1'
_cell_volume   455.17047276
_cell_formula_units_Z   1
loop_
 _symmetry_equiv_pos_site_id
 _symmetry_equiv_pos_as_xyz
  1  'x, y, z'
loop_
 _atom_site_type_symbol
 _atom_site_label
 _atom_site_symmetry_multiplicity
 _atom_site_fract_x
 _atom_site_fract_y
 _atom_site_fract_z
 _atom_site_occupancy
  Hf  Hf0  1  0.065578  0.644868  0.644799  1
  Hf  Hf1  1  0.651525  0.047967  0.650290  1
  Hf  Hf2  1  0.651473  0.650292  0.048083  1
  Hf  Hf3  1  0.651315  0.650202  0.650131  1
  Hf  Hf4  1  0.806728  0.800226  0.196469  1
  Hf  Hf5  1  0.197528  0.197876  0.802337  1
  Hf  Hf6  1  0.806751  0.196433  0.800187  1
  Hf  Hf7  1  0.197449  0.802380  0.197906  1
  Hf  Hf8  1  0.197329  0.802430  0.802391  1
  Hf  Hf9  1  0.806713  0.196547  0.196629  1
  Hf  Hf10  1  0.436423  0.438897  0.062368  1
  Hf  Hf11  1  0.052220  0.071878  0.437934  1
  Hf  Hf12  1  0.436423  0.062392  0.438850  1
  Hf  Hf13  1  0.052235  0.437958  0.071871  1
  Hf  Hf14  1  0.052129  0.438029  0.437980  1
  Hf  Hf15  1  0.436355  0.062448  0.062448  1
  Fe  Fe16  1  0.415834  0.861317  0.861442  1
  Fe  Fe17  1  0.864471  0.420504  0.857449  1
  Fe  Fe18  1  0.864442  0.857455  0.420491  1
  Fe  Fe19  1  0.864482  0.857473  0.857508  1
  Pt  Pt20  1  0.417684  0.757067  0.412628  1
  Pt  Pt21  1  0.417669  0.412628  0.757041  1
  Pt  Pt22  1  0.417706  0.412595  0.412641  1
  W  W23  1  0.739539  0.420135  0.420129  1
