# generated using pymatgen
data_RbNb(AgS2)2
_symmetry_space_group_name_H-M   'P 1'
_cell_length_a   10.11045381
_cell_length_b   10.11045450
_cell_length_c   8.15745100
_cell_angle_alpha   90.00000000
_cell_angle_beta   90.00000000
_cell_angle_gamma   145.43238403
_symmetry_Int_Tables_number   1
_chemical_formula_structural   RbNb(AgS2)2
_chemical_formula_sum   'Rb2 Nb2 Ag4 S8'
_cell_volume   473.11706086
_cell_formula_units_Z   2
loop_
 _symmetry_equiv_pos_site_id
 _symmetry_equiv_pos_as_xyz
  1  'x, y, z'
loop_
 _atom_site_type_symbol
 _atom_site_label
 _atom_site_symmetry_multiplicity
 _atom_site_fract_x
 _atom_site_fract_y
 _atom_site_fract_z
 _atom_site_occupancy
  Rb  Rb0  1  0.453352  0.820105  0.750000  1
  Rb  Rb1  1  0.820105  0.453352  0.250000  1
  Nb  Nb2  1  0.525316  0.296005  0.750000  1
  Nb  Nb3  1  0.296005  0.525316  0.250000  1
  Ag  Ag4  1  0.372742  0.372742  0.000000  1
  Ag  Ag5  1  0.372742  0.372742  0.500000  1
  Ag  Ag6  1  0.025293  0.794957  0.750000  1
  Ag  Ag7  1  0.794957  0.025293  0.250000  1
  S  S8  1  0.646314  0.618889  0.750000  1
  S  S9  1  0.618889  0.646314  0.250000  1
  S  S10  1  0.310234  0.072563  0.986123  1
  S  S11  1  0.072563  0.310234  0.486123  1
  S  S12  1  0.413302  0.838808  0.250000  1
  S  S13  1  0.072563  0.310234  0.013877  1
  S  S14  1  0.310234  0.072563  0.513877  1
  S  S15  1  0.838808  0.413302  0.750000  1
