# generated using pymatgen
data_K4Co4Cl10O
_symmetry_space_group_name_H-M   'P 1'
_cell_length_a   10.79125791
_cell_length_b   10.79125810
_cell_length_c   9.07638729
_cell_angle_alpha   80.05938299
_cell_angle_beta   80.05938529
_cell_angle_gamma   90.35560589
_symmetry_Int_Tables_number   1
_chemical_formula_structural   K4Co4Cl10O
_chemical_formula_sum   'K8 Co8 Cl20 O2'
_cell_volume   1024.75265700
_cell_formula_units_Z   2
loop_
 _symmetry_equiv_pos_site_id
 _symmetry_equiv_pos_as_xyz
  1  'x, y, z'
loop_
 _atom_site_type_symbol
 _atom_site_label
 _atom_site_symmetry_multiplicity
 _atom_site_fract_x
 _atom_site_fract_y
 _atom_site_fract_z
 _atom_site_occupancy
  K  K0  1  0.295117  0.442053  0.136883  1
  K  K1  1  0.713787  0.966591  0.874531  1
  K  K2  1  0.966591  0.713787  0.374531  1
  K  K3  1  0.557947  0.704883  0.363117  1
  K  K4  1  0.442053  0.295117  0.636883  1
  K  K5  1  0.033409  0.286213  0.625469  1
  K  K6  1  0.704883  0.557947  0.863117  1
  K  K7  1  0.286213  0.033409  0.125469  1
  Co  Co8  1  0.954898  0.235858  0.117716  1
  Co  Co9  1  0.045102  0.764142  0.882284  1
  Co  Co10  1  0.647891  0.231211  0.127628  1
  Co  Co11  1  0.768789  0.352109  0.372372  1
  Co  Co12  1  0.231211  0.647891  0.627628  1
  Co  Co13  1  0.352109  0.768789  0.872372  1
  Co  Co14  1  0.764142  0.045102  0.382284  1
  Co  Co15  1  0.235858  0.954898  0.617716  1
  Cl  Cl16  1  0.149113  0.266435  0.956529  1
  Cl  Cl17  1  0.977987  0.022013  0.250000  1
  Cl  Cl18  1  0.733565  0.850887  0.543471  1
  Cl  Cl19  1  0.395717  0.991667  0.775356  1
  Cl  Cl20  1  0.261960  0.491274  0.478835  1
  Cl  Cl21  1  0.008333  0.604283  0.724644  1
  Cl  Cl22  1  0.825477  0.275354  0.916536  1
  Cl  Cl23  1  0.414237  0.585763  0.750000  1
  Cl  Cl24  1  0.491274  0.261960  0.978835  1
  Cl  Cl25  1  0.022013  0.977987  0.750000  1
  Cl  Cl26  1  0.275354  0.825477  0.416536  1
  Cl  Cl27  1  0.991667  0.395717  0.275356  1
  Cl  Cl28  1  0.850887  0.733565  0.043471  1
  Cl  Cl29  1  0.738040  0.508726  0.521165  1
  Cl  Cl30  1  0.604283  0.008333  0.224644  1
  Cl  Cl31  1  0.724646  0.174523  0.583464  1
  Cl  Cl32  1  0.174523  0.724646  0.083464  1
  Cl  Cl33  1  0.585763  0.414237  0.250000  1
  Cl  Cl34  1  0.266435  0.149113  0.456529  1
  Cl  Cl35  1  0.508726  0.738040  0.021165  1
  O  O36  1  0.216449  0.783551  0.750000  1
  O  O37  1  0.783551  0.216449  0.250000  1
