# generated using pymatgen
data_DyTmBeSi4Ni
_symmetry_space_group_name_H-M   'P 1'
_cell_length_a   8.42209301
_cell_length_b   8.42209280
_cell_length_c   3.91564400
_cell_angle_alpha   90.00000000
_cell_angle_beta   90.00000000
_cell_angle_gamma   152.66316048
_symmetry_Int_Tables_number   1
_chemical_formula_structural   DyTmBeSi4Ni
_chemical_formula_sum   'Dy1 Tm1 Be1 Si4 Ni1'
_cell_volume   127.54540595
_cell_formula_units_Z   1
loop_
 _symmetry_equiv_pos_site_id
 _symmetry_equiv_pos_as_xyz
  1  'x, y, z'
loop_
 _atom_site_type_symbol
 _atom_site_label
 _atom_site_symmetry_multiplicity
 _atom_site_fract_x
 _atom_site_fract_y
 _atom_site_fract_z
 _atom_site_occupancy
  Dy  Dy0  1  0.392843  0.607157  0.750000  1
  Tm  Tm1  1  0.601730  0.398270  0.250000  1
  Be  Be2  1  0.827408  0.172592  0.250000  1
  Si  Si3  1  0.962267  0.037733  0.250000  1
  Si  Si4  1  0.040217  0.959783  0.750000  1
  Si  Si5  1  0.249891  0.750109  0.250000  1
  Si  Si6  1  0.748427  0.251573  0.750000  1
  Ni  Ni7  1  0.177217  0.822783  0.750000  1
