# generated using pymatgen
data_Th2Nb3GaGe3
_symmetry_space_group_name_H-M   'P 1'
_cell_length_a   7.20291200
_cell_length_b   7.35590100
_cell_length_c   13.81737200
_cell_angle_alpha   90.00000000
_cell_angle_beta   90.00000000
_cell_angle_gamma   90.00000000
_symmetry_Int_Tables_number   1
_chemical_formula_structural   Th2Nb3GaGe3
_chemical_formula_sum   'Th8 Nb12 Ga4 Ge12'
_cell_volume   732.09836110
_cell_formula_units_Z   4
loop_
 _symmetry_equiv_pos_site_id
 _symmetry_equiv_pos_as_xyz
  1  'x, y, z'
loop_
 _atom_site_type_symbol
 _atom_site_label
 _atom_site_symmetry_multiplicity
 _atom_site_fract_x
 _atom_site_fract_y
 _atom_site_fract_z
 _atom_site_occupancy
  Th  Th0  1  0.496196  0.329312  0.093995  1
  Th  Th1  1  0.996196  0.170688  0.406005  1
  Th  Th2  1  0.503804  0.670688  0.593995  1
  Th  Th3  1  0.003804  0.829312  0.906005  1
  Th  Th4  1  0.503804  0.670688  0.906005  1
  Th  Th5  1  0.003804  0.829312  0.593995  1
  Th  Th6  1  0.496196  0.329312  0.406005  1
  Th  Th7  1  0.996196  0.170688  0.093995  1
  Nb  Nb8  1  0.667729  0.011884  0.750000  1
  Nb  Nb9  1  0.167729  0.488116  0.750000  1
  Nb  Nb10  1  0.332271  0.988116  0.250000  1
  Nb  Nb11  1  0.832271  0.511884  0.250000  1
  Nb  Nb12  1  0.838406  0.330652  0.625796  1
  Nb  Nb13  1  0.338406  0.169348  0.874204  1
  Nb  Nb14  1  0.161594  0.669348  0.125796  1
  Nb  Nb15  1  0.661594  0.830652  0.374204  1
  Nb  Nb16  1  0.161594  0.669348  0.374204  1
  Nb  Nb17  1  0.661594  0.830652  0.125796  1
  Nb  Nb18  1  0.838406  0.330652  0.874204  1
  Nb  Nb19  1  0.338406  0.169348  0.625796  1
  Ga  Ga20  1  0.806930  0.628441  0.750000  1
  Ga  Ga21  1  0.306930  0.871559  0.750000  1
  Ga  Ga22  1  0.193070  0.371559  0.250000  1
  Ga  Ga23  1  0.693070  0.128441  0.250000  1
  Ge  Ge24  1  0.540274  0.368361  0.750000  1
  Ge  Ge25  1  0.040274  0.131639  0.750000  1
  Ge  Ge26  1  0.459726  0.631639  0.250000  1
  Ge  Ge27  1  0.959726  0.868361  0.250000  1
  Ge  Ge28  1  0.669740  0.045793  0.545485  1
  Ge  Ge29  1  0.169740  0.454207  0.954515  1
  Ge  Ge30  1  0.330260  0.954207  0.045485  1
  Ge  Ge31  1  0.830260  0.545793  0.454515  1
  Ge  Ge32  1  0.330260  0.954207  0.454515  1
  Ge  Ge33  1  0.830260  0.545793  0.045485  1
  Ge  Ge34  1  0.669740  0.045793  0.954515  1
  Ge  Ge35  1  0.169740  0.454207  0.545485  1
