# generated using pymatgen
data_ZrTaCo3Sn2
_symmetry_space_group_name_H-M   'P 1'
_cell_length_a   7.54985328
_cell_length_b   7.54985349
_cell_length_c   7.54985354
_cell_angle_alpha   33.42121803
_cell_angle_beta   33.42121726
_cell_angle_gamma   33.42121816
_symmetry_Int_Tables_number   1
_chemical_formula_structural   ZrTaCo3Sn2
_chemical_formula_sum   'Zr1 Ta1 Co3 Sn2'
_cell_volume   116.26081329
_cell_formula_units_Z   1
loop_
 _symmetry_equiv_pos_site_id
 _symmetry_equiv_pos_as_xyz
  1  'x, y, z'
loop_
 _atom_site_type_symbol
 _atom_site_label
 _atom_site_symmetry_multiplicity
 _atom_site_fract_x
 _atom_site_fract_y
 _atom_site_fract_z
 _atom_site_occupancy
  Zr  Zr0  1  0.997192  0.997192  0.997192  1
  Ta  Ta1  1  0.501960  0.501960  0.501960  1
  Co  Co2  1  0.126712  0.126712  0.126712  1
  Co  Co3  1  0.380343  0.380343  0.380343  1
  Co  Co4  1  0.870316  0.870316  0.870316  1
  Sn  Sn5  1  0.251614  0.251614  0.251614  1
  Sn  Sn6  1  0.746862  0.746862  0.746862  1
