# generated using pymatgen
data_Ba5Sm4Y4Ni4O21
_symmetry_space_group_name_H-M   'P 1'
_cell_length_a   10.30476981
_cell_length_b   10.30476965
_cell_length_c   10.30476901
_cell_angle_alpha   94.53784638
_cell_angle_beta   94.53784526
_cell_angle_gamma   147.32695056
_symmetry_Int_Tables_number   1
_chemical_formula_structural   Ba5Sm4Y4Ni4O21
_chemical_formula_sum   'Ba5 Sm4 Y4 Ni4 O21'
_cell_volume   566.87273487
_cell_formula_units_Z   1
loop_
 _symmetry_equiv_pos_site_id
 _symmetry_equiv_pos_as_xyz
  1  'x, y, z'
loop_
 _atom_site_type_symbol
 _atom_site_label
 _atom_site_symmetry_multiplicity
 _atom_site_fract_x
 _atom_site_fract_y
 _atom_site_fract_z
 _atom_site_occupancy
  Ba  Ba0  1  0.000000  0.000000  0.000000  1
  Ba  Ba1  1  0.137889  0.534501  0.672388  1
  Ba  Ba2  1  0.862111  0.465499  0.327612  1
  Ba  Ba3  1  0.465499  0.137889  0.603388  1
  Ba  Ba4  1  0.534501  0.862111  0.396612  1
  Sm  Sm5  1  0.166250  0.249535  0.415785  1
  Sm  Sm6  1  0.833750  0.750465  0.584215  1
  Sm  Sm7  1  0.750465  0.166250  0.916714  1
  Sm  Sm8  1  0.249535  0.833750  0.083286  1
  Y  Y9  1  0.358163  0.411676  0.769839  1
  Y  Y10  1  0.641837  0.588324  0.230161  1
  Y  Y11  1  0.588324  0.358163  0.946487  1
  Y  Y12  1  0.411676  0.641837  0.053513  1
  Ni  Ni13  1  0.246339  0.040538  0.286878  1
  Ni  Ni14  1  0.753661  0.959462  0.713122  1
  Ni  Ni15  1  0.959462  0.246339  0.205801  1
  Ni  Ni16  1  0.040538  0.753661  0.794199  1
  O  O17  1  0.500000  0.500000  0.000000  1
  O  O18  1  0.964832  0.629380  0.594212  1
  O  O19  1  0.035168  0.370620  0.405788  1
  O  O20  1  0.370620  0.964832  0.335454  1
  O  O21  1  0.629380  0.035168  0.664546  1
  O  O22  1  0.296151  0.428923  0.223526  1
  O  O23  1  0.205398  0.072625  0.776474  1
  O  O24  1  0.072625  0.296151  0.867228  1
  O  O25  1  0.428923  0.205398  0.132772  1
  O  O26  1  0.703849  0.571077  0.776474  1
  O  O27  1  0.794602  0.927375  0.223526  1
  O  O28  1  0.927375  0.703849  0.132772  1
  O  O29  1  0.571077  0.794602  0.867228  1
  O  O30  1  0.496933  0.609759  0.597817  1
  O  O31  1  0.011943  0.899117  0.402183  1
  O  O32  1  0.899117  0.496933  0.887174  1
  O  O33  1  0.609759  0.011943  0.112826  1
  O  O34  1  0.503067  0.390241  0.402183  1
  O  O35  1  0.988057  0.100883  0.597817  1
  O  O36  1  0.100883  0.503067  0.112826  1
  O  O37  1  0.390241  0.988057  0.887174  1
