# generated using pymatgen
data_Tb3TmMg2(Ni7B2)2
_symmetry_space_group_name_H-M   'P 1'
_cell_length_a   4.99285400
_cell_length_b   4.99285415
_cell_length_c   14.22488200
_cell_angle_alpha   90.00000000
_cell_angle_beta   90.00000000
_cell_angle_gamma   120.00001224
_symmetry_Int_Tables_number   1
_chemical_formula_structural   Tb3TmMg2(Ni7B2)2
_chemical_formula_sum   'Tb3 Tm1 Mg2 Ni14 B4'
_cell_volume   307.09800648
_cell_formula_units_Z   1
loop_
 _symmetry_equiv_pos_site_id
 _symmetry_equiv_pos_as_xyz
  1  'x, y, z'
loop_
 _atom_site_type_symbol
 _atom_site_label
 _atom_site_symmetry_multiplicity
 _atom_site_fract_x
 _atom_site_fract_y
 _atom_site_fract_z
 _atom_site_occupancy
  Tb  Tb0  1  0.666667  0.333333  0.469450  1
  Tb  Tb1  1  0.333333  0.666667  0.970329  1
  Tb  Tb2  1  0.333333  0.666667  0.744602  1
  Tm  Tm3  1  0.666667  0.333333  0.244496  1
  Mg  Mg4  1  0.333333  0.666667  0.532851  1
  Mg  Mg5  1  0.666667  0.333333  0.033863  1
  Ni  Ni6  1  0.000000  0.000000  0.001210  1
  Ni  Ni7  1  0.000000  0.000000  0.501010  1
  Ni  Ni8  1  0.165284  0.330569  0.147542  1
  Ni  Ni9  1  0.834761  0.669523  0.646739  1
  Ni  Ni10  1  0.669431  0.834716  0.147542  1
  Ni  Ni11  1  0.165284  0.834716  0.147542  1
  Ni  Ni12  1  0.834761  0.165239  0.646739  1
  Ni  Ni13  1  0.330477  0.165239  0.646739  1
  Ni  Ni14  1  0.833767  0.667535  0.852877  1
  Ni  Ni15  1  0.833767  0.166233  0.852877  1
  Ni  Ni16  1  0.332465  0.166233  0.852877  1
  Ni  Ni17  1  0.667645  0.833822  0.352056  1
  Ni  Ni18  1  0.166178  0.833822  0.352056  1
  Ni  Ni19  1  0.166178  0.332355  0.352056  1
  B  B20  1  0.333333  0.666667  0.250010  1
  B  B21  1  0.666667  0.333333  0.749964  1
  B  B22  1  0.000000  0.000000  0.252222  1
  B  B23  1  0.000000  0.000000  0.752348  1
