# generated using pymatgen
data_Cs2Mg(MnTe2)2
_symmetry_space_group_name_H-M   'P 1'
_cell_length_a   10.73667760
_cell_length_b   10.73667627
_cell_length_c   10.73667747
_cell_angle_alpha   143.81553782
_cell_angle_beta   105.30703210
_cell_angle_gamma   85.92214665
_symmetry_Int_Tables_number   1
_chemical_formula_structural   Cs2Mg(MnTe2)2
_chemical_formula_sum   'Cs4 Mg2 Mn4 Te8'
_cell_volume   682.53767483
_cell_formula_units_Z   2
loop_
 _symmetry_equiv_pos_site_id
 _symmetry_equiv_pos_as_xyz
  1  'x, y, z'
loop_
 _atom_site_type_symbol
 _atom_site_label
 _atom_site_symmetry_multiplicity
 _atom_site_fract_x
 _atom_site_fract_y
 _atom_site_fract_z
 _atom_site_occupancy
  Cs  Cs0  1  0.123894  0.236380  0.359297  1
  Cs  Cs1  1  0.376106  0.735403  0.112487  1
  Cs  Cs2  1  0.622917  0.263620  0.887513  1
  Cs  Cs3  1  0.877083  0.764597  0.640703  1
  Mg  Mg4  1  0.514153  0.750000  0.764153  1
  Mg  Mg5  1  0.985847  0.750000  0.235847  1
  Mn  Mn6  1  0.486030  0.250000  0.236030  1
  Mn  Mn7  1  0.750000  0.250000  0.500000  1
  Mn  Mn8  1  0.250000  0.750000  0.500000  1
  Mn  Mn9  1  0.013970  0.250000  0.763970  1
  Te  Te10  1  0.221661  0.082795  0.604570  1
  Te  Te11  1  0.278339  0.882908  0.861133  1
  Te  Te12  1  0.021775  0.417205  0.138867  1
  Te  Te13  1  0.478225  0.617092  0.395430  1
  Te  Te14  1  0.778488  0.926355  0.408070  1
  Te  Te15  1  0.721513  0.129583  0.147868  1
  Te  Te16  1  0.981715  0.573645  0.852132  1
  Te  Te17  1  0.518285  0.370417  0.591930  1
