# generated using pymatgen
data_PrTm2Ag(Ir2O7)2
_symmetry_space_group_name_H-M   'P 1'
_cell_length_a   7.31946672
_cell_length_b   7.35591770
_cell_length_c   7.17266203
_cell_angle_alpha   59.22822317
_cell_angle_beta   59.32061076
_cell_angle_gamma   60.16378632
_symmetry_Int_Tables_number   1
_chemical_formula_structural   PrTm2Ag(Ir2O7)2
_chemical_formula_sum   'Pr1 Tm2 Ag1 Ir4 O14'
_cell_volume   270.36628468
_cell_formula_units_Z   1
loop_
 _symmetry_equiv_pos_site_id
 _symmetry_equiv_pos_as_xyz
  1  'x, y, z'
loop_
 _atom_site_type_symbol
 _atom_site_label
 _atom_site_symmetry_multiplicity
 _atom_site_fract_x
 _atom_site_fract_y
 _atom_site_fract_z
 _atom_site_occupancy
  Pr  Pr0  1  0.125000  0.625000  0.125000  1
  Tm  Tm1  1  0.125000  0.125000  0.125000  1
  Tm  Tm2  1  0.625000  0.125000  0.125000  1
  Ag  Ag3  1  0.125000  0.125000  0.625000  1
  Ir  Ir4  1  0.625000  0.625000  0.625000  1
  Ir  Ir5  1  0.125000  0.625000  0.625000  1
  Ir  Ir6  1  0.625000  0.125000  0.625000  1
  Ir  Ir7  1  0.625000  0.625000  0.125000  1
  O  O8  1  0.949728  0.549558  0.550984  1
  O  O9  1  0.299529  0.297986  0.714524  1
  O  O10  1  0.958602  0.527576  0.965495  1
  O  O11  1  0.710173  0.292322  0.287331  1
  O  O12  1  0.548327  0.527576  0.965495  1
  O  O13  1  0.562039  0.952014  0.535476  1
  O  O14  1  0.539827  0.957678  0.962669  1
  O  O15  1  0.258968  0.233742  0.248321  1
  O  O16  1  0.300272  0.700442  0.699016  1
  O  O17  1  0.687961  0.297986  0.714524  1
  O  O18  1  0.991032  0.016258  0.001679  1
  O  O19  1  0.950471  0.952014  0.535476  1
  O  O20  1  0.291398  0.722424  0.284505  1
  O  O21  1  0.701673  0.722424  0.284505  1
