# generated using pymatgen
data_Ho20Ir5Os4Pd3
_symmetry_space_group_name_H-M   'P 1'
_cell_length_a   10.86041731
_cell_length_b   10.86041731
_cell_length_c   6.41292405
_cell_angle_alpha   89.99000722
_cell_angle_beta   89.99000722
_cell_angle_gamma   90.14971205
_symmetry_Int_Tables_number   1
_chemical_formula_structural   Ho20Ir5Os4Pd3
_chemical_formula_sum   'Ho20 Ir5 Os4 Pd3'
_cell_volume   756.39321962
_cell_formula_units_Z   1
loop_
 _symmetry_equiv_pos_site_id
 _symmetry_equiv_pos_as_xyz
  1  'x, y, z'
loop_
 _atom_site_type_symbol
 _atom_site_label
 _atom_site_symmetry_multiplicity
 _atom_site_fract_x
 _atom_site_fract_y
 _atom_site_fract_z
 _atom_site_occupancy
  Ho  Ho0  1  0.296636  0.084483  0.369778  1
  Ho  Ho1  1  0.295583  0.909434  0.877864  1
  Ho  Ho2  1  0.702034  0.088952  0.872262  1
  Ho  Ho3  1  0.700919  0.910723  0.371532  1
  Ho  Ho4  1  0.581934  0.792628  0.878170  1
  Ho  Ho5  1  0.581723  0.207373  0.378004  1
  Ho  Ho6  1  0.412905  0.793060  0.377822  1
  Ho  Ho7  1  0.417480  0.207161  0.877910  1
  Ho  Ho8  1  0.207372  0.418066  0.621830  1
  Ho  Ho9  1  0.206940  0.587095  0.122178  1
  Ho  Ho10  1  0.792627  0.418277  0.121996  1
  Ho  Ho11  1  0.792839  0.582520  0.622090  1
  Ho  Ho12  1  0.915517  0.703364  0.130222  1
  Ho  Ho13  1  0.911048  0.297966  0.627738  1
  Ho  Ho14  1  0.090566  0.704417  0.622136  1
  Ho  Ho15  1  0.089277  0.299081  0.128468  1
  Ho  Ho16  1  0.002032  0.997381  0.498607  1
  Ho  Ho17  1  0.002619  0.997968  0.001393  1
  Ho  Ho18  1  0.499738  0.499956  0.000474  1
  Ho  Ho19  1  0.500044  0.500262  0.499526  1
  Ir  Ir20  1  0.150057  0.849943  0.250000  1
  Ir  Ir21  1  0.653209  0.346791  0.750000  1
  Ir  Ir22  1  0.653464  0.653219  0.249890  1
  Ir  Ir23  1  0.346781  0.346536  0.250110  1
  Ir  Ir24  1  0.347716  0.652284  0.750000  1
  Os  Os25  1  0.500911  0.000230  0.123765  1
  Os  Os26  1  0.500689  0.000037  0.625204  1
  Os  Os27  1  0.999963  0.499311  0.874796  1
  Os  Os28  1  0.999770  0.499089  0.376235  1
  Pd  Pd29  1  0.848003  0.151997  0.250000  1
  Pd  Pd30  1  0.846823  0.847221  0.750062  1
  Pd  Pd31  1  0.152779  0.153177  0.749938  1
