# generated using pymatgen
data_Tb4(FeCo)7
_symmetry_space_group_name_H-M   'P 1'
_cell_length_a   5.08555736
_cell_length_b   5.10446529
_cell_length_c   12.26068918
_cell_angle_alpha   78.00865772
_cell_angle_beta   78.10290097
_cell_angle_gamma   59.71997191
_symmetry_Int_Tables_number   1
_chemical_formula_structural   Tb4(FeCo)7
_chemical_formula_sum   'Tb4 Fe7 Co7'
_cell_volume   266.91249556
_cell_formula_units_Z   1
loop_
 _symmetry_equiv_pos_site_id
 _symmetry_equiv_pos_as_xyz
  1  'x, y, z'
loop_
 _atom_site_type_symbol
 _atom_site_label
 _atom_site_symmetry_multiplicity
 _atom_site_fract_x
 _atom_site_fract_y
 _atom_site_fract_z
 _atom_site_occupancy
  Tb  Tb0  1  0.051460  0.050956  0.845438  1
  Tb  Tb1  1  0.948302  0.949281  0.154332  1
  Tb  Tb2  1  0.151966  0.148224  0.551449  1
  Tb  Tb3  1  0.853064  0.852496  0.442704  1
  Fe  Fe4  1  0.504335  0.498858  0.498325  1
  Fe  Fe5  1  0.276270  0.280817  0.166608  1
  Fe  Fe6  1  0.720413  0.719220  0.836513  1
  Fe  Fe7  1  0.388017  0.388994  0.836219  1
  Fe  Fe8  1  0.612028  0.609442  0.167644  1
  Fe  Fe9  1  0.500275  0.998889  0.001223  1
  Fe  Fe10  1  0.104610  0.613127  0.669694  1
  Co  Co11  1  0.499768  0.499181  0.001518  1
  Co  Co12  1  0.999116  0.499951  0.000849  1
  Co  Co13  1  0.609455  0.609833  0.669531  1
  Co  Co14  1  0.608745  0.110886  0.671021  1
  Co  Co15  1  0.891401  0.389541  0.329752  1
  Co  Co16  1  0.389855  0.389722  0.329317  1
  Co  Co17  1  0.390920  0.890582  0.327865  1
