# generated using pymatgen
data_Tb2Sm5Sn23Rh6
_symmetry_space_group_name_H-M   'P 1'
_cell_length_a   9.91061227
_cell_length_b   9.90664468
_cell_length_c   10.14449001
_cell_angle_alpha   89.99999860
_cell_angle_beta   89.99538886
_cell_angle_gamma   119.98677199
_symmetry_Int_Tables_number   1
_chemical_formula_structural   Tb2Sm5Sn23Rh6
_chemical_formula_sum   'Tb2 Sm5 Sn23 Rh6'
_cell_volume   862.67218318
_cell_formula_units_Z   1
loop_
 _symmetry_equiv_pos_site_id
 _symmetry_equiv_pos_as_xyz
  1  'x, y, z'
loop_
 _atom_site_type_symbol
 _atom_site_label
 _atom_site_symmetry_multiplicity
 _atom_site_fract_x
 _atom_site_fract_y
 _atom_site_fract_z
 _atom_site_occupancy
  Tb  Tb0  1  0.042281  0.521141  0.307064  1
  Tb  Tb1  1  0.957719  0.478859  0.692936  1
  Sm  Sm2  1  0.000000  0.000000  0.000000  1
  Sm  Sm3  1  0.478357  0.521569  0.307079  1
  Sm  Sm4  1  0.521643  0.478431  0.692921  1
  Sm  Sm5  1  0.478357  0.956789  0.307079  1
  Sm  Sm6  1  0.521643  0.043211  0.692921  1
  Sn  Sn7  1  0.350941  0.999732  0.999920  1
  Sn  Sn8  1  0.649059  0.000268  0.000080  1
  Sn  Sn9  1  0.000000  0.351454  0.000000  1
  Sn  Sn10  1  0.000000  0.648546  0.000000  1
  Sn  Sn11  1  0.649059  0.648790  0.000080  1
  Sn  Sn12  1  0.350941  0.351210  0.999920  1
  Sn  Sn13  1  0.333040  0.666520  0.820237  1
  Sn  Sn14  1  0.666960  0.333480  0.179763  1
  Sn  Sn15  1  0.000000  0.000000  0.500000  1
  Sn  Sn16  1  0.779974  0.222949  0.455257  1
  Sn  Sn17  1  0.220026  0.777051  0.544743  1
  Sn  Sn18  1  0.779974  0.557025  0.455257  1
  Sn  Sn19  1  0.220026  0.442975  0.544743  1
  Sn  Sn20  1  0.442786  0.221393  0.455130  1
  Sn  Sn21  1  0.557214  0.778607  0.544870  1
  Sn  Sn22  1  0.331867  0.665934  0.116452  1
  Sn  Sn23  1  0.668133  0.334066  0.883548  1
  Sn  Sn24  1  0.118210  0.880732  0.280478  1
  Sn  Sn25  1  0.881790  0.119268  0.719522  1
  Sn  Sn26  1  0.118210  0.237477  0.280478  1
  Sn  Sn27  1  0.881790  0.762523  0.719522  1
  Sn  Sn28  1  0.763684  0.881842  0.280312  1
  Sn  Sn29  1  0.236316  0.118158  0.719688  1
  Rh  Rh30  1  0.832152  0.169380  0.198200  1
  Rh  Rh31  1  0.167848  0.830620  0.801800  1
  Rh  Rh32  1  0.832152  0.662773  0.198200  1
  Rh  Rh33  1  0.167848  0.337227  0.801800  1
  Rh  Rh34  1  0.336403  0.168202  0.197926  1
  Rh  Rh35  1  0.663597  0.831798  0.802074  1
