# generated using pymatgen
data_Er2Tm6Re3B24Ru
_symmetry_space_group_name_H-M   'P 1'
_cell_length_a   3.63874700
_cell_length_b   9.09621335
_cell_length_c   11.46835100
_cell_angle_alpha   89.90311987
_cell_angle_beta   90.00000000
_cell_angle_gamma   90.00000000
_symmetry_Int_Tables_number   1
_chemical_formula_structural   Er2Tm6Re3B24Ru
_chemical_formula_sum   'Er2 Tm6 Re3 B24 Ru1'
_cell_volume   379.58833201
_cell_formula_units_Z   1
loop_
 _symmetry_equiv_pos_site_id
 _symmetry_equiv_pos_as_xyz
  1  'x, y, z'
loop_
 _atom_site_type_symbol
 _atom_site_label
 _atom_site_symmetry_multiplicity
 _atom_site_fract_x
 _atom_site_fract_y
 _atom_site_fract_z
 _atom_site_occupancy
  Er  Er0  1  0.000000  0.322965  0.413557  1
  Er  Er1  1  0.000000  0.675557  0.584178  1
  Tm  Tm2  1  0.000000  0.822303  0.087698  1
  Tm  Tm3  1  0.000000  0.178477  0.914195  1
  Tm  Tm4  1  0.000000  0.943132  0.371200  1
  Tm  Tm5  1  0.000000  0.056720  0.630179  1
  Tm  Tm6  1  0.000000  0.443720  0.128861  1
  Tm  Tm7  1  0.000000  0.558123  0.870169  1
  Re  Re8  1  0.000000  0.638394  0.320564  1
  Re  Re9  1  0.000000  0.361451  0.679936  1
  Re  Re10  1  0.000000  0.137812  0.178163  1
  B  B11  1  0.500000  0.552745  0.433140  1
  B  B12  1  0.500000  0.446830  0.566575  1
  B  B13  1  0.500000  0.052644  0.066252  1
  B  B14  1  0.500000  0.946315  0.933096  1
  B  B15  1  0.500000  0.749365  0.419309  1
  B  B16  1  0.500000  0.249896  0.580946  1
  B  B17  1  0.500000  0.250002  0.080406  1
  B  B18  1  0.500000  0.751167  0.919131  1
  B  B19  1  0.500000  0.792702  0.265557  1
  B  B20  1  0.500000  0.207447  0.735408  1
  B  B21  1  0.500000  0.292530  0.234270  1
  B  B22  1  0.500000  0.708684  0.765359  1
  B  B23  1  0.500000  0.631132  0.184884  1
  B  B24  1  0.500000  0.369263  0.815593  1
  B  B25  1  0.500000  0.130306  0.314586  1
  B  B26  1  0.500000  0.868817  0.685332  1
  B  B27  1  0.500000  0.980919  0.212141  1
  B  B28  1  0.500000  0.017381  0.788175  1
  B  B29  1  0.500000  0.481483  0.287352  1
  B  B30  1  0.500000  0.518517  0.712158  1
  B  B31  1  0.500000  0.602430  0.028022  1
  B  B32  1  0.500000  0.399781  0.971556  1
  B  B33  1  0.500000  0.100786  0.472350  1
  B  B34  1  0.500000  0.898489  0.528760  1
  Ru  Ru35  1  0.000000  0.861709  0.820943  1
