# generated using pymatgen
data_ZrSc3(Co4As3)2
_symmetry_space_group_name_H-M   'P 1'
_cell_length_a   12.53287620
_cell_length_b   12.53287602
_cell_length_c   3.75613200
_cell_angle_alpha   90.00000000
_cell_angle_beta   90.00000000
_cell_angle_gamma   119.97976910
_symmetry_Int_Tables_number   1
_chemical_formula_structural   ZrSc3(Co4As3)2
_chemical_formula_sum   'Zr2 Sc6 Co16 As12'
_cell_volume   511.04773757
_cell_formula_units_Z   2
loop_
 _symmetry_equiv_pos_site_id
 _symmetry_equiv_pos_as_xyz
  1  'x, y, z'
loop_
 _atom_site_type_symbol
 _atom_site_label
 _atom_site_symmetry_multiplicity
 _atom_site_fract_x
 _atom_site_fract_y
 _atom_site_fract_z
 _atom_site_occupancy
  Zr  Zr0  1  0.999529  0.183714  0.500000  1
  Zr  Zr1  1  0.183714  0.999529  0.500000  1
  Sc  Sc2  1  0.817506  0.817506  0.500000  1
  Sc  Sc3  1  0.442259  0.442259  0.000000  1
  Sc  Sc4  1  0.558896  0.000250  0.000000  1
  Sc  Sc5  1  0.333115  0.666649  0.000000  1
  Sc  Sc6  1  0.666649  0.333115  0.000000  1
  Sc  Sc7  1  0.000250  0.558896  0.000000  1
  Co  Co8  1  0.626843  0.823447  0.000000  1
  Co  Co9  1  0.372051  0.195405  0.000000  1
  Co  Co10  1  0.000659  0.719299  0.500000  1
  Co  Co11  1  0.280452  0.280452  0.500000  1
  Co  Co12  1  0.876154  0.352753  0.500000  1
  Co  Co13  1  0.719299  0.000659  0.500000  1
  Co  Co14  1  0.823447  0.626843  0.000000  1
  Co  Co15  1  0.175923  0.804552  0.000000  1
  Co  Co16  1  0.352753  0.876154  0.500000  1
  Co  Co17  1  0.124254  0.477149  0.500000  1
  Co  Co18  1  0.646056  0.521874  0.500000  1
  Co  Co19  1  0.000940  0.000940  0.000000  1
  Co  Co20  1  0.521874  0.646056  0.500000  1
  Co  Co21  1  0.477149  0.124254  0.500000  1
  Co  Co22  1  0.195405  0.372051  0.000000  1
  Co  Co23  1  0.804552  0.175923  0.000000  1
  As  As24  1  0.999826  0.350574  0.000000  1
  As  As25  1  0.826028  0.513145  0.500000  1
  As  As26  1  0.687219  0.174014  0.500000  1
  As  As27  1  0.176177  0.176177  0.000000  1
  As  As28  1  0.651204  0.651204  0.000000  1
  As  As29  1  0.824099  0.998392  0.000000  1
  As  As30  1  0.513145  0.826028  0.500000  1
  As  As31  1  0.174014  0.687219  0.500000  1
  As  As32  1  0.350574  0.999826  0.000000  1
  As  As33  1  0.486549  0.313046  0.500000  1
  As  As34  1  0.998392  0.824099  0.000000  1
  As  As35  1  0.313046  0.486549  0.500000  1
