# generated using pymatgen
data_TaTi3(GaRu3)2
_symmetry_space_group_name_H-M   'P 1'
_cell_length_a   4.36606502
_cell_length_b   6.19947103
_cell_length_c   13.03242200
_cell_angle_alpha   90.00039191
_cell_angle_beta   89.99971498
_cell_angle_gamma   89.98818511
_symmetry_Int_Tables_number   1
_chemical_formula_structural   TaTi3(GaRu3)2
_chemical_formula_sum   'Ta2 Ti6 Ga4 Ru12'
_cell_volume   352.75238560
_cell_formula_units_Z   2
loop_
 _symmetry_equiv_pos_site_id
 _symmetry_equiv_pos_as_xyz
  1  'x, y, z'
loop_
 _atom_site_type_symbol
 _atom_site_label
 _atom_site_symmetry_multiplicity
 _atom_site_fract_x
 _atom_site_fract_y
 _atom_site_fract_z
 _atom_site_occupancy
  Ta  Ta0  1  0.000057  0.000001  0.663872  1
  Ta  Ta1  1  0.500056  0.500002  0.836129  1
  Ti  Ti2  1  0.000015  0.500000  0.011500  1
  Ti  Ti3  1  0.499938  0.999998  0.169962  1
  Ti  Ti4  1  0.999932  0.500005  0.330036  1
  Ti  Ti5  1  0.500015  0.000003  0.488506  1
  Ti  Ti6  1  0.000065  0.499998  0.657904  1
  Ti  Ti7  1  0.500064  0.000005  0.842106  1
  Ga  Ga8  1  0.000013  0.999999  0.002960  1
  Ga  Ga9  1  0.499944  0.500006  0.167954  1
  Ga  Ga10  1  0.999940  0.999996  0.332036  1
  Ga  Ga11  1  0.500014  0.500004  0.497032  1
  Ru  Ru12  1  0.500031  0.251149  0.998358  1
  Ru  Ru13  1  0.499973  0.748847  0.998355  1
  Ru  Ru14  1  0.999824  0.249694  0.166951  1
  Ru  Ru15  1  0.000088  0.750305  0.166951  1
  Ru  Ru16  1  0.500088  0.250260  0.333041  1
  Ru  Ru17  1  0.499818  0.749743  0.333040  1
  Ru  Ru18  1  0.999978  0.248841  0.501653  1
  Ru  Ru19  1  0.000026  0.751161  0.501657  1
  Ru  Ru20  1  0.500008  0.249469  0.667564  1
  Ru  Ru21  1  0.500058  0.750525  0.667563  1
  Ru  Ru22  1  0.000061  0.250510  0.832436  1
  Ru  Ru23  1  0.999998  0.749478  0.832434  1
