# generated using pymatgen
data_Y11In9(RuPt)2
_symmetry_space_group_name_H-M   'P 1'
_cell_length_a   13.23650024
_cell_length_b   13.14363922
_cell_length_c   3.68381300
_cell_angle_alpha   90.00000000
_cell_angle_beta   90.00000000
_cell_angle_gamma   111.28619278
_symmetry_Int_Tables_number   1
_chemical_formula_structural   Y11In9(RuPt)2
_chemical_formula_sum   'Y11 In9 Ru2 Pt2'
_cell_volume   597.17163810
_cell_formula_units_Z   1
loop_
 _symmetry_equiv_pos_site_id
 _symmetry_equiv_pos_as_xyz
  1  'x, y, z'
loop_
 _atom_site_type_symbol
 _atom_site_label
 _atom_site_symmetry_multiplicity
 _atom_site_fract_x
 _atom_site_fract_y
 _atom_site_fract_z
 _atom_site_occupancy
  Y  Y0  1  0.075883  0.416891  0.000000  1
  Y  Y1  1  0.924117  0.583109  0.000000  1
  Y  Y2  1  0.417345  0.074520  0.000000  1
  Y  Y3  1  0.582655  0.925480  0.000000  1
  Y  Y4  1  0.630620  0.380455  0.000000  1
  Y  Y5  1  0.369380  0.619545  0.000000  1
  Y  Y6  1  0.839987  0.161895  0.000000  1
  Y  Y7  1  0.160013  0.838105  0.000000  1
  Y  Y8  1  0.000000  0.000000  0.000000  1
  Y  Y9  1  0.310182  0.315280  0.000000  1
  Y  Y10  1  0.689818  0.684720  0.000000  1
  In  In11  1  0.837696  0.367987  0.500000  1
  In  In12  1  0.162304  0.632013  0.500000  1
  In  In13  1  0.365873  0.843127  0.500000  1
  In  In14  1  0.634127  0.156873  0.500000  1
  In  In15  1  0.078864  0.220340  0.500000  1
  In  In16  1  0.921136  0.779660  0.500000  1
  In  In17  1  0.216581  0.072375  0.500000  1
  In  In18  1  0.783419  0.927625  0.500000  1
  In  In19  1  0.500000  0.500000  0.500000  1
  Ru  Ru20  1  0.242301  0.446331  0.500000  1
  Ru  Ru21  1  0.757699  0.553669  0.500000  1
  Pt  Pt22  1  0.450665  0.247483  0.500000  1
  Pt  Pt23  1  0.549335  0.752517  0.500000  1
