# generated using pymatgen
data_PrHoP7Ru12
_symmetry_space_group_name_H-M   'P 1'
_cell_length_a   9.45695800
_cell_length_b   9.45695675
_cell_length_c   3.97022100
_cell_angle_alpha   90.00000000
_cell_angle_beta   90.00000000
_cell_angle_gamma   119.99999739
_symmetry_Int_Tables_number   1
_chemical_formula_structural   PrHoP7Ru12
_chemical_formula_sum   'Pr1 Ho1 P7 Ru12'
_cell_volume   307.50217238
_cell_formula_units_Z   1
loop_
 _symmetry_equiv_pos_site_id
 _symmetry_equiv_pos_as_xyz
  1  'x, y, z'
loop_
 _atom_site_type_symbol
 _atom_site_label
 _atom_site_symmetry_multiplicity
 _atom_site_fract_x
 _atom_site_fract_y
 _atom_site_fract_z
 _atom_site_occupancy
  Pr  Pr0  1  0.333333  0.666667  0.000000  1
  Ho  Ho1  1  0.666667  0.333333  0.500000  1
  P  P2  1  0.605199  0.718687  0.500000  1
  P  P3  1  0.000000  0.000000  0.000000  1
  P  P4  1  0.281313  0.886512  0.500000  1
  P  P5  1  0.113488  0.394801  0.500000  1
  P  P6  1  0.886597  0.571985  0.000000  1
  P  P7  1  0.428015  0.314613  0.000000  1
  P  P8  1  0.685387  0.113403  0.000000  1
  Ru  Ru9  1  0.559831  0.955534  0.500000  1
  Ru  Ru10  1  0.395704  0.440169  0.500000  1
  Ru  Ru11  1  0.914650  0.119673  0.500000  1
  Ru  Ru12  1  0.205023  0.085350  0.500000  1
  Ru  Ru13  1  0.880327  0.794977  0.500000  1
  Ru  Ru14  1  0.728915  0.892886  0.000000  1
  Ru  Ru15  1  0.107114  0.836027  0.000000  1
  Ru  Ru16  1  0.163973  0.271085  0.000000  1
  Ru  Ru17  1  0.422092  0.068938  0.000000  1
  Ru  Ru18  1  0.931062  0.353155  0.000000  1
  Ru  Ru19  1  0.646845  0.577908  0.000000  1
  Ru  Ru20  1  0.044466  0.604296  0.500000  1
