# generated using pymatgen
data_Rb4Al5(GaAu4)3
_symmetry_space_group_name_H-M   'P 1'
_cell_length_a   5.62290991
_cell_length_b   7.20444287
_cell_length_c   13.57324862
_cell_angle_alpha   89.88472997
_cell_angle_beta   89.94262729
_cell_angle_gamma   89.96945553
_symmetry_Int_Tables_number   1
_chemical_formula_structural   Rb4Al5(GaAu4)3
_chemical_formula_sum   'Rb4 Al5 Ga3 Au12'
_cell_volume   549.84992860
_cell_formula_units_Z   1
loop_
 _symmetry_equiv_pos_site_id
 _symmetry_equiv_pos_as_xyz
  1  'x, y, z'
loop_
 _atom_site_type_symbol
 _atom_site_label
 _atom_site_symmetry_multiplicity
 _atom_site_fract_x
 _atom_site_fract_y
 _atom_site_fract_z
 _atom_site_occupancy
  Rb  Rb0  1  0.249536  0.102318  0.072975  1
  Rb  Rb1  1  0.251637  0.398315  0.573289  1
  Rb  Rb2  1  0.749111  0.897928  0.926847  1
  Rb  Rb3  1  0.750095  0.601768  0.426898  1
  Al  Al4  1  0.999529  0.900436  0.656469  1
  Al  Al5  1  0.500540  0.600477  0.157210  1
  Al  Al6  1  0.499119  0.101156  0.343457  1
  Al  Al7  1  0.000513  0.399465  0.843487  1
  Al  Al8  1  0.001487  0.100693  0.343633  1
  Ga  Ga9  1  0.497713  0.394852  0.844751  1
  Ga  Ga10  1  0.501958  0.895933  0.654972  1
  Ga  Ga11  1  0.997671  0.604725  0.155921  1
  Au  Au12  1  0.243948  0.111383  0.785940  1
  Au  Au13  1  0.251641  0.384970  0.286737  1
  Au  Au14  1  0.746037  0.890016  0.215237  1
  Au  Au15  1  0.756201  0.611340  0.714026  1
  Au  Au16  1  0.243918  0.698656  0.789095  1
  Au  Au17  1  0.253686  0.804044  0.288858  1
  Au  Au18  1  0.747500  0.300832  0.212451  1
  Au  Au19  1  0.755963  0.198000  0.710516  1
  Au  Au20  1  0.253924  0.579732  0.994636  1
  Au  Au21  1  0.243883  0.922240  0.493391  1
  Au  Au22  1  0.754052  0.420240  0.005937  1
  Au  Au23  1  0.750337  0.080480  0.503267  1
