# generated using pymatgen
data_Zr4AlSiH2
_symmetry_space_group_name_H-M   'P 1'
_cell_length_a   5.51901145
_cell_length_b   5.51901060
_cell_length_c   5.51901038
_cell_angle_alpha   104.43416038
_cell_angle_beta   104.43416532
_cell_angle_gamma   120.09700126
_symmetry_Int_Tables_number   1
_chemical_formula_structural   Zr4AlSiH2
_chemical_formula_sum   'Zr4 Al1 Si1 H2'
_cell_volume   126.01773088
_cell_formula_units_Z   1
loop_
 _symmetry_equiv_pos_site_id
 _symmetry_equiv_pos_as_xyz
  1  'x, y, z'
loop_
 _atom_site_type_symbol
 _atom_site_label
 _atom_site_symmetry_multiplicity
 _atom_site_fract_x
 _atom_site_fract_y
 _atom_site_fract_z
 _atom_site_occupancy
  Zr  Zr0  1  0.162647  0.662647  0.825296  1
  Zr  Zr1  1  0.837353  0.337353  0.174704  1
  Zr  Zr2  1  0.337353  0.162647  0.500000  1
  Zr  Zr3  1  0.662647  0.837353  0.500000  1
  Al  Al4  1  0.250000  0.250000  0.000000  1
  Si  Si5  1  0.750000  0.750000  0.000000  1
  H  H6  1  0.750000  0.250000  0.500000  1
  H  H7  1  0.250000  0.750000  0.500000  1
