# generated using pymatgen
data_Li4Ni9Ge3P4Rh
_symmetry_space_group_name_H-M   'P 1'
_cell_length_a   9.19525920
_cell_length_b   9.19624599
_cell_length_c   3.60708400
_cell_angle_alpha   90.00000000
_cell_angle_beta   90.00000000
_cell_angle_gamma   119.49713870
_symmetry_Int_Tables_number   1
_chemical_formula_structural   Li4Ni9Ge3P4Rh
_chemical_formula_sum   'Li4 Ni9 Ge3 P4 Rh1'
_cell_volume   265.48491990
_cell_formula_units_Z   1
loop_
 _symmetry_equiv_pos_site_id
 _symmetry_equiv_pos_as_xyz
  1  'x, y, z'
loop_
 _atom_site_type_symbol
 _atom_site_label
 _atom_site_symmetry_multiplicity
 _atom_site_fract_x
 _atom_site_fract_y
 _atom_site_fract_z
 _atom_site_occupancy
  Li  Li0  1  0.892853  0.126602  0.500000  1
  Li  Li1  1  0.236475  0.103434  0.500000  1
  Li  Li2  1  0.315638  0.652303  0.000000  1
  Li  Li3  1  0.649995  0.321453  0.500000  1
  Ni  Ni4  1  0.710771  0.890832  0.000000  1
  Ni  Ni5  1  0.170855  0.287465  0.000000  1
  Ni  Ni6  1  0.136611  0.834127  0.000000  1
  Ni  Ni7  1  0.614431  0.563846  0.000000  1
  Ni  Ni8  1  0.946131  0.366515  0.000000  1
  Ni  Ni9  1  0.432060  0.061203  0.000000  1
  Ni  Ni10  1  0.569658  0.971225  0.500000  1
  Ni  Ni11  1  0.382264  0.424178  0.500000  1
  Ni  Ni12  1  0.069286  0.614245  0.500000  1
  Ge  Ge13  1  0.574636  0.711165  0.500000  1
  Ge  Ge14  1  0.002240  0.995242  0.000000  1
  Ge  Ge15  1  0.874057  0.576758  0.000000  1
  P  P16  1  0.126115  0.410188  0.500000  1
  P  P17  1  0.295821  0.873334  0.500000  1
  P  P18  1  0.699702  0.131229  0.000000  1
  P  P19  1  0.423309  0.299527  0.000000  1
  Rh  Rh20  1  0.877091  0.785129  0.500000  1
