# generated using pymatgen
data_La3Pr(Hg2O)4
_symmetry_space_group_name_H-M   'P 1'
_cell_length_a   5.95007279
_cell_length_b   5.87844745
_cell_length_c   10.94773879
_cell_angle_alpha   90.02368558
_cell_angle_beta   97.55302749
_cell_angle_gamma   89.97992979
_symmetry_Int_Tables_number   1
_chemical_formula_structural   La3Pr(Hg2O)4
_chemical_formula_sum   'La3 Pr1 Hg8 O4'
_cell_volume   379.59872871
_cell_formula_units_Z   1
loop_
 _symmetry_equiv_pos_site_id
 _symmetry_equiv_pos_as_xyz
  1  'x, y, z'
loop_
 _atom_site_type_symbol
 _atom_site_label
 _atom_site_symmetry_multiplicity
 _atom_site_fract_x
 _atom_site_fract_y
 _atom_site_fract_z
 _atom_site_occupancy
  La  La0  1  0.023895  0.684919  0.107473  1
  La  La1  1  0.976911  0.184887  0.894440  1
  La  La2  1  0.476579  0.684869  0.894452  1
  Pr  Pr3  1  0.524303  0.184960  0.106949  1
  Hg  Hg4  1  0.531645  0.163876  0.415999  1
  Hg  Hg5  1  0.026859  0.653314  0.419410  1
  Hg  Hg6  1  0.971858  0.153079  0.580810  1
  Hg  Hg7  1  0.468510  0.663750  0.581084  1
  Hg  Hg8  1  0.546106  0.674147  0.293307  1
  Hg  Hg9  1  0.048220  0.169217  0.292961  1
  Hg  Hg10  1  0.950609  0.668195  0.706015  1
  Hg  Hg11  1  0.453939  0.174674  0.704319  1
  O  O12  1  0.750192  0.933939  0.000659  1
  O  O13  1  0.250113  0.936097  0.000468  1
  O  O14  1  0.750107  0.436042  0.000976  1
  O  O15  1  0.250165  0.433997  0.000680  1
