# generated using pymatgen
data_Y2Fe10P7W2
_symmetry_space_group_name_H-M   'P 1'
_cell_length_a   9.12765746
_cell_length_b   9.05571330
_cell_length_c   3.66773400
_cell_angle_alpha   90.00000000
_cell_angle_beta   90.00000000
_cell_angle_gamma   119.91431997
_symmetry_Int_Tables_number   1
_chemical_formula_structural   Y2Fe10P7W2
_chemical_formula_sum   'Y2 Fe10 P7 W2'
_cell_volume   262.77543909
_cell_formula_units_Z   1
loop_
 _symmetry_equiv_pos_site_id
 _symmetry_equiv_pos_as_xyz
  1  'x, y, z'
loop_
 _atom_site_type_symbol
 _atom_site_label
 _atom_site_symmetry_multiplicity
 _atom_site_fract_x
 _atom_site_fract_y
 _atom_site_fract_z
 _atom_site_occupancy
  Y  Y0  1  0.662510  0.332584  0.500000  1
  Y  Y1  1  0.338666  0.665496  0.000000  1
  Fe  Fe2  1  0.725715  0.880057  0.000000  1
  Fe  Fe3  1  0.946424  0.378404  0.000000  1
  Fe  Fe4  1  0.155081  0.272471  0.000000  1
  Fe  Fe5  1  0.388951  0.438672  0.500000  1
  Fe  Fe6  1  0.116619  0.837644  0.000000  1
  Fe  Fe7  1  0.426965  0.052006  0.000000  1
  Fe  Fe8  1  0.043299  0.610807  0.500000  1
  Fe  Fe9  1  0.564813  0.949249  0.500000  1
  Fe  Fe10  1  0.632767  0.577746  0.000000  1
  Fe  Fe11  1  0.879085  0.787254  0.500000  1
  P  P12  1  0.415022  0.308400  0.000000  1
  P  P13  1  0.289752  0.876124  0.500000  1
  P  P14  1  0.695075  0.110468  0.000000  1
  P  P15  1  0.600837  0.711927  0.500000  1
  P  P16  1  0.880734  0.591406  0.000000  1
  P  P17  1  0.125696  0.410590  0.500000  1
  P  P18  1  0.995410  0.990664  0.000000  1
  W  W19  1  0.219792  0.100386  0.500000  1
  W  W20  1  0.896787  0.117641  0.500000  1
