# generated using pymatgen
data_Y3Ta2Sn(B2Ru5)2
_symmetry_space_group_name_H-M   'P 1'
_cell_length_a   9.63375576
_cell_length_b   9.72654174
_cell_length_c   3.11510200
_cell_angle_alpha   90.00000000
_cell_angle_beta   90.00000000
_cell_angle_gamma   90.83181782
_symmetry_Int_Tables_number   1
_chemical_formula_structural   Y3Ta2Sn(B2Ru5)2
_chemical_formula_sum   'Y3 Ta2 Sn1 B4 Ru10'
_cell_volume   291.86403895
_cell_formula_units_Z   1
loop_
 _symmetry_equiv_pos_site_id
 _symmetry_equiv_pos_as_xyz
  1  'x, y, z'
loop_
 _atom_site_type_symbol
 _atom_site_label
 _atom_site_symmetry_multiplicity
 _atom_site_fract_x
 _atom_site_fract_y
 _atom_site_fract_z
 _atom_site_occupancy
  Y  Y0  1  0.821897  0.673794  0.000000  1
  Y  Y1  1  0.176794  0.325322  0.000000  1
  Y  Y2  1  0.323569  0.826601  0.000000  1
  Ta  Ta3  1  0.682250  0.167648  0.000000  1
  Ta  Ta4  1  0.004214  0.998723  0.000000  1
  Sn  Sn5  1  0.497440  0.507130  0.000000  1
  B  B6  1  0.623699  0.884739  0.000000  1
  B  B7  1  0.382467  0.124300  0.000000  1
  B  B8  1  0.115009  0.619908  0.000000  1
  B  B9  1  0.875854  0.375059  0.000000  1
  Ru  Ru10  1  0.571361  0.729926  0.500000  1
  Ru  Ru11  1  0.447375  0.275763  0.500000  1
  Ru  Ru12  1  0.065466  0.780421  0.500000  1
  Ru  Ru13  1  0.918247  0.212865  0.500000  1
  Ru  Ru14  1  0.273085  0.573873  0.500000  1
  Ru  Ru15  1  0.713138  0.404824  0.500000  1
  Ru  Ru16  1  0.222885  0.071386  0.500000  1
  Ru  Ru17  1  0.781380  0.942345  0.500000  1
  Ru  Ru18  1  0.510284  0.009957  0.500000  1
  Ru  Ru19  1  0.993584  0.495416  0.500000  1
