# generated using pymatgen
data_Tb3Er2(SiSb)2
_symmetry_space_group_name_H-M   'P 1'
_cell_length_a   8.48822998
_cell_length_b   8.50308451
_cell_length_c   7.84177100
_cell_angle_alpha   90.09927446
_cell_angle_beta   90.04797920
_cell_angle_gamma   125.26016290
_symmetry_Int_Tables_number   1
_chemical_formula_structural   Tb3Er2(SiSb)2
_chemical_formula_sum   'Tb6 Er4 Si4 Sb4'
_cell_volume   462.15010933
_cell_formula_units_Z   2
loop_
 _symmetry_equiv_pos_site_id
 _symmetry_equiv_pos_as_xyz
  1  'x, y, z'
loop_
 _atom_site_type_symbol
 _atom_site_label
 _atom_site_symmetry_multiplicity
 _atom_site_fract_x
 _atom_site_fract_y
 _atom_site_fract_z
 _atom_site_occupancy
  Tb  Tb0  1  0.459473  0.206148  0.833240  1
  Tb  Tb1  1  0.795191  0.541478  0.167135  1
  Tb  Tb2  1  0.540527  0.793852  0.166760  1
  Tb  Tb3  1  0.204809  0.458522  0.832865  1
  Tb  Tb4  1  0.705085  0.958627  0.667110  1
  Tb  Tb5  1  0.294915  0.041373  0.332890  1
  Er  Er6  1  0.040969  0.291013  0.334259  1
  Er  Er7  1  0.959031  0.708987  0.665741  1
  Er  Er8  1  0.000000  0.000000  0.000000  1
  Er  Er9  1  0.500000  0.500000  0.500000  1
  Si  Si10  1  0.367976  0.369211  0.130965  1
  Si  Si11  1  0.632024  0.630789  0.869035  1
  Si  Si12  1  0.129869  0.129711  0.629029  1
  Si  Si13  1  0.870131  0.870289  0.370971  1
  Sb  Sb14  1  0.795274  0.205525  0.002891  1
  Sb  Sb15  1  0.204726  0.794475  0.997109  1
  Sb  Sb16  1  0.709766  0.297246  0.501300  1
  Sb  Sb17  1  0.290234  0.702754  0.498700  1
