# generated using pymatgen
data_KRb2TmBr6
_symmetry_space_group_name_H-M   'P 1'
_cell_length_a   8.15628312
_cell_length_b   8.15628262
_cell_length_c   8.34922122
_cell_angle_alpha   119.22156957
_cell_angle_beta   119.22156753
_cell_angle_gamma   60.38894658
_symmetry_Int_Tables_number   1
_chemical_formula_structural   KRb2TmBr6
_chemical_formula_sum   'K1 Rb2 Tm1 Br6'
_cell_volume   398.48883761
_cell_formula_units_Z   1
loop_
 _symmetry_equiv_pos_site_id
 _symmetry_equiv_pos_as_xyz
  1  'x, y, z'
loop_
 _atom_site_type_symbol
 _atom_site_label
 _atom_site_symmetry_multiplicity
 _atom_site_fract_x
 _atom_site_fract_y
 _atom_site_fract_z
 _atom_site_occupancy
  K  K0  1  0.500000  0.500000  0.500001  1
  Rb  Rb1  1  0.749005  0.749005  0.232211  1
  Rb  Rb2  1  0.250995  0.250995  0.767791  1
  Tm  Tm3  1  0.000000  0.000000  0.000000  1
  Br  Br4  1  0.703872  0.181035  0.167158  1
  Br  Br5  1  0.181035  0.703872  0.167158  1
  Br  Br6  1  0.225585  0.225585  0.326308  1
  Br  Br7  1  0.774415  0.774415  0.673692  1
  Br  Br8  1  0.818965  0.296129  0.832841  1
  Br  Br9  1  0.296129  0.818965  0.832841  1
