# generated using pymatgen
data_Dy3P6PdN13
_symmetry_space_group_name_H-M   'P 1'
_cell_length_a   7.22457408
_cell_length_b   7.22457442
_cell_length_c   7.35314000
_cell_angle_alpha   109.83211507
_cell_angle_beta   109.83211603
_cell_angle_gamma   109.10792571
_symmetry_Int_Tables_number   1
_chemical_formula_structural   Dy3P6PdN13
_chemical_formula_sum   'Dy3 P6 Pd1 N13'
_cell_volume   294.11809211
_cell_formula_units_Z   1
loop_
 _symmetry_equiv_pos_site_id
 _symmetry_equiv_pos_as_xyz
  1  'x, y, z'
loop_
 _atom_site_type_symbol
 _atom_site_label
 _atom_site_symmetry_multiplicity
 _atom_site_fract_x
 _atom_site_fract_y
 _atom_site_fract_z
 _atom_site_occupancy
  Dy  Dy0  1  0.319574  0.319574  0.297809  1
  Dy  Dy1  1  0.000000  0.680426  0.978235  1
  Dy  Dy2  1  0.680426  0.000000  0.978235  1
  P  P3  1  0.501434  0.254342  0.746154  1
  P  P4  1  0.498566  0.752908  0.244721  1
  P  P5  1  0.745658  0.247092  0.491812  1
  P  P6  1  0.254342  0.501434  0.746154  1
  P  P7  1  0.752908  0.498566  0.244721  1
  P  P8  1  0.247092  0.745658  0.491812  1
  Pd  Pd9  1  0.000000  0.000000  0.792614  1
  N  N10  1  0.000000  0.000000  0.080375  1
  N  N11  1  0.000000  0.711427  0.429861  1
  N  N12  1  0.268060  0.675906  0.265710  1
  N  N13  1  0.324094  0.592152  0.589803  1
  N  N14  1  0.562983  0.562983  0.249614  1
  N  N15  1  0.592152  0.324094  0.589803  1
  N  N16  1  0.711427  0.000000  0.429861  1
  N  N17  1  0.437017  0.000000  0.686630  1
  N  N18  1  0.731940  0.407848  0.997651  1
  N  N19  1  0.288573  0.288573  0.718433  1
  N  N20  1  0.675906  0.268060  0.265710  1
  N  N21  1  0.000000  0.437017  0.686630  1
  N  N22  1  0.407848  0.731940  0.997651  1
