# generated using pymatgen
data_Y7Lu(Ge4Mo3)4
_symmetry_space_group_name_H-M   'P 1'
_cell_length_a   6.94899207
_cell_length_b   7.06758688
_cell_length_c   13.14668430
_cell_angle_alpha   89.96380055
_cell_angle_beta   89.99310053
_cell_angle_gamma   89.97814263
_symmetry_Int_Tables_number   1
_chemical_formula_structural   Y7Lu(Ge4Mo3)4
_chemical_formula_sum   'Y7 Lu1 Ge16 Mo12'
_cell_volume   645.66773459
_cell_formula_units_Z   1
loop_
 _symmetry_equiv_pos_site_id
 _symmetry_equiv_pos_as_xyz
  1  'x, y, z'
loop_
 _atom_site_type_symbol
 _atom_site_label
 _atom_site_symmetry_multiplicity
 _atom_site_fract_x
 _atom_site_fract_y
 _atom_site_fract_z
 _atom_site_occupancy
  Y  Y0  1  0.490216  0.330399  0.092312  1
  Y  Y1  1  0.990428  0.169542  0.407847  1
  Y  Y2  1  0.509915  0.669227  0.592382  1
  Y  Y3  1  0.009408  0.830797  0.908415  1
  Y  Y4  1  0.509354  0.669842  0.908288  1
  Y  Y5  1  0.009590  0.830385  0.592366  1
  Y  Y6  1  0.490004  0.330563  0.406905  1
  Lu  Lu7  1  0.988659  0.170464  0.092602  1
  Ge  Ge8  1  0.668346  0.046499  0.548420  1
  Ge  Ge9  1  0.168071  0.452657  0.952318  1
  Ge  Ge10  1  0.328414  0.955667  0.048947  1
  Ge  Ge11  1  0.831685  0.546472  0.451218  1
  Ge  Ge12  1  0.331776  0.953394  0.451183  1
  Ge  Ge13  1  0.832348  0.544292  0.048837  1
  Ge  Ge14  1  0.669175  0.046396  0.952355  1
  Ge  Ge15  1  0.168463  0.453681  0.548413  1
  Ge  Ge16  1  0.530705  0.366293  0.750428  1
  Ge  Ge17  1  0.030443  0.133300  0.750046  1
  Ge  Ge18  1  0.470023  0.633942  0.249475  1
  Ge  Ge19  1  0.970356  0.868059  0.249169  1
  Ge  Ge20  1  0.810085  0.642175  0.750532  1
  Ge  Ge21  1  0.309820  0.857283  0.750250  1
  Ge  Ge22  1  0.188387  0.355782  0.248659  1
  Ge  Ge23  1  0.691631  0.143010  0.249194  1
  Mo  Mo24  1  0.830413  0.343874  0.627180  1
  Mo  Mo25  1  0.329880  0.155999  0.873436  1
  Mo  Mo26  1  0.169815  0.656225  0.126948  1
  Mo  Mo27  1  0.670090  0.844254  0.372434  1
  Mo  Mo28  1  0.169686  0.655907  0.372380  1
  Mo  Mo29  1  0.671005  0.844835  0.126329  1
  Mo  Mo30  1  0.830902  0.342864  0.873754  1
  Mo  Mo31  1  0.330487  0.155926  0.627123  1
  Mo  Mo32  1  0.665973  0.005505  0.750315  1
  Mo  Mo33  1  0.166264  0.493993  0.750325  1
  Mo  Mo34  1  0.333887  0.995070  0.249592  1
  Mo  Mo35  1  0.834298  0.505431  0.249622  1
