# generated using pymatgen
data_Ac2Be4Ir5
_symmetry_space_group_name_H-M   'P 1'
_cell_length_a   8.00706657
_cell_length_b   6.92017563
_cell_length_c   5.74537845
_cell_angle_alpha   77.81404828
_cell_angle_beta   57.64886938
_cell_angle_gamma   44.53708473
_symmetry_Int_Tables_number   1
_chemical_formula_structural   Ac2Be4Ir5
_chemical_formula_sum   'Ac2 Be4 Ir5'
_cell_volume   180.66372741
_cell_formula_units_Z   1
loop_
 _symmetry_equiv_pos_site_id
 _symmetry_equiv_pos_as_xyz
  1  'x, y, z'
loop_
 _atom_site_type_symbol
 _atom_site_label
 _atom_site_symmetry_multiplicity
 _atom_site_fract_x
 _atom_site_fract_y
 _atom_site_fract_z
 _atom_site_occupancy
  Ac  Ac0  1  0.862624  0.862624  0.137375  1
  Ac  Ac1  1  0.137376  0.137376  0.862624  1
  Be  Be2  1  0.461853  0.793912  0.206088  1
  Be  Be3  1  0.206088  0.538147  0.461853  1
  Be  Be4  1  0.793911  0.461853  0.538147  1
  Be  Be5  1  0.538147  0.206089  0.793911  1
  Ir  Ir6  1  0.500001  0.500000  0.000000  1
  Ir  Ir7  1  0.250001  0.250000  0.250000  1
  Ir  Ir8  1  0.000000  0.000000  0.500000  1
  Ir  Ir9  1  0.500000  0.500001  0.499999  1
  Ir  Ir10  1  0.750000  0.750000  0.750000  1
