# generated using pymatgen
data_TbScMn2Co10P7
_symmetry_space_group_name_H-M   'P 1'
_cell_length_a   9.00332629
_cell_length_b   9.02516092
_cell_length_c   3.57250600
_cell_angle_alpha   90.00000000
_cell_angle_beta   90.00000000
_cell_angle_gamma   120.08103719
_symmetry_Int_Tables_number   1
_chemical_formula_structural   TbScMn2Co10P7
_chemical_formula_sum   'Tb1 Sc1 Mn2 Co10 P7'
_cell_volume   251.19230122
_cell_formula_units_Z   1
loop_
 _symmetry_equiv_pos_site_id
 _symmetry_equiv_pos_as_xyz
  1  'x, y, z'
loop_
 _atom_site_type_symbol
 _atom_site_label
 _atom_site_symmetry_multiplicity
 _atom_site_fract_x
 _atom_site_fract_y
 _atom_site_fract_z
 _atom_site_occupancy
  Tb  Tb0  1  0.669050  0.334008  0.000000  1
  Sc  Sc1  1  0.333837  0.666982  0.500000  1
  Mn  Mn2  1  0.777198  0.898234  0.500000  1
  Mn  Mn3  1  0.120923  0.221248  0.500000  1
  Co  Co4  1  0.064587  0.634345  0.000000  1
  Co  Co5  1  0.566973  0.934701  0.000000  1
  Co  Co6  1  0.367477  0.432163  0.000000  1
  Co  Co7  1  0.275455  0.115605  0.000000  1
  Co  Co8  1  0.841522  0.724361  0.000000  1
  Co  Co9  1  0.885163  0.160215  0.000000  1
  Co  Co10  1  0.434191  0.045342  0.500000  1
  Co  Co11  1  0.611945  0.563620  0.500000  1
  Co  Co12  1  0.954202  0.390831  0.500000  1
  Co  Co13  1  0.093603  0.875476  0.500000  1
  P  P14  1  0.299352  0.884006  0.000000  1
  P  P15  1  0.582805  0.699296  0.000000  1
  P  P16  1  0.117106  0.419161  0.000000  1
  P  P17  1  0.406180  0.288458  0.500000  1
  P  P18  1  0.886894  0.599453  0.500000  1
  P  P19  1  0.711985  0.113964  0.500000  1
  P  P20  1  0.999554  0.998531  0.000000  1
