# generated using pymatgen
data_Rb8Zn3CdH16
_symmetry_space_group_name_H-M   'P 1'
_cell_length_a   6.12689700
_cell_length_b   8.25280307
_cell_length_c   10.78695509
_cell_angle_alpha   89.98521941
_cell_angle_beta   90.00000000
_cell_angle_gamma   90.00000000
_symmetry_Int_Tables_number   1
_chemical_formula_structural   Rb8Zn3CdH16
_chemical_formula_sum   'Rb8 Zn3 Cd1 H16'
_cell_volume   545.43238116
_cell_formula_units_Z   1
loop_
 _symmetry_equiv_pos_site_id
 _symmetry_equiv_pos_as_xyz
  1  'x, y, z'
loop_
 _atom_site_type_symbol
 _atom_site_label
 _atom_site_symmetry_multiplicity
 _atom_site_fract_x
 _atom_site_fract_y
 _atom_site_fract_z
 _atom_site_occupancy
  Rb  Rb0  1  0.250000  0.658937  0.087809  1
  Rb  Rb1  1  0.250000  0.166129  0.406101  1
  Rb  Rb2  1  0.750000  0.339740  0.906479  1
  Rb  Rb3  1  0.750000  0.842756  0.597741  1
  Rb  Rb4  1  0.250000  0.986309  0.815704  1
  Rb  Rb5  1  0.250000  0.481272  0.690232  1
  Rb  Rb6  1  0.750000  0.018248  0.182675  1
  Rb  Rb7  1  0.750000  0.510107  0.311726  1
  Zn  Zn8  1  0.250000  0.240080  0.082670  1
  Zn  Zn9  1  0.750000  0.260436  0.582722  1
  Zn  Zn10  1  0.750000  0.759578  0.917523  1
  Cd  Cd11  1  0.250000  0.738831  0.417344  1
  H  H12  1  0.004987  0.819372  0.341614  1
  H  H13  1  0.472255  0.313719  0.151885  1
  H  H14  1  0.527611  0.186752  0.652490  1
  H  H15  1  0.972371  0.686400  0.847857  1
  H  H16  1  0.972389  0.186752  0.652490  1
  H  H17  1  0.527629  0.686400  0.847857  1
  H  H18  1  0.495013  0.819372  0.341614  1
  H  H19  1  0.027745  0.313719  0.151885  1
  H  H20  1  0.250000  0.517504  0.407590  1
  H  H21  1  0.250000  0.039148  0.091491  1
  H  H22  1  0.750000  0.461389  0.591380  1
  H  H23  1  0.750000  0.960824  0.908246  1
  H  H24  1  0.250000  0.305385  0.935591  1
  H  H25  1  0.250000  0.811151  0.579237  1
  H  H26  1  0.750000  0.694517  0.064258  1
  H  H27  1  0.750000  0.195172  0.435787  1
