# generated using pymatgen
data_Eu3Y(MgIr)4
_symmetry_space_group_name_H-M   'P 1'
_cell_length_a   4.22836900
_cell_length_b   7.20028027
_cell_length_c   8.51065539
_cell_angle_alpha   89.84436838
_cell_angle_beta   90.00000000
_cell_angle_gamma   90.00000000
_symmetry_Int_Tables_number   1
_chemical_formula_structural   Eu3Y(MgIr)4
_chemical_formula_sum   'Eu3 Y1 Mg4 Ir4'
_cell_volume   259.10970826
_cell_formula_units_Z   1
loop_
 _symmetry_equiv_pos_site_id
 _symmetry_equiv_pos_as_xyz
  1  'x, y, z'
loop_
 _atom_site_type_symbol
 _atom_site_label
 _atom_site_symmetry_multiplicity
 _atom_site_fract_x
 _atom_site_fract_y
 _atom_site_fract_z
 _atom_site_occupancy
  Eu  Eu0  1  0.250000  0.967301  0.322568  1
  Eu  Eu1  1  0.250000  0.469001  0.176757  1
  Eu  Eu2  1  0.750000  0.031874  0.677927  1
  Y  Y3  1  0.750000  0.536123  0.825080  1
  Mg  Mg4  1  0.250000  0.360667  0.560019  1
  Mg  Mg5  1  0.250000  0.863864  0.939374  1
  Mg  Mg6  1  0.750000  0.634224  0.442281  1
  Mg  Mg7  1  0.750000  0.140715  0.057866  1
  Ir  Ir8  1  0.250000  0.249124  0.871148  1
  Ir  Ir9  1  0.250000  0.726984  0.634692  1
  Ir  Ir10  1  0.750000  0.759964  0.121057  1
  Ir  Ir11  1  0.750000  0.260159  0.371234  1
