# generated using pymatgen
data_Hf6Al16Cu4Ru3
_symmetry_space_group_name_H-M   'P 1'
_cell_length_a   8.60307158
_cell_length_b   8.67935085
_cell_length_c   8.67935166
_cell_angle_alpha   59.41939405
_cell_angle_beta   60.29031035
_cell_angle_gamma   60.29030516
_symmetry_Int_Tables_number   1
_chemical_formula_structural   Hf6Al16Cu4Ru3
_chemical_formula_sum   'Hf6 Al16 Cu4 Ru3'
_cell_volume   458.19103381
_cell_formula_units_Z   1
loop_
 _symmetry_equiv_pos_site_id
 _symmetry_equiv_pos_as_xyz
  1  'x, y, z'
loop_
 _atom_site_type_symbol
 _atom_site_label
 _atom_site_symmetry_multiplicity
 _atom_site_fract_x
 _atom_site_fract_y
 _atom_site_fract_z
 _atom_site_occupancy
  Hf  Hf0  1  0.696348  0.303652  0.303652  1
  Hf  Hf1  1  0.303652  0.696348  0.696348  1
  Hf  Hf2  1  0.313108  0.686892  0.313108  1
  Hf  Hf3  1  0.686892  0.313108  0.686892  1
  Hf  Hf4  1  0.313108  0.313108  0.686892  1
  Hf  Hf5  1  0.686892  0.686892  0.313108  1
  Al  Al6  1  0.335336  0.334568  0.334568  1
  Al  Al7  1  0.664664  0.665432  0.665432  1
  Al  Al8  1  0.334568  0.335336  0.995529  1
  Al  Al9  1  0.334568  0.995529  0.335336  1
  Al  Al10  1  0.665432  0.664664  0.004471  1
  Al  Al11  1  0.665432  0.004471  0.664664  1
  Al  Al12  1  0.995529  0.334568  0.334568  1
  Al  Al13  1  0.004471  0.665432  0.665432  1
  Al  Al14  1  0.126268  0.115041  0.115041  1
  Al  Al15  1  0.873732  0.884959  0.884959  1
  Al  Al16  1  0.115041  0.126268  0.643651  1
  Al  Al17  1  0.115041  0.643651  0.126268  1
  Al  Al18  1  0.884959  0.873732  0.356349  1
  Al  Al19  1  0.884959  0.356349  0.873732  1
  Al  Al20  1  0.643651  0.115041  0.115041  1
  Al  Al21  1  0.356349  0.884959  0.884959  1
  Cu  Cu22  1  0.000000  0.500000  0.000000  1
  Cu  Cu23  1  0.500000  0.000000  0.500000  1
  Cu  Cu24  1  0.000000  0.000000  0.500000  1
  Cu  Cu25  1  0.500000  0.500000  0.000000  1
  Ru  Ru26  1  0.500000  0.000000  0.000000  1
  Ru  Ru27  1  0.000000  0.500000  0.500000  1
  Ru  Ru28  1  0.000000  0.000000  0.000000  1
