# generated using pymatgen
data_Tm2Al9NiRh2
_symmetry_space_group_name_H-M   'P 1'
_cell_length_a   7.52012935
_cell_length_b   7.52013002
_cell_length_c   9.35627600
_cell_angle_alpha   90.00000000
_cell_angle_beta   90.00000000
_cell_angle_gamma   119.95649140
_symmetry_Int_Tables_number   1
_chemical_formula_structural   Tm2Al9NiRh2
_chemical_formula_sum   'Tm4 Al18 Ni2 Rh4'
_cell_volume   458.43160760
_cell_formula_units_Z   2
loop_
 _symmetry_equiv_pos_site_id
 _symmetry_equiv_pos_as_xyz
  1  'x, y, z'
loop_
 _atom_site_type_symbol
 _atom_site_label
 _atom_site_symmetry_multiplicity
 _atom_site_fract_x
 _atom_site_fract_y
 _atom_site_fract_z
 _atom_site_occupancy
  Tm  Tm0  1  0.994949  0.668053  0.250000  1
  Tm  Tm1  1  0.005051  0.331947  0.750000  1
  Tm  Tm2  1  0.668053  0.994949  0.250000  1
  Tm  Tm3  1  0.331947  0.005051  0.750000  1
  Al  Al4  1  0.120625  0.120625  0.250000  1
  Al  Al5  1  0.879375  0.879375  0.750000  1
  Al  Al6  1  0.999319  0.331499  0.074754  1
  Al  Al7  1  0.000681  0.668501  0.925246  1
  Al  Al8  1  0.000681  0.668501  0.574754  1
  Al  Al9  1  0.331499  0.999319  0.425246  1
  Al  Al10  1  0.999319  0.331499  0.425246  1
  Al  Al11  1  0.668501  0.000681  0.574754  1
  Al  Al12  1  0.668501  0.000681  0.925246  1
  Al  Al13  1  0.331499  0.999319  0.074754  1
  Al  Al14  1  0.330244  0.330244  0.552179  1
  Al  Al15  1  0.669756  0.669756  0.447821  1
  Al  Al16  1  0.669756  0.669756  0.052179  1
  Al  Al17  1  0.330244  0.330244  0.947821  1
  Al  Al18  1  0.338091  0.547431  0.250000  1
  Al  Al19  1  0.661909  0.452569  0.750000  1
  Al  Al20  1  0.547431  0.338091  0.250000  1
  Al  Al21  1  0.452569  0.661909  0.750000  1
  Ni  Ni22  1  0.000000  0.000000  0.000000  1
  Ni  Ni23  1  0.000000  0.000000  0.500000  1
  Rh  Rh24  1  0.672445  0.327555  0.000000  1
  Rh  Rh25  1  0.327555  0.672445  0.000000  1
  Rh  Rh26  1  0.327555  0.672445  0.500000  1
  Rh  Rh27  1  0.672445  0.327555  0.500000  1
