# generated using pymatgen
data_PrZnIn3Rh
_symmetry_space_group_name_H-M   'P 1'
_cell_length_a   4.30200700
_cell_length_b   7.54959600
_cell_length_c   8.20724900
_cell_angle_alpha   90.00000000
_cell_angle_beta   90.00000000
_cell_angle_gamma   90.00000000
_symmetry_Int_Tables_number   1
_chemical_formula_structural   PrZnIn3Rh
_chemical_formula_sum   'Pr2 Zn2 In6 Rh2'
_cell_volume   266.55843771
_cell_formula_units_Z   2
loop_
 _symmetry_equiv_pos_site_id
 _symmetry_equiv_pos_as_xyz
  1  'x, y, z'
loop_
 _atom_site_type_symbol
 _atom_site_label
 _atom_site_symmetry_multiplicity
 _atom_site_fract_x
 _atom_site_fract_y
 _atom_site_fract_z
 _atom_site_occupancy
  Pr  Pr0  1  0.000000  0.388432  0.250000  1
  Pr  Pr1  1  0.000000  0.611568  0.750000  1
  Zn  Zn2  1  0.000000  0.000000  0.000000  1
  Zn  Zn3  1  0.000000  0.000000  0.500000  1
  In  In4  1  0.500000  0.055691  0.250000  1
  In  In5  1  0.500000  0.944309  0.750000  1
  In  In6  1  0.500000  0.692006  0.057284  1
  In  In7  1  0.500000  0.307994  0.942716  1
  In  In8  1  0.500000  0.692006  0.442716  1
  In  In9  1  0.500000  0.307994  0.557284  1
  Rh  Rh10  1  0.000000  0.806326  0.250000  1
  Rh  Rh11  1  0.000000  0.193674  0.750000  1
