# generated using pymatgen
data_Zr2Co8Tc2Ni2P7
_symmetry_space_group_name_H-M   'P 1'
_cell_length_a   8.90039256
_cell_length_b   8.94668415
_cell_length_c   3.63518600
_cell_angle_alpha   90.00000000
_cell_angle_beta   90.00000000
_cell_angle_gamma   119.65581097
_symmetry_Int_Tables_number   1
_chemical_formula_structural   Zr2Co8Tc2Ni2P7
_chemical_formula_sum   'Zr2 Co8 Tc2 Ni2 P7'
_cell_volume   251.55002530
_cell_formula_units_Z   1
loop_
 _symmetry_equiv_pos_site_id
 _symmetry_equiv_pos_as_xyz
  1  'x, y, z'
loop_
 _atom_site_type_symbol
 _atom_site_label
 _atom_site_symmetry_multiplicity
 _atom_site_fract_x
 _atom_site_fract_y
 _atom_site_fract_z
 _atom_site_occupancy
  Zr  Zr0  1  0.998007  0.003399  0.000000  1
  Zr  Zr1  1  0.330039  0.664326  0.500000  1
  Co  Co2  1  0.294895  0.399151  0.000000  1
  Co  Co3  1  0.101138  0.705655  0.000000  1
  Co  Co4  1  0.381962  0.169123  0.000000  1
  Co  Co5  1  0.790657  0.620170  0.000000  1
  Co  Co6  1  0.831124  0.211843  0.000000  1
  Co  Co7  1  0.227207  0.943682  0.500000  1
  Co  Co8  1  0.054639  0.280212  0.500000  1
  Co  Co9  1  0.719762  0.774497  0.500000  1
  Tc  Tc10  1  0.887115  0.459660  0.500000  1
  Tc  Tc11  1  0.549515  0.429558  0.500000  1
  Ni  Ni12  1  0.571661  0.109719  0.500000  1
  Ni  Ni13  1  0.599035  0.894023  0.000000  1
  P  P14  1  0.664258  0.328892  0.000000  1
  P  P15  1  0.079848  0.449517  0.000000  1
  P  P16  1  0.258882  0.212101  0.500000  1
  P  P17  1  0.785263  0.046716  0.500000  1
  P  P18  1  0.956770  0.746527  0.500000  1
  P  P19  1  0.550895  0.630904  0.000000  1
  P  P20  1  0.367326  0.920327  0.000000  1
