# generated using pymatgen
data_Tb6Er6Si12PdAu11
_symmetry_space_group_name_H-M   'P 1'
_cell_length_a   4.33272900
_cell_length_b   7.51864254
_cell_length_c   22.22163087
_cell_angle_alpha   90.15175175
_cell_angle_beta   90.00000000
_cell_angle_gamma   90.00000000
_symmetry_Int_Tables_number   1
_chemical_formula_structural   Tb6Er6Si12PdAu11
_chemical_formula_sum   'Tb6 Er6 Si12 Pd1 Au11'
_cell_volume   723.89465428
_cell_formula_units_Z   1
loop_
 _symmetry_equiv_pos_site_id
 _symmetry_equiv_pos_as_xyz
  1  'x, y, z'
loop_
 _atom_site_type_symbol
 _atom_site_label
 _atom_site_symmetry_multiplicity
 _atom_site_fract_x
 _atom_site_fract_y
 _atom_site_fract_z
 _atom_site_occupancy
  Tb  Tb0  1  0.750000  0.228302  0.829228  1
  Tb  Tb1  1  0.750000  0.262251  0.335467  1
  Tb  Tb2  1  0.250000  0.730606  0.996548  1
  Tb  Tb3  1  0.750000  0.270427  0.998629  1
  Tb  Tb4  1  0.750000  0.225851  0.505960  1
  Tb  Tb5  1  0.250000  0.779214  0.504619  1
  Er  Er6  1  0.250000  0.738288  0.335614  1
  Er  Er7  1  0.750000  0.281621  0.664857  1
  Er  Er8  1  0.750000  0.241183  0.166718  1
  Er  Er9  1  0.250000  0.775598  0.828796  1
  Er  Er10  1  0.250000  0.760874  0.167965  1
  Er  Er11  1  0.250000  0.717567  0.665141  1
  Si  Si12  1  0.250000  0.083715  0.072329  1
  Si  Si13  1  0.750000  0.913355  0.908457  1
  Si  Si14  1  0.750000  0.587704  0.434001  1
  Si  Si15  1  0.250000  0.405613  0.584649  1
  Si  Si16  1  0.250000  0.086752  0.251373  1
  Si  Si17  1  0.750000  0.910876  0.730605  1
  Si  Si18  1  0.750000  0.584455  0.258000  1
  Si  Si19  1  0.250000  0.412141  0.751820  1
  Si  Si20  1  0.250000  0.088104  0.419287  1
  Si  Si21  1  0.750000  0.917741  0.604536  1
  Si  Si22  1  0.750000  0.587578  0.079731  1
  Si  Si23  1  0.250000  0.412279  0.908205  1
  Pd  Pd24  1  0.250000  0.076970  0.595984  1
  Au  Au25  1  0.250000  0.420091  0.242689  1
  Au  Au26  1  0.750000  0.582991  0.757796  1
  Au  Au27  1  0.750000  0.916715  0.253717  1
  Au  Au28  1  0.250000  0.078757  0.736845  1
  Au  Au29  1  0.250000  0.422170  0.423896  1
  Au  Au30  1  0.750000  0.585446  0.571179  1
  Au  Au31  1  0.750000  0.918072  0.085597  1
  Au  Au32  1  0.250000  0.079543  0.924086  1
  Au  Au33  1  0.250000  0.417985  0.093016  1
  Au  Au34  1  0.750000  0.582073  0.901096  1
  Au  Au35  1  0.750000  0.917096  0.411564  1
