# generated using pymatgen
data_Pr16Nd4Ir11Au
_symmetry_space_group_name_H-M   'P 1'
_cell_length_a   11.39785507
_cell_length_b   11.39785501
_cell_length_c   6.59104003
_cell_angle_alpha   89.92002433
_cell_angle_beta   89.92002832
_cell_angle_gamma   89.81680426
_symmetry_Int_Tables_number   1
_chemical_formula_structural   Pr16Nd4Ir11Au
_chemical_formula_sum   'Pr16 Nd4 Ir11 Au1'
_cell_volume   856.24321739
_cell_formula_units_Z   1
loop_
 _symmetry_equiv_pos_site_id
 _symmetry_equiv_pos_as_xyz
  1  'x, y, z'
loop_
 _atom_site_type_symbol
 _atom_site_label
 _atom_site_symmetry_multiplicity
 _atom_site_fract_x
 _atom_site_fract_y
 _atom_site_fract_z
 _atom_site_occupancy
  Pr  Pr0  1  0.088938  0.290006  0.117937  1
  Pr  Pr1  1  0.790980  0.408994  0.117606  1
  Pr  Pr2  1  0.211033  0.580002  0.117649  1
  Pr  Pr3  1  0.902714  0.704151  0.116206  1
  Pr  Pr4  1  0.419998  0.788967  0.382351  1
  Pr  Pr5  1  0.591006  0.209020  0.382394  1
  Pr  Pr6  1  0.295849  0.097286  0.383794  1
  Pr  Pr7  1  0.709994  0.911062  0.382063  1
  Pr  Pr8  1  0.410390  0.209539  0.884539  1
  Pr  Pr9  1  0.705802  0.091409  0.880460  1
  Pr  Pr10  1  0.297032  0.913330  0.866434  1
  Pr  Pr11  1  0.592016  0.792483  0.883488  1
  Pr  Pr12  1  0.086670  0.702968  0.633566  1
  Pr  Pr13  1  0.908591  0.294198  0.619540  1
  Pr  Pr14  1  0.207517  0.407984  0.616512  1
  Pr  Pr15  1  0.790461  0.589610  0.615461  1
  Nd  Nd16  1  0.994987  0.002921  0.998858  1
  Nd  Nd17  1  0.501630  0.500734  0.998704  1
  Nd  Nd18  1  0.499266  0.498370  0.501296  1
  Nd  Nd19  1  0.997079  0.005013  0.501142  1
  Ir  Ir20  1  0.346287  0.348664  0.248878  1
  Ir  Ir21  1  0.651336  0.653713  0.251122  1
  Ir  Ir22  1  0.845464  0.154536  0.250000  1
  Ir  Ir23  1  0.345808  0.654192  0.750000  1
  Ir  Ir24  1  0.151468  0.150494  0.749453  1
  Ir  Ir25  1  0.849506  0.848532  0.750547  1
  Ir  Ir26  1  0.653097  0.346903  0.750000  1
  Ir  Ir27  1  0.999933  0.501479  0.377899  1
  Ir  Ir28  1  0.498521  0.000067  0.122101  1
  Ir  Ir29  1  0.500365  0.999548  0.616868  1
  Ir  Ir30  1  0.000452  0.499635  0.883132  1
  Au  Au31  1  0.155812  0.844188  0.250000  1
