# generated using pymatgen
data_Tb8Ho2Sn5Bi
_symmetry_space_group_name_H-M   'P 1'
_cell_length_a   9.04142203
_cell_length_b   9.04142178
_cell_length_c   6.53707904
_cell_angle_alpha   89.99335047
_cell_angle_beta   89.99335484
_cell_angle_gamma   119.94410637
_symmetry_Int_Tables_number   1
_chemical_formula_structural   Tb8Ho2Sn5Bi
_chemical_formula_sum   'Tb8 Ho2 Sn5 Bi1'
_cell_volume   463.05454962
_cell_formula_units_Z   1
loop_
 _symmetry_equiv_pos_site_id
 _symmetry_equiv_pos_as_xyz
  1  'x, y, z'
loop_
 _atom_site_type_symbol
 _atom_site_label
 _atom_site_symmetry_multiplicity
 _atom_site_fract_x
 _atom_site_fract_y
 _atom_site_fract_z
 _atom_site_occupancy
  Tb  Tb0  1  0.332569  0.670129  0.498046  1
  Tb  Tb1  1  0.670129  0.332569  0.498046  1
  Tb  Tb2  1  0.763820  0.763820  0.750311  1
  Tb  Tb3  1  0.237806  0.994258  0.750277  1
  Tb  Tb4  1  0.994258  0.237806  0.750277  1
  Tb  Tb5  1  0.238861  0.238861  0.249742  1
  Tb  Tb6  1  0.760189  0.000334  0.249669  1
  Tb  Tb7  1  0.000334  0.760189  0.249669  1
  Ho  Ho8  1  0.670433  0.332602  0.002122  1
  Ho  Ho9  1  0.332602  0.670433  0.002122  1
  Sn  Sn10  1  0.603758  0.999419  0.751412  1
  Sn  Sn11  1  0.999419  0.603758  0.751412  1
  Sn  Sn12  1  0.605382  0.605382  0.248739  1
  Sn  Sn13  1  0.395327  0.001700  0.248468  1
  Sn  Sn14  1  0.001700  0.395327  0.248468  1
  Bi  Bi15  1  0.393413  0.393413  0.751219  1
