# generated using pymatgen
data_Er7Fe2Sn23Ir4
_symmetry_space_group_name_H-M   'P 1'
_cell_length_a   9.78217702
_cell_length_b   9.78217721
_cell_length_c   9.99177571
_cell_angle_alpha   90.03811319
_cell_angle_beta   89.96188503
_cell_angle_gamma   119.93731127
_symmetry_Int_Tables_number   1
_chemical_formula_structural   Er7Fe2Sn23Ir4
_chemical_formula_sum   'Er7 Fe2 Sn23 Ir4'
_cell_volume   828.54904020
_cell_formula_units_Z   1
loop_
 _symmetry_equiv_pos_site_id
 _symmetry_equiv_pos_as_xyz
  1  'x, y, z'
loop_
 _atom_site_type_symbol
 _atom_site_label
 _atom_site_symmetry_multiplicity
 _atom_site_fract_x
 _atom_site_fract_y
 _atom_site_fract_z
 _atom_site_occupancy
  Er  Er0  1  0.481585  0.518415  0.306298  1
  Er  Er1  1  0.518415  0.481585  0.693702  1
  Er  Er2  1  0.482395  0.963396  0.305670  1
  Er  Er3  1  0.517605  0.036604  0.694330  1
  Er  Er4  1  0.036604  0.517605  0.305670  1
  Er  Er5  1  0.963396  0.482395  0.694330  1
  Er  Er6  1  0.000000  0.000000  0.000000  1
  Fe  Fe7  1  0.831483  0.168517  0.199422  1
  Fe  Fe8  1  0.168517  0.831483  0.800578  1
  Sn  Sn9  1  0.119659  0.880341  0.285042  1
  Sn  Sn10  1  0.880341  0.119659  0.714958  1
  Sn  Sn11  1  0.111972  0.235400  0.279636  1
  Sn  Sn12  1  0.888028  0.764600  0.720364  1
  Sn  Sn13  1  0.764600  0.888028  0.279636  1
  Sn  Sn14  1  0.235400  0.111972  0.720364  1
  Sn  Sn15  1  0.778942  0.221058  0.452144  1
  Sn  Sn16  1  0.221058  0.778942  0.547856  1
  Sn  Sn17  1  0.777420  0.554931  0.458237  1
  Sn  Sn18  1  0.222580  0.445069  0.541763  1
  Sn  Sn19  1  0.445069  0.222580  0.458237  1
  Sn  Sn20  1  0.554931  0.777420  0.541763  1
  Sn  Sn21  1  0.345631  0.994963  0.994534  1
  Sn  Sn22  1  0.654369  0.005037  0.005466  1
  Sn  Sn23  1  0.994963  0.345631  0.005466  1
  Sn  Sn24  1  0.005037  0.654369  0.994534  1
  Sn  Sn25  1  0.647483  0.647483  0.000000  1
  Sn  Sn26  1  0.352517  0.352517  0.000000  1
  Sn  Sn27  1  0.333217  0.666783  0.124384  1
  Sn  Sn28  1  0.666783  0.333217  0.875616  1
  Sn  Sn29  1  0.330151  0.669849  0.825370  1
  Sn  Sn30  1  0.669849  0.330151  0.174630  1
  Sn  Sn31  1  0.000000  0.000000  0.500000  1
  Ir  Ir32  1  0.831360  0.662069  0.198985  1
  Ir  Ir33  1  0.168640  0.337931  0.801015  1
  Ir  Ir34  1  0.337931  0.168640  0.198985  1
  Ir  Ir35  1  0.662069  0.831360  0.801015  1
