# generated using pymatgen
data_Sr12La8Si15P
_symmetry_space_group_name_H-M   'P 1'
_cell_length_a   8.16754140
_cell_length_b   8.17083004
_cell_length_c   15.83293100
_cell_angle_alpha   89.88418585
_cell_angle_beta   89.84625780
_cell_angle_gamma   90.08159187
_symmetry_Int_Tables_number   1
_chemical_formula_structural   Sr12La8Si15P
_chemical_formula_sum   'Sr12 La8 Si15 P1'
_cell_volume   1056.61299177
_cell_formula_units_Z   1
loop_
 _symmetry_equiv_pos_site_id
 _symmetry_equiv_pos_as_xyz
  1  'x, y, z'
loop_
 _atom_site_type_symbol
 _atom_site_label
 _atom_site_symmetry_multiplicity
 _atom_site_fract_x
 _atom_site_fract_y
 _atom_site_fract_z
 _atom_site_occupancy
  Sr  Sr0  1  0.309294  0.310084  0.001145  1
  Sr  Sr1  1  0.189689  0.808599  0.249521  1
  Sr  Sr2  1  0.810548  0.190953  0.749782  1
  Sr  Sr3  1  0.689463  0.690094  0.499905  1
  Sr  Sr4  1  0.375972  0.010284  0.446915  1
  Sr  Sr5  1  0.487868  0.874343  0.701551  1
  Sr  Sr6  1  0.513111  0.126495  0.200461  1
  Sr  Sr7  1  0.872869  0.486952  0.299264  1
  Sr  Sr8  1  0.127439  0.512604  0.798937  1
  Sr  Sr9  1  0.627407  0.986447  0.951189  1
  Sr  Sr10  1  0.011342  0.374422  0.548757  1
  Sr  Sr11  1  0.987290  0.626542  0.049009  1
  La  La12  1  0.128410  0.986725  0.876068  1
  La  La13  1  0.514274  0.628049  0.125656  1
  La  La14  1  0.481611  0.369094  0.626818  1
  La  La15  1  0.626546  0.515444  0.872592  1
  La  La16  1  0.371071  0.484118  0.374654  1
  La  La17  1  0.873384  0.014565  0.376803  1
  La  La18  1  0.985320  0.127249  0.123518  1
  La  La19  1  0.017270  0.874892  0.624005  1
  Si  Si20  1  0.346116  0.708437  0.949094  1
  Si  Si21  1  0.654473  0.292740  0.451403  1
  Si  Si22  1  0.707142  0.346406  0.048438  1
  Si  Si23  1  0.291712  0.655154  0.552088  1
  Si  Si24  1  0.792601  0.846017  0.200160  1
  Si  Si25  1  0.154278  0.207174  0.299395  1
  Si  Si26  1  0.847261  0.792843  0.798945  1
  Si  Si27  1  0.274813  0.912665  0.054406  1
  Si  Si28  1  0.586944  0.774523  0.305343  1
  Si  Si29  1  0.410871  0.221045  0.805839  1
  Si  Si30  1  0.777434  0.586894  0.693510  1
  Si  Si31  1  0.225440  0.412634  0.194698  1
  Si  Si32  1  0.724003  0.086835  0.556921  1
  Si  Si33  1  0.912459  0.274594  0.943393  1
  Si  Si34  1  0.086945  0.725155  0.446007  1
  P  P35  1  0.207333  0.158927  0.703811  1
