# generated using pymatgen
data_Ho20(Pt3Rh)3
_symmetry_space_group_name_H-M   'P 1'
_cell_length_a   11.00844200
_cell_length_b   11.00844200
_cell_length_c   6.34797600
_cell_angle_alpha   90.00000000
_cell_angle_beta   90.00000000
_cell_angle_gamma   90.00000000
_symmetry_Int_Tables_number   1
_chemical_formula_structural   Ho20(Pt3Rh)3
_chemical_formula_sum   'Ho20 Pt9 Rh3'
_cell_volume   769.28451990
_cell_formula_units_Z   1
loop_
 _symmetry_equiv_pos_site_id
 _symmetry_equiv_pos_as_xyz
  1  'x, y, z'
loop_
 _atom_site_type_symbol
 _atom_site_label
 _atom_site_symmetry_multiplicity
 _atom_site_fract_x
 _atom_site_fract_y
 _atom_site_fract_z
 _atom_site_occupancy
  Ho  Ho0  1  0.293680  0.088486  0.375675  1
  Ho  Ho1  1  0.293920  0.911451  0.875987  1
  Ho  Ho2  1  0.706080  0.088549  0.875987  1
  Ho  Ho3  1  0.706320  0.911514  0.375675  1
  Ho  Ho4  1  0.588549  0.793920  0.875987  1
  Ho  Ho5  1  0.588486  0.206320  0.375675  1
  Ho  Ho6  1  0.411514  0.793680  0.375675  1
  Ho  Ho7  1  0.411451  0.206080  0.875987  1
  Ho  Ho8  1  0.207515  0.411045  0.626041  1
  Ho  Ho9  1  0.207129  0.589239  0.122497  1
  Ho  Ho10  1  0.792871  0.410761  0.122497  1
  Ho  Ho11  1  0.792485  0.588955  0.626041  1
  Ho  Ho12  1  0.910761  0.707129  0.122497  1
  Ho  Ho13  1  0.911045  0.292485  0.626041  1
  Ho  Ho14  1  0.088955  0.707515  0.626041  1
  Ho  Ho15  1  0.089239  0.292871  0.122497  1
  Ho  Ho16  1  0.000000  0.000000  0.499332  1
  Ho  Ho17  1  0.000000  0.000000  0.999569  1
  Ho  Ho18  1  0.500000  0.500000  0.999569  1
  Ho  Ho19  1  0.500000  0.500000  0.499332  1
  Pt  Pt20  1  0.845683  0.154087  0.249993  1
  Pt  Pt21  1  0.845734  0.845912  0.749536  1
  Pt  Pt22  1  0.154266  0.154088  0.749536  1
  Pt  Pt23  1  0.154317  0.845913  0.249993  1
  Pt  Pt24  1  0.654088  0.345734  0.749536  1
  Pt  Pt25  1  0.654087  0.654317  0.249993  1
  Pt  Pt26  1  0.345913  0.345683  0.249993  1
  Pt  Pt27  1  0.345912  0.654266  0.749536  1
  Pt  Pt28  1  0.000000  0.500000  0.379505  1
  Rh  Rh29  1  0.500000  0.000000  0.121147  1
  Rh  Rh30  1  0.500000  0.000000  0.621401  1
  Rh  Rh31  1  0.000000  0.500000  0.881232  1
