# generated using pymatgen
data_Ca3Hf5(Si4Ru3)4
_symmetry_space_group_name_H-M   'P 1'
_cell_length_a   10.02434700
_cell_length_b   10.02051327
_cell_length_c   13.54736479
_cell_angle_alpha   53.35012599
_cell_angle_beta   53.12336115
_cell_angle_gamma   31.14133361
_symmetry_Int_Tables_number   1
_chemical_formula_structural   Ca3Hf5(Si4Ru3)4
_chemical_formula_sum   'Ca3 Hf5 Si16 Ru12'
_cell_volume   551.41734845
_cell_formula_units_Z   1
loop_
 _symmetry_equiv_pos_site_id
 _symmetry_equiv_pos_as_xyz
  1  'x, y, z'
loop_
 _atom_site_type_symbol
 _atom_site_label
 _atom_site_symmetry_multiplicity
 _atom_site_fract_x
 _atom_site_fract_y
 _atom_site_fract_z
 _atom_site_occupancy
  Ca  Ca0  1  0.308005  0.554645  0.640905  1
  Ca  Ca1  1  0.441178  0.699737  0.857498  1
  Ca  Ca2  1  0.693427  0.444571  0.357970  1
  Hf  Hf3  1  0.560522  0.288897  0.148363  1
  Hf  Hf4  1  0.040676  0.292363  0.635001  1
  Hf  Hf5  1  0.707682  0.959799  0.865301  1
  Hf  Hf6  1  0.961393  0.704160  0.364215  1
  Hf  Hf7  1  0.294045  0.039600  0.135508  1
  Si  Si8  1  0.869991  0.128238  0.248724  1
  Si  Si9  1  0.123625  0.876768  0.751469  1
  Si  Si10  1  0.379284  0.620110  0.248182  1
  Si  Si11  1  0.627013  0.373668  0.750231  1
  Si  Si12  1  0.976588  0.253373  0.893239  1
  Si  Si13  1  0.757687  0.012558  0.610102  1
  Si  Si14  1  0.022044  0.750480  0.109830  1
  Si  Si15  1  0.242706  0.988515  0.386478  1
  Si  Si16  1  0.572722  0.082978  0.066508  1
  Si  Si17  1  0.914098  0.427895  0.434273  1
  Si  Si18  1  0.427406  0.919448  0.931730  1
  Si  Si19  1  0.083820  0.572254  0.566338  1
  Si  Si20  1  0.382389  0.146131  0.396743  1
  Si  Si21  1  0.857873  0.611648  0.103614  1
  Si  Si22  1  0.614389  0.858585  0.600274  1
  Si  Si23  1  0.142454  0.387997  0.898089  1
  Ru  Ru24  1  0.647434  0.837237  0.282098  1
  Ru  Ru25  1  0.169999  0.355661  0.216448  1
  Ru  Ru26  1  0.757299  0.486076  0.067579  1
  Ru  Ru27  1  0.837358  0.647981  0.782322  1
  Ru  Ru28  1  0.910270  0.131284  0.588275  1
  Ru  Ru29  1  0.852957  0.104240  0.918722  1
  Ru  Ru30  1  0.090853  0.865843  0.409309  1
  Ru  Ru31  1  0.139215  0.899795  0.088377  1
  Ru  Ru32  1  0.240957  0.511880  0.931766  1
  Ru  Ru33  1  0.492352  0.756721  0.569750  1
  Ru  Ru34  1  0.506307  0.244518  0.428378  1
  Ru  Ru35  1  0.353983  0.164345  0.716394  1
