# generated using pymatgen
data_Ba3TbScO6
_symmetry_space_group_name_H-M   'P 1'
_cell_length_a   7.27067131
_cell_length_b   7.27067082
_cell_length_c   7.27067267
_cell_angle_alpha   93.01473850
_cell_angle_beta   93.01474026
_cell_angle_gamma   93.01474622
_symmetry_Int_Tables_number   1
_chemical_formula_structural   Ba3TbScO6
_chemical_formula_sum   'Ba6 Tb2 Sc2 O12'
_cell_volume   382.69294610
_cell_formula_units_Z   2
loop_
 _symmetry_equiv_pos_site_id
 _symmetry_equiv_pos_as_xyz
  1  'x, y, z'
loop_
 _atom_site_type_symbol
 _atom_site_label
 _atom_site_symmetry_multiplicity
 _atom_site_fract_x
 _atom_site_fract_y
 _atom_site_fract_z
 _atom_site_occupancy
  Ba  Ba0  1  0.250000  0.888191  0.611809  1
  Ba  Ba1  1  0.888191  0.611809  0.250000  1
  Ba  Ba2  1  0.750000  0.111809  0.388191  1
  Ba  Ba3  1  0.388191  0.750000  0.111809  1
  Ba  Ba4  1  0.111809  0.388191  0.750000  1
  Ba  Ba5  1  0.611809  0.250000  0.888191  1
  Tb  Tb6  1  0.750000  0.750000  0.750000  1
  Tb  Tb7  1  0.250000  0.250000  0.250000  1
  Sc  Sc8  1  0.500000  0.500000  0.500000  1
  Sc  Sc9  1  0.000000  0.000000  0.000000  1
  O  O10  1  0.595404  0.782012  0.466369  1
  O  O11  1  0.466369  0.595404  0.782012  1
  O  O12  1  0.782012  0.466369  0.595404  1
  O  O13  1  0.904596  0.033631  0.717988  1
  O  O14  1  0.717988  0.904596  0.033631  1
  O  O15  1  0.033631  0.717988  0.904596  1
  O  O16  1  0.404596  0.217988  0.533631  1
  O  O17  1  0.533631  0.404596  0.217988  1
  O  O18  1  0.217988  0.533631  0.404596  1
  O  O19  1  0.095404  0.966369  0.282012  1
  O  O20  1  0.966369  0.282012  0.095404  1
  O  O21  1  0.282012  0.095404  0.966369  1
