# generated using pymatgen
data_Cr2GaSiRu4
_symmetry_space_group_name_H-M   'P 1'
_cell_length_a   4.22290400
_cell_length_b   5.97200700
_cell_length_c   12.60921000
_cell_angle_alpha   90.00000000
_cell_angle_beta   90.00218052
_cell_angle_gamma   90.00000000
_symmetry_Int_Tables_number   1
_chemical_formula_structural   Cr2GaSiRu4
_chemical_formula_sum   'Cr6 Ga3 Si3 Ru12'
_cell_volume   317.99434316
_cell_formula_units_Z   3
loop_
 _symmetry_equiv_pos_site_id
 _symmetry_equiv_pos_as_xyz
  1  'x, y, z'
loop_
 _atom_site_type_symbol
 _atom_site_label
 _atom_site_symmetry_multiplicity
 _atom_site_fract_x
 _atom_site_fract_y
 _atom_site_fract_z
 _atom_site_occupancy
  Cr  Cr0  1  0.000009  0.500001  0.001983  1
  Cr  Cr1  1  0.499769  0.000000  0.166638  1
  Cr  Cr2  1  0.999778  0.500001  0.331323  1
  Cr  Cr3  1  0.500009  0.000000  0.498800  1
  Cr  Cr4  1  0.000171  0.500001  0.666683  1
  Cr  Cr5  1  0.500212  0.000000  0.834551  1
  Ga  Ga6  1  0.000023  0.000000  0.997998  1
  Ga  Ga7  1  0.499761  0.500001  0.166687  1
  Ga  Ga8  1  0.999765  0.000000  0.335375  1
  Si  Si9  1  0.500014  0.500001  0.501712  1
  Si  Si10  1  0.000206  0.000000  0.666639  1
  Si  Si11  1  0.500237  0.500001  0.831594  1
  Ru  Ru12  1  0.500023  0.253913  0.995452  1
  Ru  Ru13  1  0.500023  0.746087  0.995452  1
  Ru  Ru14  1  0.999790  0.248970  0.166688  1
  Ru  Ru15  1  0.999790  0.751030  0.166688  1
  Ru  Ru16  1  0.499811  0.253917  0.337909  1
  Ru  Ru17  1  0.499811  0.746083  0.337909  1
  Ru  Ru18  1  0.000015  0.252774  0.504143  1
  Ru  Ru19  1  0.000015  0.747226  0.504143  1
  Ru  Ru20  1  0.500167  0.250104  0.666641  1
  Ru  Ru21  1  0.500167  0.749896  0.666641  1
  Ru  Ru22  1  0.000220  0.252802  0.829174  1
  Ru  Ru23  1  0.000220  0.747198  0.829174  1
