# generated using pymatgen
data_Ca(Yb4Pt3)2
_symmetry_space_group_name_H-M   'P 1'
_cell_length_a   7.51797142
_cell_length_b   7.51026349
_cell_length_c   7.50253703
_cell_angle_alpha   70.22535552
_cell_angle_beta   70.31267157
_cell_angle_gamma   70.36302736
_symmetry_Int_Tables_number   1
_chemical_formula_structural   Ca(Yb4Pt3)2
_chemical_formula_sum   'Ca1 Yb8 Pt6'
_cell_volume   363.34473698
_cell_formula_units_Z   1
loop_
 _symmetry_equiv_pos_site_id
 _symmetry_equiv_pos_as_xyz
  1  'x, y, z'
loop_
 _atom_site_type_symbol
 _atom_site_label
 _atom_site_symmetry_multiplicity
 _atom_site_fract_x
 _atom_site_fract_y
 _atom_site_fract_z
 _atom_site_occupancy
  Ca  Ca0  1  0.597678  0.334304  0.848025  1
  Yb  Yb1  1  0.998933  0.000730  0.999838  1
  Yb  Yb2  1  0.401528  0.670836  0.150053  1
  Yb  Yb3  1  0.198704  0.196637  0.195252  1
  Yb  Yb4  1  0.852705  0.597077  0.330092  1
  Yb  Yb5  1  0.671696  0.147396  0.401462  1
  Yb  Yb6  1  0.328586  0.851889  0.596892  1
  Yb  Yb7  1  0.148116  0.401941  0.671406  1
  Yb  Yb8  1  0.801783  0.803771  0.803096  1
  Pt  Pt9  1  0.837300  0.411306  0.047637  1
  Pt  Pt10  1  0.588840  0.950232  0.169179  1
  Pt  Pt11  1  0.045861  0.833491  0.410896  1
  Pt  Pt12  1  0.956642  0.164105  0.587204  1
  Pt  Pt13  1  0.408804  0.043906  0.834592  1
  Pt  Pt14  1  0.162824  0.592380  0.954376  1
