# generated using pymatgen
data_PrNp2(SnRh)3
_symmetry_space_group_name_H-M   'P 1'
_cell_length_a   7.55614111
_cell_length_b   7.43861427
_cell_length_c   4.02357100
_cell_angle_alpha   90.00000000
_cell_angle_beta   90.00000000
_cell_angle_gamma   119.48679636
_symmetry_Int_Tables_number   1
_chemical_formula_structural   PrNp2(SnRh)3
_chemical_formula_sum   'Pr1 Np2 Sn3 Rh3'
_cell_volume   196.85985092
_cell_formula_units_Z   1
loop_
 _symmetry_equiv_pos_site_id
 _symmetry_equiv_pos_as_xyz
  1  'x, y, z'
loop_
 _atom_site_type_symbol
 _atom_site_label
 _atom_site_symmetry_multiplicity
 _atom_site_fract_x
 _atom_site_fract_y
 _atom_site_fract_z
 _atom_site_occupancy
  Pr  Pr0  1  0.000000  0.588241  0.500000  1
  Np  Np1  1  0.578397  0.995445  0.500000  1
  Np  Np2  1  0.421603  0.417049  0.500000  1
  Sn  Sn3  1  0.248028  0.997684  0.000000  1
  Sn  Sn4  1  0.751972  0.749657  0.000000  1
  Sn  Sn5  1  0.000000  0.256581  0.000000  1
  Rh  Rh6  1  0.000000  0.010466  0.500000  1
  Rh  Rh7  1  0.355027  0.669952  0.000000  1
  Rh  Rh8  1  0.644973  0.314924  0.000000  1
