# generated using pymatgen
data_Tb2CrPtF14
_symmetry_space_group_name_H-M   'P 1'
_cell_length_a   5.53495462
_cell_length_b   8.87498457
_cell_length_c   11.89155025
_cell_angle_alpha   62.56211376
_cell_angle_beta   90.02218165
_cell_angle_gamma   90.15751228
_symmetry_Int_Tables_number   1
_chemical_formula_structural   Tb2CrPtF14
_chemical_formula_sum   'Tb4 Cr2 Pt2 F28'
_cell_volume   518.43221740
_cell_formula_units_Z   2
loop_
 _symmetry_equiv_pos_site_id
 _symmetry_equiv_pos_as_xyz
  1  'x, y, z'
loop_
 _atom_site_type_symbol
 _atom_site_label
 _atom_site_symmetry_multiplicity
 _atom_site_fract_x
 _atom_site_fract_y
 _atom_site_fract_z
 _atom_site_occupancy
  Tb  Tb0  1  0.259288  0.813157  0.261603  1
  Tb  Tb1  1  0.740712  0.186843  0.738397  1
  Tb  Tb2  1  0.764438  0.189016  0.232096  1
  Tb  Tb3  1  0.235562  0.810984  0.767904  1
  Cr  Cr4  1  0.754461  0.725703  0.043107  1
  Cr  Cr5  1  0.245539  0.274297  0.956893  1
  Pt  Pt6  1  0.259720  0.272837  0.456401  1
  Pt  Pt7  1  0.740280  0.727163  0.543599  1
  F  F8  1  0.930240  0.702307  0.413370  1
  F  F9  1  0.069760  0.297693  0.586630  1
  F  F10  1  0.446050  0.291187  0.075091  1
  F  F11  1  0.553950  0.708813  0.924909  1
  F  F12  1  0.482788  0.734991  0.133818  1
  F  F13  1  0.517212  0.265009  0.866182  1
  F  F14  1  0.963710  0.278050  0.362901  1
  F  F15  1  0.036290  0.721950  0.637099  1
  F  F16  1  0.953443  0.746050  0.163007  1
  F  F17  1  0.046557  0.253950  0.836993  1
  F  F18  1  0.444760  0.256330  0.320862  1
  F  F19  1  0.555240  0.743670  0.679138  1
  F  F20  1  0.764179  0.492719  0.136666  1
  F  F21  1  0.235821  0.507281  0.863334  1
  F  F22  1  0.274204  0.521623  0.356404  1
  F  F23  1  0.725796  0.478377  0.643596  1
  F  F24  1  0.965889  0.284043  0.045096  1
  F  F25  1  0.034111  0.715957  0.954904  1
  F  F26  1  0.437472  0.722174  0.458168  1
  F  F27  1  0.562528  0.277826  0.541832  1
  F  F28  1  0.743613  0.976017  0.449811  1
  F  F29  1  0.256387  0.023983  0.550189  1
  F  F30  1  0.240528  0.041188  0.047857  1
  F  F31  1  0.759472  0.958812  0.952143  1
  F  F32  1  0.587733  0.970591  0.229696  1
  F  F33  1  0.412267  0.029409  0.770304  1
  F  F34  1  0.087368  0.028532  0.270724  1
  F  F35  1  0.912632  0.971468  0.729276  1
