# generated using pymatgen
data_Zr6As2S
_symmetry_space_group_name_H-M   'P 1'
_cell_length_a   3.72302200
_cell_length_b   12.54973100
_cell_length_c   15.43235600
_cell_angle_alpha   90.00000000
_cell_angle_beta   90.00000000
_cell_angle_gamma   90.00000000
_symmetry_Int_Tables_number   1
_chemical_formula_structural   Zr6As2S
_chemical_formula_sum   'Zr24 As8 S4'
_cell_volume   721.04480590
_cell_formula_units_Z   4
loop_
 _symmetry_equiv_pos_site_id
 _symmetry_equiv_pos_as_xyz
  1  'x, y, z'
loop_
 _atom_site_type_symbol
 _atom_site_label
 _atom_site_symmetry_multiplicity
 _atom_site_fract_x
 _atom_site_fract_y
 _atom_site_fract_z
 _atom_site_occupancy
  Zr  Zr0  1  0.500000  0.655272  0.473353  1
  Zr  Zr1  1  0.500000  0.344728  0.526647  1
  Zr  Zr2  1  0.000000  0.844728  0.973353  1
  Zr  Zr3  1  0.000000  0.155272  0.026647  1
  Zr  Zr4  1  0.500000  0.592806  0.248659  1
  Zr  Zr5  1  0.500000  0.407194  0.751341  1
  Zr  Zr6  1  0.000000  0.907194  0.748659  1
  Zr  Zr7  1  0.000000  0.092806  0.251341  1
  Zr  Zr8  1  0.500000  0.084212  0.423828  1
  Zr  Zr9  1  0.500000  0.915788  0.576172  1
  Zr  Zr10  1  0.000000  0.415788  0.923828  1
  Zr  Zr11  1  0.000000  0.584212  0.076172  1
  Zr  Zr12  1  0.500000  0.972624  0.106644  1
  Zr  Zr13  1  0.500000  0.027376  0.893356  1
  Zr  Zr14  1  0.000000  0.527376  0.606644  1
  Zr  Zr15  1  0.000000  0.472624  0.393356  1
  Zr  Zr16  1  0.500000  0.306711  0.291208  1
  Zr  Zr17  1  0.500000  0.693289  0.708792  1
  Zr  Zr18  1  0.000000  0.193289  0.791208  1
  Zr  Zr19  1  0.000000  0.806711  0.208792  1
  Zr  Zr20  1  0.500000  0.378105  0.082131  1
  Zr  Zr21  1  0.500000  0.621895  0.917869  1
  Zr  Zr22  1  0.000000  0.121895  0.582131  1
  Zr  Zr23  1  0.000000  0.878105  0.417869  1
  As  As24  1  0.500000  0.936499  0.289297  1
  As  As25  1  0.500000  0.063501  0.710703  1
  As  As26  1  0.000000  0.563501  0.789297  1
  As  As27  1  0.000000  0.436499  0.210703  1
  As  As28  1  0.500000  0.744617  0.086340  1
  As  As29  1  0.500000  0.255383  0.913660  1
  As  As30  1  0.000000  0.755383  0.586340  1
  As  As31  1  0.000000  0.244617  0.413660  1
  S  S32  1  0.500000  0.184662  0.150496  1
  S  S33  1  0.500000  0.815338  0.849504  1
  S  S34  1  0.000000  0.315338  0.650496  1
  S  S35  1  0.000000  0.684662  0.349504  1
