# generated using pymatgen
data_TbYb2Y(B4Os)4
_symmetry_space_group_name_H-M   'P 1'
_cell_length_a   5.97534402
_cell_length_b   11.54972039
_cell_length_c   3.55907800
_cell_angle_alpha   90.00000000
_cell_angle_beta   90.00000000
_cell_angle_gamma   89.93095431
_symmetry_Int_Tables_number   1
_chemical_formula_structural   TbYb2Y(B4Os)4
_chemical_formula_sum   'Tb1 Yb2 Y1 B16 Os4'
_cell_volume   245.62443841
_cell_formula_units_Z   1
loop_
 _symmetry_equiv_pos_site_id
 _symmetry_equiv_pos_as_xyz
  1  'x, y, z'
loop_
 _atom_site_type_symbol
 _atom_site_label
 _atom_site_symmetry_multiplicity
 _atom_site_fract_x
 _atom_site_fract_y
 _atom_site_fract_z
 _atom_site_occupancy
  Tb  Tb0  1  0.871546  0.848991  0.000000  1
  Yb  Yb1  1  0.628560  0.351159  0.000000  1
  Yb  Yb2  1  0.371444  0.648828  0.000000  1
  Y  Y3  1  0.128498  0.151002  0.000000  1
  B  B4  1  0.786739  0.186499  0.500000  1
  B  B5  1  0.213319  0.813527  0.500000  1
  B  B6  1  0.288782  0.316041  0.500000  1
  B  B7  1  0.711267  0.683936  0.500000  1
  B  B8  1  0.862897  0.030594  0.500000  1
  B  B9  1  0.137091  0.969425  0.500000  1
  B  B10  1  0.363865  0.469645  0.500000  1
  B  B11  1  0.636129  0.530359  0.500000  1
  B  B12  1  0.885850  0.453407  0.500000  1
  B  B13  1  0.114156  0.546593  0.500000  1
  B  B14  1  0.388287  0.047327  0.500000  1
  B  B15  1  0.611612  0.952711  0.500000  1
  B  B16  1  0.975038  0.309565  0.500000  1
  B  B17  1  0.024942  0.690378  0.500000  1
  B  B18  1  0.475108  0.192270  0.500000  1
  B  B19  1  0.524853  0.807769  0.500000  1
  Os  Os20  1  0.640560  0.091871  0.000000  1
  Os  Os21  1  0.359461  0.908158  0.000000  1
  Os  Os22  1  0.137151  0.409675  0.000000  1
  Os  Os23  1  0.862847  0.590270  0.000000  1
