# generated using pymatgen
data_Cs6Pb2O5
_symmetry_space_group_name_H-M   'P 1'
_cell_length_a   6.99643163
_cell_length_b   8.17512518
_cell_length_c   13.61492000
_cell_angle_alpha   78.16224936
_cell_angle_beta   83.81113783
_cell_angle_gamma   88.10542569
_symmetry_Int_Tables_number   1
_chemical_formula_structural   Cs6Pb2O5
_chemical_formula_sum   'Cs12 Pb4 O10'
_cell_volume   757.67700423
_cell_formula_units_Z   2
loop_
 _symmetry_equiv_pos_site_id
 _symmetry_equiv_pos_as_xyz
  1  'x, y, z'
loop_
 _atom_site_type_symbol
 _atom_site_label
 _atom_site_symmetry_multiplicity
 _atom_site_fract_x
 _atom_site_fract_y
 _atom_site_fract_z
 _atom_site_occupancy
  Cs  Cs0  1  0.796696  0.702329  0.121148  1
  Cs  Cs1  1  0.300775  0.957148  0.120872  1
  Cs  Cs2  1  0.294539  0.468618  0.119243  1
  Cs  Cs3  1  0.425799  0.604282  0.363392  1
  Cs  Cs4  1  0.396064  0.111390  0.377468  1
  Cs  Cs5  1  0.915177  0.390848  0.388547  1
  Cs  Cs6  1  0.084824  0.609152  0.611453  1
  Cs  Cs7  1  0.603935  0.888611  0.622532  1
  Cs  Cs8  1  0.574201  0.395718  0.636608  1
  Cs  Cs9  1  0.705462  0.531382  0.880757  1
  Cs  Cs10  1  0.699225  0.042852  0.879128  1
  Cs  Cs11  1  0.203304  0.297671  0.878852  1
  Pb  Pb12  1  0.759034  0.206910  0.144875  1
  Pb  Pb13  1  0.895642  0.871377  0.350819  1
  Pb  Pb14  1  0.104358  0.128623  0.649181  1
  Pb  Pb15  1  0.240966  0.793090  0.855125  1
  O  O16  1  0.555818  0.238606  0.031474  1
  O  O17  1  0.661627  0.950220  0.238730  1
  O  O18  1  0.610428  0.369626  0.239812  1
  O  O19  1  0.057528  0.698682  0.269672  1
  O  O20  1  0.735800  0.688719  0.467520  1
  O  O21  1  0.264200  0.311281  0.532480  1
  O  O22  1  0.942472  0.301318  0.730328  1
  O  O23  1  0.389572  0.630376  0.760188  1
  O  O24  1  0.338374  0.049780  0.761270  1
  O  O25  1  0.444181  0.761394  0.968526  1
