# generated using pymatgen
data_Lu3In2GaNiPt2
_symmetry_space_group_name_H-M   'P 1'
_cell_length_a   7.57994700
_cell_length_b   7.49336070
_cell_length_c   3.64520600
_cell_angle_alpha   90.00000000
_cell_angle_beta   90.00000000
_cell_angle_gamma   120.38296714
_symmetry_Int_Tables_number   1
_chemical_formula_structural   Lu3In2GaNiPt2
_chemical_formula_sum   'Lu3 In2 Ga1 Ni1 Pt2'
_cell_volume   178.61033750
_cell_formula_units_Z   1
loop_
 _symmetry_equiv_pos_site_id
 _symmetry_equiv_pos_as_xyz
  1  'x, y, z'
loop_
 _atom_site_type_symbol
 _atom_site_label
 _atom_site_symmetry_multiplicity
 _atom_site_fract_x
 _atom_site_fract_y
 _atom_site_fract_z
 _atom_site_occupancy
  Lu  Lu0  1  0.570300  0.000000  0.000000  1
  Lu  Lu1  1  0.006363  0.602512  0.000000  1
  Lu  Lu2  1  0.403851  0.397488  0.000000  1
  In  In3  1  0.993519  0.243382  0.500000  1
  In  In4  1  0.750137  0.756618  0.500000  1
  Ga  Ga5  1  0.252590  0.000000  0.500000  1
  Ni  Ni6  1  0.032965  0.000000  0.000000  1
  Pt  Pt7  1  0.329433  0.668591  0.500000  1
  Pt  Pt8  1  0.660843  0.331409  0.500000  1
