# generated using pymatgen
data_Lu2BiRh5
_symmetry_space_group_name_H-M   'P 1'
_cell_length_a   5.75069584
_cell_length_b   5.75069461
_cell_length_c   8.49319700
_cell_angle_alpha   90.00000000
_cell_angle_beta   90.00000000
_cell_angle_gamma   97.26757035
_symmetry_Int_Tables_number   1
_chemical_formula_structural   Lu2BiRh5
_chemical_formula_sum   'Lu4 Bi2 Rh10'
_cell_volume   278.61774685
_cell_formula_units_Z   2
loop_
 _symmetry_equiv_pos_site_id
 _symmetry_equiv_pos_as_xyz
  1  'x, y, z'
loop_
 _atom_site_type_symbol
 _atom_site_label
 _atom_site_symmetry_multiplicity
 _atom_site_fract_x
 _atom_site_fract_y
 _atom_site_fract_z
 _atom_site_occupancy
  Lu  Lu0  1  0.783630  0.216370  0.500000  1
  Lu  Lu1  1  0.216370  0.783630  0.000000  1
  Lu  Lu2  1  0.216370  0.783630  0.500000  1
  Lu  Lu3  1  0.783630  0.216370  0.000000  1
  Bi  Bi4  1  0.501131  0.501131  0.750000  1
  Bi  Bi5  1  0.498869  0.498869  0.250000  1
  Rh  Rh6  1  0.731334  0.731334  0.000677  1
  Rh  Rh7  1  0.731334  0.731334  0.499323  1
  Rh  Rh8  1  0.268666  0.268666  0.999323  1
  Rh  Rh9  1  0.268666  0.268666  0.500677  1
  Rh  Rh10  1  0.499997  0.000217  0.750000  1
  Rh  Rh11  1  0.500003  0.999783  0.250000  1
  Rh  Rh12  1  0.000218  0.000218  0.250000  1
  Rh  Rh13  1  0.999782  0.999782  0.750000  1
  Rh  Rh14  1  0.000217  0.499997  0.750000  1
  Rh  Rh15  1  0.999783  0.500003  0.250000  1
