# generated using pymatgen
data_YErCo12SiP6
_symmetry_space_group_name_H-M   'P 1'
_cell_length_a   9.02479800
_cell_length_b   9.02479808
_cell_length_c   3.59023700
_cell_angle_alpha   90.00000000
_cell_angle_beta   90.00000000
_cell_angle_gamma   119.99999238
_symmetry_Int_Tables_number   1
_chemical_formula_structural   YErCo12SiP6
_chemical_formula_sum   'Y1 Er1 Co12 Si1 P6'
_cell_volume   253.23793711
_cell_formula_units_Z   1
loop_
 _symmetry_equiv_pos_site_id
 _symmetry_equiv_pos_as_xyz
  1  'x, y, z'
loop_
 _atom_site_type_symbol
 _atom_site_label
 _atom_site_symmetry_multiplicity
 _atom_site_fract_x
 _atom_site_fract_y
 _atom_site_fract_z
 _atom_site_occupancy
  Y  Y0  1  0.333333  0.666667  0.000000  1
  Er  Er1  1  0.666667  0.333333  0.500000  1
  Co  Co2  1  0.121789  0.840349  0.000000  1
  Co  Co3  1  0.386424  0.435366  0.500000  1
  Co  Co4  1  0.718559  0.878211  0.000000  1
  Co  Co5  1  0.564634  0.951057  0.500000  1
  Co  Co6  1  0.228684  0.099439  0.500000  1
  Co  Co7  1  0.870754  0.771316  0.500000  1
  Co  Co8  1  0.900561  0.129246  0.500000  1
  Co  Co9  1  0.939268  0.372839  0.000000  1
  Co  Co10  1  0.627161  0.566429  0.000000  1
  Co  Co11  1  0.433571  0.060732  0.000000  1
  Co  Co12  1  0.048943  0.613576  0.500000  1
  Co  Co13  1  0.159651  0.281441  0.000000  1
  Si  Si14  1  0.000000  0.000000  0.000000  1
  P  P15  1  0.598390  0.710401  0.500000  1
  P  P16  1  0.705940  0.113517  0.000000  1
  P  P17  1  0.886483  0.592423  0.000000  1
  P  P18  1  0.407577  0.294060  0.000000  1
  P  P19  1  0.289599  0.887989  0.500000  1
  P  P20  1  0.112011  0.401610  0.500000  1
