# generated using pymatgen
data_Tb15HoCd4Os3Pd
_symmetry_space_group_name_H-M   'P 1'
_cell_length_a   9.63716824
_cell_length_b   9.78348790
_cell_length_c   9.78348790
_cell_angle_alpha   59.70052110
_cell_angle_beta   59.21499875
_cell_angle_gamma   59.21500206
_symmetry_Int_Tables_number   1
_chemical_formula_structural   Tb15HoCd4Os3Pd
_chemical_formula_sum   'Tb15 Ho1 Cd4 Os3 Pd1'
_cell_volume   642.97927297
_cell_formula_units_Z   1
loop_
 _symmetry_equiv_pos_site_id
 _symmetry_equiv_pos_as_xyz
  1  'x, y, z'
loop_
 _atom_site_type_symbol
 _atom_site_label
 _atom_site_symmetry_multiplicity
 _atom_site_fract_x
 _atom_site_fract_y
 _atom_site_fract_z
 _atom_site_occupancy
  Tb  Tb0  1  0.346941  0.351773  0.952065  1
  Tb  Tb1  1  0.346941  0.952065  0.351773  1
  Tb  Tb2  1  0.968837  0.343950  0.343950  1
  Tb  Tb3  1  0.814338  0.190277  0.190277  1
  Tb  Tb4  1  0.184237  0.810214  0.810214  1
  Tb  Tb5  1  0.186632  0.810678  0.191611  1
  Tb  Tb6  1  0.815144  0.189658  0.803326  1
  Tb  Tb7  1  0.186632  0.191611  0.810678  1
  Tb  Tb8  1  0.815144  0.803326  0.189658  1
  Tb  Tb9  1  0.936123  0.561404  0.561404  1
  Tb  Tb10  1  0.553031  0.940082  0.940082  1
  Tb  Tb11  1  0.552348  0.940068  0.567659  1
  Tb  Tb12  1  0.936049  0.560967  0.939902  1
  Tb  Tb13  1  0.552348  0.567659  0.940068  1
  Tb  Tb14  1  0.936049  0.939902  0.560967  1
  Ho  Ho15  1  0.346237  0.351645  0.351645  1
  Cd  Cd16  1  0.581547  0.579128  0.579128  1
  Cd  Cd17  1  0.580807  0.579054  0.258625  1
  Cd  Cd18  1  0.580807  0.258625  0.579054  1
  Cd  Cd19  1  0.254878  0.580962  0.580962  1
  Os  Os20  1  0.148515  0.137152  0.137152  1
  Os  Os21  1  0.150665  0.138628  0.577969  1
  Os  Os22  1  0.150665  0.577969  0.138628  1
  Pd  Pd23  1  0.575083  0.143205  0.143205  1
