# generated using pymatgen
data_Hf3Pa(TaTc3)2
_symmetry_space_group_name_H-M   'P 1'
_cell_length_a   4.59038600
_cell_length_b   6.53592900
_cell_length_c   13.94196400
_cell_angle_alpha   90.00000000
_cell_angle_beta   89.99997930
_cell_angle_gamma   90.00000000
_symmetry_Int_Tables_number   1
_chemical_formula_structural   Hf3Pa(TaTc3)2
_chemical_formula_sum   'Hf6 Pa2 Ta4 Tc12'
_cell_volume   418.29289627
_cell_formula_units_Z   2
loop_
 _symmetry_equiv_pos_site_id
 _symmetry_equiv_pos_as_xyz
  1  'x, y, z'
loop_
 _atom_site_type_symbol
 _atom_site_label
 _atom_site_symmetry_multiplicity
 _atom_site_fract_x
 _atom_site_fract_y
 _atom_site_fract_z
 _atom_site_occupancy
  Hf  Hf0  1  0.000001  0.500000  0.989128  1
  Hf  Hf1  1  0.499996  0.000000  0.177513  1
  Hf  Hf2  1  0.999995  0.500000  0.343308  1
  Hf  Hf3  1  0.500002  0.000000  0.501677  1
  Hf  Hf4  1  0.000004  0.500000  0.665008  1
  Hf  Hf5  1  0.500004  0.000000  0.823368  1
  Pa  Pa6  1  0.000002  0.000000  0.997117  1
  Pa  Pa7  1  0.499993  0.500000  0.169579  1
  Ta  Ta8  1  0.999996  0.000000  0.341846  1
  Ta  Ta9  1  0.499999  0.500000  0.503765  1
  Ta  Ta10  1  0.000005  0.000000  0.662909  1
  Ta  Ta11  1  0.500005  0.500000  0.824813  1
  Tc  Tc12  1  0.500002  0.247148  0.997033  1
  Tc  Tc13  1  0.500002  0.752852  0.997033  1
  Tc  Tc14  1  0.999993  0.252539  0.169519  1
  Tc  Tc15  1  0.999993  0.747461  0.169519  1
  Tc  Tc16  1  0.499995  0.249098  0.337454  1
  Tc  Tc17  1  0.499995  0.750902  0.337454  1
  Tc  Tc18  1  0.000000  0.248455  0.501412  1
  Tc  Tc19  1  0.000000  0.751545  0.501412  1
  Tc  Tc20  1  0.500004  0.251546  0.665282  1
  Tc  Tc21  1  0.500004  0.748454  0.665282  1
  Tc  Tc22  1  0.000005  0.250789  0.829286  1
  Tc  Tc23  1  0.000005  0.749211  0.829286  1
