# generated using pymatgen
data_La2Si2IrPt3
_symmetry_space_group_name_H-M   'P 1'
_cell_length_a   9.47556300
_cell_length_b   9.47556363
_cell_length_c   4.08868000
_cell_angle_alpha   90.00000000
_cell_angle_beta   90.00000000
_cell_angle_gamma   155.46549583
_symmetry_Int_Tables_number   1
_chemical_formula_structural   La2Si2IrPt3
_chemical_formula_sum   'La2 Si2 Ir1 Pt3'
_cell_volume   152.43812194
_cell_formula_units_Z   1
loop_
 _symmetry_equiv_pos_site_id
 _symmetry_equiv_pos_as_xyz
  1  'x, y, z'
loop_
 _atom_site_type_symbol
 _atom_site_label
 _atom_site_symmetry_multiplicity
 _atom_site_fract_x
 _atom_site_fract_y
 _atom_site_fract_z
 _atom_site_occupancy
  La  La0  1  0.102823  0.897177  0.750000  1
  La  La1  1  0.897296  0.102704  0.250000  1
  Si  Si2  1  0.321796  0.678204  0.750000  1
  Si  Si3  1  0.678116  0.321884  0.250000  1
  Ir  Ir4  1  0.750043  0.249957  0.750000  1
  Pt  Pt5  1  0.549473  0.450527  0.250000  1
  Pt  Pt6  1  0.450419  0.549581  0.750000  1
  Pt  Pt7  1  0.250034  0.749966  0.250000  1
