# generated using pymatgen
data_Gd6DyRhO12
_symmetry_space_group_name_H-M   'P 1'
_cell_length_a   6.73676542
_cell_length_b   6.73676555
_cell_length_c   6.73676541
_cell_angle_alpha   94.46014957
_cell_angle_beta   94.46016101
_cell_angle_gamma   94.46016348
_symmetry_Int_Tables_number   1
_chemical_formula_structural   Gd6DyRhO12
_chemical_formula_sum   'Gd6 Dy1 Rh1 O12'
_cell_volume   302.81011470
_cell_formula_units_Z   1
loop_
 _symmetry_equiv_pos_site_id
 _symmetry_equiv_pos_as_xyz
  1  'x, y, z'
loop_
 _atom_site_type_symbol
 _atom_site_label
 _atom_site_symmetry_multiplicity
 _atom_site_fract_x
 _atom_site_fract_y
 _atom_site_fract_z
 _atom_site_occupancy
  Gd  Gd0  1  0.569447  0.083573  0.263622  1
  Gd  Gd1  1  0.083573  0.263622  0.569447  1
  Gd  Gd2  1  0.736378  0.430553  0.916427  1
  Gd  Gd3  1  0.263622  0.569447  0.083573  1
  Gd  Gd4  1  0.916427  0.736378  0.430553  1
  Gd  Gd5  1  0.430553  0.916427  0.736378  1
  Dy  Dy6  1  0.000000  0.000000  0.000000  1
  Rh  Rh7  1  0.500000  0.500000  0.500000  1
  O  O8  1  0.682669  0.088103  0.933884  1
  O  O9  1  0.911897  0.066116  0.317331  1
  O  O10  1  0.413507  0.199385  0.542322  1
  O  O11  1  0.066116  0.317331  0.911897  1
  O  O12  1  0.542322  0.413507  0.199385  1
  O  O13  1  0.800615  0.457678  0.586493  1
  O  O14  1  0.199385  0.542322  0.413507  1
  O  O15  1  0.457678  0.586493  0.800615  1
  O  O16  1  0.933884  0.682669  0.088103  1
  O  O17  1  0.586493  0.800615  0.457678  1
  O  O18  1  0.088103  0.933884  0.682669  1
  O  O19  1  0.317331  0.911897  0.066116  1
