# generated using pymatgen
data_Tb5Y5In8PdAu3
_symmetry_space_group_name_H-M   'P 1'
_cell_length_a   3.66638800
_cell_length_b   8.22999415
_cell_length_c   18.49542956
_cell_angle_alpha   89.93961437
_cell_angle_beta   90.00000000
_cell_angle_gamma   90.00000000
_symmetry_Int_Tables_number   1
_chemical_formula_structural   Tb5Y5In8PdAu3
_chemical_formula_sum   'Tb5 Y5 In8 Pd1 Au3'
_cell_volume   558.08728788
_cell_formula_units_Z   1
loop_
 _symmetry_equiv_pos_site_id
 _symmetry_equiv_pos_as_xyz
  1  'x, y, z'
loop_
 _atom_site_type_symbol
 _atom_site_label
 _atom_site_symmetry_multiplicity
 _atom_site_fract_x
 _atom_site_fract_y
 _atom_site_fract_z
 _atom_site_occupancy
  Tb  Tb0  1  0.500000  0.246854  0.783224  1
  Tb  Tb1  1  0.500000  0.763330  0.216925  1
  Tb  Tb2  1  0.500000  0.262386  0.282711  1
  Tb  Tb3  1  0.500000  0.731517  0.719640  1
  Tb  Tb4  1  0.500000  0.120634  0.580145  1
  Y  Y5  1  0.500000  0.879115  0.420801  1
  Y  Y6  1  0.500000  0.378782  0.078992  1
  Y  Y7  1  0.500000  0.617541  0.917420  1
  Y  Y8  1  0.500000  0.000852  0.999433  1
  Y  Y9  1  0.500000  0.499591  0.500706  1
  In  In10  1  0.000000  0.079978  0.147046  1
  In  In11  1  0.000000  0.918245  0.851829  1
  In  In12  1  0.000000  0.422938  0.649378  1
  In  In13  1  0.000000  0.579895  0.352894  1
  In  In14  1  0.000000  0.210407  0.433048  1
  In  In15  1  0.000000  0.789266  0.567611  1
  In  In16  1  0.000000  0.292100  0.932059  1
  In  In17  1  0.000000  0.709310  0.065610  1
  Pd  Pd18  1  0.000000  0.526474  0.803720  1
  Au  Au19  1  0.000000  0.027848  0.697058  1
  Au  Au20  1  0.000000  0.971279  0.303482  1
  Au  Au21  1  0.000000  0.471656  0.196271  1
