# generated using pymatgen
data_CaCdSb4(PbO7)2
_symmetry_space_group_name_H-M   'P 1'
_cell_length_a   7.54476692
_cell_length_b   7.47925027
_cell_length_c   7.47925114
_cell_angle_alpha   120.35687675
_cell_angle_beta   119.02384530
_cell_angle_gamma   90.29488643
_symmetry_Int_Tables_number   1
_chemical_formula_structural   CaCdSb4(PbO7)2
_chemical_formula_sum   'Ca1 Cd1 Sb4 Pb2 O14'
_cell_volume   300.40898196
_cell_formula_units_Z   1
loop_
 _symmetry_equiv_pos_site_id
 _symmetry_equiv_pos_as_xyz
  1  'x, y, z'
loop_
 _atom_site_type_symbol
 _atom_site_label
 _atom_site_symmetry_multiplicity
 _atom_site_fract_x
 _atom_site_fract_y
 _atom_site_fract_z
 _atom_site_occupancy
  Ca  Ca0  1  0.500000  0.500000  0.000000  1
  Cd  Cd1  1  0.000000  0.000000  0.000000  1
  Sb  Sb2  1  0.500000  0.000000  0.000000  1
  Sb  Sb3  1  0.500000  0.500000  0.500000  1
  Sb  Sb4  1  0.500000  0.000000  0.500000  1
  Sb  Sb5  1  0.000000  0.500000  0.500000  1
  Pb  Pb6  1  0.000000  0.000000  0.500000  1
  Pb  Pb7  1  0.000000  0.500000  0.000000  1
  O  O8  1  0.445070  0.087701  0.768959  1
  O  O9  1  0.554930  0.323889  0.642631  1
  O  O10  1  0.183660  0.411640  0.356462  1
  O  O11  1  0.816340  0.172803  0.227980  1
  O  O12  1  0.554930  0.912300  0.231041  1
  O  O13  1  0.445070  0.676111  0.357369  1
  O  O14  1  0.816340  0.588360  0.643538  1
  O  O15  1  0.183660  0.827197  0.772020  1
  O  O16  1  0.588013  0.741116  0.846897  1
  O  O17  1  0.411987  0.258884  0.153103  1
  O  O18  1  0.184180  0.918846  0.265334  1
  O  O19  1  0.815820  0.081154  0.734666  1
  O  O20  1  0.852766  0.583502  0.269264  1
  O  O21  1  0.147234  0.416498  0.730736  1
