# generated using pymatgen
data_NaY(WO4)2
_symmetry_space_group_name_H-M   'P 1'
_cell_length_a   7.40704042
_cell_length_b   7.40704042
_cell_length_c   7.32978113
_cell_angle_alpha   65.73447350
_cell_angle_beta   65.73447350
_cell_angle_gamma   94.08186645
_symmetry_Int_Tables_number   1
_chemical_formula_structural   NaY(WO4)2
_chemical_formula_sum   'Na2 Y2 W4 O16'
_cell_volume   319.97615702
_cell_formula_units_Z   2
loop_
 _symmetry_equiv_pos_site_id
 _symmetry_equiv_pos_as_xyz
  1  'x, y, z'
loop_
 _atom_site_type_symbol
 _atom_site_label
 _atom_site_symmetry_multiplicity
 _atom_site_fract_x
 _atom_site_fract_y
 _atom_site_fract_z
 _atom_site_occupancy
  Na  Na0  1  0.699698  0.699698  0.485776  1
  Na  Na1  1  0.300302  0.300302  0.514224  1
  Y  Y2  1  0.700260  0.299740  0.000000  1
  Y  Y3  1  0.299740  0.700260  0.000000  1
  W  W4  1  0.213292  0.213292  0.030713  1
  W  W5  1  0.786708  0.786708  0.969287  1
  W  W6  1  0.836555  0.163445  0.500000  1
  W  W7  1  0.163445  0.836555  0.500000  1
  O  O8  1  0.354242  0.103203  0.244179  1
  O  O9  1  0.645758  0.896797  0.755821  1
  O  O10  1  0.896797  0.645758  0.755821  1
  O  O11  1  0.103203  0.354242  0.244179  1
  O  O12  1  0.686515  0.216557  0.351231  1
  O  O13  1  0.313485  0.783443  0.648769  1
  O  O14  1  0.783443  0.313485  0.648769  1
  O  O15  1  0.216557  0.686515  0.351231  1
  O  O16  1  0.697453  0.953891  0.091902  1
  O  O17  1  0.302547  0.046109  0.908098  1
  O  O18  1  0.046109  0.302547  0.908098  1
  O  O19  1  0.953891  0.697453  0.091902  1
  O  O20  1  0.979950  0.979950  0.340692  1
  O  O21  1  0.020050  0.020050  0.659308  1
  O  O22  1  0.555336  0.555336  0.139209  1
  O  O23  1  0.444664  0.444664  0.860791  1
