# generated using pymatgen
data_Tb2Ga9TcRu4
_symmetry_space_group_name_H-M   'P 1'
_cell_length_a   8.05917374
_cell_length_b   8.05917313
_cell_length_c   8.05917410
_cell_angle_alpha   134.64960200
_cell_angle_beta   134.64959440
_cell_angle_gamma   66.07513411
_symmetry_Int_Tables_number   1
_chemical_formula_structural   Tb2Ga9TcRu4
_chemical_formula_sum   'Tb2 Ga9 Tc1 Ru4'
_cell_volume   260.85655826
_cell_formula_units_Z   1
loop_
 _symmetry_equiv_pos_site_id
 _symmetry_equiv_pos_as_xyz
  1  'x, y, z'
loop_
 _atom_site_type_symbol
 _atom_site_label
 _atom_site_symmetry_multiplicity
 _atom_site_fract_x
 _atom_site_fract_y
 _atom_site_fract_z
 _atom_site_occupancy
  Tb  Tb0  1  0.000181  0.500181  0.500000  1
  Tb  Tb1  1  0.500181  0.000181  0.500000  1
  Ga  Ga2  1  0.437824  0.858067  0.000000  1
  Ga  Ga3  1  0.141833  0.141833  0.581020  1
  Ga  Ga4  1  0.858067  0.437824  0.000000  1
  Ga  Ga5  1  0.858067  0.858067  0.420242  1
  Ga  Ga6  1  0.560812  0.141833  0.000000  1
  Ga  Ga7  1  0.141833  0.560812  0.000000  1
  Ga  Ga8  1  0.560812  0.560812  0.418980  1
  Ga  Ga9  1  0.000209  0.000209  0.000000  1
  Ga  Ga10  1  0.437824  0.437824  0.579758  1
  Tc  Tc11  1  0.181976  0.181976  0.000000  1
  Ru  Ru12  1  0.819155  0.819155  0.000000  1
  Ru  Ru13  1  0.250442  0.750442  0.500000  1
  Ru  Ru14  1  0.750442  0.250442  0.500000  1
  Ru  Ru15  1  0.500342  0.500342  0.000000  1
