# generated using pymatgen
data_Zr4Zn2B4IrRu9
_symmetry_space_group_name_H-M   'P 1'
_cell_length_a   9.38825290
_cell_length_b   9.41314389
_cell_length_c   3.09397100
_cell_angle_alpha   90.00000000
_cell_angle_beta   90.00000000
_cell_angle_gamma   90.05002664
_symmetry_Int_Tables_number   1
_chemical_formula_structural   Zr4Zn2B4IrRu9
_chemical_formula_sum   'Zr4 Zn2 B4 Ir1 Ru9'
_cell_volume   273.42331897
_cell_formula_units_Z   1
loop_
 _symmetry_equiv_pos_site_id
 _symmetry_equiv_pos_as_xyz
  1  'x, y, z'
loop_
 _atom_site_type_symbol
 _atom_site_label
 _atom_site_symmetry_multiplicity
 _atom_site_fract_x
 _atom_site_fract_y
 _atom_site_fract_z
 _atom_site_occupancy
  Zr  Zr0  1  0.676368  0.174981  0.000000  1
  Zr  Zr1  1  0.326341  0.821124  0.000000  1
  Zr  Zr2  1  0.174244  0.328714  0.000000  1
  Zr  Zr3  1  0.824339  0.675705  0.000000  1
  Zn  Zn4  1  0.998722  0.999732  0.000000  1
  Zn  Zn5  1  0.500173  0.499942  0.000000  1
  B  B6  1  0.124631  0.625946  0.000000  1
  B  B7  1  0.874438  0.374626  0.000000  1
  B  B8  1  0.625179  0.874316  0.000000  1
  B  B9  1  0.377212  0.126165  0.000000  1
  Ir  Ir10  1  0.215524  0.071342  0.500000  1
  Ru  Ru11  1  0.783616  0.928516  0.500000  1
  Ru  Ru12  1  0.072433  0.785031  0.500000  1
  Ru  Ru13  1  0.715383  0.426591  0.500000  1
  Ru  Ru14  1  0.929787  0.216051  0.500000  1
  Ru  Ru15  1  0.284185  0.570766  0.500000  1
  Ru  Ru16  1  0.571830  0.715766  0.500000  1
  Ru  Ru17  1  0.427233  0.283853  0.500000  1
  Ru  Ru18  1  0.499199  0.999557  0.500000  1
  Ru  Ru19  1  0.999162  0.501277  0.500000  1
