# generated using pymatgen
data_PrDyS3
_symmetry_space_group_name_H-M   'P 1'
_cell_length_a   4.01594100
_cell_length_b   10.49712500
_cell_length_c   10.89710000
_cell_angle_alpha   90.00000000
_cell_angle_beta   90.00000000
_cell_angle_gamma   90.00000000
_symmetry_Int_Tables_number   1
_chemical_formula_structural   PrDyS3
_chemical_formula_sum   'Pr4 Dy4 S12'
_cell_volume   459.37634598
_cell_formula_units_Z   4
loop_
 _symmetry_equiv_pos_site_id
 _symmetry_equiv_pos_as_xyz
  1  'x, y, z'
loop_
 _atom_site_type_symbol
 _atom_site_label
 _atom_site_symmetry_multiplicity
 _atom_site_fract_x
 _atom_site_fract_y
 _atom_site_fract_z
 _atom_site_occupancy
  Pr  Pr0  1  0.250000  0.998876  0.805084  1
  Pr  Pr1  1  0.750000  0.001124  0.194916  1
  Pr  Pr2  1  0.750000  0.498876  0.694916  1
  Pr  Pr3  1  0.250000  0.501124  0.305084  1
  Dy  Dy4  1  0.250000  0.186283  0.491435  1
  Dy  Dy5  1  0.750000  0.813717  0.508565  1
  Dy  Dy6  1  0.750000  0.686283  0.008565  1
  Dy  Dy7  1  0.250000  0.313717  0.991435  1
  S  S8  1  0.250000  0.297248  0.730859  1
  S  S9  1  0.750000  0.702752  0.269141  1
  S  S10  1  0.750000  0.797248  0.769141  1
  S  S11  1  0.250000  0.202752  0.230859  1
  S  S12  1  0.250000  0.944752  0.386546  1
  S  S13  1  0.750000  0.055248  0.613454  1
  S  S14  1  0.750000  0.444752  0.113454  1
  S  S15  1  0.250000  0.555248  0.886546  1
  S  S16  1  0.250000  0.866602  0.044043  1
  S  S17  1  0.750000  0.133398  0.955957  1
  S  S18  1  0.750000  0.366602  0.455957  1
  S  S19  1  0.250000  0.633398  0.544043  1
