# generated using pymatgen
data_PrY7(Si4Mo3)4
_symmetry_space_group_name_H-M   'P 1'
_cell_length_a   6.80875961
_cell_length_b   6.98565728
_cell_length_c   12.98285606
_cell_angle_alpha   90.06483401
_cell_angle_beta   90.00640215
_cell_angle_gamma   90.05759336
_symmetry_Int_Tables_number   1
_chemical_formula_structural   PrY7(Si4Mo3)4
_chemical_formula_sum   'Pr1 Y7 Si16 Mo12'
_cell_volume   617.51145547
_cell_formula_units_Z   1
loop_
 _symmetry_equiv_pos_site_id
 _symmetry_equiv_pos_as_xyz
  1  'x, y, z'
loop_
 _atom_site_type_symbol
 _atom_site_label
 _atom_site_symmetry_multiplicity
 _atom_site_fract_x
 _atom_site_fract_y
 _atom_site_fract_z
 _atom_site_occupancy
  Pr  Pr0  1  0.998551  0.165074  0.093101  1
  Y  Y1  1  0.497522  0.333463  0.094379  1
  Y  Y2  1  0.997652  0.166868  0.405604  1
  Y  Y3  1  0.502572  0.667138  0.594416  1
  Y  Y4  1  0.002806  0.833985  0.904533  1
  Y  Y5  1  0.503141  0.665974  0.904607  1
  Y  Y6  1  0.002370  0.832928  0.594405  1
  Y  Y7  1  0.497518  0.333534  0.407035  1
  Si  Si8  1  0.658365  0.042513  0.547884  1
  Si  Si9  1  0.158541  0.459908  0.950504  1
  Si  Si10  1  0.346633  0.954587  0.047330  1
  Si  Si11  1  0.842083  0.541979  0.452429  1
  Si  Si12  1  0.341455  0.957677  0.452859  1
  Si  Si13  1  0.840636  0.546605  0.047190  1
  Si  Si14  1  0.656058  0.042480  0.950121  1
  Si  Si15  1  0.158256  0.457549  0.548039  1
  Si  Si16  1  0.534695  0.364357  0.749307  1
  Si  Si17  1  0.034907  0.136182  0.749801  1
  Si  Si18  1  0.464683  0.635302  0.250762  1
  Si  Si19  1  0.964326  0.861122  0.251864  1
  Si  Si20  1  0.803283  0.627584  0.749377  1
  Si  Si21  1  0.303580  0.872808  0.749564  1
  Si  Si22  1  0.198466  0.375428  0.251472  1
  Si  Si23  1  0.693347  0.126376  0.251637  1
  Mo  Mo24  1  0.830777  0.335343  0.625224  1
  Mo  Mo25  1  0.331209  0.165118  0.873784  1
  Mo  Mo26  1  0.169353  0.664675  0.125680  1
  Mo  Mo27  1  0.668351  0.834422  0.375623  1
  Mo  Mo28  1  0.169792  0.664258  0.375879  1
  Mo  Mo29  1  0.668453  0.833880  0.126332  1
  Mo  Mo30  1  0.829939  0.336878  0.873392  1
  Mo  Mo31  1  0.330542  0.164981  0.625239  1
  Mo  Mo32  1  0.665976  0.000378  0.749273  1
  Mo  Mo33  1  0.165867  0.500208  0.749527  1
  Mo  Mo34  1  0.334471  0.997665  0.251191  1
  Mo  Mo35  1  0.833822  0.500768  0.250636  1
