# generated using pymatgen
data_Y3Be2Ir6Os
_symmetry_space_group_name_H-M   'P 1'
_cell_length_a   5.41499900
_cell_length_b   5.41499815
_cell_length_c   15.55243600
_cell_angle_alpha   90.00000000
_cell_angle_beta   90.00000000
_cell_angle_gamma   119.99999910
_symmetry_Int_Tables_number   1
_chemical_formula_structural   Y3Be2Ir6Os
_chemical_formula_sum   'Y6 Be4 Ir12 Os2'
_cell_volume   394.93511648
_cell_formula_units_Z   2
loop_
 _symmetry_equiv_pos_site_id
 _symmetry_equiv_pos_as_xyz
  1  'x, y, z'
loop_
 _atom_site_type_symbol
 _atom_site_label
 _atom_site_symmetry_multiplicity
 _atom_site_fract_x
 _atom_site_fract_y
 _atom_site_fract_z
 _atom_site_occupancy
  Y  Y0  1  0.333333  0.666667  0.536711  1
  Y  Y1  1  0.666667  0.333333  0.463289  1
  Y  Y2  1  0.666667  0.333333  0.036711  1
  Y  Y3  1  0.333333  0.666667  0.963289  1
  Y  Y4  1  0.333333  0.666667  0.750000  1
  Y  Y5  1  0.666667  0.333333  0.250000  1
  Be  Be6  1  0.000000  0.000000  0.250000  1
  Be  Be7  1  0.000000  0.000000  0.750000  1
  Be  Be8  1  0.333333  0.666667  0.250000  1
  Be  Be9  1  0.666667  0.333333  0.750000  1
  Ir  Ir10  1  0.167348  0.334696  0.136154  1
  Ir  Ir11  1  0.832652  0.665304  0.863846  1
  Ir  Ir12  1  0.665304  0.832652  0.136154  1
  Ir  Ir13  1  0.832652  0.665304  0.636154  1
  Ir  Ir14  1  0.334696  0.167348  0.863846  1
  Ir  Ir15  1  0.167348  0.334696  0.363846  1
  Ir  Ir16  1  0.167348  0.832652  0.136154  1
  Ir  Ir17  1  0.334696  0.167348  0.636154  1
  Ir  Ir18  1  0.832652  0.167348  0.863846  1
  Ir  Ir19  1  0.665304  0.832652  0.363846  1
  Ir  Ir20  1  0.832652  0.167348  0.636154  1
  Ir  Ir21  1  0.167348  0.832652  0.363846  1
  Os  Os22  1  0.000000  0.000000  0.000000  1
  Os  Os23  1  0.000000  0.000000  0.500000  1
