# generated using pymatgen
data_Sc6Al13V3Os7
_symmetry_space_group_name_H-M   'P 1'
_cell_length_a   8.77451036
_cell_length_b   8.77451124
_cell_length_c   8.77451189
_cell_angle_alpha   59.69726967
_cell_angle_beta   59.69726584
_cell_angle_gamma   59.69726804
_symmetry_Int_Tables_number   1
_chemical_formula_structural   Sc6Al13V3Os7
_chemical_formula_sum   'Sc6 Al13 V3 Os7'
_cell_volume   474.41344708
_cell_formula_units_Z   1
loop_
 _symmetry_equiv_pos_site_id
 _symmetry_equiv_pos_as_xyz
  1  'x, y, z'
loop_
 _atom_site_type_symbol
 _atom_site_label
 _atom_site_symmetry_multiplicity
 _atom_site_fract_x
 _atom_site_fract_y
 _atom_site_fract_z
 _atom_site_occupancy
  Sc  Sc0  1  0.713754  0.713754  0.283465  1
  Sc  Sc1  1  0.285919  0.715292  0.285919  1
  Sc  Sc2  1  0.715292  0.285919  0.285919  1
  Sc  Sc3  1  0.285919  0.285919  0.715292  1
  Sc  Sc4  1  0.713754  0.283465  0.713754  1
  Sc  Sc5  1  0.283465  0.713754  0.713754  1
  Al  Al6  1  0.881213  0.881213  0.881213  1
  Al  Al7  1  0.120652  0.120652  0.640334  1
  Al  Al8  1  0.120652  0.640334  0.120652  1
  Al  Al9  1  0.640334  0.120652  0.120652  1
  Al  Al10  1  0.121140  0.121140  0.121140  1
  Al  Al11  1  0.665135  0.665135  0.004404  1
  Al  Al12  1  0.665135  0.004404  0.665135  1
  Al  Al13  1  0.004404  0.665135  0.665135  1
  Al  Al14  1  0.664479  0.664479  0.664479  1
  Al  Al15  1  0.336195  0.336195  0.993535  1
  Al  Al16  1  0.336195  0.993535  0.336195  1
  Al  Al17  1  0.993535  0.336195  0.336195  1
  Al  Al18  1  0.336156  0.336156  0.336156  1
  V  V19  1  0.877461  0.877461  0.362041  1
  V  V20  1  0.877461  0.362041  0.877461  1
  V  V21  1  0.362041  0.877461  0.877461  1
  Os  Os22  1  0.003892  0.003892  0.003892  1
  Os  Os23  1  0.998223  0.998223  0.497547  1
  Os  Os24  1  0.502767  0.996292  0.502767  1
  Os  Os25  1  0.996292  0.502767  0.502767  1
  Os  Os26  1  0.502767  0.502767  0.996292  1
  Os  Os27  1  0.998223  0.497547  0.998223  1
  Os  Os28  1  0.497547  0.998223  0.998223  1
