# generated using pymatgen
data_Er8Sc12Ga13Ge3
_symmetry_space_group_name_H-M   'P 1'
_cell_length_a   7.23503302
_cell_length_b   7.49708891
_cell_length_c   14.43200000
_cell_angle_alpha   90.00000000
_cell_angle_beta   90.00000000
_cell_angle_gamma   90.09400060
_symmetry_Int_Tables_number   1
_chemical_formula_structural   Er8Sc12Ga13Ge3
_chemical_formula_sum   'Er8 Sc12 Ga13 Ge3'
_cell_volume   782.81495569
_cell_formula_units_Z   1
loop_
 _symmetry_equiv_pos_site_id
 _symmetry_equiv_pos_as_xyz
  1  'x, y, z'
loop_
 _atom_site_type_symbol
 _atom_site_label
 _atom_site_symmetry_multiplicity
 _atom_site_fract_x
 _atom_site_fract_y
 _atom_site_fract_z
 _atom_site_occupancy
  Er  Er0  1  0.012012  0.178127  0.095910  1
  Er  Er1  1  0.988885  0.821405  0.905617  1
  Er  Er2  1  0.487757  0.678174  0.905190  1
  Er  Er3  1  0.988885  0.821405  0.594383  1
  Er  Er4  1  0.511639  0.320745  0.095507  1
  Er  Er5  1  0.012012  0.178127  0.404090  1
  Er  Er6  1  0.511639  0.320745  0.404493  1
  Er  Er7  1  0.487757  0.678174  0.594810  1
  Sc  Sc8  1  0.162307  0.503880  0.750000  1
  Sc  Sc9  1  0.836960  0.496250  0.250000  1
  Sc  Sc10  1  0.337374  0.003519  0.250000  1
  Sc  Sc11  1  0.664379  0.996074  0.750000  1
  Sc  Sc12  1  0.331231  0.173902  0.622486  1
  Sc  Sc13  1  0.670340  0.827077  0.377615  1
  Sc  Sc14  1  0.170400  0.672333  0.376982  1
  Sc  Sc15  1  0.670340  0.827077  0.122385  1
  Sc  Sc16  1  0.828301  0.327677  0.622825  1
  Sc  Sc17  1  0.331231  0.173902  0.877514  1
  Sc  Sc18  1  0.828301  0.327677  0.877175  1
  Sc  Sc19  1  0.170400  0.672333  0.123018  1
  Ga  Ga20  1  0.033046  0.118900  0.750000  1
  Ga  Ga21  1  0.969068  0.884840  0.250000  1
  Ga  Ga22  1  0.469397  0.615166  0.250000  1
  Ga  Ga23  1  0.530838  0.385778  0.750000  1
  Ga  Ga24  1  0.284637  0.871092  0.750000  1
  Ga  Ga25  1  0.159685  0.465214  0.540527  1
  Ga  Ga26  1  0.839170  0.533251  0.457887  1
  Ga  Ga27  1  0.338915  0.965706  0.458206  1
  Ga  Ga28  1  0.839170  0.533251  0.042113  1
  Ga  Ga29  1  0.661682  0.034181  0.540649  1
  Ga  Ga30  1  0.159685  0.465214  0.959473  1
  Ga  Ga31  1  0.661682  0.034181  0.959351  1
  Ga  Ga32  1  0.338915  0.965706  0.041794  1
  Ge  Ge33  1  0.712694  0.129007  0.250000  1
  Ge  Ge34  1  0.212745  0.370488  0.250000  1
  Ge  Ge35  1  0.786516  0.629418  0.750000  1
