# generated using pymatgen
data_SmTm6Co6Sn23
_symmetry_space_group_name_H-M   'P 1'
_cell_length_a   9.68901000
_cell_length_b   9.68900968
_cell_length_c   9.94731600
_cell_angle_alpha   90.00000000
_cell_angle_beta   90.00000000
_cell_angle_gamma   119.99999428
_symmetry_Int_Tables_number   1
_chemical_formula_structural   SmTm6Co6Sn23
_chemical_formula_sum   'Sm1 Tm6 Co6 Sn23'
_cell_volume   808.71475150
_cell_formula_units_Z   1
loop_
 _symmetry_equiv_pos_site_id
 _symmetry_equiv_pos_as_xyz
  1  'x, y, z'
loop_
 _atom_site_type_symbol
 _atom_site_label
 _atom_site_symmetry_multiplicity
 _atom_site_fract_x
 _atom_site_fract_y
 _atom_site_fract_z
 _atom_site_occupancy
  Sm  Sm0  1  0.000000  0.000000  0.000000  1
  Tm  Tm1  1  0.480870  0.519130  0.306204  1
  Tm  Tm2  1  0.519130  0.480870  0.693796  1
  Tm  Tm3  1  0.480870  0.961739  0.306204  1
  Tm  Tm4  1  0.519130  0.038261  0.693796  1
  Tm  Tm5  1  0.038261  0.519130  0.306204  1
  Tm  Tm6  1  0.961739  0.480870  0.693796  1
  Co  Co7  1  0.831298  0.168702  0.197747  1
  Co  Co8  1  0.168702  0.831298  0.802253  1
  Co  Co9  1  0.831298  0.662595  0.197747  1
  Co  Co10  1  0.168702  0.337405  0.802253  1
  Co  Co11  1  0.337405  0.168702  0.197747  1
  Co  Co12  1  0.662595  0.831298  0.802253  1
  Sn  Sn13  1  0.347598  0.000000  0.000000  1
  Sn  Sn14  1  0.652402  0.000000  0.000000  1
  Sn  Sn15  1  0.000000  0.347598  0.000000  1
  Sn  Sn16  1  0.000000  0.652402  0.000000  1
  Sn  Sn17  1  0.652402  0.652402  0.000000  1
  Sn  Sn18  1  0.347598  0.347598  0.000000  1
  Sn  Sn19  1  0.333333  0.666667  0.819817  1
  Sn  Sn20  1  0.666667  0.333333  0.180183  1
  Sn  Sn21  1  0.000000  0.000000  0.500000  1
  Sn  Sn22  1  0.780855  0.219145  0.452854  1
  Sn  Sn23  1  0.219145  0.780855  0.547146  1
  Sn  Sn24  1  0.780855  0.561711  0.452854  1
  Sn  Sn25  1  0.219145  0.438289  0.547146  1
  Sn  Sn26  1  0.438289  0.219145  0.452854  1
  Sn  Sn27  1  0.561711  0.780855  0.547146  1
  Sn  Sn28  1  0.333333  0.666667  0.125405  1
  Sn  Sn29  1  0.666667  0.333333  0.874595  1
  Sn  Sn30  1  0.119475  0.880525  0.275870  1
  Sn  Sn31  1  0.880525  0.119475  0.724130  1
  Sn  Sn32  1  0.119475  0.238950  0.275870  1
  Sn  Sn33  1  0.880525  0.761050  0.724130  1
  Sn  Sn34  1  0.761050  0.880525  0.275870  1
  Sn  Sn35  1  0.238950  0.119475  0.724130  1
