# generated using pymatgen
data_Co6Ni2RuSe8
_symmetry_space_group_name_H-M   'P 1'
_cell_length_a   7.38614526
_cell_length_b   7.38614514
_cell_length_c   7.36806100
_cell_angle_alpha   60.08095449
_cell_angle_beta   60.08095506
_cell_angle_gamma   60.13029631
_symmetry_Int_Tables_number   1
_chemical_formula_structural   Co6Ni2RuSe8
_chemical_formula_sum   'Co6 Ni2 Ru1 Se8'
_cell_volume   284.85976266
_cell_formula_units_Z   1
loop_
 _symmetry_equiv_pos_site_id
 _symmetry_equiv_pos_as_xyz
  1  'x, y, z'
loop_
 _atom_site_type_symbol
 _atom_site_label
 _atom_site_symmetry_multiplicity
 _atom_site_fract_x
 _atom_site_fract_y
 _atom_site_fract_z
 _atom_site_occupancy
  Co  Co0  1  0.123067  0.123067  0.631948  1
  Co  Co1  1  0.123067  0.123067  0.121919  1
  Co  Co2  1  0.368146  0.877086  0.877384  1
  Co  Co3  1  0.877086  0.368146  0.877384  1
  Co  Co4  1  0.876525  0.876525  0.369632  1
  Co  Co5  1  0.876525  0.876525  0.877318  1
  Ni  Ni6  1  0.627106  0.124947  0.123974  1
  Ni  Ni7  1  0.124947  0.627106  0.123974  1
  Ru  Ru8  1  0.501547  0.501547  0.498453  1
  Se  Se9  1  0.244497  0.244497  0.255503  1
  Se  Se10  1  0.748302  0.748302  0.751698  1
  Se  Se11  1  0.743467  0.260851  0.261023  1
  Se  Se12  1  0.743467  0.260851  0.734659  1
  Se  Se13  1  0.739181  0.739181  0.260819  1
  Se  Se14  1  0.260851  0.743467  0.734659  1
  Se  Se15  1  0.260851  0.743467  0.261023  1
  Se  Se16  1  0.261370  0.261370  0.738630  1
