# generated using pymatgen
data_Ce2Co9Si4(AsRu)3
_symmetry_space_group_name_H-M   'P 1'
_cell_length_a   3.79232900
_cell_length_b   9.30556675
_cell_length_c   9.30556700
_cell_angle_alpha   119.99999637
_cell_angle_beta   90.00000000
_cell_angle_gamma   90.00000000
_symmetry_Int_Tables_number   1
_chemical_formula_structural   Ce2Co9Si4(AsRu)3
_chemical_formula_sum   'Ce2 Co9 Si4 As3 Ru3'
_cell_volume   284.39524050
_cell_formula_units_Z   1
loop_
 _symmetry_equiv_pos_site_id
 _symmetry_equiv_pos_as_xyz
  1  'x, y, z'
loop_
 _atom_site_type_symbol
 _atom_site_label
 _atom_site_symmetry_multiplicity
 _atom_site_fract_x
 _atom_site_fract_y
 _atom_site_fract_z
 _atom_site_occupancy
  Ce  Ce0  1  0.000000  0.666667  0.333333  1
  Ce  Ce1  1  0.500000  0.333333  0.666667  1
  Co  Co2  1  0.000000  0.571089  0.944679  1
  Co  Co3  1  0.000000  0.373589  0.428911  1
  Co  Co4  1  0.000000  0.055321  0.626411  1
  Co  Co5  1  0.000000  0.870976  0.153114  1
  Co  Co6  1  0.000000  0.282138  0.129024  1
  Co  Co7  1  0.000000  0.846886  0.717862  1
  Co  Co8  1  0.500000  0.940186  0.378733  1
  Co  Co9  1  0.500000  0.438547  0.059814  1
  Co  Co10  1  0.500000  0.621267  0.561453  1
  Si  Si11  1  0.000000  0.000000  0.000000  1
  Si  Si12  1  0.500000  0.707443  0.108196  1
  Si  Si13  1  0.500000  0.400753  0.292557  1
  Si  Si14  1  0.500000  0.891804  0.599247  1
  As  As15  1  0.000000  0.594361  0.702220  1
  As  As16  1  0.000000  0.107861  0.405639  1
  As  As17  1  0.000000  0.297780  0.892139  1
  Ru  Ru18  1  0.500000  0.788256  0.901449  1
  Ru  Ru19  1  0.500000  0.113193  0.211744  1
  Ru  Ru20  1  0.500000  0.098551  0.886807  1
