# generated using pymatgen
data_Yb6DyHoSb6
_symmetry_space_group_name_H-M   'P 1'
_cell_length_a   8.09993334
_cell_length_b   8.10024187
_cell_length_c   8.15727514
_cell_angle_alpha   70.53475345
_cell_angle_beta   70.54224090
_cell_angle_gamma   109.10079337
_symmetry_Int_Tables_number   1
_chemical_formula_structural   Yb6DyHoSb6
_chemical_formula_sum   'Yb6 Dy1 Ho1 Sb6'
_cell_volume   413.97151849
_cell_formula_units_Z   1
loop_
 _symmetry_equiv_pos_site_id
 _symmetry_equiv_pos_as_xyz
  1  'x, y, z'
loop_
 _atom_site_type_symbol
 _atom_site_label
 _atom_site_symmetry_multiplicity
 _atom_site_fract_x
 _atom_site_fract_y
 _atom_site_fract_z
 _atom_site_occupancy
  Yb  Yb0  1  0.000985  0.359152  0.495244  1
  Yb  Yb1  1  0.495762  0.495739  0.148366  1
  Yb  Yb2  1  0.644517  0.148343  0.356782  1
  Yb  Yb3  1  0.359194  0.001000  0.995198  1
  Yb  Yb4  1  0.495660  0.495697  0.648384  1
  Yb  Yb5  1  0.148355  0.644489  0.856837  1
  Dy  Dy6  1  0.000405  0.855176  0.499447  1
  Ho  Ho7  1  0.855223  0.000384  0.999473  1
  Sb  Sb8  1  0.633543  0.873774  0.750301  1
  Sb  Sb9  1  0.873759  0.633728  0.250017  1
  Sb  Sb10  1  0.239667  0.118408  0.629053  1
  Sb  Sb11  1  0.756658  0.377701  0.871128  1
  Sb  Sb12  1  0.377974  0.756690  0.371005  1
  Sb  Sb13  1  0.118298  0.239719  0.128763  1
