# generated using pymatgen
data_Pa2I9Br
_symmetry_space_group_name_H-M   'P 1'
_cell_length_a   12.99195100
_cell_length_b   9.90432910
_cell_length_c   14.33787817
_cell_angle_alpha   46.51238126
_cell_angle_beta   90.00000000
_cell_angle_gamma   90.00000000
_symmetry_Int_Tables_number   1
_chemical_formula_structural   Pa2I9Br
_chemical_formula_sum   'Pa4 I18 Br2'
_cell_volume   1338.55299048
_cell_formula_units_Z   2
loop_
 _symmetry_equiv_pos_site_id
 _symmetry_equiv_pos_as_xyz
  1  'x, y, z'
loop_
 _atom_site_type_symbol
 _atom_site_label
 _atom_site_symmetry_multiplicity
 _atom_site_fract_x
 _atom_site_fract_y
 _atom_site_fract_z
 _atom_site_occupancy
  Pa  Pa0  1  0.369866  0.796662  0.651352  1
  Pa  Pa1  1  0.869866  0.203338  0.848648  1
  Pa  Pa2  1  0.630168  0.200163  0.347403  1
  Pa  Pa3  1  0.130168  0.799837  0.152597  1
  I  I4  1  0.148325  0.823551  0.629546  1
  I  I5  1  0.648325  0.176449  0.870454  1
  I  I6  1  0.851438  0.174213  0.369680  1
  I  I7  1  0.351438  0.825787  0.130320  1
  I  I8  1  0.110227  0.175632  0.865754  1
  I  I9  1  0.610227  0.824368  0.634246  1
  I  I10  1  0.890152  0.826952  0.135823  1
  I  I11  1  0.390152  0.173048  0.364177  1
  I  I12  1  0.121229  0.452013  0.417854  1
  I  I13  1  0.621229  0.547987  0.082146  1
  I  I14  1  0.879011  0.550770  0.582791  1
  I  I15  1  0.379011  0.449230  0.917209  1
  I  I16  1  0.125408  0.008470  0.226639  1
  I  I17  1  0.625408  0.991530  0.273361  1
  I  I18  1  0.874785  0.994411  0.775056  1
  I  I19  1  0.374785  0.005589  0.724944  1
  I  I20  1  0.120304  0.607995  0.065937  1
  I  I21  1  0.620304  0.392005  0.434063  1
  Br  Br22  1  0.879087  0.379650  0.928319  1
  Br  Br23  1  0.379087  0.620350  0.571681  1
