# generated using pymatgen
data_Ga10SnPb3O20
_symmetry_space_group_name_H-M   'P 1'
_cell_length_a   9.91909544
_cell_length_b   9.91909621
_cell_length_c   5.26274013
_cell_angle_alpha   74.88326463
_cell_angle_beta   74.88326201
_cell_angle_gamma   74.32442446
_symmetry_Int_Tables_number   1
_chemical_formula_structural   Ga10SnPb3O20
_chemical_formula_sum   'Ga10 Sn1 Pb3 O20'
_cell_volume   471.08603005
_cell_formula_units_Z   1
loop_
 _symmetry_equiv_pos_site_id
 _symmetry_equiv_pos_as_xyz
  1  'x, y, z'
loop_
 _atom_site_type_symbol
 _atom_site_label
 _atom_site_symmetry_multiplicity
 _atom_site_fract_x
 _atom_site_fract_y
 _atom_site_fract_z
 _atom_site_occupancy
  Ga  Ga0  1  0.638116  0.361884  0.500000  1
  Ga  Ga1  1  0.361884  0.638116  0.500000  1
  Ga  Ga2  1  0.278974  0.007573  0.373083  1
  Ga  Ga3  1  0.992427  0.721026  0.626917  1
  Ga  Ga4  1  0.721026  0.992427  0.626917  1
  Ga  Ga5  1  0.007573  0.278974  0.373083  1
  Ga  Ga6  1  0.581120  0.143669  0.109850  1
  Ga  Ga7  1  0.856331  0.418880  0.890150  1
  Ga  Ga8  1  0.418880  0.856331  0.890150  1
  Ga  Ga9  1  0.143669  0.581120  0.109850  1
  Sn  Sn10  1  0.500000  0.500000  0.000000  1
  Pb  Pb11  1  0.000000  0.000000  0.000000  1
  Pb  Pb12  1  0.724838  0.724838  0.212438  1
  Pb  Pb13  1  0.275162  0.275162  0.787562  1
  O  O14  1  0.568905  0.568905  0.271777  1
  O  O15  1  0.431095  0.431095  0.728223  1
  O  O16  1  0.097916  0.097916  0.303365  1
  O  O17  1  0.902084  0.902084  0.696635  1
  O  O18  1  0.397088  0.122954  0.132108  1
  O  O19  1  0.877046  0.602912  0.867892  1
  O  O20  1  0.602912  0.877046  0.867892  1
  O  O21  1  0.122954  0.397088  0.132108  1
  O  O22  1  0.336720  0.830511  0.262670  1
  O  O23  1  0.169489  0.663280  0.737330  1
  O  O24  1  0.663280  0.169489  0.737330  1
  O  O25  1  0.830511  0.336720  0.262670  1
  O  O26  1  0.993820  0.279582  0.730955  1
  O  O27  1  0.720418  0.006180  0.269045  1
  O  O28  1  0.006180  0.720418  0.269045  1
  O  O29  1  0.279582  0.993820  0.730955  1
  O  O30  1  0.696375  0.450089  0.741695  1
  O  O31  1  0.549911  0.303625  0.258305  1
  O  O32  1  0.303625  0.549911  0.258305  1
  O  O33  1  0.450089  0.696375  0.741695  1
