# generated using pymatgen
data_Rb2TiP2
_symmetry_space_group_name_H-M   'P 1'
_cell_length_a   8.43446972
_cell_length_b   8.43446947
_cell_length_c   8.43447102
_cell_angle_alpha   134.96919974
_cell_angle_beta   128.06455256
_cell_angle_gamma   71.13887370
_symmetry_Int_Tables_number   1
_chemical_formula_structural   Rb2TiP2
_chemical_formula_sum   'Rb4 Ti2 P4'
_cell_volume   327.34437939
_cell_formula_units_Z   2
loop_
 _symmetry_equiv_pos_site_id
 _symmetry_equiv_pos_as_xyz
  1  'x, y, z'
loop_
 _atom_site_type_symbol
 _atom_site_label
 _atom_site_symmetry_multiplicity
 _atom_site_fract_x
 _atom_site_fract_y
 _atom_site_fract_z
 _atom_site_occupancy
  Rb  Rb0  1  0.999644  0.153714  0.845929  1
  Rb  Rb1  1  0.000356  0.846286  0.154071  1
  Rb  Rb2  1  0.692215  0.346286  0.345929  1
  Rb  Rb3  1  0.307785  0.653714  0.654071  1
  Ti  Ti4  1  0.500000  0.750000  0.250000  1
  Ti  Ti5  1  0.500000  0.250000  0.750000  1
  P  P6  1  0.760880  0.594146  0.166734  1
  P  P7  1  0.572588  0.905854  0.666734  1
  P  P8  1  0.427412  0.094146  0.333266  1
  P  P9  1  0.239120  0.405854  0.833266  1
