# generated using pymatgen
data_LaHf(SnIr)2
_symmetry_space_group_name_H-M   'P 1'
_cell_length_a   7.50771600
_cell_length_b   7.50771359
_cell_length_c   7.90084400
_cell_angle_alpha   90.00000000
_cell_angle_beta   90.00000000
_cell_angle_gamma   120.00001061
_symmetry_Int_Tables_number   1
_chemical_formula_structural   LaHf(SnIr)2
_chemical_formula_sum   'La3 Hf3 Sn6 Ir6'
_cell_volume   385.67332727
_cell_formula_units_Z   3
loop_
 _symmetry_equiv_pos_site_id
 _symmetry_equiv_pos_as_xyz
  1  'x, y, z'
loop_
 _atom_site_type_symbol
 _atom_site_label
 _atom_site_symmetry_multiplicity
 _atom_site_fract_x
 _atom_site_fract_y
 _atom_site_fract_z
 _atom_site_occupancy
  La  La0  1  0.999873  0.409565  0.750000  1
  La  La1  1  0.590435  0.590308  0.750000  1
  La  La2  1  0.409692  0.000127  0.750000  1
  Hf  Hf3  1  0.999382  0.392717  0.250000  1
  Hf  Hf4  1  0.607283  0.606665  0.250000  1
  Hf  Hf5  1  0.393335  0.000618  0.250000  1
  Sn  Sn6  1  0.263033  0.263588  0.485185  1
  Sn  Sn7  1  0.000555  0.736967  0.485185  1
  Sn  Sn8  1  0.000555  0.736967  0.014815  1
  Sn  Sn9  1  0.736412  0.999445  0.485185  1
  Sn  Sn10  1  0.736412  0.999445  0.014815  1
  Sn  Sn11  1  0.263033  0.263588  0.014815  1
  Ir  Ir12  1  0.333333  0.666667  0.450679  1
  Ir  Ir13  1  0.666667  0.333333  0.451371  1
  Ir  Ir14  1  0.333333  0.666667  0.049321  1
  Ir  Ir15  1  0.000000  0.000000  0.750000  1
  Ir  Ir16  1  0.000000  0.000000  0.250000  1
  Ir  Ir17  1  0.666667  0.333333  0.048629  1
