# generated using pymatgen
data_La2Mn17Si8Ni
_symmetry_space_group_name_H-M   'P 1'
_cell_length_a   8.09330143
_cell_length_b   8.09330184
_cell_length_c   8.12285366
_cell_angle_alpha   121.55510307
_cell_angle_beta   121.55510399
_cell_angle_gamma   87.10906284
_symmetry_Int_Tables_number   1
_chemical_formula_structural   La2Mn17Si8Ni
_chemical_formula_sum   'La2 Mn17 Si8 Ni1'
_cell_volume   367.60511534
_cell_formula_units_Z   1
loop_
 _symmetry_equiv_pos_site_id
 _symmetry_equiv_pos_as_xyz
  1  'x, y, z'
loop_
 _atom_site_type_symbol
 _atom_site_label
 _atom_site_symmetry_multiplicity
 _atom_site_fract_x
 _atom_site_fract_y
 _atom_site_fract_z
 _atom_site_occupancy
  La  La0  1  0.249978  0.249608  0.000072  1
  La  La1  1  0.749608  0.749978  0.000072  1
  Mn  Mn2  1  0.705797  0.205797  0.265553  1
  Mn  Mn3  1  0.997992  0.497992  0.495273  1
  Mn  Mn4  1  0.939355  0.193870  0.135801  1
  Mn  Mn5  1  0.806235  0.941204  0.746891  1
  Mn  Mn6  1  0.444953  0.707306  0.504364  1
  Mn  Mn7  1  0.059982  0.807161  0.868110  1
  Mn  Mn8  1  0.797374  0.055091  0.501191  1
  Mn  Mn9  1  0.555091  0.297374  0.501191  1
  Mn  Mn10  1  0.941158  0.441158  0.727252  1
  Mn  Mn11  1  0.207306  0.944953  0.504364  1
  Mn  Mn12  1  0.307161  0.559982  0.868110  1
  Mn  Mn13  1  0.559583  0.694392  0.255128  1
  Mn  Mn14  1  0.441204  0.306235  0.746891  1
  Mn  Mn15  1  0.194392  0.059583  0.255128  1
  Mn  Mn16  1  0.693870  0.439355  0.135801  1
  Mn  Mn17  1  0.499525  0.999525  0.499238  1
  Mn  Mn18  1  0.293597  0.793597  0.736929  1
  Si  Si19  1  0.056197  0.201624  0.501073  1
  Si  Si20  1  0.200856  0.700856  0.149552  1
  Si  Si21  1  0.797733  0.297733  0.848260  1
  Si  Si22  1  0.448364  0.948364  0.151224  1
  Si  Si23  1  0.553129  0.053129  0.850818  1
  Si  Si24  1  0.949142  0.796467  0.501604  1
  Si  Si25  1  0.296467  0.449142  0.501604  1
  Si  Si26  1  0.701624  0.556197  0.501073  1
  Ni  Ni27  1  0.052327  0.552327  0.247432  1
