# generated using pymatgen
data_Gd8Cd4IrAu7
_symmetry_space_group_name_H-M   'P 1'
_cell_length_a   8.02492493
_cell_length_b   8.02492386
_cell_length_c   7.42022200
_cell_angle_alpha   90.33470525
_cell_angle_beta   90.33471234
_cell_angle_gamma   90.27819686
_symmetry_Int_Tables_number   1
_chemical_formula_structural   Gd8Cd4IrAu7
_chemical_formula_sum   'Gd8 Cd4 Ir1 Au7'
_cell_volume   477.83591079
_cell_formula_units_Z   1
loop_
 _symmetry_equiv_pos_site_id
 _symmetry_equiv_pos_as_xyz
  1  'x, y, z'
loop_
 _atom_site_type_symbol
 _atom_site_label
 _atom_site_symmetry_multiplicity
 _atom_site_fract_x
 _atom_site_fract_y
 _atom_site_fract_z
 _atom_site_occupancy
  Gd  Gd0  1  0.171589  0.171589  0.010300  1
  Gd  Gd1  1  0.843073  0.843073  0.998701  1
  Gd  Gd2  1  0.650050  0.335608  0.492805  1
  Gd  Gd3  1  0.335608  0.650050  0.492805  1
  Gd  Gd4  1  0.668913  0.314535  0.004908  1
  Gd  Gd5  1  0.314535  0.668913  0.004908  1
  Gd  Gd6  1  0.818992  0.818992  0.500427  1
  Gd  Gd7  1  0.188805  0.188805  0.492524  1
  Cd  Cd8  1  0.498279  0.001038  0.248900  1
  Cd  Cd9  1  0.499061  0.995535  0.748720  1
  Cd  Cd10  1  0.001038  0.498279  0.248900  1
  Cd  Cd11  1  0.995535  0.499061  0.748720  1
  Ir  Ir12  1  0.374868  0.374868  0.237101  1
  Au  Au13  1  0.628217  0.628217  0.772115  1
  Au  Au14  1  0.630935  0.630935  0.224851  1
  Au  Au15  1  0.874604  0.131668  0.728715  1
  Au  Au16  1  0.873026  0.128767  0.272715  1
  Au  Au17  1  0.372434  0.372434  0.770455  1
  Au  Au18  1  0.128767  0.873026  0.272715  1
  Au  Au19  1  0.131668  0.874604  0.728715  1
