# generated using pymatgen
data_DyTh7CrS17
_symmetry_space_group_name_H-M   'P 1'
_cell_length_a   8.02951310
_cell_length_b   8.02067457
_cell_length_c   10.64031900
_cell_angle_alpha   80.55197168
_cell_angle_beta   80.55579739
_cell_angle_gamma   64.87417085
_symmetry_Int_Tables_number   1
_chemical_formula_structural   DyTh7CrS17
_chemical_formula_sum   'Dy1 Th7 Cr1 S17'
_cell_volume   608.57465267
_cell_formula_units_Z   1
loop_
 _symmetry_equiv_pos_site_id
 _symmetry_equiv_pos_as_xyz
  1  'x, y, z'
loop_
 _atom_site_type_symbol
 _atom_site_label
 _atom_site_symmetry_multiplicity
 _atom_site_fract_x
 _atom_site_fract_y
 _atom_site_fract_z
 _atom_site_occupancy
  Dy  Dy0  1  0.813238  0.302934  0.296721  1
  Th  Th1  1  0.300536  0.813196  0.293314  1
  Th  Th2  1  0.185579  0.699007  0.704617  1
  Th  Th3  1  0.699013  0.187893  0.702562  1
  Th  Th4  1  0.205958  0.205470  0.543530  1
  Th  Th5  1  0.793840  0.796712  0.451255  1
  Th  Th6  1  0.684655  0.677072  0.979321  1
  Th  Th7  1  0.317330  0.317930  0.025891  1
  Cr  Cr8  1  0.999504  0.002293  0.001014  1
  S  S9  1  0.824716  0.429497  0.529890  1
  S  S10  1  0.431485  0.821534  0.531116  1
  S  S11  1  0.176739  0.569080  0.467595  1
  S  S12  1  0.571220  0.178117  0.467894  1
  S  S13  1  0.944503  0.316638  0.029019  1
  S  S14  1  0.318783  0.944569  0.025300  1
  S  S15  1  0.055623  0.682628  0.973910  1
  S  S16  1  0.682144  0.056056  0.972657  1
  S  S17  1  0.206563  0.206935  0.279204  1
  S  S18  1  0.790947  0.790544  0.721537  1
  S  S19  1  0.057788  0.058273  0.777641  1
  S  S20  1  0.939474  0.949953  0.223624  1
  S  S21  1  0.303234  0.303707  0.756737  1
  S  S22  1  0.695432  0.694288  0.243407  1
  S  S23  1  0.520204  0.521442  0.831958  1
  S  S24  1  0.479500  0.478613  0.166650  1
  S  S25  1  0.001993  0.995620  0.503636  1
