# generated using pymatgen
data_Pr2Si6PRh12
_symmetry_space_group_name_H-M   'P 1'
_cell_length_a   9.80618460
_cell_length_b   9.77351784
_cell_length_c   3.89592207
_cell_angle_alpha   90.00962460
_cell_angle_beta   90.03195294
_cell_angle_gamma   120.18733134
_symmetry_Int_Tables_number   1
_chemical_formula_structural   Pr2Si6PRh12
_chemical_formula_sum   'Pr2 Si6 P1 Rh12'
_cell_volume   322.75192086
_cell_formula_units_Z   1
loop_
 _symmetry_equiv_pos_site_id
 _symmetry_equiv_pos_as_xyz
  1  'x, y, z'
loop_
 _atom_site_type_symbol
 _atom_site_label
 _atom_site_symmetry_multiplicity
 _atom_site_fract_x
 _atom_site_fract_y
 _atom_site_fract_z
 _atom_site_occupancy
  Pr  Pr0  1  0.332375  0.665805  0.747460  1
  Pr  Pr1  1  0.664566  0.332118  0.251904  1
  Si  Si2  1  0.000378  0.999694  0.507070  1
  Si  Si3  1  0.396339  0.288697  0.749954  1
  Si  Si4  1  0.709807  0.106939  0.750991  1
  Si  Si5  1  0.891111  0.601919  0.751153  1
  Si  Si6  1  0.604011  0.710795  0.249376  1
  Si  Si7  1  0.290503  0.893038  0.249023  1
  P  P8  1  0.108085  0.397876  0.247129  1
  Rh  Rh9  1  0.441678  0.061309  0.752410  1
  Rh  Rh10  1  0.938035  0.380473  0.751830  1
  Rh  Rh11  1  0.617895  0.558094  0.751443  1
  Rh  Rh12  1  0.559813  0.939210  0.247864  1
  Rh  Rh13  1  0.061524  0.615907  0.247883  1
  Rh  Rh14  1  0.377207  0.442010  0.247331  1
  Rh  Rh15  1  0.142826  0.264487  0.743894  1
  Rh  Rh16  1  0.741319  0.881983  0.745275  1
  Rh  Rh17  1  0.119673  0.856768  0.744492  1
  Rh  Rh18  1  0.859485  0.738049  0.255217  1
  Rh  Rh19  1  0.258397  0.118571  0.253163  1
  Rh  Rh20  1  0.884973  0.146258  0.255137  1
