# generated using pymatgen
data_EuTm3Cr4F28
_symmetry_space_group_name_H-M   'P 1'
_cell_length_a   5.39689779
_cell_length_b   8.73407787
_cell_length_c   11.70537900
_cell_angle_alpha   62.60517774
_cell_angle_beta   90.12473252
_cell_angle_gamma   89.65226967
_symmetry_Int_Tables_number   1
_chemical_formula_structural   EuTm3Cr4F28
_chemical_formula_sum   'Eu1 Tm3 Cr4 F28'
_cell_volume   489.86334017
_cell_formula_units_Z   1
loop_
 _symmetry_equiv_pos_site_id
 _symmetry_equiv_pos_as_xyz
  1  'x, y, z'
loop_
 _atom_site_type_symbol
 _atom_site_label
 _atom_site_symmetry_multiplicity
 _atom_site_fract_x
 _atom_site_fract_y
 _atom_site_fract_z
 _atom_site_occupancy
  Eu  Eu0  1  0.762130  0.811428  0.766115  1
  Tm  Tm1  1  0.264544  0.194931  0.733112  1
  Tm  Tm2  1  0.234513  0.189801  0.234791  1
  Tm  Tm3  1  0.737655  0.812483  0.265457  1
  Cr  Cr4  1  0.758433  0.270695  0.957655  1
  Cr  Cr5  1  0.255255  0.725466  0.539103  1
  Cr  Cr6  1  0.242850  0.725421  0.048071  1
  Cr  Cr7  1  0.739634  0.276769  0.454301  1
  F  F8  1  0.432819  0.704441  0.925485  1
  F  F9  1  0.936113  0.293091  0.576823  1
  F  F10  1  0.561466  0.292316  0.078502  1
  F  F11  1  0.061035  0.704835  0.416424  1
  F  F12  1  0.449068  0.280112  0.544558  1
  F  F13  1  0.950634  0.716332  0.963663  1
  F  F14  1  0.548837  0.718950  0.454737  1
  F  F15  1  0.048110  0.277975  0.045816  1
  F  F16  1  0.775132  0.506143  0.863467  1
  F  F17  1  0.269694  0.487219  0.635082  1
  F  F18  1  0.234051  0.487731  0.141831  1
  F  F19  1  0.725632  0.512918  0.360999  1
  F  F20  1  0.758250  0.035127  0.049951  1
  F  F21  1  0.258437  0.961771  0.450415  1
  F  F22  1  0.243227  0.960724  0.954512  1
  F  F23  1  0.743115  0.041521  0.543813  1
  F  F24  1  0.971429  0.728359  0.627180  1
  F  F25  1  0.476869  0.270575  0.863320  1
  F  F26  1  0.021074  0.271893  0.359917  1
  F  F27  1  0.526780  0.730061  0.139583  1
  F  F28  1  0.049621  0.745515  0.172674  1
  F  F29  1  0.544419  0.256640  0.330239  1
  F  F30  1  0.953528  0.251630  0.831705  1
  F  F31  1  0.441498  0.740149  0.668399  1
  F  F32  1  0.413766  0.974595  0.229540  1
  F  F33  1  0.912666  0.027986  0.270745  1
  F  F34  1  0.594401  0.038838  0.774126  1
  F  F35  1  0.103316  0.975561  0.727892  1
