# generated using pymatgen
data_Pr4Hf3GeF28
_symmetry_space_group_name_H-M   'P 1'
_cell_length_a   5.79044887
_cell_length_b   9.30319553
_cell_length_c   12.45173913
_cell_angle_alpha   61.87079346
_cell_angle_beta   90.02608808
_cell_angle_gamma   90.01121450
_symmetry_Int_Tables_number   1
_chemical_formula_structural   Pr4Hf3GeF28
_chemical_formula_sum   'Pr4 Hf3 Ge1 F28'
_cell_volume   591.54408726
_cell_formula_units_Z   1
loop_
 _symmetry_equiv_pos_site_id
 _symmetry_equiv_pos_as_xyz
  1  'x, y, z'
loop_
 _atom_site_type_symbol
 _atom_site_label
 _atom_site_symmetry_multiplicity
 _atom_site_fract_x
 _atom_site_fract_y
 _atom_site_fract_z
 _atom_site_occupancy
  Pr  Pr0  1  0.757684  0.816217  0.762220  1
  Pr  Pr1  1  0.258276  0.189810  0.728080  1
  Pr  Pr2  1  0.241603  0.189331  0.241514  1
  Pr  Pr3  1  0.742412  0.807769  0.267335  1
  Hf  Hf4  1  0.754776  0.274219  0.956707  1
  Hf  Hf5  1  0.254254  0.725714  0.542764  1
  Hf  Hf6  1  0.245096  0.726714  0.042391  1
  Ge  Ge7  1  0.742318  0.274684  0.456120  1
  F  F8  1  0.452691  0.710501  0.920151  1
  F  F9  1  0.932281  0.287732  0.569506  1
  F  F10  1  0.544043  0.287647  0.079770  1
  F  F11  1  0.051042  0.710244  0.418972  1
  F  F12  1  0.480886  0.283256  0.538360  1
  F  F13  1  0.957657  0.718994  0.953668  1
  F  F14  1  0.543526  0.713844  0.457520  1
  F  F15  1  0.037649  0.281085  0.049168  1
  F  F16  1  0.770112  0.518107  0.860875  1
  F  F17  1  0.263577  0.482110  0.636160  1
  F  F18  1  0.228378  0.483335  0.141332  1
  F  F19  1  0.734796  0.497055  0.368107  1
  F  F20  1  0.759533  0.030559  0.055718  1
  F  F21  1  0.263477  0.969160  0.448812  1
  F  F22  1  0.237267  0.969710  0.941731  1
  F  F23  1  0.738847  0.051552  0.545463  1
  F  F24  1  0.976111  0.732898  0.635726  1
  F  F25  1  0.484593  0.269301  0.857192  1
  F  F26  1  0.994914  0.267928  0.369448  1
  F  F27  1  0.519312  0.730002  0.139755  1
  F  F28  1  0.047818  0.744980  0.168479  1
  F  F29  1  0.554923  0.259963  0.341396  1
  F  F30  1  0.959388  0.256430  0.831713  1
  F  F31  1  0.453180  0.742086  0.669281  1
  F  F32  1  0.414656  0.968760  0.236327  1
  F  F33  1  0.915761  0.028520  0.271496  1
  F  F34  1  0.590888  0.034346  0.770086  1
  F  F35  1  0.096276  0.965438  0.726660  1
