# generated using pymatgen
data_Er3Tm5B24RuW3
_symmetry_space_group_name_H-M   'P 1'
_cell_length_a   3.58332900
_cell_length_b   9.22620990
_cell_length_c   11.61522403
_cell_angle_alpha   89.89445322
_cell_angle_beta   90.00000000
_cell_angle_gamma   90.00000000
_symmetry_Int_Tables_number   1
_chemical_formula_structural   Er3Tm5B24RuW3
_chemical_formula_sum   'Er3 Tm5 B24 Ru1 W3'
_cell_volume   384.00499099
_cell_formula_units_Z   1
loop_
 _symmetry_equiv_pos_site_id
 _symmetry_equiv_pos_as_xyz
  1  'x, y, z'
loop_
 _atom_site_type_symbol
 _atom_site_label
 _atom_site_symmetry_multiplicity
 _atom_site_fract_x
 _atom_site_fract_y
 _atom_site_fract_z
 _atom_site_occupancy
  Er  Er0  1  0.000000  0.320669  0.413239  1
  Er  Er1  1  0.000000  0.678323  0.585689  1
  Er  Er2  1  0.000000  0.820935  0.085413  1
  Tm  Tm3  1  0.000000  0.178326  0.913393  1
  Tm  Tm4  1  0.000000  0.944083  0.373208  1
  Tm  Tm5  1  0.000000  0.054371  0.630312  1
  Tm  Tm6  1  0.000000  0.445448  0.126415  1
  Tm  Tm7  1  0.000000  0.559371  0.871001  1
  B  B8  1  0.500000  0.550881  0.435074  1
  B  B9  1  0.500000  0.448092  0.565476  1
  B  B10  1  0.500000  0.050145  0.063028  1
  B  B11  1  0.500000  0.945131  0.931976  1
  B  B12  1  0.500000  0.751475  0.422675  1
  B  B13  1  0.500000  0.247609  0.578880  1
  B  B14  1  0.500000  0.252801  0.076917  1
  B  B15  1  0.500000  0.751764  0.918389  1
  B  B16  1  0.500000  0.795358  0.264539  1
  B  B17  1  0.500000  0.203914  0.737924  1
  B  B18  1  0.500000  0.294828  0.235614  1
  B  B19  1  0.500000  0.709437  0.765391  1
  B  B20  1  0.500000  0.632055  0.182493  1
  B  B21  1  0.500000  0.369432  0.818234  1
  B  B22  1  0.500000  0.130617  0.316729  1
  B  B23  1  0.500000  0.868735  0.686132  1
  B  B24  1  0.500000  0.977921  0.212499  1
  B  B25  1  0.500000  0.016104  0.788461  1
  B  B26  1  0.500000  0.478229  0.286784  1
  B  B27  1  0.500000  0.522976  0.712648  1
  B  B28  1  0.500000  0.603859  0.027099  1
  B  B29  1  0.500000  0.400367  0.971215  1
  B  B30  1  0.500000  0.100993  0.472796  1
  B  B31  1  0.500000  0.897112  0.530319  1
  Ru  Ru32  1  0.000000  0.861108  0.820647  1
  W  W33  1  0.000000  0.638896  0.320351  1
  W  W34  1  0.000000  0.360231  0.681058  1
  W  W35  1  0.000000  0.138401  0.177979  1
