# generated using pymatgen
data_KEr(TeO3)2
_symmetry_space_group_name_H-M   'P 1'
_cell_length_a   5.94263200
_cell_length_b   8.52225700
_cell_length_c   13.50671300
_cell_angle_alpha   90.00000000
_cell_angle_beta   90.00000000
_cell_angle_gamma   90.00000000
_symmetry_Int_Tables_number   1
_chemical_formula_structural   KEr(TeO3)2
_chemical_formula_sum   'K4 Er4 Te8 O24'
_cell_volume   684.04257911
_cell_formula_units_Z   4
loop_
 _symmetry_equiv_pos_site_id
 _symmetry_equiv_pos_as_xyz
  1  'x, y, z'
loop_
 _atom_site_type_symbol
 _atom_site_label
 _atom_site_symmetry_multiplicity
 _atom_site_fract_x
 _atom_site_fract_y
 _atom_site_fract_z
 _atom_site_occupancy
  K  K0  1  0.250000  0.004207  0.629744  1
  K  K1  1  0.250000  0.495793  0.129744  1
  K  K2  1  0.750000  0.995793  0.370256  1
  K  K3  1  0.750000  0.504207  0.870256  1
  Er  Er4  1  0.250000  0.786850  0.909406  1
  Er  Er5  1  0.250000  0.713150  0.409406  1
  Er  Er6  1  0.750000  0.213150  0.090594  1
  Er  Er7  1  0.750000  0.286850  0.590594  1
  Te  Te8  1  0.750000  0.006517  0.804688  1
  Te  Te9  1  0.750000  0.493483  0.304688  1
  Te  Te10  1  0.250000  0.993483  0.195312  1
  Te  Te11  1  0.250000  0.506517  0.695312  1
  Te  Te12  1  0.750000  0.721364  0.582280  1
  Te  Te13  1  0.750000  0.778636  0.082280  1
  Te  Te14  1  0.250000  0.278636  0.417720  1
  Te  Te15  1  0.250000  0.221364  0.917720  1
  O  O16  1  0.992974  0.865071  0.798266  1
  O  O17  1  0.507026  0.634929  0.298266  1
  O  O18  1  0.492974  0.134929  0.201734  1
  O  O19  1  0.007026  0.365071  0.701734  1
  O  O20  1  0.007026  0.134929  0.201734  1
  O  O21  1  0.492974  0.365071  0.701734  1
  O  O22  1  0.507026  0.865071  0.798266  1
  O  O23  1  0.992974  0.634929  0.298266  1
  O  O24  1  0.750000  0.053500  0.667705  1
  O  O25  1  0.750000  0.446500  0.167705  1
  O  O26  1  0.250000  0.946500  0.332295  1
  O  O27  1  0.250000  0.553500  0.832295  1
  O  O28  1  0.990926  0.809149  0.511208  1
  O  O29  1  0.509074  0.690851  0.011208  1
  O  O30  1  0.490926  0.190851  0.488792  1
  O  O31  1  0.009074  0.309149  0.988792  1
  O  O32  1  0.009074  0.190851  0.488792  1
  O  O33  1  0.490926  0.309149  0.988792  1
  O  O34  1  0.509074  0.809149  0.511208  1
  O  O35  1  0.990926  0.690851  0.011208  1
  O  O36  1  0.750000  0.522372  0.520165  1
  O  O37  1  0.750000  0.977628  0.020165  1
  O  O38  1  0.250000  0.477628  0.479835  1
  O  O39  1  0.250000  0.022372  0.979835  1
