# generated using pymatgen
data_La4CeNpRu6
_symmetry_space_group_name_H-M   'P 1'
_cell_length_a   5.39398700
_cell_length_b   5.39398633
_cell_length_c   9.54366700
_cell_angle_alpha   90.00000000
_cell_angle_beta   90.00000000
_cell_angle_gamma   112.97066557
_symmetry_Int_Tables_number   1
_chemical_formula_structural   La4CeNpRu6
_chemical_formula_sum   'La4 Ce1 Np1 Ru6'
_cell_volume   255.65566021
_cell_formula_units_Z   1
loop_
 _symmetry_equiv_pos_site_id
 _symmetry_equiv_pos_as_xyz
  1  'x, y, z'
loop_
 _atom_site_type_symbol
 _atom_site_label
 _atom_site_symmetry_multiplicity
 _atom_site_fract_x
 _atom_site_fract_y
 _atom_site_fract_z
 _atom_site_occupancy
  La  La0  1  0.341267  0.658733  0.433130  1
  La  La1  1  0.658452  0.341548  0.562209  1
  La  La2  1  0.658452  0.341548  0.937791  1
  La  La3  1  0.341267  0.658733  0.066870  1
  Ce  Ce4  1  0.159056  0.840944  0.750000  1
  Np  Np5  1  0.851069  0.148931  0.250000  1
  Ru  Ru6  1  0.987507  0.012493  0.491246  1
  Ru  Ru7  1  0.987507  0.012493  0.008754  1
  Ru  Ru8  1  0.849977  0.645435  0.250000  1
  Ru  Ru9  1  0.354565  0.150023  0.250000  1
  Ru  Ru10  1  0.154142  0.343262  0.750000  1
  Ru  Ru11  1  0.656738  0.845858  0.750000  1
