# generated using pymatgen
data_DySc2Tl(SbO4)4
_symmetry_space_group_name_H-M   'P 1'
_cell_length_a   5.30370940
_cell_length_b   7.49429708
_cell_length_c   7.60876475
_cell_angle_alpha   80.43532420
_cell_angle_beta   87.07738859
_cell_angle_gamma   90.44967981
_symmetry_Int_Tables_number   1
_chemical_formula_structural   DySc2Tl(SbO4)4
_chemical_formula_sum   'Dy1 Sc2 Tl1 Sb4 O16'
_cell_volume   297.79696075
_cell_formula_units_Z   1
loop_
 _symmetry_equiv_pos_site_id
 _symmetry_equiv_pos_as_xyz
  1  'x, y, z'
loop_
 _atom_site_type_symbol
 _atom_site_label
 _atom_site_symmetry_multiplicity
 _atom_site_fract_x
 _atom_site_fract_y
 _atom_site_fract_z
 _atom_site_occupancy
  Dy  Dy0  1  0.249667  0.624670  0.628187  1
  Sc  Sc1  1  0.718288  0.869895  0.335669  1
  Sc  Sc2  1  0.283577  0.128632  0.666476  1
  Tl  Tl3  1  0.749075  0.372673  0.371014  1
  Sb  Sb4  1  0.772468  0.309622  0.837024  1
  Sb  Sb5  1  0.225212  0.691268  0.161107  1
  Sb  Sb6  1  0.248778  0.187162  0.169218  1
  Sb  Sb7  1  0.752214  0.812784  0.829717  1
  O  O8  1  0.900090  0.806375  0.069160  1
  O  O9  1  0.097323  0.192971  0.929625  1
  O  O10  1  0.388398  0.936122  0.177221  1
  O  O11  1  0.615051  0.062741  0.821084  1
  O  O12  1  0.096564  0.436245  0.174793  1
  O  O13  1  0.900537  0.564431  0.823269  1
  O  O14  1  0.575980  0.310094  0.066208  1
  O  O15  1  0.418797  0.689654  0.930196  1
  O  O16  1  0.996895  0.320479  0.609933  1
  O  O17  1  0.013609  0.692700  0.387930  1
  O  O18  1  0.416474  0.177789  0.401790  1
  O  O19  1  0.583668  0.819541  0.598564  1
  O  O20  1  0.496240  0.614919  0.332669  1
  O  O21  1  0.496756  0.382064  0.678264  1
  O  O22  1  0.932109  0.100637  0.302850  1
  O  O23  1  0.072231  0.896533  0.698031  1
