# generated using pymatgen
data_Pa3Al2GaRh3
_symmetry_space_group_name_H-M   'P 1'
_cell_length_a   7.05991800
_cell_length_b   7.03727428
_cell_length_c   4.02982200
_cell_angle_alpha   90.00000000
_cell_angle_beta   90.00000000
_cell_angle_gamma   120.10650674
_symmetry_Int_Tables_number   1
_chemical_formula_structural   Pa3Al2GaRh3
_chemical_formula_sum   'Pa3 Al2 Ga1 Rh3'
_cell_volume   173.20225011
_cell_formula_units_Z   1
loop_
 _symmetry_equiv_pos_site_id
 _symmetry_equiv_pos_as_xyz
  1  'x, y, z'
loop_
 _atom_site_type_symbol
 _atom_site_label
 _atom_site_symmetry_multiplicity
 _atom_site_fract_x
 _atom_site_fract_y
 _atom_site_fract_z
 _atom_site_occupancy
  Pa  Pa0  1  0.999001  0.417409  0.500000  1
  Pa  Pa1  1  0.581592  0.582591  0.500000  1
  Pa  Pa2  1  0.421412  0.000000  0.500000  1
  Al  Al3  1  0.001087  0.763950  0.000000  1
  Al  Al4  1  0.237137  0.236050  0.000000  1
  Ga  Ga5  1  0.760327  0.000000  0.000000  1
  Rh  Rh6  1  0.326498  0.662800  0.000000  1
  Rh  Rh7  1  0.663700  0.337200  0.000000  1
  Rh  Rh8  1  0.009246  0.000000  0.500000  1
