# generated using pymatgen
data_Cs12NaNpSe8
_symmetry_space_group_name_H-M   'P 1'
_cell_length_a   11.55767900
_cell_length_b   11.55767871
_cell_length_c   8.78763200
_cell_angle_alpha   90.00000000
_cell_angle_beta   90.00000000
_cell_angle_gamma   120.00000369
_symmetry_Int_Tables_number   1
_chemical_formula_structural   Cs12NaNpSe8
_chemical_formula_sum   'Cs12 Na1 Np1 Se8'
_cell_volume   1016.58506013
_cell_formula_units_Z   1
loop_
 _symmetry_equiv_pos_site_id
 _symmetry_equiv_pos_as_xyz
  1  'x, y, z'
loop_
 _atom_site_type_symbol
 _atom_site_label
 _atom_site_symmetry_multiplicity
 _atom_site_fract_x
 _atom_site_fract_y
 _atom_site_fract_z
 _atom_site_occupancy
  Cs  Cs0  1  0.141995  0.858005  0.542491  1
  Cs  Cs1  1  0.300385  0.150192  0.043961  1
  Cs  Cs2  1  0.849808  0.699615  0.043961  1
  Cs  Cs3  1  0.141995  0.283988  0.542491  1
  Cs  Cs4  1  0.716012  0.858005  0.542491  1
  Cs  Cs5  1  0.849808  0.150192  0.043961  1
  Cs  Cs6  1  0.537798  0.462202  0.379464  1
  Cs  Cs7  1  0.043837  0.521918  0.850843  1
  Cs  Cs8  1  0.478082  0.956163  0.850843  1
  Cs  Cs9  1  0.537798  0.075598  0.379464  1
  Cs  Cs10  1  0.924402  0.462202  0.379464  1
  Cs  Cs11  1  0.478082  0.521918  0.850843  1
  Na  Na12  1  0.666667  0.333333  0.755084  1
  Np  Np13  1  0.333333  0.666667  0.249485  1
  Se  Se14  1  0.333333  0.666667  0.569276  1
  Se  Se15  1  0.666667  0.333333  0.090036  1
  Se  Se16  1  0.200128  0.799872  0.148476  1
  Se  Se17  1  0.378022  0.189012  0.653272  1
  Se  Se18  1  0.810988  0.621978  0.653272  1
  Se  Se19  1  0.200128  0.400255  0.148476  1
  Se  Se20  1  0.599745  0.799872  0.148476  1
  Se  Se21  1  0.810988  0.189012  0.653272  1
