# generated using pymatgen
data_Dy6Er2ReRu3C8
_symmetry_space_group_name_H-M   'P 1'
_cell_length_a   5.09843300
_cell_length_b   6.49317760
_cell_length_c   9.77237400
_cell_angle_alpha   89.97662419
_cell_angle_beta   90.00000000
_cell_angle_gamma   90.00000000
_symmetry_Int_Tables_number   1
_chemical_formula_structural   Dy6Er2ReRu3C8
_chemical_formula_sum   'Dy6 Er2 Re1 Ru3 C8'
_cell_volume   323.51471672
_cell_formula_units_Z   1
loop_
 _symmetry_equiv_pos_site_id
 _symmetry_equiv_pos_as_xyz
  1  'x, y, z'
loop_
 _atom_site_type_symbol
 _atom_site_label
 _atom_site_symmetry_multiplicity
 _atom_site_fract_x
 _atom_site_fract_y
 _atom_site_fract_z
 _atom_site_occupancy
  Dy  Dy0  1  0.750000  0.176658  0.054862  1
  Dy  Dy1  1  0.750000  0.681805  0.443946  1
  Dy  Dy2  1  0.250000  0.471654  0.215592  1
  Dy  Dy3  1  0.250000  0.970333  0.282600  1
  Dy  Dy4  1  0.750000  0.527613  0.787235  1
  Dy  Dy5  1  0.750000  0.027019  0.713942  1
  Er  Er6  1  0.250000  0.826014  0.943375  1
  Er  Er7  1  0.250000  0.325063  0.555850  1
  Re  Re8  1  0.750000  0.221049  0.366899  1
  Ru  Ru9  1  0.250000  0.280420  0.863994  1
  Ru  Ru10  1  0.250000  0.779783  0.635514  1
  Ru  Ru11  1  0.750000  0.721745  0.132624  1
  C  C12  1  0.250000  0.045210  0.741821  1
  C  C13  1  0.250000  0.545101  0.757596  1
  C  C14  1  0.750000  0.955932  0.260210  1
  C  C15  1  0.750000  0.454603  0.243424  1
  C  C16  1  0.250000  0.672812  0.447989  1
  C  C17  1  0.250000  0.171598  0.051852  1
  C  C18  1  0.750000  0.321937  0.553901  1
  C  C19  1  0.750000  0.823651  0.946774  1
