# generated using pymatgen
data_Ta8Re3B8Mo
_symmetry_space_group_name_H-M   'P 1'
_cell_length_a   6.04800400
_cell_length_b   6.04800400
_cell_length_c   6.60839000
_cell_angle_alpha   90.00000000
_cell_angle_beta   90.00000000
_cell_angle_gamma   90.00000000
_symmetry_Int_Tables_number   1
_chemical_formula_structural   Ta8Re3B8Mo
_chemical_formula_sum   'Ta8 Re3 B8 Mo1'
_cell_volume   241.72401811
_cell_formula_units_Z   1
loop_
 _symmetry_equiv_pos_site_id
 _symmetry_equiv_pos_as_xyz
  1  'x, y, z'
loop_
 _atom_site_type_symbol
 _atom_site_label
 _atom_site_symmetry_multiplicity
 _atom_site_fract_x
 _atom_site_fract_y
 _atom_site_fract_z
 _atom_site_occupancy
  Ta  Ta0  1  0.676295  0.824546  0.498993  1
  Ta  Ta1  1  0.323705  0.175454  0.498993  1
  Ta  Ta2  1  0.824626  0.323652  0.001040  1
  Ta  Ta3  1  0.175374  0.676348  0.001040  1
  Ta  Ta4  1  0.824546  0.323705  0.498993  1
  Ta  Ta5  1  0.175454  0.676295  0.498993  1
  Ta  Ta6  1  0.323652  0.175374  0.001040  1
  Ta  Ta7  1  0.676348  0.824626  0.001040  1
  Re  Re8  1  0.500000  0.500000  0.249833  1
  Re  Re9  1  0.000000  0.000000  0.749847  1
  Re  Re10  1  0.500000  0.500000  0.750003  1
  B  B11  1  0.389674  0.887610  0.250050  1
  B  B12  1  0.610326  0.112390  0.250050  1
  B  B13  1  0.111895  0.387985  0.749963  1
  B  B14  1  0.888105  0.612015  0.749963  1
  B  B15  1  0.887610  0.610326  0.250050  1
  B  B16  1  0.112390  0.389674  0.250050  1
  B  B17  1  0.387985  0.888105  0.749963  1
  B  B18  1  0.612015  0.111895  0.749963  1
  Mo  Mo19  1  0.000000  0.000000  0.250137  1
