# generated using pymatgen
data_Nd(Al5Re)2
_symmetry_space_group_name_H-M   'P 1'
_cell_length_a   6.95236400
_cell_length_b   6.95236343
_cell_length_c   9.26728700
_cell_angle_alpha   90.00000000
_cell_angle_beta   90.00000000
_cell_angle_gamma   96.79058558
_symmetry_Int_Tables_number   1
_chemical_formula_structural   Nd(Al5Re)2
_chemical_formula_sum   'Nd2 Al20 Re4'
_cell_volume   444.79535981
_cell_formula_units_Z   2
loop_
 _symmetry_equiv_pos_site_id
 _symmetry_equiv_pos_as_xyz
  1  'x, y, z'
loop_
 _atom_site_type_symbol
 _atom_site_label
 _atom_site_symmetry_multiplicity
 _atom_site_fract_x
 _atom_site_fract_y
 _atom_site_fract_z
 _atom_site_occupancy
  Nd  Nd0  1  0.872682  0.127318  0.750000  1
  Nd  Nd1  1  0.127318  0.872682  0.250000  1
  Al  Al2  1  0.596533  0.864024  0.250000  1
  Al  Al3  1  0.784951  0.527634  0.250000  1
  Al  Al4  1  0.153942  0.846058  0.902849  1
  Al  Al5  1  0.403467  0.135976  0.750000  1
  Al  Al6  1  0.623138  0.376862  0.964760  1
  Al  Al7  1  0.846058  0.153942  0.402849  1
  Al  Al8  1  0.772789  0.772789  0.000000  1
  Al  Al9  1  0.864024  0.596533  0.750000  1
  Al  Al10  1  0.846058  0.153942  0.097151  1
  Al  Al11  1  0.215049  0.472366  0.750000  1
  Al  Al12  1  0.153942  0.846058  0.597151  1
  Al  Al13  1  0.772789  0.772789  0.500000  1
  Al  Al14  1  0.472366  0.215049  0.250000  1
  Al  Al15  1  0.623138  0.376862  0.535240  1
  Al  Al16  1  0.227211  0.227211  0.500000  1
  Al  Al17  1  0.376862  0.623138  0.464760  1
  Al  Al18  1  0.135976  0.403467  0.250000  1
  Al  Al19  1  0.527634  0.784951  0.750000  1
  Al  Al20  1  0.376862  0.623138  0.035240  1
  Al  Al21  1  0.227211  0.227211  0.000000  1
  Re  Re22  1  0.500000  0.000000  0.000000  1
  Re  Re23  1  0.500000  0.000000  0.500000  1
  Re  Re24  1  0.000000  0.500000  0.000000  1
  Re  Re25  1  0.000000  0.500000  0.500000  1
