# generated using pymatgen
data_BaMn4(CoO6)2
_symmetry_space_group_name_H-M   'P 1'
_cell_length_a   8.15253039
_cell_length_b   8.15253019
_cell_length_c   9.68828801
_cell_angle_alpha   54.37102827
_cell_angle_beta   54.37103316
_cell_angle_gamma   64.46007656
_symmetry_Int_Tables_number   1
_chemical_formula_structural   BaMn4(CoO6)2
_chemical_formula_sum   'Ba2 Mn8 Co4 O24'
_cell_volume   421.28200769
_cell_formula_units_Z   2
loop_
 _symmetry_equiv_pos_site_id
 _symmetry_equiv_pos_as_xyz
  1  'x, y, z'
loop_
 _atom_site_type_symbol
 _atom_site_label
 _atom_site_symmetry_multiplicity
 _atom_site_fract_x
 _atom_site_fract_y
 _atom_site_fract_z
 _atom_site_occupancy
  Ba  Ba0  1  0.282571  0.717429  0.000000  1
  Ba  Ba1  1  0.717429  0.282571  0.000000  1
  Mn  Mn2  1  0.670772  0.003450  0.816132  1
  Mn  Mn3  1  0.185558  0.518020  0.481522  1
  Mn  Mn4  1  0.814442  0.481980  0.518478  1
  Mn  Mn5  1  0.329228  0.996550  0.183868  1
  Mn  Mn6  1  0.996550  0.329228  0.183868  1
  Mn  Mn7  1  0.003450  0.670772  0.816132  1
  Mn  Mn8  1  0.518020  0.185558  0.481522  1
  Mn  Mn9  1  0.481980  0.814442  0.518478  1
  Co  Co10  1  0.850567  0.850567  0.480050  1
  Co  Co11  1  0.335113  0.335113  0.821124  1
  Co  Co12  1  0.149433  0.149433  0.519950  1
  Co  Co13  1  0.664887  0.664887  0.178876  1
  O  O14  1  0.702293  0.702293  0.945334  1
  O  O15  1  0.007297  0.675719  0.356046  1
  O  O16  1  0.675719  0.007297  0.356046  1
  O  O17  1  0.674315  0.009055  0.615904  1
  O  O18  1  0.009055  0.674315  0.615904  1
  O  O19  1  0.041539  0.041539  0.279938  1
  O  O20  1  0.710048  0.374861  0.272675  1
  O  O21  1  0.374861  0.710048  0.272675  1
  O  O22  1  0.990945  0.325685  0.384096  1
  O  O23  1  0.992703  0.324281  0.643954  1
  O  O24  1  0.041169  0.371744  0.943935  1
  O  O25  1  0.371744  0.041169  0.943935  1
  O  O26  1  0.297707  0.297707  0.054666  1
  O  O27  1  0.958831  0.628256  0.056065  1
  O  O28  1  0.343289  0.343289  0.351089  1
  O  O29  1  0.348094  0.348094  0.611235  1
  O  O30  1  0.289952  0.625139  0.727325  1
  O  O31  1  0.625139  0.289952  0.727325  1
  O  O32  1  0.958461  0.958461  0.720062  1
  O  O33  1  0.651906  0.651906  0.388765  1
  O  O34  1  0.325685  0.990945  0.384096  1
  O  O35  1  0.656711  0.656711  0.648911  1
  O  O36  1  0.324281  0.992703  0.643954  1
  O  O37  1  0.628256  0.958831  0.056065  1
