# generated using pymatgen
data_Ho6Al24Ru3Pt2Rh3
_symmetry_space_group_name_H-M   'P 1'
_cell_length_a   8.85665326
_cell_length_b   8.85681034
_cell_length_c   9.50529753
_cell_angle_alpha   89.77597143
_cell_angle_beta   90.21828596
_cell_angle_gamma   120.09551681
_symmetry_Int_Tables_number   1
_chemical_formula_structural   Ho6Al24Ru3Pt2Rh3
_chemical_formula_sum   'Ho6 Al24 Ru3 Pt2 Rh3'
_cell_volume   645.08985660
_cell_formula_units_Z   1
loop_
 _symmetry_equiv_pos_site_id
 _symmetry_equiv_pos_as_xyz
  1  'x, y, z'
loop_
 _atom_site_type_symbol
 _atom_site_label
 _atom_site_symmetry_multiplicity
 _atom_site_fract_x
 _atom_site_fract_y
 _atom_site_fract_z
 _atom_site_occupancy
  Ho  Ho0  1  0.193103  0.382835  0.250118  1
  Ho  Ho1  1  0.806897  0.617165  0.749882  1
  Ho  Ho2  1  0.616874  0.806618  0.251022  1
  Ho  Ho3  1  0.383126  0.193382  0.748978  1
  Ho  Ho4  1  0.191218  0.808651  0.251590  1
  Ho  Ho5  1  0.808782  0.191349  0.748410  1
  Al  Al6  1  0.331289  0.668434  0.031058  1
  Al  Al7  1  0.668711  0.331566  0.968942  1
  Al  Al8  1  0.667668  0.337737  0.528686  1
  Al  Al9  1  0.332332  0.662263  0.471314  1
  Al  Al10  1  0.164483  0.326473  0.576421  1
  Al  Al11  1  0.835517  0.673527  0.423579  1
  Al  Al12  1  0.674134  0.832763  0.576050  1
  Al  Al13  1  0.840467  0.674127  0.076776  1
  Al  Al14  1  0.325866  0.167237  0.423950  1
  Al  Al15  1  0.159533  0.325873  0.923224  1
  Al  Al16  1  0.159427  0.834256  0.577055  1
  Al  Al17  1  0.325358  0.159337  0.076468  1
  Al  Al18  1  0.840573  0.165744  0.422945  1
  Al  Al19  1  0.674642  0.840663  0.923532  1
  Al  Al20  1  0.837432  0.162785  0.076974  1
  Al  Al21  1  0.162568  0.837215  0.923026  1
  Al  Al22  1  0.563151  0.125252  0.246883  1
  Al  Al23  1  0.436849  0.874748  0.753117  1
  Al  Al24  1  0.877394  0.438200  0.249574  1
  Al  Al25  1  0.122606  0.561800  0.750426  1
  Al  Al26  1  0.562966  0.437045  0.253564  1
  Al  Al27  1  0.437034  0.562955  0.746436  1
  Al  Al28  1  0.999742  0.998819  0.249999  1
  Al  Al29  1  0.000258  0.001181  0.750001  1
  Ru  Ru30  1  0.500000  0.500000  0.500000  1
  Ru  Ru31  1  0.000000  0.000000  0.000000  1
  Ru  Ru32  1  0.000000  0.000000  0.500000  1
  Pt  Pt33  1  0.500000  0.000000  0.500000  1
  Pt  Pt34  1  0.500000  0.500000  0.000000  1
  Rh  Rh35  1  0.500000  0.000000  0.000000  1
  Rh  Rh36  1  0.000000  0.500000  0.000000  1
  Rh  Rh37  1  0.000000  0.500000  0.500000  1
