# generated using pymatgen
data_TbPr4Ho3Au4
_symmetry_space_group_name_H-M   'P 1'
_cell_length_a   5.03198400
_cell_length_b   7.33265781
_cell_length_c   9.10908019
_cell_angle_alpha   90.03634818
_cell_angle_beta   90.00000000
_cell_angle_gamma   90.00000000
_symmetry_Int_Tables_number   1
_chemical_formula_structural   TbPr4Ho3Au4
_chemical_formula_sum   'Tb1 Pr4 Ho3 Au4'
_cell_volume   336.10510422
_cell_formula_units_Z   1
loop_
 _symmetry_equiv_pos_site_id
 _symmetry_equiv_pos_as_xyz
  1  'x, y, z'
loop_
 _atom_site_type_symbol
 _atom_site_label
 _atom_site_symmetry_multiplicity
 _atom_site_fract_x
 _atom_site_fract_y
 _atom_site_fract_z
 _atom_site_occupancy
  Tb  Tb0  1  0.750000  0.648903  0.417632  1
  Pr  Pr1  1  0.250000  0.488114  0.176742  1
  Pr  Pr2  1  0.750000  0.511273  0.823241  1
  Pr  Pr3  1  0.250000  0.989342  0.323486  1
  Pr  Pr4  1  0.750000  0.012099  0.677384  1
  Ho  Ho5  1  0.250000  0.351330  0.582210  1
  Ho  Ho6  1  0.750000  0.148988  0.081189  1
  Ho  Ho7  1  0.250000  0.851316  0.918893  1
  Au  Au8  1  0.250000  0.244377  0.900678  1
  Au  Au9  1  0.750000  0.756173  0.097154  1
  Au  Au10  1  0.250000  0.744817  0.600993  1
  Au  Au11  1  0.750000  0.253269  0.400396  1
