# generated using pymatgen
data_Ho4Co15Cu3(TcP6)2
_symmetry_space_group_name_H-M   'P 1'
_cell_length_a   3.70145000
_cell_length_b   10.34511138
_cell_length_c   11.84435818
_cell_angle_alpha   89.87326228
_cell_angle_beta   90.00000000
_cell_angle_gamma   90.00000000
_symmetry_Int_Tables_number   1
_chemical_formula_structural   Ho4Co15Cu3(TcP6)2
_chemical_formula_sum   'Ho4 Co15 Cu3 Tc2 P12'
_cell_volume   453.54201784
_cell_formula_units_Z   1
loop_
 _symmetry_equiv_pos_site_id
 _symmetry_equiv_pos_as_xyz
  1  'x, y, z'
loop_
 _atom_site_type_symbol
 _atom_site_label
 _atom_site_symmetry_multiplicity
 _atom_site_fract_x
 _atom_site_fract_y
 _atom_site_fract_z
 _atom_site_occupancy
  Ho  Ho0  1  0.250000  0.585067  0.705972  1
  Ho  Ho1  1  0.250000  0.917588  0.202963  1
  Ho  Ho2  1  0.750000  0.416303  0.292560  1
  Ho  Ho3  1  0.750000  0.083213  0.795428  1
  Co  Co4  1  0.250000  0.091487  0.985299  1
  Co  Co5  1  0.750000  0.590946  0.508842  1
  Co  Co6  1  0.750000  0.906629  0.010554  1
  Co  Co7  1  0.250000  0.220024  0.172225  1
  Co  Co8  1  0.250000  0.283852  0.676145  1
  Co  Co9  1  0.750000  0.777774  0.822456  1
  Co  Co10  1  0.750000  0.723225  0.322586  1
  Co  Co11  1  0.250000  0.885998  0.702395  1
  Co  Co12  1  0.250000  0.613951  0.201637  1
  Co  Co13  1  0.750000  0.115488  0.300859  1
  Co  Co14  1  0.750000  0.382182  0.805156  1
  Co  Co15  1  0.250000  0.463952  0.933072  1
  Co  Co16  1  0.250000  0.035758  0.433782  1
  Co  Co17  1  0.750000  0.533894  0.069954  1
  Co  Co18  1  0.750000  0.966438  0.569317  1
  Cu  Cu19  1  0.750000  0.286364  0.010127  1
  Cu  Cu20  1  0.750000  0.211167  0.513714  1
  Cu  Cu21  1  0.250000  0.406332  0.486010  1
  Tc  Tc22  1  0.250000  0.710681  0.990966  1
  Tc  Tc23  1  0.250000  0.790753  0.491592  1
  P  P24  1  0.250000  0.419886  0.113544  1
  P  P25  1  0.250000  0.081548  0.615359  1
  P  P26  1  0.750000  0.579163  0.888291  1
  P  P27  1  0.750000  0.921364  0.387674  1
  P  P28  1  0.250000  0.269419  0.865159  1
  P  P29  1  0.250000  0.223774  0.355757  1
  P  P30  1  0.750000  0.730863  0.132379  1
  P  P31  1  0.750000  0.769868  0.633157  1
  P  P32  1  0.250000  0.603262  0.388421  1
  P  P33  1  0.250000  0.903388  0.891251  1
  P  P34  1  0.750000  0.400519  0.618100  1
  P  P35  1  0.750000  0.097880  0.107302  1
