# generated using pymatgen
data_Tb3Ho13(InRu)4
_symmetry_space_group_name_H-M   'P 1'
_cell_length_a   9.62815822
_cell_length_b   9.60391801
_cell_length_c   9.60847593
_cell_angle_alpha   59.85482527
_cell_angle_beta   59.92854881
_cell_angle_gamma   59.94807078
_symmetry_Int_Tables_number   1
_chemical_formula_structural   Tb3Ho13(InRu)4
_chemical_formula_sum   'Tb3 Ho13 In4 Ru4'
_cell_volume   626.97134331
_cell_formula_units_Z   1
loop_
 _symmetry_equiv_pos_site_id
 _symmetry_equiv_pos_as_xyz
  1  'x, y, z'
loop_
 _atom_site_type_symbol
 _atom_site_label
 _atom_site_symmetry_multiplicity
 _atom_site_fract_x
 _atom_site_fract_y
 _atom_site_fract_z
 _atom_site_occupancy
  Tb  Tb0  1  0.808712  0.189787  0.808741  1
  Tb  Tb1  1  0.941436  0.559074  0.558970  1
  Tb  Tb2  1  0.558137  0.941220  0.558846  1
  Ho  Ho3  1  0.808837  0.191417  0.191505  1
  Ho  Ho4  1  0.192518  0.808716  0.189993  1
  Ho  Ho5  1  0.347635  0.956391  0.348159  1
  Ho  Ho6  1  0.942950  0.941375  0.557991  1
  Ho  Ho7  1  0.557757  0.941626  0.942680  1
  Ho  Ho8  1  0.191828  0.807972  0.808423  1
  Ho  Ho9  1  0.346765  0.348548  0.956879  1
  Ho  Ho10  1  0.557664  0.558237  0.942240  1
  Ho  Ho11  1  0.347989  0.348324  0.347951  1
  Ho  Ho12  1  0.192878  0.190314  0.808663  1
  Ho  Ho13  1  0.808625  0.808069  0.190393  1
  Ho  Ho14  1  0.941883  0.558722  0.941168  1
  Ho  Ho15  1  0.955944  0.348393  0.347420  1
  In  In16  1  0.582055  0.582059  0.582387  1
  In  In17  1  0.582398  0.253084  0.582331  1
  In  In18  1  0.582566  0.582434  0.252110  1
  In  In19  1  0.253130  0.582379  0.582477  1
  Ru  Ru20  1  0.138965  0.140513  0.581065  1
  Ru  Ru21  1  0.581617  0.140072  0.139594  1
  Ru  Ru22  1  0.139157  0.581514  0.140176  1
  Ru  Ru23  1  0.138555  0.139759  0.139843  1
