# generated using pymatgen
data_Yb4TmLu3(B6Os)4
_symmetry_space_group_name_H-M   'P 1'
_cell_length_a   3.60953600
_cell_length_b   9.09257800
_cell_length_c   11.48104700
_cell_angle_alpha   89.99748213
_cell_angle_beta   90.00000000
_cell_angle_gamma   90.00000000
_symmetry_Int_Tables_number   1
_chemical_formula_structural   Yb4TmLu3(B6Os)4
_chemical_formula_sum   'Yb4 Tm1 Lu3 B24 Os4'
_cell_volume   376.80782027
_cell_formula_units_Z   1
loop_
 _symmetry_equiv_pos_site_id
 _symmetry_equiv_pos_as_xyz
  1  'x, y, z'
loop_
 _atom_site_type_symbol
 _atom_site_label
 _atom_site_symmetry_multiplicity
 _atom_site_fract_x
 _atom_site_fract_y
 _atom_site_fract_z
 _atom_site_occupancy
  Yb  Yb0  1  0.000000  0.324056  0.414653  1
  Yb  Yb1  1  0.000000  0.675959  0.585245  1
  Yb  Yb2  1  0.000000  0.824137  0.085374  1
  Yb  Yb3  1  0.000000  0.175868  0.914696  1
  Tm  Tm4  1  0.000000  0.557535  0.868273  1
  Lu  Lu5  1  0.000000  0.942424  0.368140  1
  Lu  Lu6  1  0.000000  0.057581  0.631803  1
  Lu  Lu7  1  0.000000  0.442336  0.132111  1
  B  B8  1  0.500000  0.553779  0.432939  1
  B  B9  1  0.500000  0.446212  0.566969  1
  B  B10  1  0.500000  0.053795  0.067066  1
  B  B11  1  0.500000  0.946332  0.932976  1
  B  B12  1  0.500000  0.749577  0.417590  1
  B  B13  1  0.500000  0.250372  0.582371  1
  B  B14  1  0.500000  0.249555  0.082431  1
  B  B15  1  0.500000  0.750951  0.917548  1
  B  B16  1  0.500000  0.792063  0.264442  1
  B  B17  1  0.500000  0.207807  0.735529  1
  B  B18  1  0.500000  0.292030  0.235573  1
  B  B19  1  0.500000  0.708397  0.764324  1
  B  B20  1  0.500000  0.630603  0.185183  1
  B  B21  1  0.500000  0.369031  0.814581  1
  B  B22  1  0.500000  0.130594  0.314840  1
  B  B23  1  0.500000  0.869501  0.685101  1
  B  B24  1  0.500000  0.982451  0.211538  1
  B  B25  1  0.500000  0.017611  0.788430  1
  B  B26  1  0.500000  0.482473  0.288480  1
  B  B27  1  0.500000  0.517255  0.711232  1
  B  B28  1  0.500000  0.596080  0.026934  1
  B  B29  1  0.500000  0.403491  0.973959  1
  B  B30  1  0.500000  0.096028  0.473570  1
  B  B31  1  0.500000  0.903965  0.526411  1
  Os  Os32  1  0.000000  0.639525  0.319576  1
  Os  Os33  1  0.000000  0.360125  0.680113  1
  Os  Os34  1  0.000000  0.139476  0.180537  1
  Os  Os35  1  0.000000  0.861024  0.819459  1
