# generated using pymatgen
data_TbGd3Y(SiB4)2
_symmetry_space_group_name_H-M   'P 1'
_cell_length_a   7.26901133
_cell_length_b   7.26901133
_cell_length_c   8.17942500
_cell_angle_alpha   90.00000000
_cell_angle_beta   90.00000000
_cell_angle_gamma   90.03457132
_symmetry_Int_Tables_number   1
_chemical_formula_structural   TbGd3Y(SiB4)2
_chemical_formula_sum   'Tb2 Gd6 Y2 Si4 B16'
_cell_volume   432.18867962
_cell_formula_units_Z   2
loop_
 _symmetry_equiv_pos_site_id
 _symmetry_equiv_pos_as_xyz
  1  'x, y, z'
loop_
 _atom_site_type_symbol
 _atom_site_label
 _atom_site_symmetry_multiplicity
 _atom_site_fract_x
 _atom_site_fract_y
 _atom_site_fract_z
 _atom_site_occupancy
  Tb  Tb0  1  0.180238  0.319762  0.776415  1
  Tb  Tb1  1  0.180238  0.319762  0.223585  1
  Gd  Gd2  1  0.680455  0.180535  0.225229  1
  Gd  Gd3  1  0.319465  0.819545  0.774771  1
  Gd  Gd4  1  0.319465  0.819545  0.225229  1
  Gd  Gd5  1  0.819592  0.680408  0.224921  1
  Gd  Gd6  1  0.819592  0.680408  0.775079  1
  Gd  Gd7  1  0.680455  0.180535  0.774771  1
  Y  Y8  1  0.000238  0.000143  0.500000  1
  Y  Y9  1  0.499857  0.499762  0.500000  1
  Si  Si10  1  0.115025  0.614016  0.500000  1
  Si  Si11  1  0.885984  0.384975  0.500000  1
  Si  Si12  1  0.384805  0.115195  0.500000  1
  Si  Si13  1  0.614357  0.885643  0.500000  1
  B  B14  1  0.172481  0.039590  0.000000  1
  B  B15  1  0.827687  0.960888  0.000000  1
  B  B16  1  0.960938  0.172319  0.000000  1
  B  B17  1  0.327681  0.539062  0.000000  1
  B  B18  1  0.039380  0.827736  0.000000  1
  B  B19  1  0.672264  0.460620  0.000000  1
  B  B20  1  0.539112  0.672313  0.000000  1
  B  B21  1  0.460410  0.327519  0.000000  1
  B  B22  1  0.090157  0.590027  0.000000  1
  B  B23  1  0.909973  0.409843  0.000000  1
  B  B24  1  0.409885  0.090115  0.000000  1
  B  B25  1  0.590009  0.909991  0.000000  1
  B  B26  1  0.000154  0.000023  0.159811  1
  B  B27  1  0.000154  0.000023  0.840189  1
  B  B28  1  0.499977  0.499846  0.840189  1
  B  B29  1  0.499977  0.499846  0.159811  1
