# generated using pymatgen
data_Ta2CrMoO11
_symmetry_space_group_name_H-M   'P 1'
_cell_length_a   9.23836963
_cell_length_b   9.23836980
_cell_length_c   9.23836992
_cell_angle_alpha   35.64073022
_cell_angle_beta   35.64072775
_cell_angle_gamma   35.64073069
_symmetry_Int_Tables_number   1
_chemical_formula_structural   Ta2CrMoO11
_chemical_formula_sum   'Ta2 Cr1 Mo1 O11'
_cell_volume   239.30406936
_cell_formula_units_Z   1
loop_
 _symmetry_equiv_pos_site_id
 _symmetry_equiv_pos_as_xyz
  1  'x, y, z'
loop_
 _atom_site_type_symbol
 _atom_site_label
 _atom_site_symmetry_multiplicity
 _atom_site_fract_x
 _atom_site_fract_y
 _atom_site_fract_z
 _atom_site_occupancy
  Ta  Ta0  1  0.374246  0.374246  0.374246  1
  Ta  Ta1  1  0.629104  0.629104  0.629104  1
  Cr  Cr2  1  0.110274  0.110274  0.110274  1
  Mo  Mo3  1  0.886955  0.886955  0.886955  1
  O  O4  1  0.738051  0.258745  0.738051  1
  O  O5  1  0.258745  0.738051  0.738051  1
  O  O6  1  0.738051  0.738051  0.258745  1
  O  O7  1  0.761803  0.252781  0.252781  1
  O  O8  1  0.252781  0.761803  0.252781  1
  O  O9  1  0.252781  0.252781  0.761803  1
  O  O10  1  0.172074  0.172074  0.172074  1
  O  O11  1  0.820622  0.820622  0.820622  1
  O  O12  1  0.500654  0.500654  0.003206  1
  O  O13  1  0.500654  0.003206  0.500654  1
  O  O14  1  0.003206  0.500654  0.500654  1
