# generated using pymatgen
data_Ag3Ir(NO3)8
_symmetry_space_group_name_H-M   'P 1'
_cell_length_a   7.98874121
_cell_length_b   7.98874038
_cell_length_c   7.98874032
_cell_angle_alpha   88.54183768
_cell_angle_beta   91.45816579
_cell_angle_gamma   91.45816230
_symmetry_Int_Tables_number   1
_chemical_formula_structural   Ag3Ir(NO3)8
_chemical_formula_sum   'Ag3 Ir1 N8 O24'
_cell_volume   509.35419001
_cell_formula_units_Z   1
loop_
 _symmetry_equiv_pos_site_id
 _symmetry_equiv_pos_as_xyz
  1  'x, y, z'
loop_
 _atom_site_type_symbol
 _atom_site_label
 _atom_site_symmetry_multiplicity
 _atom_site_fract_x
 _atom_site_fract_y
 _atom_site_fract_z
 _atom_site_occupancy
  Ag  Ag0  1  0.500000  0.500000  0.500000  1
  Ag  Ag1  1  0.500000  0.000000  0.000000  1
  Ag  Ag2  1  0.000000  0.500000  0.000000  1
  Ir  Ir3  1  0.000000  0.000000  0.500000  1
  N  N4  1  0.694775  0.136755  0.315278  1
  N  N5  1  0.666337  0.333663  0.833663  1
  N  N6  1  0.863245  0.815278  0.805225  1
  N  N7  1  0.815278  0.694775  0.363245  1
  N  N8  1  0.136755  0.184722  0.194775  1
  N  N9  1  0.184722  0.305225  0.636755  1
  N  N10  1  0.333663  0.666337  0.166337  1
  N  N11  1  0.305225  0.863245  0.684722  1
  O  O12  1  0.546800  0.227645  0.820387  1
  O  O13  1  0.582207  0.239881  0.304822  1
  O  O14  1  0.679613  0.453200  0.727645  1
  O  O15  1  0.715608  0.026164  0.209181  1
  O  O16  1  0.709181  0.715608  0.473836  1
  O  O17  1  0.760119  0.804822  0.917793  1
  O  O18  1  0.772355  0.320387  0.953200  1
  O  O19  1  0.797223  0.145617  0.447724  1
  O  O20  1  0.854383  0.947724  0.702777  1
  O  O21  1  0.804822  0.582207  0.260119  1
  O  O22  1  0.973836  0.709181  0.784392  1
  O  O23  1  0.947724  0.797223  0.354383  1
  O  O24  1  0.052276  0.202777  0.645617  1
  O  O25  1  0.026164  0.290819  0.215608  1
  O  O26  1  0.195178  0.417793  0.739881  1
  O  O27  1  0.145617  0.052276  0.297223  1
  O  O28  1  0.227645  0.679613  0.046800  1
  O  O29  1  0.202777  0.854383  0.552276  1
  O  O30  1  0.239881  0.195178  0.082207  1
  O  O31  1  0.290819  0.284392  0.526164  1
  O  O32  1  0.320387  0.546800  0.272355  1
  O  O33  1  0.284392  0.973836  0.790819  1
  O  O34  1  0.417793  0.760119  0.695178  1
  O  O35  1  0.453200  0.772355  0.179613  1
