# generated using pymatgen
data_Pr2NdIn3Sn2
_symmetry_space_group_name_H-M   'P 1'
_cell_length_a   6.67860926
_cell_length_b   6.67860917
_cell_length_c   10.40656700
_cell_angle_alpha   90.00000000
_cell_angle_beta   90.00000000
_cell_angle_gamma   103.01136641
_symmetry_Int_Tables_number   1
_chemical_formula_structural   Pr2NdIn3Sn2
_chemical_formula_sum   'Pr4 Nd2 In6 Sn4'
_cell_volume   452.25521439
_cell_formula_units_Z   2
loop_
 _symmetry_equiv_pos_site_id
 _symmetry_equiv_pos_as_xyz
  1  'x, y, z'
loop_
 _atom_site_type_symbol
 _atom_site_label
 _atom_site_symmetry_multiplicity
 _atom_site_fract_x
 _atom_site_fract_y
 _atom_site_fract_z
 _atom_site_occupancy
  Pr  Pr0  1  0.205580  0.794420  0.500000  1
  Pr  Pr1  1  0.205580  0.794420  0.000000  1
  Pr  Pr2  1  0.794420  0.205580  0.500000  1
  Pr  Pr3  1  0.794420  0.205580  0.000000  1
  Nd  Nd4  1  0.634756  0.634756  0.250000  1
  Nd  Nd5  1  0.365244  0.365244  0.750000  1
  In  In6  1  0.020137  0.020137  0.250000  1
  In  In7  1  0.979863  0.979863  0.750000  1
  In  In8  1  0.306631  0.306631  0.048306  1
  In  In9  1  0.693369  0.693369  0.951694  1
  In  In10  1  0.306631  0.306631  0.451694  1
  In  In11  1  0.693369  0.693369  0.548306  1
  Sn  Sn12  1  0.497645  0.074374  0.250000  1
  Sn  Sn13  1  0.925626  0.502355  0.750000  1
  Sn  Sn14  1  0.502355  0.925626  0.750000  1
  Sn  Sn15  1  0.074374  0.497645  0.250000  1
