# generated using pymatgen
data_LiGaNiF6
_symmetry_space_group_name_H-M   'P 1'
_cell_length_a   4.68072300
_cell_length_b   4.68072300
_cell_length_c   9.09319200
_cell_angle_alpha   90.00000000
_cell_angle_beta   90.00000000
_cell_angle_gamma   90.00000000
_symmetry_Int_Tables_number   1
_chemical_formula_structural   LiGaNiF6
_chemical_formula_sum   'Li2 Ga2 Ni2 F12'
_cell_volume   199.22426939
_cell_formula_units_Z   2
loop_
 _symmetry_equiv_pos_site_id
 _symmetry_equiv_pos_as_xyz
  1  'x, y, z'
loop_
 _atom_site_type_symbol
 _atom_site_label
 _atom_site_symmetry_multiplicity
 _atom_site_fract_x
 _atom_site_fract_y
 _atom_site_fract_z
 _atom_site_occupancy
  Li  Li0  1  0.500000  0.500000  0.165408  1
  Li  Li1  1  0.000000  0.000000  0.665408  1
  Ga  Ga2  1  0.500000  0.500000  0.498973  1
  Ga  Ga3  1  0.000000  0.000000  0.998973  1
  Ni  Ni4  1  0.500000  0.500000  0.835663  1
  Ni  Ni5  1  0.000000  0.000000  0.335662  1
  F  F6  1  0.191814  0.808186  0.159266  1
  F  F7  1  0.808186  0.191814  0.159266  1
  F  F8  1  0.308186  0.308186  0.659266  1
  F  F9  1  0.691814  0.691814  0.659266  1
  F  F10  1  0.806511  0.193489  0.841132  1
  F  F11  1  0.193489  0.806511  0.841132  1
  F  F12  1  0.693489  0.693489  0.341132  1
  F  F13  1  0.306511  0.306511  0.341132  1
  F  F14  1  0.207927  0.792073  0.499580  1
  F  F15  1  0.792073  0.207927  0.499580  1
  F  F16  1  0.292073  0.292073  0.999580  1
  F  F17  1  0.707927  0.707927  0.999580  1
