# generated using pymatgen
data_Y3ErAl18(IrPd2)2
_symmetry_space_group_name_H-M   'P 1'
_cell_length_a   7.61002636
_cell_length_b   7.61108131
_cell_length_c   9.45853900
_cell_angle_alpha   90.00000000
_cell_angle_beta   90.00000000
_cell_angle_gamma   119.62773704
_symmetry_Int_Tables_number   1
_chemical_formula_structural   Y3ErAl18(IrPd2)2
_chemical_formula_sum   'Y3 Er1 Al18 Ir2 Pd4'
_cell_volume   476.21616501
_cell_formula_units_Z   1
loop_
 _symmetry_equiv_pos_site_id
 _symmetry_equiv_pos_as_xyz
  1  'x, y, z'
loop_
 _atom_site_type_symbol
 _atom_site_label
 _atom_site_symmetry_multiplicity
 _atom_site_fract_x
 _atom_site_fract_y
 _atom_site_fract_z
 _atom_site_occupancy
  Y  Y0  1  0.994594  0.668983  0.250000  1
  Y  Y1  1  0.005725  0.331192  0.750000  1
  Y  Y2  1  0.668845  0.994427  0.250000  1
  Er  Er3  1  0.330762  0.005732  0.750000  1
  Al  Al4  1  0.128562  0.128371  0.250000  1
  Al  Al5  1  0.871857  0.871576  0.750000  1
  Al  Al6  1  0.000180  0.331387  0.076030  1
  Al  Al7  1  0.000538  0.669095  0.923119  1
  Al  Al8  1  0.000538  0.669095  0.576881  1
  Al  Al9  1  0.331490  0.000165  0.424408  1
  Al  Al10  1  0.000180  0.331387  0.423970  1
  Al  Al11  1  0.667923  0.999868  0.576876  1
  Al  Al12  1  0.667923  0.999868  0.923124  1
  Al  Al13  1  0.331490  0.000165  0.075592  1
  Al  Al14  1  0.330946  0.330405  0.557100  1
  Al  Al15  1  0.669270  0.669266  0.444080  1
  Al  Al16  1  0.669270  0.669266  0.055920  1
  Al  Al17  1  0.330946  0.330405  0.942900  1
  Al  Al18  1  0.340843  0.547542  0.250000  1
  Al  Al19  1  0.658317  0.451200  0.750000  1
  Al  Al20  1  0.547438  0.340678  0.250000  1
  Al  Al21  1  0.451887  0.659478  0.750000  1
  Ir  Ir22  1  0.000387  0.000136  0.999604  1
  Ir  Ir23  1  0.000387  0.000136  0.500396  1
  Pd  Pd24  1  0.672147  0.327540  0.999944  1
  Pd  Pd25  1  0.327703  0.672550  0.999957  1
  Pd  Pd26  1  0.327703  0.672550  0.500043  1
  Pd  Pd27  1  0.672147  0.327540  0.500056  1
