# generated using pymatgen
data_GdPN3
_symmetry_space_group_name_H-M   'P 1'
_cell_length_a   7.17401379
_cell_length_b   7.17401467
_cell_length_c   5.02178831
_cell_angle_alpha   86.24717650
_cell_angle_beta   86.24716407
_cell_angle_gamma   101.40046486
_symmetry_Int_Tables_number   1
_chemical_formula_structural   GdPN3
_chemical_formula_sum   'Gd4 P4 N12'
_cell_volume   251.99796328
_cell_formula_units_Z   4
loop_
 _symmetry_equiv_pos_site_id
 _symmetry_equiv_pos_as_xyz
  1  'x, y, z'
loop_
 _atom_site_type_symbol
 _atom_site_label
 _atom_site_symmetry_multiplicity
 _atom_site_fract_x
 _atom_site_fract_y
 _atom_site_fract_z
 _atom_site_occupancy
  Gd  Gd0  1  0.290992  0.709008  0.750000  1
  Gd  Gd1  1  0.709008  0.290992  0.250000  1
  Gd  Gd2  1  0.093369  0.906631  0.250000  1
  Gd  Gd3  1  0.906631  0.093369  0.750000  1
  P  P4  1  0.378017  0.232677  0.826781  1
  P  P5  1  0.621983  0.767323  0.173219  1
  P  P6  1  0.767323  0.621983  0.673219  1
  P  P7  1  0.232677  0.378017  0.326781  1
  N  N8  1  0.970906  0.759199  0.693803  1
  N  N9  1  0.770209  0.391518  0.773918  1
  N  N10  1  0.759199  0.970906  0.193803  1
  N  N11  1  0.229791  0.608482  0.226082  1
  N  N12  1  0.029094  0.240801  0.306197  1
  N  N13  1  0.240801  0.029094  0.806197  1
  N  N14  1  0.608482  0.229791  0.726082  1
  N  N15  1  0.608157  0.705771  0.860315  1
  N  N16  1  0.391843  0.294229  0.139685  1
  N  N17  1  0.391518  0.770209  0.273918  1
  N  N18  1  0.705771  0.608157  0.360315  1
  N  N19  1  0.294229  0.391843  0.639685  1
