# generated using pymatgen
data_K3Cr(BrO3)6
_symmetry_space_group_name_H-M   'P 1'
_cell_length_a   7.24033604
_cell_length_b   7.21955263
_cell_length_c   10.63443514
_cell_angle_alpha   97.64843763
_cell_angle_beta   110.00716201
_cell_angle_gamma   105.71997110
_symmetry_Int_Tables_number   1
_chemical_formula_structural   K3Cr(BrO3)6
_chemical_formula_sum   'K3 Cr1 Br6 O18'
_cell_volume   486.88072436
_cell_formula_units_Z   1
loop_
 _symmetry_equiv_pos_site_id
 _symmetry_equiv_pos_as_xyz
  1  'x, y, z'
loop_
 _atom_site_type_symbol
 _atom_site_label
 _atom_site_symmetry_multiplicity
 _atom_site_fract_x
 _atom_site_fract_y
 _atom_site_fract_z
 _atom_site_occupancy
  K  K0  1  0.375644  0.550296  0.283714  1
  K  K1  1  0.624356  0.449704  0.716286  1
  K  K2  1  0.000000  0.500000  0.500000  1
  Cr  Cr3  1  0.000000  0.000000  0.000000  1
  Br  Br4  1  0.512446  0.048625  0.189222  1
  Br  Br5  1  0.487554  0.951375  0.810778  1
  Br  Br6  1  0.792141  0.578529  0.108400  1
  Br  Br7  1  0.207859  0.421471  0.891600  1
  Br  Br8  1  0.117444  0.087190  0.361481  1
  Br  Br9  1  0.882556  0.912810  0.638519  1
  O  O10  1  0.621356  0.676741  0.134586  1
  O  O11  1  0.378644  0.323259  0.865414  1
  O  O12  1  0.003628  0.354030  0.739366  1
  O  O13  1  0.996372  0.645970  0.260634  1
  O  O14  1  0.588566  0.296631  0.240684  1
  O  O15  1  0.411434  0.703369  0.759316  1
  O  O16  1  0.065744  0.133468  0.197990  1
  O  O17  1  0.934256  0.866532  0.802010  1
  O  O18  1  0.285361  0.973720  0.037873  1
  O  O19  1  0.714639  0.026280  0.962127  1
  O  O20  1  0.291313  0.309549  0.459083  1
  O  O21  1  0.708687  0.690451  0.540917  1
  O  O22  1  0.900638  0.085786  0.384271  1
  O  O23  1  0.099362  0.914214  0.615729  1
  O  O24  1  0.566517  0.039708  0.693647  1
  O  O25  1  0.433483  0.960292  0.306353  1
  O  O26  1  0.111582  0.295393  0.997301  1
  O  O27  1  0.888418  0.704607  0.002699  1
