# generated using pymatgen
data_PrTh7VSe17
_symmetry_space_group_name_H-M   'P 1'
_cell_length_a   8.46806358
_cell_length_b   8.44737216
_cell_length_c   11.20058703
_cell_angle_alpha   80.61375792
_cell_angle_beta   80.47758491
_cell_angle_gamma   64.89850325
_symmetry_Int_Tables_number   1
_chemical_formula_structural   PrTh7VSe17
_chemical_formula_sum   'Pr1 Th7 V1 Se17'
_cell_volume   711.66235382
_cell_formula_units_Z   1
loop_
 _symmetry_equiv_pos_site_id
 _symmetry_equiv_pos_as_xyz
  1  'x, y, z'
loop_
 _atom_site_type_symbol
 _atom_site_label
 _atom_site_symmetry_multiplicity
 _atom_site_fract_x
 _atom_site_fract_y
 _atom_site_fract_z
 _atom_site_occupancy
  Pr  Pr0  1  0.813233  0.303485  0.296577  1
  Th  Th1  1  0.302044  0.814846  0.293972  1
  Th  Th2  1  0.184833  0.698451  0.704216  1
  Th  Th3  1  0.698068  0.186141  0.703510  1
  Th  Th4  1  0.203020  0.204029  0.543162  1
  Th  Th5  1  0.795584  0.796523  0.455056  1
  Th  Th6  1  0.682532  0.679959  0.981372  1
  Th  Th7  1  0.317575  0.318084  0.021611  1
  V  V8  1  0.000770  0.001576  0.001898  1
  Se  Se9  1  0.823447  0.432932  0.535710  1
  Se  Se10  1  0.431916  0.820734  0.531830  1
  Se  Se11  1  0.178074  0.567869  0.468598  1
  Se  Se12  1  0.567341  0.174506  0.472116  1
  Se  Se13  1  0.947415  0.320762  0.023051  1
  Se  Se14  1  0.321635  0.945719  0.026787  1
  Se  Se15  1  0.054424  0.679810  0.971236  1
  Se  Se16  1  0.678775  0.055686  0.971373  1
  Se  Se17  1  0.215569  0.205542  0.277953  1
  Se  Se18  1  0.790848  0.790348  0.722741  1
  Se  Se19  1  0.059326  0.058803  0.775845  1
  Se  Se20  1  0.943451  0.934504  0.223674  1
  Se  Se21  1  0.302739  0.303472  0.755413  1
  Se  Se22  1  0.692794  0.704353  0.243167  1
  Se  Se23  1  0.519532  0.521084  0.832099  1
  Se  Se24  1  0.473332  0.484992  0.164334  1
  Se  Se25  1  0.001723  0.995788  0.502699  1
