# generated using pymatgen
data_Dy17Hf2MgIr12
_symmetry_space_group_name_H-M   'P 1'
_cell_length_a   10.82746600
_cell_length_b   10.82746600
_cell_length_c   6.29213800
_cell_angle_alpha   90.00000000
_cell_angle_beta   90.00000000
_cell_angle_gamma   90.00000000
_symmetry_Int_Tables_number   1
_chemical_formula_structural   Dy17Hf2MgIr12
_chemical_formula_sum   'Dy17 Hf2 Mg1 Ir12'
_cell_volume   737.65263202
_cell_formula_units_Z   1
loop_
 _symmetry_equiv_pos_site_id
 _symmetry_equiv_pos_as_xyz
  1  'x, y, z'
loop_
 _atom_site_type_symbol
 _atom_site_label
 _atom_site_symmetry_multiplicity
 _atom_site_fract_x
 _atom_site_fract_y
 _atom_site_fract_z
 _atom_site_occupancy
  Dy  Dy0  1  0.284784  0.083287  0.377754  1
  Dy  Dy1  1  0.292281  0.911820  0.878792  1
  Dy  Dy2  1  0.707719  0.088180  0.878792  1
  Dy  Dy3  1  0.715216  0.916713  0.377754  1
  Dy  Dy4  1  0.587468  0.789145  0.878023  1
  Dy  Dy5  1  0.585150  0.210349  0.376438  1
  Dy  Dy6  1  0.414850  0.789651  0.376438  1
  Dy  Dy7  1  0.412532  0.210855  0.878023  1
  Dy  Dy8  1  0.210349  0.414850  0.623562  1
  Dy  Dy9  1  0.210855  0.587468  0.121977  1
  Dy  Dy10  1  0.789145  0.412532  0.121977  1
  Dy  Dy11  1  0.789651  0.585150  0.623562  1
  Dy  Dy12  1  0.911820  0.707719  0.121208  1
  Dy  Dy13  1  0.916713  0.284784  0.622246  1
  Dy  Dy14  1  0.083287  0.715216  0.622246  1
  Dy  Dy15  1  0.088180  0.292281  0.121208  1
  Dy  Dy16  1  0.000000  0.000000  0.000000  1
  Hf  Hf17  1  0.500000  0.500000  0.000000  1
  Hf  Hf18  1  0.500000  0.500000  0.500000  1
  Mg  Mg19  1  0.000000  0.000000  0.500000  1
  Ir  Ir20  1  0.844992  0.156244  0.246845  1
  Ir  Ir21  1  0.843756  0.844992  0.753155  1
  Ir  Ir22  1  0.156244  0.155008  0.753155  1
  Ir  Ir23  1  0.155008  0.843756  0.246845  1
  Ir  Ir24  1  0.641958  0.357929  0.748811  1
  Ir  Ir25  1  0.642071  0.641958  0.251189  1
  Ir  Ir26  1  0.357929  0.358042  0.251189  1
  Ir  Ir27  1  0.358042  0.642071  0.748811  1
  Ir  Ir28  1  0.500000  0.000000  0.125313  1
  Ir  Ir29  1  0.500000  0.000000  0.621933  1
  Ir  Ir30  1  0.000000  0.500000  0.874687  1
  Ir  Ir31  1  0.000000  0.500000  0.378067  1
