# generated using pymatgen
data_PrSm11Nb8(WN4)12
_symmetry_space_group_name_H-M   'P 1'
_cell_length_a   11.26628958
_cell_length_b   11.26454466
_cell_length_c   11.26454520
_cell_angle_alpha   109.38483576
_cell_angle_beta   109.51128481
_cell_angle_gamma   109.51128560
_symmetry_Int_Tables_number   1
_chemical_formula_structural   PrSm11Nb8(WN4)12
_chemical_formula_sum   'Pr1 Sm11 Nb8 W12 N48'
_cell_volume   1100.57417635
_cell_formula_units_Z   1
loop_
 _symmetry_equiv_pos_site_id
 _symmetry_equiv_pos_as_xyz
  1  'x, y, z'
loop_
 _atom_site_type_symbol
 _atom_site_label
 _atom_site_symmetry_multiplicity
 _atom_site_fract_x
 _atom_site_fract_y
 _atom_site_fract_z
 _atom_site_occupancy
  Pr  Pr0  1  0.750000  0.625000  0.875000  1
  Sm  Sm1  1  0.374930  0.749958  0.125073  1
  Sm  Sm2  1  0.250000  0.375000  0.125000  1
  Sm  Sm3  1  0.374930  0.124972  0.249856  1
  Sm  Sm4  1  0.875315  0.625119  0.250562  1
  Sm  Sm5  1  0.750000  0.124999  0.375000  1
  Sm  Sm6  1  0.125070  0.250144  0.375028  1
  Sm  Sm7  1  0.875315  0.750196  0.624753  1
  Sm  Sm8  1  0.250000  0.875000  0.625000  1
  Sm  Sm9  1  0.125069  0.374926  0.750042  1
  Sm  Sm10  1  0.624685  0.875247  0.749804  1
  Sm  Sm11  1  0.624685  0.249438  0.874881  1
  Nb  Nb12  1  0.999684  0.000376  0.999871  1
  Nb  Nb13  1  0.500034  0.000276  0.999891  1
  Nb  Nb14  1  0.999684  0.499309  0.999813  1
  Nb  Nb15  1  0.500316  0.500187  0.000691  1
  Nb  Nb16  1  0.999966  0.999856  0.500242  1
  Nb  Nb17  1  0.500034  0.999758  0.500144  1
  Nb  Nb18  1  0.999966  0.500109  0.499724  1
  Nb  Nb19  1  0.500316  0.500129  0.499624  1
  W  W20  1  0.875088  0.249938  0.125003  1
  W  W21  1  0.750000  0.876371  0.126371  1
  W  W22  1  0.624912  0.374997  0.250063  1
  W  W23  1  0.125498  0.875392  0.250661  1
  W  W24  1  0.250000  0.624854  0.374854  1
  W  W25  1  0.624913  0.749916  0.374849  1
  W  W26  1  0.374502  0.249340  0.624608  1
  W  W27  1  0.750000  0.373629  0.623630  1
  W  W28  1  0.875088  0.125151  0.750084  1
  W  W29  1  0.374502  0.625163  0.749894  1
  W  W30  1  0.250001  0.125146  0.875146  1
  W  W31  1  0.125498  0.750106  0.874838  1
  N  N32  1  0.203527  0.118267  0.019165  1
  N  N33  1  0.315870  0.901160  0.018953  1
  N  N34  1  0.882141  0.400987  0.085415  1
  N  N35  1  0.702416  0.685850  0.088110  1
  N  N36  1  0.617859  0.414586  0.099014  1
  N  N37  1  0.983210  0.684169  0.100720  1
  N  N38  1  0.598421  0.915004  0.118186  1
  N  N39  1  0.019320  0.203761  0.118063  1
  N  N40  1  0.203527  0.585261  0.184362  1
  N  N41  1  0.480680  0.598743  0.184441  1
  N  N42  1  0.585374  0.184429  0.203145  1
  N  N43  1  0.117793  0.018830  0.203045  1
  N  N44  1  0.480680  0.381939  0.296239  1
  N  N45  1  0.315870  0.914711  0.296917  1
  N  N46  1  0.914626  0.296855  0.315570  1
  N  N47  1  0.901578  0.019763  0.316582  1
  N  N48  1  0.296473  0.480835  0.381735  1
  N  N49  1  0.585374  0.900945  0.382229  1
  N  N50  1  0.815845  0.518891  0.400994  1
  N  N51  1  0.085348  0.882351  0.401427  1
  N  N52  1  0.098959  0.617759  0.414577  1
  N  N53  1  0.815845  0.796953  0.414852  1
  N  N54  1  0.598422  0.183417  0.480236  1
  N  N55  1  0.382209  0.296955  0.481170  1
  N  N56  1  0.617859  0.703273  0.518844  1
  N  N57  1  0.401042  0.815618  0.518799  1
  N  N58  1  0.184129  0.203083  0.585289  1
  N  N59  1  0.901579  0.381814  0.584996  1
  N  N60  1  0.914626  0.117771  0.599055  1
  N  N61  1  0.184129  0.481046  0.598840  1
  N  N62  1  0.414653  0.098574  0.617649  1
  N  N63  1  0.702416  0.516565  0.614306  1
  N  N64  1  0.085347  0.702996  0.683920  1
  N  N65  1  0.098958  0.981200  0.684381  1
  N  N66  1  0.684154  0.085148  0.703046  1
  N  N67  1  0.516789  0.617510  0.700959  1
  N  N68  1  0.414653  0.816079  0.797003  1
  N  N69  1  0.882141  0.981156  0.796727  1
  N  N70  1  0.516789  0.399280  0.815830  1
  N  N71  1  0.797583  0.411890  0.814149  1
  N  N72  1  0.401042  0.085424  0.882241  1
  N  N73  1  0.983211  0.799041  0.882490  1
  N  N74  1  0.019319  0.315558  0.901257  1
  N  N75  1  0.382208  0.585253  0.901039  1
  N  N76  1  0.296473  0.315637  0.914739  1
  N  N77  1  0.117792  0.598961  0.914747  1
  N  N78  1  0.684154  0.099006  0.981108  1
  N  N79  1  0.797584  0.885694  0.983435  1
