# generated using pymatgen
data_Dy20GaBi7Pt4
_symmetry_space_group_name_H-M   'P 1'
_cell_length_a   8.04765215
_cell_length_b   9.01118352
_cell_length_c   12.39292665
_cell_angle_alpha   90.10673208
_cell_angle_beta   89.95200814
_cell_angle_gamma   90.14166658
_symmetry_Int_Tables_number   1
_chemical_formula_structural   Dy20GaBi7Pt4
_chemical_formula_sum   'Dy20 Ga1 Bi7 Pt4'
_cell_volume   898.71642381
_cell_formula_units_Z   1
loop_
 _symmetry_equiv_pos_site_id
 _symmetry_equiv_pos_as_xyz
  1  'x, y, z'
loop_
 _atom_site_type_symbol
 _atom_site_label
 _atom_site_symmetry_multiplicity
 _atom_site_fract_x
 _atom_site_fract_y
 _atom_site_fract_z
 _atom_site_occupancy
  Dy  Dy0  1  0.829750  0.740212  0.788849  1
  Dy  Dy1  1  0.161634  0.248339  0.205748  1
  Dy  Dy2  1  0.344009  0.260786  0.715634  1
  Dy  Dy3  1  0.660077  0.751291  0.289424  1
  Dy  Dy4  1  0.381983  0.739027  0.704906  1
  Dy  Dy5  1  0.626008  0.249500  0.302329  1
  Dy  Dy6  1  0.856808  0.260553  0.801824  1
  Dy  Dy7  1  0.128413  0.750719  0.198745  1
  Dy  Dy8  1  0.952731  0.751854  0.499461  1
  Dy  Dy9  1  0.050846  0.248259  0.501628  1
  Dy  Dy10  1  0.463634  0.263609  0.992030  1
  Dy  Dy11  1  0.547382  0.735816  0.993022  1
  Dy  Dy12  1  0.681020  0.044270  0.568051  1
  Dy  Dy13  1  0.321986  0.954842  0.434234  1
  Dy  Dy14  1  0.180520  0.958891  0.933735  1
  Dy  Dy15  1  0.321842  0.544367  0.433825  1
  Dy  Dy16  1  0.817218  0.040319  0.064580  1
  Dy  Dy17  1  0.674962  0.456442  0.576209  1
  Dy  Dy18  1  0.819853  0.457767  0.063930  1
  Dy  Dy19  1  0.184967  0.541147  0.931931  1
  Ga  Ga20  1  0.566211  0.494322  0.828425  1
  Bi  Bi21  1  0.428902  0.508963  0.174518  1
  Bi  Bi22  1  0.069652  0.510153  0.671275  1
  Bi  Bi23  1  0.430597  0.991139  0.167192  1
  Bi  Bi24  1  0.930566  0.489455  0.327896  1
  Bi  Bi25  1  0.569449  0.007879  0.828290  1
  Bi  Bi26  1  0.929643  0.010390  0.326606  1
  Bi  Bi27  1  0.071082  0.990916  0.675906  1
  Pt  Pt28  1  0.575141  0.749698  0.512494  1
  Pt  Pt29  1  0.426864  0.248740  0.490638  1
  Pt  Pt30  1  0.066386  0.251002  0.986548  1
  Pt  Pt31  1  0.929863  0.749333  0.010118  1
