# generated using pymatgen
data_Li2Nd2Si2Sn
_symmetry_space_group_name_H-M   'P 1'
_cell_length_a   9.80767117
_cell_length_b   9.80767141
_cell_length_c   6.87787400
_cell_angle_alpha   90.00000000
_cell_angle_beta   90.00000000
_cell_angle_gamma   153.24389720
_symmetry_Int_Tables_number   1
_chemical_formula_structural   Li2Nd2Si2Sn
_chemical_formula_sum   'Li4 Nd4 Si4 Sn2'
_cell_volume   297.84155509
_cell_formula_units_Z   2
loop_
 _symmetry_equiv_pos_site_id
 _symmetry_equiv_pos_as_xyz
  1  'x, y, z'
loop_
 _atom_site_type_symbol
 _atom_site_label
 _atom_site_symmetry_multiplicity
 _atom_site_fract_x
 _atom_site_fract_y
 _atom_site_fract_z
 _atom_site_occupancy
  Li  Li0  1  0.184351  0.815649  0.055274  1
  Li  Li1  1  0.184351  0.815649  0.444726  1
  Li  Li2  1  0.815649  0.184351  0.944726  1
  Li  Li3  1  0.815649  0.184351  0.555274  1
  Nd  Nd4  1  0.349906  0.650094  0.250000  1
  Nd  Nd5  1  0.650094  0.349906  0.750000  1
  Nd  Nd6  1  0.548249  0.451751  0.250000  1
  Nd  Nd7  1  0.451751  0.548249  0.750000  1
  Si  Si8  1  0.056999  0.943001  0.925465  1
  Si  Si9  1  0.943001  0.056999  0.074535  1
  Si  Si10  1  0.943001  0.056999  0.425465  1
  Si  Si11  1  0.056999  0.943001  0.574535  1
  Sn  Sn12  1  0.719059  0.280941  0.250000  1
  Sn  Sn13  1  0.280941  0.719059  0.750000  1
