# generated using pymatgen
data_Nd3Tm5(CdIr)2
_symmetry_space_group_name_H-M   'P 1'
_cell_length_a   9.68685790
_cell_length_b   9.68685845
_cell_length_c   9.68685800
_cell_angle_alpha   60.00000153
_cell_angle_beta   59.99999967
_cell_angle_gamma   60.00000164
_symmetry_Int_Tables_number   1
_chemical_formula_structural   Nd3Tm5(CdIr)2
_chemical_formula_sum   'Nd6 Tm10 Cd4 Ir4'
_cell_volume   642.73777893
_cell_formula_units_Z   2
loop_
 _symmetry_equiv_pos_site_id
 _symmetry_equiv_pos_as_xyz
  1  'x, y, z'
loop_
 _atom_site_type_symbol
 _atom_site_label
 _atom_site_symmetry_multiplicity
 _atom_site_fract_x
 _atom_site_fract_y
 _atom_site_fract_z
 _atom_site_occupancy
  Nd  Nd0  1  0.941190  0.558810  0.558810  1
  Nd  Nd1  1  0.558810  0.941190  0.941190  1
  Nd  Nd2  1  0.558810  0.941190  0.558810  1
  Nd  Nd3  1  0.941190  0.558810  0.941190  1
  Nd  Nd4  1  0.558810  0.558810  0.941190  1
  Nd  Nd5  1  0.941190  0.941190  0.558810  1
  Tm  Tm6  1  0.346793  0.346793  0.346793  1
  Tm  Tm7  1  0.346793  0.346793  0.959622  1
  Tm  Tm8  1  0.346793  0.959622  0.346793  1
  Tm  Tm9  1  0.959622  0.346793  0.346793  1
  Tm  Tm10  1  0.813362  0.186638  0.186638  1
  Tm  Tm11  1  0.186638  0.813362  0.813362  1
  Tm  Tm12  1  0.186638  0.813362  0.186638  1
  Tm  Tm13  1  0.813362  0.186638  0.813362  1
  Tm  Tm14  1  0.186638  0.186638  0.813362  1
  Tm  Tm15  1  0.813362  0.813362  0.186638  1
  Cd  Cd16  1  0.579308  0.579308  0.579308  1
  Cd  Cd17  1  0.579308  0.579308  0.262074  1
  Cd  Cd18  1  0.579308  0.262074  0.579308  1
  Cd  Cd19  1  0.262074  0.579308  0.579308  1
  Ir  Ir20  1  0.141233  0.141233  0.141233  1
  Ir  Ir21  1  0.141233  0.141233  0.576301  1
  Ir  Ir22  1  0.141233  0.576301  0.141233  1
  Ir  Ir23  1  0.576301  0.141233  0.141233  1
