# generated using pymatgen
data_NaNd(YTe2)2
_symmetry_space_group_name_H-M   'P 1'
_cell_length_a   8.83997863
_cell_length_b   8.83997832
_cell_length_c   8.90802100
_cell_angle_alpha   59.74504061
_cell_angle_beta   59.74504178
_cell_angle_gamma   59.71225074
_symmetry_Int_Tables_number   1
_chemical_formula_structural   NaNd(YTe2)2
_chemical_formula_sum   'Na2 Nd2 Y4 Te8'
_cell_volume   489.25826860
_cell_formula_units_Z   2
loop_
 _symmetry_equiv_pos_site_id
 _symmetry_equiv_pos_as_xyz
  1  'x, y, z'
loop_
 _atom_site_type_symbol
 _atom_site_label
 _atom_site_symmetry_multiplicity
 _atom_site_fract_x
 _atom_site_fract_y
 _atom_site_fract_z
 _atom_site_occupancy
  Na  Na0  1  0.125000  0.625000  0.125000  1
  Na  Na1  1  0.625000  0.125000  0.125000  1
  Nd  Nd2  1  0.125000  0.125000  0.625000  1
  Nd  Nd3  1  0.125000  0.125000  0.125000  1
  Y  Y4  1  0.625000  0.125000  0.625000  1
  Y  Y5  1  0.625000  0.625000  0.625000  1
  Y  Y6  1  0.125000  0.625000  0.625000  1
  Y  Y7  1  0.625000  0.625000  0.125000  1
  Te  Te8  1  0.382310  0.868376  0.374657  1
  Te  Te9  1  0.867690  0.381624  0.875343  1
  Te  Te10  1  0.871305  0.871305  0.381779  1
  Te  Te11  1  0.871305  0.871305  0.875610  1
  Te  Te12  1  0.868376  0.382310  0.374657  1
  Te  Te13  1  0.378695  0.378695  0.868221  1
  Te  Te14  1  0.378695  0.378695  0.374390  1
  Te  Te15  1  0.381624  0.867690  0.875343  1
