# generated using pymatgen
data_TbYbHo8(In2Pt)4
_symmetry_space_group_name_H-M   'P 1'
_cell_length_a   3.60695200
_cell_length_b   8.17241598
_cell_length_c   18.29428419
_cell_angle_alpha   89.94388308
_cell_angle_beta   90.00000000
_cell_angle_gamma   90.00000000
_symmetry_Int_Tables_number   1
_chemical_formula_structural   TbYbHo8(In2Pt)4
_chemical_formula_sum   'Tb1 Yb1 Ho8 In8 Pt4'
_cell_volume   539.26972619
_cell_formula_units_Z   1
loop_
 _symmetry_equiv_pos_site_id
 _symmetry_equiv_pos_as_xyz
  1  'x, y, z'
loop_
 _atom_site_type_symbol
 _atom_site_label
 _atom_site_symmetry_multiplicity
 _atom_site_fract_x
 _atom_site_fract_y
 _atom_site_fract_z
 _atom_site_occupancy
  Tb  Tb0  1  0.000000  0.500000  0.500000  1
  Yb  Yb1  1  0.000000  0.000000  0.000000  1
  Ho  Ho2  1  0.000000  0.117573  0.414351  1
  Ho  Ho3  1  0.000000  0.882427  0.585649  1
  Ho  Ho4  1  0.000000  0.382091  0.914326  1
  Ho  Ho5  1  0.000000  0.617909  0.085674  1
  Ho  Ho6  1  0.000000  0.243024  0.220219  1
  Ho  Ho7  1  0.000000  0.756976  0.779781  1
  Ho  Ho8  1  0.000000  0.257107  0.720251  1
  Ho  Ho9  1  0.000000  0.742893  0.279749  1
  In  In10  1  0.500000  0.423767  0.350480  1
  In  In11  1  0.500000  0.576233  0.649520  1
  In  In12  1  0.500000  0.076079  0.850524  1
  In  In13  1  0.500000  0.923921  0.149476  1
  In  In14  1  0.500000  0.293102  0.066921  1
  In  In15  1  0.500000  0.706898  0.933079  1
  In  In16  1  0.500000  0.206938  0.566815  1
  In  In17  1  0.500000  0.793062  0.433185  1
  Pt  Pt18  1  0.500000  0.024726  0.303442  1
  Pt  Pt19  1  0.500000  0.975274  0.696558  1
  Pt  Pt20  1  0.500000  0.476131  0.803307  1
  Pt  Pt21  1  0.500000  0.523869  0.196693  1
