# generated using pymatgen
data_NaCaH9W
_symmetry_space_group_name_H-M   'P 1'
_cell_length_a   8.64364056
_cell_length_b   8.66196619
_cell_length_c   5.04288500
_cell_angle_alpha   90.00000000
_cell_angle_beta   90.00000000
_cell_angle_gamma   119.33214752
_symmetry_Int_Tables_number   1
_chemical_formula_structural   NaCaH9W
_chemical_formula_sum   'Na3 Ca3 H27 W3'
_cell_volume   329.15950311
_cell_formula_units_Z   3
loop_
 _symmetry_equiv_pos_site_id
 _symmetry_equiv_pos_as_xyz
  1  'x, y, z'
loop_
 _atom_site_type_symbol
 _atom_site_label
 _atom_site_symmetry_multiplicity
 _atom_site_fract_x
 _atom_site_fract_y
 _atom_site_fract_z
 _atom_site_occupancy
  Na  Na0  1  0.734982  0.744869  0.500000  1
  Na  Na1  1  0.275406  0.000652  0.500000  1
  Na  Na2  1  0.584518  0.974598  0.000000  1
  Ca  Ca3  1  0.990471  0.251933  0.500000  1
  Ca  Ca4  1  0.005754  0.614789  0.000000  1
  Ca  Ca5  1  0.410916  0.390681  0.000000  1
  H  H6  1  0.822864  0.349396  0.749151  1
  H  H7  1  0.673643  0.487566  0.758238  1
  H  H8  1  0.531114  0.207291  0.753405  1
  H  H9  1  0.175025  0.510262  0.242370  1
  H  H10  1  0.531114  0.207291  0.246595  1
  H  H11  1  0.822864  0.349396  0.250849  1
  H  H12  1  0.673643  0.487566  0.241762  1
  H  H13  1  0.316104  0.790255  0.753622  1
  H  H14  1  0.464594  0.648418  0.749145  1
  H  H15  1  0.211146  0.006759  0.000000  1
  H  H16  1  0.813300  0.802764  0.000000  1
  H  H17  1  0.000422  0.205634  0.000000  1
  H  H18  1  0.858237  0.998309  0.245084  1
  H  H19  1  0.154103  0.151133  0.751958  1
  H  H20  1  0.011500  0.860907  0.755859  1
  H  H21  1  0.011500  0.860907  0.244141  1
  H  H22  1  0.154103  0.151133  0.248042  1
  H  H23  1  0.858237  0.998309  0.754916  1
  H  H24  1  0.122114  0.658702  0.500000  1
  H  H25  1  0.514978  0.848489  0.500000  1
  H  H26  1  0.308588  0.442735  0.500000  1
  H  H27  1  0.473541  0.348602  0.500000  1
  H  H28  1  0.865348  0.552750  0.500000  1
  H  H29  1  0.673742  0.146341  0.500000  1
  H  H30  1  0.175025  0.510262  0.757630  1
  H  H31  1  0.316104  0.790255  0.246378  1
  H  H32  1  0.464594  0.648418  0.250855  1
  W  W33  1  0.673932  0.347766  0.500000  1
  W  W34  1  0.317705  0.648908  0.500000  1
  W  W35  1  0.008765  0.005952  0.000000  1
