# generated using pymatgen
data_Pr4ZnGe2Pd27
_symmetry_space_group_name_H-M   'P 1'
_cell_length_a   9.02388651
_cell_length_b   9.02388651
_cell_length_c   7.22056971
_cell_angle_alpha   90.20128606
_cell_angle_beta   90.20128606
_cell_angle_gamma   88.79409918
_symmetry_Int_Tables_number   1
_chemical_formula_structural   Pr4ZnGe2Pd27
_chemical_formula_sum   'Pr4 Zn1 Ge2 Pd27'
_cell_volume   587.83747266
_cell_formula_units_Z   1
loop_
 _symmetry_equiv_pos_site_id
 _symmetry_equiv_pos_as_xyz
  1  'x, y, z'
loop_
 _atom_site_type_symbol
 _atom_site_label
 _atom_site_symmetry_multiplicity
 _atom_site_fract_x
 _atom_site_fract_y
 _atom_site_fract_z
 _atom_site_occupancy
  Pr  Pr0  1  0.507762  0.007762  0.933718  1
  Pr  Pr1  1  0.992238  0.492238  0.066282  1
  Pr  Pr2  1  0.002424  0.997576  0.500000  1
  Pr  Pr3  1  0.497576  0.502424  0.500000  1
  Zn  Zn4  1  0.250000  0.750000  0.000000  1
  Ge  Ge5  1  0.501533  0.001533  0.449480  1
  Ge  Ge6  1  0.998467  0.498467  0.550520  1
  Pd  Pd7  1  0.332394  0.832394  0.615638  1
  Pd  Pd8  1  0.328516  0.170123  0.624613  1
  Pd  Pd9  1  0.670123  0.828516  0.624613  1
  Pd  Pd10  1  0.669642  0.169642  0.619466  1
  Pd  Pd11  1  0.167606  0.667606  0.384362  1
  Pd  Pd12  1  0.171484  0.329877  0.375387  1
  Pd  Pd13  1  0.829877  0.671484  0.375387  1
  Pd  Pd14  1  0.830358  0.330358  0.380534  1
  Pd  Pd15  1  0.499299  0.768443  0.250912  1
  Pd  Pd16  1  0.497376  0.235048  0.253562  1
  Pd  Pd17  1  0.268443  0.999299  0.250912  1
  Pd  Pd18  1  0.735048  0.997376  0.253562  1
  Pd  Pd19  1  0.000701  0.731557  0.749088  1
  Pd  Pd20  1  0.002624  0.264952  0.746438  1
  Pd  Pd21  1  0.231557  0.500701  0.749088  1
  Pd  Pd22  1  0.764952  0.502624  0.746438  1
  Pd  Pd23  1  0.498737  0.353465  0.856618  1
  Pd  Pd24  1  0.493057  0.659685  0.864039  1
  Pd  Pd25  1  0.853465  0.998737  0.856618  1
  Pd  Pd26  1  0.159685  0.993057  0.864039  1
  Pd  Pd27  1  0.001263  0.146535  0.143382  1
  Pd  Pd28  1  0.006943  0.840315  0.135961  1
  Pd  Pd29  1  0.646535  0.501263  0.143382  1
  Pd  Pd30  1  0.340315  0.506943  0.135961  1
  Pd  Pd31  1  0.250000  0.250000  0.000000  1
  Pd  Pd32  1  0.750000  0.750000  0.000000  1
  Pd  Pd33  1  0.750000  0.250000  0.000000  1
