# generated using pymatgen
data_Nd3Th(FeB10)2
_symmetry_space_group_name_H-M   'P 1'
_cell_length_a   4.19151500
_cell_length_b   5.64632754
_cell_length_c   11.23857612
_cell_angle_alpha   90.10902736
_cell_angle_beta   90.00000000
_cell_angle_gamma   90.00000000
_symmetry_Int_Tables_number   1
_chemical_formula_structural   Nd3Th(FeB10)2
_chemical_formula_sum   'Nd3 Th1 Fe2 B20'
_cell_volume   265.97915226
_cell_formula_units_Z   1
loop_
 _symmetry_equiv_pos_site_id
 _symmetry_equiv_pos_as_xyz
  1  'x, y, z'
loop_
 _atom_site_type_symbol
 _atom_site_label
 _atom_site_symmetry_multiplicity
 _atom_site_fract_x
 _atom_site_fract_y
 _atom_site_fract_z
 _atom_site_occupancy
  Nd  Nd0  1  0.500000  0.291010  0.868555  1
  Nd  Nd1  1  0.500000  0.710444  0.130241  1
  Nd  Nd2  1  0.500000  0.789937  0.632654  1
  Th  Th3  1  0.500000  0.212851  0.369462  1
  Fe  Fe4  1  0.000000  0.497087  0.498771  1
  Fe  Fe5  1  0.000000  0.000104  0.000143  1
  B  B6  1  0.000000  0.126563  0.540060  1
  B  B7  1  0.000000  0.870469  0.460457  1
  B  B8  1  0.000000  0.628097  0.960077  1
  B  B9  1  0.000000  0.371530  0.039785  1
  B  B10  1  0.000000  0.152231  0.697516  1
  B  B11  1  0.000000  0.849767  0.303216  1
  B  B12  1  0.298493  0.203964  0.113591  1
  B  B13  1  0.298199  0.795555  0.886916  1
  B  B14  1  0.701465  0.704576  0.386548  1
  B  B15  1  0.702099  0.294013  0.612702  1
  B  B16  1  0.701801  0.795555  0.886916  1
  B  B17  1  0.701507  0.203964  0.113591  1
  B  B18  1  0.297901  0.294013  0.612702  1
  B  B19  1  0.298535  0.704576  0.386548  1
  B  B20  1  0.000000  0.038314  0.187665  1
  B  B21  1  0.000000  0.963085  0.813512  1
  B  B22  1  0.000000  0.539095  0.312330  1
  B  B23  1  0.000000  0.462521  0.686269  1
  B  B24  1  0.000000  0.348366  0.197216  1
  B  B25  1  0.000000  0.652312  0.802556  1
