# generated using pymatgen
data_Tb5Tm15(GaBi5)2
_symmetry_space_group_name_H-M   'P 1'
_cell_length_a   8.12598630
_cell_length_b   9.37473865
_cell_length_c   11.91224791
_cell_angle_alpha   90.02556396
_cell_angle_beta   90.05768457
_cell_angle_gamma   90.03764803
_symmetry_Int_Tables_number   1
_chemical_formula_structural   Tb5Tm15(GaBi5)2
_chemical_formula_sum   'Tb5 Tm15 Ga2 Bi10'
_cell_volume   907.46236142
_cell_formula_units_Z   1
loop_
 _symmetry_equiv_pos_site_id
 _symmetry_equiv_pos_as_xyz
  1  'x, y, z'
loop_
 _atom_site_type_symbol
 _atom_site_label
 _atom_site_symmetry_multiplicity
 _atom_site_fract_x
 _atom_site_fract_y
 _atom_site_fract_z
 _atom_site_occupancy
  Tb  Tb0  1  0.183775  0.568538  0.443436  1
  Tb  Tb1  1  0.312549  0.249801  0.219014  1
  Tb  Tb2  1  0.813474  0.250080  0.281102  1
  Tb  Tb3  1  0.677248  0.750221  0.786533  1
  Tb  Tb4  1  0.177347  0.750447  0.714379  1
  Tm  Tm5  1  0.354059  0.750187  0.205823  1
  Tm  Tm6  1  0.852276  0.750908  0.293265  1
  Tm  Tm7  1  0.652913  0.250968  0.782348  1
  Tm  Tm8  1  0.153153  0.251012  0.717931  1
  Tm  Tm9  1  0.683757  0.571910  0.056125  1
  Tm  Tm10  1  0.184297  0.927169  0.443022  1
  Tm  Tm11  1  0.309314  0.048914  0.940112  1
  Tm  Tm12  1  0.810173  0.451017  0.559675  1
  Tm  Tm13  1  0.309580  0.451632  0.940678  1
  Tm  Tm14  1  0.808490  0.048356  0.560204  1
  Tm  Tm15  1  0.683835  0.928336  0.056573  1
  Tm  Tm16  1  0.480667  0.250465  0.490557  1
  Tm  Tm17  1  0.980535  0.250226  0.009076  1
  Tm  Tm18  1  0.537447  0.749793  0.509860  1
  Tm  Tm19  1  0.036206  0.750505  0.990117  1
  Ga  Ga20  1  0.408478  0.750303  0.961833  1
  Ga  Ga21  1  0.908007  0.751072  0.538586  1
  Bi  Bi22  1  0.594694  0.249933  0.039369  1
  Bi  Bi23  1  0.094423  0.245860  0.461256  1
  Bi  Bi24  1  0.560597  0.995433  0.324697  1
  Bi  Bi25  1  0.060291  0.505406  0.174420  1
  Bi  Bi26  1  0.437632  0.497088  0.675614  1
  Bi  Bi27  1  0.938158  0.003591  0.824405  1
  Bi  Bi28  1  0.437838  0.003401  0.675665  1
  Bi  Bi29  1  0.937199  0.497158  0.824883  1
  Bi  Bi30  1  0.561536  0.504835  0.324542  1
  Bi  Bi31  1  0.060051  0.995432  0.174900  1
