# generated using pymatgen
data_Ca2CePrAl6O14
_symmetry_space_group_name_H-M   'P 1'
_cell_length_a   7.84988196
_cell_length_b   5.18430381
_cell_length_c   7.85503850
_cell_angle_alpha   90.24947155
_cell_angle_beta   89.89423927
_cell_angle_gamma   90.18004362
_symmetry_Int_Tables_number   1
_chemical_formula_structural   Ca2CePrAl6O14
_chemical_formula_sum   'Ca2 Ce1 Pr1 Al6 O14'
_cell_volume   319.66486067
_cell_formula_units_Z   1
loop_
 _symmetry_equiv_pos_site_id
 _symmetry_equiv_pos_as_xyz
  1  'x, y, z'
loop_
 _atom_site_type_symbol
 _atom_site_label
 _atom_site_symmetry_multiplicity
 _atom_site_fract_x
 _atom_site_fract_y
 _atom_site_fract_z
 _atom_site_occupancy
  Ca  Ca0  1  0.162754  0.520001  0.422257  1
  Ca  Ca1  1  0.662019  0.479039  0.577542  1
  Ce  Ce2  1  0.841149  0.509786  0.094081  1
  Pr  Pr3  1  0.341640  0.492040  0.905748  1
  Al  Al4  1  0.357608  0.962039  0.603262  1
  Al  Al5  1  0.857418  0.037786  0.396878  1
  Al  Al6  1  0.644068  0.958549  0.889534  1
  Al  Al7  1  0.144425  0.042138  0.110203  1
  Al  Al8  1  0.499727  0.998175  0.243859  1
  Al  Al9  1  0.000536  0.002149  0.756024  1
  O  O10  1  0.356426  0.299069  0.617409  1
  O  O11  1  0.856362  0.700692  0.381814  1
  O  O12  1  0.638313  0.295416  0.898789  1
  O  O13  1  0.137663  0.705316  0.101561  1
  O  O14  1  0.010427  0.186035  0.262741  1
  O  O15  1  0.510368  0.813971  0.736902  1
  O  O16  1  0.397514  0.816976  0.403628  1
  O  O17  1  0.898058  0.182326  0.596594  1
  O  O18  1  0.579349  0.792439  0.079777  1
  O  O19  1  0.082702  0.206774  0.919097  1
  O  O20  1  0.344571  0.191985  0.143739  1
  O  O21  1  0.844070  0.809323  0.857161  1
  O  O22  1  0.666345  0.191750  0.328129  1
  O  O23  1  0.166485  0.806226  0.673271  1
