# generated using pymatgen
data_Dy5Lu3(Ga3Pt)4
_symmetry_space_group_name_H-M   'P 1'
_cell_length_a   8.84858700
_cell_length_b   8.84858732
_cell_length_c   6.99948700
_cell_angle_alpha   90.00000000
_cell_angle_beta   90.00000000
_cell_angle_gamma   119.99865849
_symmetry_Int_Tables_number   1
_chemical_formula_structural   Dy5Lu3(Ga3Pt)4
_chemical_formula_sum   'Dy5 Lu3 Ga12 Pt4'
_cell_volume   474.62496717
_cell_formula_units_Z   1
loop_
 _symmetry_equiv_pos_site_id
 _symmetry_equiv_pos_as_xyz
  1  'x, y, z'
loop_
 _atom_site_type_symbol
 _atom_site_label
 _atom_site_symmetry_multiplicity
 _atom_site_fract_x
 _atom_site_fract_y
 _atom_site_fract_z
 _atom_site_occupancy
  Dy  Dy0  1  0.000094  0.999906  0.250000  1
  Dy  Dy1  1  0.999902  0.000098  0.750000  1
  Dy  Dy2  1  0.519738  0.039554  0.250000  1
  Dy  Dy3  1  0.519649  0.480351  0.250000  1
  Dy  Dy4  1  0.960446  0.480262  0.250000  1
  Lu  Lu5  1  0.479354  0.958612  0.750000  1
  Lu  Lu6  1  0.479469  0.520531  0.750000  1
  Lu  Lu7  1  0.041388  0.520646  0.750000  1
  Ga  Ga8  1  0.166948  0.334033  0.045895  1
  Ga  Ga9  1  0.167156  0.832844  0.454110  1
  Ga  Ga10  1  0.665967  0.833052  0.454105  1
  Ga  Ga11  1  0.665967  0.833052  0.045895  1
  Ga  Ga12  1  0.167156  0.832844  0.045890  1
  Ga  Ga13  1  0.832798  0.665463  0.951715  1
  Ga  Ga14  1  0.832590  0.167410  0.951727  1
  Ga  Ga15  1  0.334537  0.167202  0.951715  1
  Ga  Ga16  1  0.166948  0.334033  0.454105  1
  Ga  Ga17  1  0.334537  0.167202  0.548285  1
  Ga  Ga18  1  0.832798  0.665463  0.548285  1
  Ga  Ga19  1  0.832590  0.167410  0.548273  1
  Pt  Pt20  1  0.333402  0.666598  0.024494  1
  Pt  Pt21  1  0.333402  0.666598  0.475506  1
  Pt  Pt22  1  0.666582  0.333418  0.966884  1
  Pt  Pt23  1  0.666582  0.333418  0.533116  1
