# generated using pymatgen
data_Ce4In(FeB3)2
_symmetry_space_group_name_H-M   'P 1'
_cell_length_a   5.29033181
_cell_length_b   5.29033273
_cell_length_c   8.34723522
_cell_angle_alpha   71.52496985
_cell_angle_beta   71.52496395
_cell_angle_gamma   59.99999115
_symmetry_Int_Tables_number   1
_chemical_formula_structural   Ce4In(FeB3)2
_chemical_formula_sum   'Ce4 In1 Fe2 B6'
_cell_volume   188.28892980
_cell_formula_units_Z   1
loop_
 _symmetry_equiv_pos_site_id
 _symmetry_equiv_pos_as_xyz
  1  'x, y, z'
loop_
 _atom_site_type_symbol
 _atom_site_label
 _atom_site_symmetry_multiplicity
 _atom_site_fract_x
 _atom_site_fract_y
 _atom_site_fract_z
 _atom_site_occupancy
  Ce  Ce0  1  0.254660  0.254660  0.236020  1
  Ce  Ce1  1  0.745340  0.745340  0.763980  1
  Ce  Ce2  1  0.411963  0.411963  0.764112  1
  Ce  Ce3  1  0.588037  0.588037  0.235889  1
  In  In4  1  0.000000  0.000000  0.000000  1
  Fe  Fe5  1  0.117052  0.117052  0.648845  1
  Fe  Fe6  1  0.882948  0.882948  0.351155  1
  B  B7  1  0.168332  0.831668  0.500000  1
  B  B8  1  0.831668  0.500000  0.500000  1
  B  B9  1  0.500000  0.168332  0.500000  1
  B  B10  1  0.168332  0.500000  0.500000  1
  B  B11  1  0.500000  0.831668  0.500000  1
  B  B12  1  0.831668  0.168332  0.500000  1
