# generated using pymatgen
data_Sc2Al2IrAu
_symmetry_space_group_name_H-M   'P 1'
_cell_length_a   7.22661200
_cell_length_b   7.22661187
_cell_length_c   7.22796300
_cell_angle_alpha   90.00000000
_cell_angle_beta   90.00000000
_cell_angle_gamma   119.99999145
_symmetry_Int_Tables_number   1
_chemical_formula_structural   Sc2Al2IrAu
_chemical_formula_sum   'Sc6 Al6 Ir3 Au3'
_cell_volume   326.90085590
_cell_formula_units_Z   3
loop_
 _symmetry_equiv_pos_site_id
 _symmetry_equiv_pos_as_xyz
  1  'x, y, z'
loop_
 _atom_site_type_symbol
 _atom_site_label
 _atom_site_symmetry_multiplicity
 _atom_site_fract_x
 _atom_site_fract_y
 _atom_site_fract_z
 _atom_site_occupancy
  Sc  Sc0  1  0.608144  0.009901  0.758913  1
  Sc  Sc1  1  0.990099  0.598243  0.758913  1
  Sc  Sc2  1  0.401757  0.391856  0.758913  1
  Sc  Sc3  1  0.987795  0.597030  0.241140  1
  Sc  Sc4  1  0.609235  0.012205  0.241140  1
  Sc  Sc5  1  0.402970  0.390765  0.241140  1
  Al  Al6  1  0.732660  0.727282  0.999943  1
  Al  Al7  1  0.272718  0.005378  0.999943  1
  Al  Al8  1  0.994622  0.267340  0.999943  1
  Al  Al9  1  0.761081  0.766483  0.499750  1
  Al  Al10  1  0.233517  0.994598  0.499750  1
  Al  Al11  1  0.005402  0.238919  0.499750  1
  Ir  Ir12  1  0.000000  0.000000  0.773718  1
  Ir  Ir13  1  0.000000  0.000000  0.225513  1
  Ir  Ir14  1  0.666667  0.333333  0.999256  1
  Au  Au15  1  0.666667  0.333333  0.501960  1
  Au  Au16  1  0.333333  0.666667  0.498117  1
  Au  Au17  1  0.333333  0.666667  0.002196  1
