# generated using pymatgen
data_AcHo2Sc(ZnSn)4
_symmetry_space_group_name_H-M   'P 1'
_cell_length_a   4.52119900
_cell_length_b   4.52119809
_cell_length_c   16.26544800
_cell_angle_alpha   90.00000000
_cell_angle_beta   90.00000000
_cell_angle_gamma   119.99998474
_symmetry_Int_Tables_number   1
_chemical_formula_structural   AcHo2Sc(ZnSn)4
_chemical_formula_sum   'Ac1 Ho2 Sc1 Zn4 Sn4'
_cell_volume   287.94125022
_cell_formula_units_Z   1
loop_
 _symmetry_equiv_pos_site_id
 _symmetry_equiv_pos_as_xyz
  1  'x, y, z'
loop_
 _atom_site_type_symbol
 _atom_site_label
 _atom_site_symmetry_multiplicity
 _atom_site_fract_x
 _atom_site_fract_y
 _atom_site_fract_z
 _atom_site_occupancy
  Ac  Ac0  1  0.000000  0.000000  0.996962  1
  Ho  Ho1  1  0.000000  0.000000  0.261693  1
  Ho  Ho2  1  0.000000  0.000000  0.503593  1
  Sc  Sc3  1  0.000000  0.000000  0.738120  1
  Zn  Zn4  1  0.333333  0.666667  0.174571  1
  Zn  Zn5  1  0.666667  0.333333  0.819909  1
  Zn  Zn6  1  0.666667  0.333333  0.659006  1
  Zn  Zn7  1  0.333333  0.666667  0.346612  1
  Sn  Sn8  1  0.333333  0.666667  0.610730  1
  Sn  Sn9  1  0.666667  0.333333  0.393762  1
  Sn  Sn10  1  0.666667  0.333333  0.130519  1
  Sn  Sn11  1  0.333333  0.666667  0.864524  1
