# generated using pymatgen
data_Zr5Al(ZnRh2)6
_symmetry_space_group_name_H-M   'P 1'
_cell_length_a   4.46117600
_cell_length_b   6.26417200
_cell_length_c   13.30489800
_cell_angle_alpha   90.00000000
_cell_angle_beta   89.99732933
_cell_angle_gamma   90.00000000
_symmetry_Int_Tables_number   1
_chemical_formula_structural   Zr5Al(ZnRh2)6
_chemical_formula_sum   'Zr5 Al1 Zn6 Rh12'
_cell_volume   371.81300858
_cell_formula_units_Z   1
loop_
 _symmetry_equiv_pos_site_id
 _symmetry_equiv_pos_as_xyz
  1  'x, y, z'
loop_
 _atom_site_type_symbol
 _atom_site_label
 _atom_site_symmetry_multiplicity
 _atom_site_fract_x
 _atom_site_fract_y
 _atom_site_fract_z
 _atom_site_occupancy
  Zr  Zr0  1  0.000032  0.000000  0.994529  1
  Zr  Zr1  1  0.499702  0.499999  0.163928  1
  Zr  Zr2  1  0.999707  0.000000  0.333337  1
  Zr  Zr3  1  0.500005  0.499999  0.502742  1
  Zr  Zr4  1  0.000298  0.000000  0.672121  1
  Al  Al5  1  0.500303  0.499999  0.833349  1
  Zn  Zn6  1  0.999965  0.499999  0.001068  1
  Zn  Zn7  1  0.499738  0.000000  0.161036  1
  Zn  Zn8  1  0.999724  0.499999  0.333339  1
  Zn  Zn9  1  0.500011  0.000000  0.505618  1
  Zn  Zn10  1  0.000275  0.499999  0.665584  1
  Zn  Zn11  1  0.500272  0.000000  0.833343  1
  Rh  Rh12  1  0.500023  0.259525  0.991279  1
  Rh  Rh13  1  0.500023  0.740475  0.991279  1
  Rh  Rh14  1  0.999704  0.249101  0.165350  1
  Rh  Rh15  1  0.999704  0.750899  0.165350  1
  Rh  Rh16  1  0.499693  0.249610  0.333329  1
  Rh  Rh17  1  0.499693  0.750390  0.333329  1
  Rh  Rh18  1  0.999999  0.249102  0.501326  1
  Rh  Rh19  1  0.999999  0.750898  0.501326  1
  Rh  Rh20  1  0.500305  0.259517  0.675395  1
  Rh  Rh21  1  0.500305  0.740483  0.675395  1
  Rh  Rh22  1  0.000260  0.266132  0.833323  1
  Rh  Rh23  1  0.000260  0.733868  0.833323  1
