# generated using pymatgen
data_Dy2Ho8(InBi)3
_symmetry_space_group_name_H-M   'P 1'
_cell_length_a   9.04198806
_cell_length_b   9.04383761
_cell_length_c   6.54981600
_cell_angle_alpha   90.00000000
_cell_angle_beta   90.00000000
_cell_angle_gamma   120.00676897
_symmetry_Int_Tables_number   1
_chemical_formula_structural   Dy2Ho8(InBi)3
_chemical_formula_sum   'Dy2 Ho8 In3 Bi3'
_cell_volume   463.81713567
_cell_formula_units_Z   1
loop_
 _symmetry_equiv_pos_site_id
 _symmetry_equiv_pos_as_xyz
  1  'x, y, z'
loop_
 _atom_site_type_symbol
 _atom_site_label
 _atom_site_symmetry_multiplicity
 _atom_site_fract_x
 _atom_site_fract_y
 _atom_site_fract_z
 _atom_site_occupancy
  Dy  Dy0  1  0.762922  0.762954  0.750000  1
  Dy  Dy1  1  0.237078  0.000032  0.750000  1
  Ho  Ho2  1  0.666671  0.333326  0.006445  1
  Ho  Ho3  1  0.333329  0.666655  0.006445  1
  Ho  Ho4  1  0.333329  0.666655  0.493555  1
  Ho  Ho5  1  0.666671  0.333326  0.493555  1
  Ho  Ho6  1  0.000000  0.237081  0.750000  1
  Ho  Ho7  1  0.237684  0.237706  0.250000  1
  Ho  Ho8  1  0.762316  0.000022  0.250000  1
  Ho  Ho9  1  0.000000  0.762272  0.250000  1
  In  In10  1  0.606830  0.606833  0.250000  1
  In  In11  1  0.393170  0.000002  0.250000  1
  In  In12  1  0.000000  0.393191  0.250000  1
  Bi  Bi13  1  0.395759  0.395818  0.750000  1
  Bi  Bi14  1  0.604241  0.000060  0.750000  1
  Bi  Bi15  1  0.000000  0.604067  0.750000  1
