# generated using pymatgen
data_Tb3NdCuPt3
_symmetry_space_group_name_H-M   'P 1'
_cell_length_a   4.52562800
_cell_length_b   5.63885855
_cell_length_c   7.17385660
_cell_angle_alpha   89.27436072
_cell_angle_beta   90.00000000
_cell_angle_gamma   90.00000000
_symmetry_Int_Tables_number   1
_chemical_formula_structural   Tb3NdCuPt3
_chemical_formula_sum   'Tb3 Nd1 Cu1 Pt3'
_cell_volume   183.05766323
_cell_formula_units_Z   1
loop_
 _symmetry_equiv_pos_site_id
 _symmetry_equiv_pos_as_xyz
  1  'x, y, z'
loop_
 _atom_site_type_symbol
 _atom_site_label
 _atom_site_symmetry_multiplicity
 _atom_site_fract_x
 _atom_site_fract_y
 _atom_site_fract_z
 _atom_site_occupancy
  Tb  Tb0  1  0.000000  0.856887  0.819529  1
  Tb  Tb1  1  0.500000  0.364172  0.689659  1
  Tb  Tb2  1  0.500000  0.137446  0.175168  1
  Nd  Nd3  1  0.000000  0.638274  0.317523  1
  Cu  Cu4  1  0.000000  0.135910  0.466389  1
  Pt  Pt5  1  0.000000  0.337342  0.952077  1
  Pt  Pt6  1  0.500000  0.874171  0.540885  1
  Pt  Pt7  1  0.500000  0.655799  0.038771  1
