# generated using pymatgen
data_Dy3YNi2(B8Ir)2
_symmetry_space_group_name_H-M   'P 1'
_cell_length_a   6.91996653
_cell_length_b   6.91996658
_cell_length_c   6.91997100
_cell_angle_alpha   111.23401320
_cell_angle_beta   113.24825468
_cell_angle_gamma   104.06997747
_symmetry_Int_Tables_number   1
_chemical_formula_structural   Dy3YNi2(B8Ir)2
_chemical_formula_sum   'Dy3 Y1 Ni2 B16 Ir2'
_cell_volume   253.32262134
_cell_formula_units_Z   1
loop_
 _symmetry_equiv_pos_site_id
 _symmetry_equiv_pos_as_xyz
  1  'x, y, z'
loop_
 _atom_site_type_symbol
 _atom_site_label
 _atom_site_symmetry_multiplicity
 _atom_site_fract_x
 _atom_site_fract_y
 _atom_site_fract_z
 _atom_site_occupancy
  Dy  Dy0  1  0.209633  0.209633  0.000000  1
  Dy  Dy1  1  0.751687  0.251687  0.500000  1
  Dy  Dy2  1  0.248313  0.748313  0.500000  1
  Y  Y3  1  0.790368  0.790368  0.000000  1
  Ni  Ni4  1  0.500000  0.745307  0.245307  1
  Ni  Ni5  1  0.500000  0.254692  0.754693  1
  B  B6  1  0.273068  0.108334  0.381402  1
  B  B7  1  0.726933  0.891666  0.618598  1
  B  B8  1  0.273069  0.891665  0.164734  1
  B  B9  1  0.726932  0.108335  0.835266  1
  B  B10  1  0.110607  0.730820  0.841428  1
  B  B11  1  0.889393  0.269180  0.158572  1
  B  B12  1  0.110607  0.269179  0.379786  1
  B  B13  1  0.889393  0.730821  0.620214  1
  B  B14  1  0.115127  0.109645  0.528926  1
  B  B15  1  0.580718  0.586199  0.471074  1
  B  B16  1  0.115127  0.586200  0.005481  1
  B  B17  1  0.580718  0.109645  0.994519  1
  B  B18  1  0.884874  0.890355  0.471075  1
  B  B19  1  0.419281  0.413800  0.528925  1
  B  B20  1  0.884874  0.413799  0.994519  1
  B  B21  1  0.419281  0.890355  0.005481  1
  Ir  Ir22  1  0.276304  0.500000  0.776305  1
  Ir  Ir23  1  0.723695  0.500000  0.223695  1
