# generated using pymatgen
data_Pr5U(Co3P2)6
_symmetry_space_group_name_H-M   'P 1'
_cell_length_a   3.78801500
_cell_length_b   10.66091961
_cell_length_c   12.46554617
_cell_angle_alpha   90.35060723
_cell_angle_beta   90.00000000
_cell_angle_gamma   90.00000000
_symmetry_Int_Tables_number   1
_chemical_formula_structural   Pr5U(Co3P2)6
_chemical_formula_sum   'Pr5 U1 Co18 P12'
_cell_volume   503.39574343
_cell_formula_units_Z   1
loop_
 _symmetry_equiv_pos_site_id
 _symmetry_equiv_pos_as_xyz
  1  'x, y, z'
loop_
 _atom_site_type_symbol
 _atom_site_label
 _atom_site_symmetry_multiplicity
 _atom_site_fract_x
 _atom_site_fract_y
 _atom_site_fract_z
 _atom_site_occupancy
  Pr  Pr0  1  0.000000  0.499776  0.520334  1
  Pr  Pr1  1  0.500000  0.998795  0.479016  1
  Pr  Pr2  1  0.500000  0.183202  0.205457  1
  Pr  Pr3  1  0.000000  0.683439  0.793903  1
  Pr  Pr4  1  0.000000  0.317029  0.794787  1
  U  U5  1  0.500000  0.822516  0.209532  1
  Co  Co6  1  0.500000  0.500993  0.158442  1
  Co  Co7  1  0.000000  0.999770  0.843282  1
  Co  Co8  1  0.500000  0.499602  0.706210  1
  Co  Co9  1  0.000000  0.982154  0.287613  1
  Co  Co10  1  0.000000  0.503980  0.990742  1
  Co  Co11  1  0.500000  0.999271  0.013300  1
  Co  Co12  1  0.500000  0.335342  0.997041  1
  Co  Co13  1  0.500000  0.669857  0.000288  1
  Co  Co14  1  0.000000  0.167046  0.004709  1
  Co  Co15  1  0.000000  0.834408  0.004291  1
  Co  Co16  1  0.500000  0.295879  0.429198  1
  Co  Co17  1  0.500000  0.700069  0.425566  1
  Co  Co18  1  0.000000  0.201904  0.569420  1
  Co  Co19  1  0.000000  0.797571  0.569806  1
  Co  Co20  1  0.500000  0.882251  0.711532  1
  Co  Co21  1  0.500000  0.117649  0.711509  1
  Co  Co22  1  0.000000  0.622356  0.284867  1
  Co  Co23  1  0.000000  0.382500  0.288588  1
  P  P24  1  0.500000  0.502063  0.889105  1
  P  P25  1  0.000000  0.998214  0.110707  1
  P  P26  1  0.500000  0.498372  0.338541  1
  P  P27  1  0.000000  0.999534  0.661567  1
  P  P28  1  0.500000  0.304515  0.613710  1
  P  P29  1  0.500000  0.694481  0.612736  1
  P  P30  1  0.000000  0.192402  0.386048  1
  P  P31  1  0.000000  0.801748  0.386004  1
  P  P32  1  0.500000  0.849793  0.895050  1
  P  P33  1  0.500000  0.151328  0.896724  1
  P  P34  1  0.000000  0.659796  0.106439  1
  P  P35  1  0.000000  0.350400  0.103934  1
