# generated using pymatgen
data_PmZn4Cu
_symmetry_space_group_name_H-M   'P 1'
_cell_length_a   5.28024310
_cell_length_b   5.28014068
_cell_length_c   4.28697000
_cell_angle_alpha   90.00000000
_cell_angle_beta   90.00000000
_cell_angle_gamma   59.97545837
_symmetry_Int_Tables_number   1
_chemical_formula_structural   PmZn4Cu
_chemical_formula_sum   'Pm1 Zn4 Cu1'
_cell_volume   103.48395872
_cell_formula_units_Z   1
loop_
 _symmetry_equiv_pos_site_id
 _symmetry_equiv_pos_as_xyz
  1  'x, y, z'
loop_
 _atom_site_type_symbol
 _atom_site_label
 _atom_site_symmetry_multiplicity
 _atom_site_fract_x
 _atom_site_fract_y
 _atom_site_fract_z
 _atom_site_occupancy
  Pm  Pm0  1  0.000009  0.000010  0.000000  1
  Zn  Zn1  1  0.666670  0.666676  0.000000  1
  Zn  Zn2  1  0.498438  0.003912  0.499999  1
  Zn  Zn3  1  0.003911  0.497662  0.499999  1
  Zn  Zn4  1  0.497659  0.498435  0.499999  1
  Cu  Cu5  1  0.333308  0.333308  0.000000  1
