# generated using pymatgen
data_Er6TiAl23Os8
_symmetry_space_group_name_H-M   'P 1'
_cell_length_a   8.83323700
_cell_length_b   8.83323620
_cell_length_c   9.53273300
_cell_angle_alpha   90.00000000
_cell_angle_beta   90.00000000
_cell_angle_gamma   119.99999927
_symmetry_Int_Tables_number   1
_chemical_formula_structural   Er6TiAl23Os8
_chemical_formula_sum   'Er6 Ti1 Al23 Os8'
_cell_volume   644.15115578
_cell_formula_units_Z   1
loop_
 _symmetry_equiv_pos_site_id
 _symmetry_equiv_pos_as_xyz
  1  'x, y, z'
loop_
 _atom_site_type_symbol
 _atom_site_label
 _atom_site_symmetry_multiplicity
 _atom_site_fract_x
 _atom_site_fract_y
 _atom_site_fract_z
 _atom_site_occupancy
  Er  Er0  1  0.194556  0.389113  0.250329  1
  Er  Er1  1  0.806482  0.612964  0.748010  1
  Er  Er2  1  0.610887  0.805444  0.250329  1
  Er  Er3  1  0.387036  0.193518  0.748010  1
  Er  Er4  1  0.194556  0.805444  0.250329  1
  Er  Er5  1  0.806482  0.193518  0.748010  1
  Ti  Ti6  1  0.333333  0.666667  0.993183  1
  Al  Al7  1  0.666667  0.333333  0.980888  1
  Al  Al8  1  0.666667  0.333333  0.517043  1
  Al  Al9  1  0.333333  0.666667  0.481236  1
  Al  Al10  1  0.162370  0.324740  0.575539  1
  Al  Al11  1  0.837273  0.674546  0.424034  1
  Al  Al12  1  0.675260  0.837630  0.575539  1
  Al  Al13  1  0.836951  0.673902  0.077002  1
  Al  Al14  1  0.325454  0.162727  0.424034  1
  Al  Al15  1  0.159599  0.319198  0.925671  1
  Al  Al16  1  0.162370  0.837630  0.575539  1
  Al  Al17  1  0.326098  0.163049  0.077002  1
  Al  Al18  1  0.837273  0.162727  0.424034  1
  Al  Al19  1  0.680802  0.840401  0.925671  1
  Al  Al20  1  0.836951  0.163049  0.077002  1
  Al  Al21  1  0.159599  0.840401  0.925671  1
  Al  Al22  1  0.561514  0.123029  0.252985  1
  Al  Al23  1  0.441180  0.882360  0.750134  1
  Al  Al24  1  0.876971  0.438486  0.252985  1
  Al  Al25  1  0.117640  0.558820  0.750134  1
  Al  Al26  1  0.561514  0.438486  0.252985  1
  Al  Al27  1  0.441180  0.558820  0.750134  1
  Al  Al28  1  0.000000  0.000000  0.249993  1
  Al  Al29  1  0.000000  0.000000  0.749573  1
  Os  Os30  1  0.499171  0.998343  0.002711  1
  Os  Os31  1  0.001657  0.500829  0.002711  1
  Os  Os32  1  0.499575  0.999150  0.503019  1
  Os  Os33  1  0.499171  0.500829  0.002711  1
  Os  Os34  1  0.000850  0.500425  0.503019  1
  Os  Os35  1  0.499575  0.500425  0.503019  1
  Os  Os36  1  0.000000  0.000000  0.000020  1
  Os  Os37  1  0.000000  0.000000  0.499761  1
