# generated using pymatgen
data_Dy5Co16(Si4Tc)3
_symmetry_space_group_name_H-M   'P 1'
_cell_length_a   12.22161500
_cell_length_b   12.22161419
_cell_length_c   3.77652200
_cell_angle_alpha   90.00000000
_cell_angle_beta   90.00000000
_cell_angle_gamma   119.99999406
_symmetry_Int_Tables_number   1
_chemical_formula_structural   Dy5Co16(Si4Tc)3
_chemical_formula_sum   'Dy5 Co16 Si12 Tc3'
_cell_volume   488.51718436
_cell_formula_units_Z   1
loop_
 _symmetry_equiv_pos_site_id
 _symmetry_equiv_pos_as_xyz
  1  'x, y, z'
loop_
 _atom_site_type_symbol
 _atom_site_label
 _atom_site_symmetry_multiplicity
 _atom_site_fract_x
 _atom_site_fract_y
 _atom_site_fract_z
 _atom_site_occupancy
  Dy  Dy0  1  0.666667  0.333333  0.000000  1
  Dy  Dy1  1  0.333333  0.666667  0.000000  1
  Dy  Dy2  1  0.185362  0.185362  0.500000  1
  Dy  Dy3  1  0.814638  0.000000  0.500000  1
  Dy  Dy4  1  0.000000  0.814638  0.500000  1
  Co  Co5  1  0.819143  0.195938  0.000000  1
  Co  Co6  1  0.804062  0.623205  0.000000  1
  Co  Co7  1  0.376795  0.180857  0.000000  1
  Co  Co8  1  0.195938  0.819143  0.000000  1
  Co  Co9  1  0.623205  0.804062  0.000000  1
  Co  Co10  1  0.180857  0.376795  0.000000  1
  Co  Co11  1  0.644956  0.123727  0.500000  1
  Co  Co12  1  0.876273  0.521228  0.500000  1
  Co  Co13  1  0.478772  0.355044  0.500000  1
  Co  Co14  1  0.123727  0.644956  0.500000  1
  Co  Co15  1  0.521228  0.876273  0.500000  1
  Co  Co16  1  0.355044  0.478772  0.500000  1
  Co  Co17  1  0.719833  0.719833  0.500000  1
  Co  Co18  1  0.280167  0.000000  0.500000  1
  Co  Co19  1  0.000000  0.280167  0.500000  1
  Co  Co20  1  0.000000  0.000000  0.000000  1
  Si  Si21  1  0.368324  0.368324  0.000000  1
  Si  Si22  1  0.631676  0.000000  0.000000  1
  Si  Si23  1  0.000000  0.631676  0.000000  1
  Si  Si24  1  0.837034  0.314961  0.500000  1
  Si  Si25  1  0.685039  0.522073  0.500000  1
  Si  Si26  1  0.477927  0.162966  0.500000  1
  Si  Si27  1  0.314961  0.837034  0.500000  1
  Si  Si28  1  0.522073  0.685039  0.500000  1
  Si  Si29  1  0.162966  0.477927  0.500000  1
  Si  Si30  1  0.815416  0.815416  0.000000  1
  Si  Si31  1  0.184584  0.000000  0.000000  1
  Si  Si32  1  0.000000  0.184584  0.000000  1
  Tc  Tc33  1  0.563074  0.563074  0.000000  1
  Tc  Tc34  1  0.436926  0.000000  0.000000  1
  Tc  Tc35  1  0.000000  0.436926  0.000000  1
