# generated using pymatgen
data_Ho3Er17CoBi8Ru2Rh
_symmetry_space_group_name_H-M   'P 1'
_cell_length_a   7.94021856
_cell_length_b   8.93486200
_cell_length_c   12.36542162
_cell_angle_alpha   90.00000000
_cell_angle_beta   89.73705331
_cell_angle_gamma   90.00000000
_symmetry_Int_Tables_number   1
_chemical_formula_structural   Ho3Er17CoBi8Ru2Rh
_chemical_formula_sum   'Ho3 Er17 Co1 Bi8 Ru2 Rh1'
_cell_volume   877.25259463
_cell_formula_units_Z   1
loop_
 _symmetry_equiv_pos_site_id
 _symmetry_equiv_pos_as_xyz
  1  'x, y, z'
loop_
 _atom_site_type_symbol
 _atom_site_label
 _atom_site_symmetry_multiplicity
 _atom_site_fract_x
 _atom_site_fract_y
 _atom_site_fract_z
 _atom_site_occupancy
  Ho  Ho0  1  0.380918  0.250000  0.691891  1
  Ho  Ho1  1  0.945568  0.250000  0.502544  1
  Ho  Ho2  1  0.553100  0.250000  0.002306  1
  Er  Er3  1  0.345438  0.750000  0.699444  1
  Er  Er4  1  0.657005  0.250000  0.293836  1
  Er  Er5  1  0.842740  0.250000  0.793102  1
  Er  Er6  1  0.157905  0.750000  0.207176  1
  Er  Er7  1  0.878700  0.750000  0.805439  1
  Er  Er8  1  0.119259  0.250000  0.192364  1
  Er  Er9  1  0.615850  0.750000  0.311888  1
  Er  Er10  1  0.675571  0.545440  0.564065  1
  Er  Er11  1  0.326813  0.464230  0.437379  1
  Er  Er12  1  0.174972  0.455695  0.934779  1
  Er  Er13  1  0.326813  0.035770  0.437379  1
  Er  Er14  1  0.823283  0.541580  0.065669  1
  Er  Er15  1  0.675571  0.954560  0.564065  1
  Er  Er16  1  0.823283  0.958420  0.065669  1
  Er  Er17  1  0.174972  0.044305  0.934779  1
  Er  Er18  1  0.053929  0.750000  0.498155  1
  Er  Er19  1  0.447447  0.750000  0.996951  1
  Co  Co20  1  0.429473  0.750000  0.490317  1
  Bi  Bi21  1  0.569602  0.509233  0.826912  1
  Bi  Bi22  1  0.429572  0.491504  0.173175  1
  Bi  Bi23  1  0.071498  0.490990  0.672597  1
  Bi  Bi24  1  0.429572  0.008496  0.173175  1
  Bi  Bi25  1  0.929671  0.509192  0.327870  1
  Bi  Bi26  1  0.569602  0.990767  0.826912  1
  Bi  Bi27  1  0.929671  0.990808  0.327870  1
  Bi  Bi28  1  0.071498  0.009010  0.672597  1
  Ru  Ru29  1  0.926013  0.250000  0.010448  1
  Ru  Ru30  1  0.572000  0.250000  0.509535  1
  Rh  Rh31  1  0.072688  0.750000  0.989714  1
