# generated using pymatgen
data_Tb2Dy3Al2Ru3
_symmetry_space_group_name_H-M   'P 1'
_cell_length_a   8.35777021
_cell_length_b   8.35776993
_cell_length_c   8.35777002
_cell_angle_alpha   109.47489142
_cell_angle_beta   109.47488750
_cell_angle_gamma   109.47488903
_symmetry_Int_Tables_number   1
_chemical_formula_structural   Tb2Dy3Al2Ru3
_chemical_formula_sum   'Tb4 Dy6 Al4 Ru6'
_cell_volume   449.35580854
_cell_formula_units_Z   2
loop_
 _symmetry_equiv_pos_site_id
 _symmetry_equiv_pos_as_xyz
  1  'x, y, z'
loop_
 _atom_site_type_symbol
 _atom_site_label
 _atom_site_symmetry_multiplicity
 _atom_site_fract_x
 _atom_site_fract_y
 _atom_site_fract_z
 _atom_site_occupancy
  Tb  Tb0  1  0.785543  0.785543  0.785543  1
  Tb  Tb1  1  0.318425  0.568468  0.749903  1
  Tb  Tb2  1  0.749903  0.318425  0.568468  1
  Tb  Tb3  1  0.568468  0.749903  0.318425  1
  Dy  Dy4  1  0.714600  0.499793  0.000150  1
  Dy  Dy5  1  0.000150  0.714600  0.499793  1
  Dy  Dy6  1  0.499793  0.000150  0.714600  1
  Dy  Dy7  1  0.250085  0.181293  0.931333  1
  Dy  Dy8  1  0.931333  0.250085  0.181293  1
  Dy  Dy9  1  0.181293  0.931333  0.250085  1
  Al  Al10  1  0.409989  0.409989  0.409989  1
  Al  Al11  1  0.089495  0.499941  0.000160  1
  Al  Al12  1  0.000160  0.089495  0.499941  1
  Al  Al13  1  0.499941  0.000160  0.089495  1
  Ru  Ru14  1  0.877412  0.127514  0.750277  1
  Ru  Ru15  1  0.750277  0.877412  0.127514  1
  Ru  Ru16  1  0.127514  0.750277  0.877412  1
  Ru  Ru17  1  0.249849  0.622896  0.372874  1
  Ru  Ru18  1  0.372874  0.249849  0.622896  1
  Ru  Ru19  1  0.622896  0.372874  0.249849  1
