# generated using pymatgen
data_Ho8TaTi8Si16Tc3
_symmetry_space_group_name_H-M   'P 1'
_cell_length_a   6.96988959
_cell_length_b   6.96988915
_cell_length_c   12.81394042
_cell_angle_alpha   90.07252044
_cell_angle_beta   89.92747771
_cell_angle_gamma   90.06881001
_symmetry_Int_Tables_number   1
_chemical_formula_structural   Ho8TaTi8Si16Tc3
_chemical_formula_sum   'Ho8 Ta1 Ti8 Si16 Tc3'
_cell_volume   622.49155110
_cell_formula_units_Z   1
loop_
 _symmetry_equiv_pos_site_id
 _symmetry_equiv_pos_as_xyz
  1  'x, y, z'
loop_
 _atom_site_type_symbol
 _atom_site_label
 _atom_site_symmetry_multiplicity
 _atom_site_fract_x
 _atom_site_fract_y
 _atom_site_fract_z
 _atom_site_occupancy
  Ho  Ho0  1  0.340574  0.001665  0.467603  1
  Ho  Ho1  1  0.498475  0.841884  0.719717  1
  Ho  Ho2  1  0.500113  0.159055  0.218065  1
  Ho  Ho3  1  0.841884  0.498475  0.280283  1
  Ho  Ho4  1  0.159055  0.500113  0.781935  1
  Ho  Ho5  1  0.658786  0.999386  0.968719  1
  Ho  Ho6  1  0.001665  0.340574  0.532397  1
  Ho  Ho7  1  0.999386  0.658786  0.031281  1
  Ta  Ta8  1  0.673335  0.673335  0.500000  1
  Ti  Ti9  1  0.152317  0.005379  0.876847  1
  Ti  Ti10  1  0.494181  0.652976  0.124719  1
  Ti  Ti11  1  0.505288  0.349049  0.627160  1
  Ti  Ti12  1  0.652976  0.494181  0.875281  1
  Ti  Ti13  1  0.349049  0.505288  0.372840  1
  Ti  Ti14  1  0.846508  0.992563  0.376041  1
  Ti  Ti15  1  0.005379  0.152317  0.123153  1
  Ti  Ti16  1  0.992563  0.846508  0.623959  1
  Si  Si17  1  0.199791  0.129633  0.684240  1
  Si  Si18  1  0.370068  0.700371  0.933134  1
  Si  Si19  1  0.632143  0.296703  0.434170  1
  Si  Si20  1  0.700371  0.370068  0.066866  1
  Si  Si21  1  0.296703  0.632143  0.565830  1
  Si  Si22  1  0.799187  0.870190  0.183114  1
  Si  Si23  1  0.129633  0.199791  0.315760  1
  Si  Si24  1  0.870190  0.799187  0.816886  1
  Si  Si25  1  0.290772  0.952164  0.066599  1
  Si  Si26  1  0.545878  0.791984  0.314088  1
  Si  Si27  1  0.452111  0.210432  0.816815  1
  Si  Si28  1  0.791984  0.545878  0.685912  1
  Si  Si29  1  0.210432  0.452111  0.183185  1
  Si  Si30  1  0.707487  0.049416  0.567474  1
  Si  Si31  1  0.952164  0.290772  0.933401  1
  Si  Si32  1  0.049416  0.707487  0.432526  1
  Tc  Tc33  1  0.328230  0.328230  0.000000  1
  Tc  Tc34  1  0.173659  0.828248  0.248563  1
  Tc  Tc35  1  0.828248  0.173659  0.751437  1
