# generated using pymatgen
data_Dy12Co5Pb
_symmetry_space_group_name_H-M   'P 1'
_cell_length_a   8.28924904
_cell_length_b   8.28924862
_cell_length_c   8.28924883
_cell_angle_alpha   110.79886982
_cell_angle_beta   110.65003387
_cell_angle_gamma   106.99286752
_symmetry_Int_Tables_number   1
_chemical_formula_structural   Dy12Co5Pb
_chemical_formula_sum   'Dy12 Co5 Pb1'
_cell_volume   437.84085591
_cell_formula_units_Z   1
loop_
 _symmetry_equiv_pos_site_id
 _symmetry_equiv_pos_as_xyz
  1  'x, y, z'
loop_
 _atom_site_type_symbol
 _atom_site_label
 _atom_site_symmetry_multiplicity
 _atom_site_fract_x
 _atom_site_fract_y
 _atom_site_fract_z
 _atom_site_occupancy
  Dy  Dy0  1  0.815583  0.709731  0.525315  1
  Dy  Dy1  1  0.184417  0.290269  0.474685  1
  Dy  Dy2  1  0.184417  0.709731  0.894147  1
  Dy  Dy3  1  0.815583  0.290269  0.105853  1
  Dy  Dy4  1  0.686963  0.380076  0.693113  1
  Dy  Dy5  1  0.313037  0.619924  0.306887  1
  Dy  Dy6  1  0.686963  0.993849  0.306887  1
  Dy  Dy7  1  0.313037  0.006151  0.693113  1
  Dy  Dy8  1  0.598356  0.791800  0.806556  1
  Dy  Dy9  1  0.401644  0.208200  0.193444  1
  Dy  Dy10  1  0.985243  0.791800  0.193444  1
  Dy  Dy11  1  0.014757  0.208200  0.806556  1
  Co  Co12  1  0.622084  0.000000  0.622084  1
  Co  Co13  1  0.377916  0.000000  0.377916  1
  Co  Co14  1  0.112020  0.612020  0.500000  1
  Co  Co15  1  0.887980  0.387980  0.500000  1
  Co  Co16  1  0.000000  0.000000  0.000000  1
  Pb  Pb17  1  0.500000  0.500000  0.000000  1
