# generated using pymatgen
data_Cs2LaNdY4(CBr6)2
_symmetry_space_group_name_H-M   'P 1'
_cell_length_a   8.89403488
_cell_length_b   8.93719814
_cell_length_c   9.50428400
_cell_angle_alpha   70.95054437
_cell_angle_beta   84.94695975
_cell_angle_gamma   89.23374362
_symmetry_Int_Tables_number   1
_chemical_formula_structural   Cs2LaNdY4(CBr6)2
_chemical_formula_sum   'Cs2 La1 Nd1 Y4 C2 Br12'
_cell_volume   711.23216842
_cell_formula_units_Z   1
loop_
 _symmetry_equiv_pos_site_id
 _symmetry_equiv_pos_as_xyz
  1  'x, y, z'
loop_
 _atom_site_type_symbol
 _atom_site_label
 _atom_site_symmetry_multiplicity
 _atom_site_fract_x
 _atom_site_fract_y
 _atom_site_fract_z
 _atom_site_occupancy
  Cs  Cs0  1  0.468748  0.362585  0.333008  1
  Cs  Cs1  1  0.532283  0.638236  0.666772  1
  La  La2  1  0.087553  0.270438  0.995098  1
  Nd  Nd3  1  0.913038  0.733375  0.005045  1
  Y  Y4  1  0.744304  0.083478  0.000809  1
  Y  Y5  1  0.255643  0.915038  0.999164  1
  Y  Y6  1  0.972984  0.885433  0.324150  1
  Y  Y7  1  0.026359  0.112400  0.676212  1
  C  C8  1  0.006506  0.026464  0.921557  1
  C  C9  1  0.993863  0.972987  0.078877  1
  Br  Br10  1  0.074796  0.191410  0.338372  1
  Br  Br11  1  0.924490  0.806883  0.664894  1
  Br  Br12  1  0.218440  0.597029  0.000758  1
  Br  Br13  1  0.777073  0.406300  0.999409  1
  Br  Br14  1  0.414189  0.193026  0.002764  1
  Br  Br15  1  0.589526  0.804666  0.997417  1
  Br  Br16  1  0.668907  0.000520  0.324164  1
  Br  Br17  1  0.331408  0.999746  0.675768  1
  Br  Br18  1  0.278420  0.776942  0.321043  1
  Br  Br19  1  0.721576  0.222792  0.678881  1
  Br  Br20  1  0.848924  0.588967  0.335921  1
  Br  Br21  1  0.150968  0.411285  0.659918  1
