# generated using pymatgen
data_LaPr(AsO3)2
_symmetry_space_group_name_H-M   'P 1'
_cell_length_a   5.36944100
_cell_length_b   4.44178652
_cell_length_c   6.25021296
_cell_angle_alpha   74.29055940
_cell_angle_beta   90.00000000
_cell_angle_gamma   90.00000000
_symmetry_Int_Tables_number   1
_chemical_formula_structural   LaPr(AsO3)2
_chemical_formula_sum   'La1 Pr1 As2 O6'
_cell_volume   143.49894213
_cell_formula_units_Z   1
loop_
 _symmetry_equiv_pos_site_id
 _symmetry_equiv_pos_as_xyz
  1  'x, y, z'
loop_
 _atom_site_type_symbol
 _atom_site_label
 _atom_site_symmetry_multiplicity
 _atom_site_fract_x
 _atom_site_fract_y
 _atom_site_fract_z
 _atom_site_occupancy
  La  La0  1  0.250000  0.336899  0.300597  1
  Pr  Pr1  1  0.750000  0.662295  0.701417  1
  As  As2  1  0.750000  0.921235  0.143495  1
  As  As3  1  0.250000  0.077727  0.856440  1
  O  O4  1  0.750000  0.335119  0.111937  1
  O  O5  1  0.250000  0.665526  0.881216  1
  O  O6  1  0.502703  0.806690  0.344777  1
  O  O7  1  0.000321  0.193910  0.657672  1
  O  O8  1  0.499679  0.193910  0.657672  1
  O  O9  1  0.997297  0.806690  0.344777  1
