# generated using pymatgen
data_K4Si2AgAu6
_symmetry_space_group_name_H-M   'P 1'
_cell_length_a   9.97323846
_cell_length_b   9.97323842
_cell_length_c   9.97323902
_cell_angle_alpha   38.48385032
_cell_angle_beta   38.48384740
_cell_angle_gamma   38.48385270
_symmetry_Int_Tables_number   1
_chemical_formula_structural   K4Si2AgAu6
_chemical_formula_sum   'K4 Si2 Ag1 Au6'
_cell_volume   345.13814018
_cell_formula_units_Z   1
loop_
 _symmetry_equiv_pos_site_id
 _symmetry_equiv_pos_as_xyz
  1  'x, y, z'
loop_
 _atom_site_type_symbol
 _atom_site_label
 _atom_site_symmetry_multiplicity
 _atom_site_fract_x
 _atom_site_fract_y
 _atom_site_fract_z
 _atom_site_occupancy
  K  K0  1  0.681896  0.681896  0.681896  1
  K  K1  1  0.318104  0.318104  0.318104  1
  K  K2  1  0.808364  0.808364  0.808364  1
  K  K3  1  0.191636  0.191636  0.191636  1
  Si  Si4  1  0.544205  0.544205  0.544205  1
  Si  Si5  1  0.455795  0.455795  0.455795  1
  Ag  Ag6  1  0.000000  0.000000  0.000000  1
  Au  Au7  1  0.228283  0.228283  0.797929  1
  Au  Au8  1  0.797929  0.228283  0.228283  1
  Au  Au9  1  0.228283  0.797929  0.228283  1
  Au  Au10  1  0.771717  0.202071  0.771717  1
  Au  Au11  1  0.771717  0.771717  0.202071  1
  Au  Au12  1  0.202071  0.771717  0.771717  1
