# generated using pymatgen
data_Ba6Tm2Fe2O13
_symmetry_space_group_name_H-M   'P 1'
_cell_length_a   11.55954458
_cell_length_b   11.55954547
_cell_length_c   5.81769700
_cell_angle_alpha   90.00000000
_cell_angle_beta   90.00000000
_cell_angle_gamma   150.79584825
_symmetry_Int_Tables_number   1
_chemical_formula_structural   Ba6Tm2Fe2O13
_chemical_formula_sum   'Ba6 Tm2 Fe2 O13'
_cell_volume   379.30082905
_cell_formula_units_Z   1
loop_
 _symmetry_equiv_pos_site_id
 _symmetry_equiv_pos_as_xyz
  1  'x, y, z'
loop_
 _atom_site_type_symbol
 _atom_site_label
 _atom_site_symmetry_multiplicity
 _atom_site_fract_x
 _atom_site_fract_y
 _atom_site_fract_z
 _atom_site_occupancy
  Ba  Ba0  1  0.500000  0.500000  0.000000  1
  Ba  Ba1  1  0.000000  0.000000  0.500000  1
  Ba  Ba2  1  0.185018  0.814982  0.500000  1
  Ba  Ba3  1  0.685634  0.314366  0.000000  1
  Ba  Ba4  1  0.314366  0.685634  0.000000  1
  Ba  Ba5  1  0.814982  0.185018  0.500000  1
  Tm  Tm6  1  0.903602  0.096398  0.000000  1
  Tm  Tm7  1  0.096398  0.903602  0.000000  1
  Fe  Fe8  1  0.394032  0.605968  0.500000  1
  Fe  Fe9  1  0.605968  0.394032  0.500000  1
  O  O10  1  0.636544  0.819020  0.727517  1
  O  O11  1  0.180980  0.363456  0.272483  1
  O  O12  1  0.819020  0.636544  0.727517  1
  O  O13  1  0.363456  0.180980  0.272483  1
  O  O14  1  0.180980  0.363456  0.727517  1
  O  O15  1  0.636544  0.819020  0.272483  1
  O  O16  1  0.363456  0.180980  0.727517  1
  O  O17  1  0.819020  0.636544  0.272483  1
  O  O18  1  0.306457  0.693543  0.500000  1
  O  O19  1  0.804719  0.195281  0.000000  1
  O  O20  1  0.195281  0.804719  0.000000  1
  O  O21  1  0.693543  0.306457  0.500000  1
  O  O22  1  0.000000  0.000000  0.000000  1
