# generated using pymatgen
data_Er3ThCdCo
_symmetry_space_group_name_H-M   'P 1'
_cell_length_a   9.53244875
_cell_length_b   9.53244955
_cell_length_c   9.53245000
_cell_angle_alpha   60.00000539
_cell_angle_beta   60.00000262
_cell_angle_gamma   60.00000452
_symmetry_Int_Tables_number   1
_chemical_formula_structural   Er3ThCdCo
_chemical_formula_sum   'Er12 Th4 Cd4 Co4'
_cell_volume   612.48939596
_cell_formula_units_Z   4
loop_
 _symmetry_equiv_pos_site_id
 _symmetry_equiv_pos_as_xyz
  1  'x, y, z'
loop_
 _atom_site_type_symbol
 _atom_site_label
 _atom_site_symmetry_multiplicity
 _atom_site_fract_x
 _atom_site_fract_y
 _atom_site_fract_z
 _atom_site_occupancy
  Er  Er0  1  0.063259  0.436741  0.436741  1
  Er  Er1  1  0.436741  0.063259  0.063259  1
  Er  Er2  1  0.436741  0.063259  0.436741  1
  Er  Er3  1  0.063259  0.436741  0.063259  1
  Er  Er4  1  0.436741  0.436741  0.063259  1
  Er  Er5  1  0.063259  0.063259  0.436741  1
  Er  Er6  1  0.185553  0.814447  0.814447  1
  Er  Er7  1  0.814447  0.185553  0.185553  1
  Er  Er8  1  0.814447  0.185553  0.814447  1
  Er  Er9  1  0.185553  0.814447  0.185553  1
  Er  Er10  1  0.814447  0.814447  0.185553  1
  Er  Er11  1  0.185553  0.185553  0.814447  1
  Th  Th12  1  0.596370  0.596370  0.596370  1
  Th  Th13  1  0.596370  0.596370  0.210890  1
  Th  Th14  1  0.596370  0.210890  0.596370  1
  Th  Th15  1  0.210890  0.596370  0.596370  1
  Cd  Cd16  1  0.831884  0.831884  0.831884  1
  Cd  Cd17  1  0.831884  0.831884  0.504349  1
  Cd  Cd18  1  0.831884  0.504349  0.831884  1
  Cd  Cd19  1  0.504349  0.831884  0.831884  1
  Co  Co20  1  0.394419  0.394419  0.394419  1
  Co  Co21  1  0.394419  0.394419  0.816743  1
  Co  Co22  1  0.394419  0.816743  0.394419  1
  Co  Co23  1  0.816743  0.394419  0.394419  1
