# generated using pymatgen
data_Ho3PaPt4
_symmetry_space_group_name_H-M   'P 1'
_cell_length_a   4.54857400
_cell_length_b   5.59644614
_cell_length_c   6.97297846
_cell_angle_alpha   91.00140702
_cell_angle_beta   90.00000000
_cell_angle_gamma   90.00000000
_symmetry_Int_Tables_number   1
_chemical_formula_structural   Ho3PaPt4
_chemical_formula_sum   'Ho3 Pa1 Pt4'
_cell_volume   177.47597889
_cell_formula_units_Z   1
loop_
 _symmetry_equiv_pos_site_id
 _symmetry_equiv_pos_as_xyz
  1  'x, y, z'
loop_
 _atom_site_type_symbol
 _atom_site_label
 _atom_site_symmetry_multiplicity
 _atom_site_fract_x
 _atom_site_fract_y
 _atom_site_fract_z
 _atom_site_occupancy
  Ho  Ho0  1  0.250000  0.139722  0.183440  1
  Ho  Ho1  1  0.750000  0.642401  0.315431  1
  Ho  Ho2  1  0.750000  0.857581  0.821039  1
  Pa  Pa3  1  0.250000  0.358431  0.682815  1
  Pt  Pt4  1  0.250000  0.839121  0.549297  1
  Pt  Pt5  1  0.250000  0.652344  0.038788  1
  Pt  Pt6  1  0.750000  0.166628  0.462703  1
  Pt  Pt7  1  0.750000  0.343772  0.946487  1
