# generated using pymatgen
data_Pr14Nd6Si15P
_symmetry_space_group_name_H-M   'P 1'
_cell_length_a   7.88236408
_cell_length_b   7.88729357
_cell_length_c   15.42096345
_cell_angle_alpha   89.89253342
_cell_angle_beta   89.93810120
_cell_angle_gamma   90.17274321
_symmetry_Int_Tables_number   1
_chemical_formula_structural   Pr14Nd6Si15P
_chemical_formula_sum   'Pr14 Nd6 Si15 P1'
_cell_volume   958.72270044
_cell_formula_units_Z   1
loop_
 _symmetry_equiv_pos_site_id
 _symmetry_equiv_pos_as_xyz
  1  'x, y, z'
loop_
 _atom_site_type_symbol
 _atom_site_label
 _atom_site_symmetry_multiplicity
 _atom_site_fract_x
 _atom_site_fract_y
 _atom_site_fract_z
 _atom_site_occupancy
  Pr  Pr0  1  0.512849  0.120977  0.195902  1
  Pr  Pr1  1  0.878579  0.486825  0.304263  1
  Pr  Pr2  1  0.122344  0.510259  0.803104  1
  Pr  Pr3  1  0.621895  0.987804  0.944986  1
  Pr  Pr4  1  0.010452  0.377880  0.555128  1
  Pr  Pr5  1  0.988698  0.620041  0.054125  1
  Pr  Pr6  1  0.127533  0.982235  0.875464  1
  Pr  Pr7  1  0.520923  0.626058  0.126721  1
  Pr  Pr8  1  0.473696  0.369409  0.627985  1
  Pr  Pr9  1  0.626150  0.520743  0.871810  1
  Pr  Pr10  1  0.371893  0.477998  0.374715  1
  Pr  Pr11  1  0.875977  0.020870  0.378234  1
  Pr  Pr12  1  0.980202  0.125891  0.122956  1
  Pr  Pr13  1  0.024505  0.881086  0.623533  1
  Nd  Nd14  1  0.310950  0.309110  0.999743  1
  Nd  Nd15  1  0.189629  0.807410  0.250249  1
  Nd  Nd16  1  0.805820  0.192170  0.749895  1
  Nd  Nd17  1  0.691303  0.688892  0.499415  1
  Nd  Nd18  1  0.383024  0.008350  0.442867  1
  Nd  Nd19  1  0.487787  0.880774  0.695387  1
  Si  Si20  1  0.329724  0.693471  0.954282  1
  Si  Si21  1  0.668438  0.306085  0.456201  1
  Si  Si22  1  0.694591  0.330760  0.044690  1
  Si  Si23  1  0.307664  0.671751  0.546573  1
  Si  Si24  1  0.807379  0.830483  0.205666  1
  Si  Si25  1  0.171366  0.191685  0.294868  1
  Si  Si26  1  0.830955  0.808144  0.793369  1
  Si  Si27  1  0.287418  0.920300  0.060184  1
  Si  Si28  1  0.578779  0.786497  0.310660  1
  Si  Si29  1  0.423362  0.211459  0.811908  1
  Si  Si30  1  0.787297  0.580825  0.687685  1
  Si  Si31  1  0.212892  0.421228  0.189936  1
  Si  Si32  1  0.708306  0.075828  0.561051  1
  Si  Si33  1  0.922640  0.287939  0.939051  1
  Si  Si34  1  0.079594  0.712784  0.440708  1
  P  P35  1  0.185389  0.175981  0.706690  1
