# generated using pymatgen
data_Ho8Cd2CoRu
_symmetry_space_group_name_H-M   'P 1'
_cell_length_a   9.60341668
_cell_length_b   9.51938261
_cell_length_c   9.51938301
_cell_angle_alpha   59.46185769
_cell_angle_beta   59.70755526
_cell_angle_gamma   59.70755678
_symmetry_Int_Tables_number   1
_chemical_formula_structural   Ho8Cd2CoRu
_chemical_formula_sum   'Ho16 Cd4 Co2 Ru2'
_cell_volume   610.11627508
_cell_formula_units_Z   2
loop_
 _symmetry_equiv_pos_site_id
 _symmetry_equiv_pos_as_xyz
  1  'x, y, z'
loop_
 _atom_site_type_symbol
 _atom_site_label
 _atom_site_symmetry_multiplicity
 _atom_site_fract_x
 _atom_site_fract_y
 _atom_site_fract_z
 _atom_site_occupancy
  Ho  Ho0  1  0.938270  0.938547  0.559811  1
  Ho  Ho1  1  0.811564  0.188436  0.188436  1
  Ho  Ho2  1  0.937142  0.562858  0.562858  1
  Ho  Ho3  1  0.938270  0.559811  0.938547  1
  Ho  Ho4  1  0.815680  0.807788  0.187319  1
  Ho  Ho5  1  0.340646  0.348413  0.348413  1
  Ho  Ho6  1  0.559935  0.940065  0.940065  1
  Ho  Ho7  1  0.563372  0.938547  0.559811  1
  Ho  Ho8  1  0.188900  0.811100  0.811100  1
  Ho  Ho9  1  0.189214  0.187319  0.807788  1
  Ho  Ho10  1  0.344124  0.351693  0.960060  1
  Ho  Ho11  1  0.344124  0.960060  0.351693  1
  Ho  Ho12  1  0.815680  0.187319  0.807788  1
  Ho  Ho13  1  0.563372  0.559811  0.938547  1
  Ho  Ho14  1  0.189214  0.807788  0.187319  1
  Ho  Ho15  1  0.962529  0.348413  0.348413  1
  Cd  Cd16  1  0.580938  0.580260  0.257865  1
  Cd  Cd17  1  0.258439  0.580250  0.580250  1
  Cd  Cd18  1  0.581062  0.580250  0.580250  1
  Cd  Cd19  1  0.580938  0.257865  0.580260  1
  Co  Co20  1  0.139135  0.579219  0.142512  1
  Co  Co21  1  0.139135  0.142512  0.579219  1
  Ru  Ru22  1  0.579480  0.140841  0.140841  1
  Ru  Ru23  1  0.138838  0.140841  0.140841  1
