# generated using pymatgen
data_Sc5MnCo2(BIr2)4
_symmetry_space_group_name_H-M   'P 1'
_cell_length_a   3.05511800
_cell_length_b   9.37071400
_cell_length_c   9.37071400
_cell_angle_alpha   90.00000000
_cell_angle_beta   90.00000000
_cell_angle_gamma   90.00000000
_symmetry_Int_Tables_number   1
_chemical_formula_structural   Sc5MnCo2(BIr2)4
_chemical_formula_sum   'Sc5 Mn1 Co2 B4 Ir8'
_cell_volume   268.27076967
_cell_formula_units_Z   1
loop_
 _symmetry_equiv_pos_site_id
 _symmetry_equiv_pos_as_xyz
  1  'x, y, z'
loop_
 _atom_site_type_symbol
 _atom_site_label
 _atom_site_symmetry_multiplicity
 _atom_site_fract_x
 _atom_site_fract_y
 _atom_site_fract_z
 _atom_site_occupancy
  Sc  Sc0  1  0.000000  0.174976  0.676737  1
  Sc  Sc1  1  0.000000  0.825024  0.323263  1
  Sc  Sc2  1  0.000000  0.323263  0.174976  1
  Sc  Sc3  1  0.000000  0.676737  0.825024  1
  Sc  Sc4  1  0.000000  0.500000  0.500000  1
  Mn  Mn5  1  0.000000  0.000000  0.000000  1
  Co  Co6  1  0.500000  0.000000  0.500000  1
  Co  Co7  1  0.500000  0.500000  0.000000  1
  B  B8  1  0.000000  0.613803  0.108820  1
  B  B9  1  0.000000  0.386197  0.891180  1
  B  B10  1  0.000000  0.891180  0.613803  1
  B  B11  1  0.000000  0.108820  0.386197  1
  Ir  Ir12  1  0.500000  0.061387  0.222062  1
  Ir  Ir13  1  0.500000  0.938613  0.777938  1
  Ir  Ir14  1  0.500000  0.777938  0.061387  1
  Ir  Ir15  1  0.500000  0.433202  0.729429  1
  Ir  Ir16  1  0.500000  0.222062  0.938613  1
  Ir  Ir17  1  0.500000  0.566798  0.270571  1
  Ir  Ir18  1  0.500000  0.729429  0.566798  1
  Ir  Ir19  1  0.500000  0.270571  0.433202  1
