# generated using pymatgen
data_MgMn2SbRh4
_symmetry_space_group_name_H-M   'P 1'
_cell_length_a   7.63277683
_cell_length_b   7.63277679
_cell_length_c   7.63277755
_cell_angle_alpha   33.55039153
_cell_angle_beta   33.55039708
_cell_angle_gamma   33.55038964
_symmetry_Int_Tables_number   1
_chemical_formula_structural   MgMn2SbRh4
_chemical_formula_sum   'Mg1 Mn2 Sb1 Rh4'
_cell_volume   120.98117683
_cell_formula_units_Z   1
loop_
 _symmetry_equiv_pos_site_id
 _symmetry_equiv_pos_as_xyz
  1  'x, y, z'
loop_
 _atom_site_type_symbol
 _atom_site_label
 _atom_site_symmetry_multiplicity
 _atom_site_fract_x
 _atom_site_fract_y
 _atom_site_fract_z
 _atom_site_occupancy
  Mg  Mg0  1  0.000000  0.000000  0.000000  1
  Mn  Mn1  1  0.254545  0.254545  0.254545  1
  Mn  Mn2  1  0.745455  0.745455  0.745455  1
  Sb  Sb3  1  0.500000  0.500000  0.500000  1
  Rh  Rh4  1  0.623676  0.623676  0.623676  1
  Rh  Rh5  1  0.126247  0.126247  0.126247  1
  Rh  Rh6  1  0.873753  0.873753  0.873753  1
  Rh  Rh7  1  0.376324  0.376324  0.376324  1
