# generated using pymatgen
data_Gd9Er(Sn3O)2
_symmetry_space_group_name_H-M   'P 1'
_cell_length_a   9.22231313
_cell_length_b   9.22231383
_cell_length_c   9.22231400
_cell_angle_alpha   128.98010381
_cell_angle_beta   128.98010736
_cell_angle_gamma   75.04258949
_symmetry_Int_Tables_number   1
_chemical_formula_structural   Gd9Er(Sn3O)2
_chemical_formula_sum   'Gd9 Er1 Sn6 O2'
_cell_volume   461.53771054
_cell_formula_units_Z   1
loop_
 _symmetry_equiv_pos_site_id
 _symmetry_equiv_pos_as_xyz
  1  'x, y, z'
loop_
 _atom_site_type_symbol
 _atom_site_label
 _atom_site_symmetry_multiplicity
 _atom_site_fract_x
 _atom_site_fract_y
 _atom_site_fract_z
 _atom_site_occupancy
  Gd  Gd0  1  0.000000  0.000000  0.000000  1
  Gd  Gd1  1  0.504638  0.004181  0.811958  1
  Gd  Gd2  1  0.192225  0.692682  0.188042  1
  Gd  Gd3  1  0.004181  0.192225  0.499544  1
  Gd  Gd4  1  0.692682  0.504638  0.500456  1
  Gd  Gd5  1  0.495362  0.995819  0.188042  1
  Gd  Gd6  1  0.807775  0.307318  0.811958  1
  Gd  Gd7  1  0.995819  0.807775  0.500456  1
  Gd  Gd8  1  0.307318  0.495362  0.499544  1
  Er  Er9  1  0.500000  0.500000  0.000000  1
  Sn  Sn10  1  0.251572  0.251572  0.000000  1
  Sn  Sn11  1  0.748428  0.748428  0.000000  1
  Sn  Sn12  1  0.859380  0.362615  0.221996  1
  Sn  Sn13  1  0.140620  0.637385  0.778004  1
  Sn  Sn14  1  0.362615  0.140620  0.503235  1
  Sn  Sn15  1  0.637385  0.859380  0.496765  1
  O  O16  1  0.250000  0.750000  0.500000  1
  O  O17  1  0.750000  0.250000  0.500000  1
