# generated using pymatgen
data_K4TiP2S9
_symmetry_space_group_name_H-M   'P 1'
_cell_length_a   6.90522400
_cell_length_b   13.08500600
_cell_length_c   19.59251800
_cell_angle_alpha   90.00000000
_cell_angle_beta   90.00000000
_cell_angle_gamma   90.00000000
_symmetry_Int_Tables_number   1
_chemical_formula_structural   K4TiP2S9
_chemical_formula_sum   'K16 Ti4 P8 S36'
_cell_volume   1770.27995510
_cell_formula_units_Z   4
loop_
 _symmetry_equiv_pos_site_id
 _symmetry_equiv_pos_as_xyz
  1  'x, y, z'
loop_
 _atom_site_type_symbol
 _atom_site_label
 _atom_site_symmetry_multiplicity
 _atom_site_fract_x
 _atom_site_fract_y
 _atom_site_fract_z
 _atom_site_occupancy
  K  K0  1  0.747829  0.326383  0.569078  1
  K  K1  1  0.254503  0.377050  0.819441  1
  K  K2  1  0.745497  0.877050  0.180559  1
  K  K3  1  0.741742  0.030656  0.466036  1
  K  K4  1  0.245497  0.377050  0.319441  1
  K  K5  1  0.252171  0.826383  0.430922  1
  K  K6  1  0.250812  0.672569  0.216934  1
  K  K7  1  0.750812  0.172569  0.283066  1
  K  K8  1  0.258258  0.530656  0.533964  1
  K  K9  1  0.247829  0.826383  0.930922  1
  K  K10  1  0.241742  0.530656  0.033964  1
  K  K11  1  0.249188  0.672569  0.716934  1
  K  K12  1  0.754503  0.877050  0.680559  1
  K  K13  1  0.749188  0.172569  0.783066  1
  K  K14  1  0.758258  0.030656  0.966036  1
  K  K15  1  0.752171  0.326383  0.069078  1
  Ti  Ti16  1  0.142471  0.101465  0.124968  1
  Ti  Ti17  1  0.642471  0.601465  0.375032  1
  Ti  Ti18  1  0.857529  0.601465  0.875032  1
  Ti  Ti19  1  0.357529  0.101465  0.624968  1
  P  P20  1  0.252676  0.001180  0.766737  1
  P  P21  1  0.249463  0.201725  0.483374  1
  P  P22  1  0.749463  0.701725  0.016626  1
  P  P23  1  0.250537  0.201725  0.983374  1
  P  P24  1  0.750537  0.701725  0.516626  1
  P  P25  1  0.752676  0.501180  0.733263  1
  P  P26  1  0.747324  0.501180  0.233263  1
  P  P27  1  0.247324  0.001180  0.266737  1
  S  S28  1  0.749262  0.546170  0.487629  1
  S  S29  1  0.826510  0.101535  0.124661  1
  S  S30  1  0.498762  0.240498  0.936521  1
  S  S31  1  0.505040  0.462243  0.686041  1
  S  S32  1  0.749168  0.766510  0.418245  1
  S  S33  1  0.001238  0.240498  0.436521  1
  S  S34  1  0.005040  0.962243  0.813959  1
  S  S35  1  0.249262  0.046170  0.012371  1
  S  S36  1  0.990693  0.743607  0.066914  1
  S  S37  1  0.998762  0.740498  0.563479  1
  S  S38  1  0.994692  0.459434  0.683453  1
  S  S39  1  0.752327  0.436309  0.831608  1
  S  S40  1  0.247673  0.936309  0.168392  1
  S  S41  1  0.750738  0.546170  0.987629  1
  S  S42  1  0.252327  0.936309  0.668392  1
  S  S43  1  0.173490  0.601535  0.875339  1
  S  S44  1  0.505308  0.459434  0.183453  1
  S  S45  1  0.747673  0.436309  0.331608  1
  S  S46  1  0.246666  0.156786  0.237823  1
  S  S47  1  0.326510  0.601535  0.375339  1
  S  S48  1  0.009307  0.243607  0.933086  1
  S  S49  1  0.994960  0.462243  0.186041  1
  S  S50  1  0.250738  0.046170  0.512371  1
  S  S51  1  0.746666  0.656786  0.262177  1
  S  S52  1  0.673490  0.101535  0.624661  1
  S  S53  1  0.250832  0.266510  0.581755  1
  S  S54  1  0.750832  0.766510  0.918245  1
  S  S55  1  0.494960  0.962243  0.313959  1
  S  S56  1  0.494692  0.959434  0.816547  1
  S  S57  1  0.253334  0.156786  0.737823  1
  S  S58  1  0.509307  0.743607  0.566914  1
  S  S59  1  0.753334  0.656786  0.762177  1
  S  S60  1  0.249168  0.266510  0.081755  1
  S  S61  1  0.501238  0.740498  0.063479  1
  S  S62  1  0.490693  0.243607  0.433086  1
  S  S63  1  0.005308  0.959434  0.316547  1
