# generated using pymatgen
data_Yb2Al4CoGe2
_symmetry_space_group_name_H-M   'P 1'
_cell_length_a   4.10084535
_cell_length_b   4.10088027
_cell_length_c   10.41840086
_cell_angle_alpha   101.32759625
_cell_angle_beta   101.32748597
_cell_angle_gamma   90.00145017
_symmetry_Int_Tables_number   1
_chemical_formula_structural   Yb2Al4CoGe2
_chemical_formula_sum   'Yb2 Al4 Co1 Ge2'
_cell_volume   168.31172516
_cell_formula_units_Z   1
loop_
 _symmetry_equiv_pos_site_id
 _symmetry_equiv_pos_as_xyz
  1  'x, y, z'
loop_
 _atom_site_type_symbol
 _atom_site_label
 _atom_site_symmetry_multiplicity
 _atom_site_fract_x
 _atom_site_fract_y
 _atom_site_fract_z
 _atom_site_occupancy
  Yb  Yb0  1  0.187142  0.187142  0.374424  1
  Yb  Yb1  1  0.812859  0.812860  0.625576  1
  Al  Al2  1  0.565912  0.066211  0.131965  1
  Al  Al3  1  0.066210  0.565909  0.131963  1
  Al  Al4  1  0.933790  0.434090  0.868035  1
  Al  Al5  1  0.434089  0.933789  0.868034  1
  Co  Co6  1  0.000001  0.000000  0.000000  1
  Ge  Ge7  1  0.656045  0.656044  0.312066  1
  Ge  Ge8  1  0.343958  0.343959  0.687938  1
