# generated using pymatgen
data_Tb8Y2IrRu3
_symmetry_space_group_name_H-M   'P 1'
_cell_length_a   6.41754447
_cell_length_b   7.31195741
_cell_length_c   8.53742420
_cell_angle_alpha   96.66365964
_cell_angle_beta   111.98617690
_cell_angle_gamma   90.11671676
_symmetry_Int_Tables_number   1
_chemical_formula_structural   Tb8Y2IrRu3
_chemical_formula_sum   'Tb8 Y2 Ir1 Ru3'
_cell_volume   368.52211983
_cell_formula_units_Z   1
loop_
 _symmetry_equiv_pos_site_id
 _symmetry_equiv_pos_as_xyz
  1  'x, y, z'
loop_
 _atom_site_type_symbol
 _atom_site_label
 _atom_site_symmetry_multiplicity
 _atom_site_fract_x
 _atom_site_fract_y
 _atom_site_fract_z
 _atom_site_occupancy
  Tb  Tb0  1  0.019302  0.086407  0.812975  1
  Tb  Tb1  1  0.205221  0.416347  0.185627  1
  Tb  Tb2  1  0.647681  0.814228  0.436143  1
  Tb  Tb3  1  0.211000  0.685185  0.565489  1
  Tb  Tb4  1  0.354191  0.183877  0.565172  1
  Tb  Tb5  1  0.791845  0.315947  0.436013  1
  Tb  Tb6  1  0.422058  0.748597  0.999085  1
  Tb  Tb7  1  0.576928  0.250182  0.999952  1
  Y  Y8  1  0.976636  0.914946  0.184370  1
  Y  Y9  1  0.793021  0.584286  0.814214  1
  Ir  Ir10  1  0.398734  0.075464  0.222092  1
  Ru  Ru11  1  0.823239  0.573526  0.220614  1
  Ru  Ru12  1  0.604646  0.927455  0.779199  1
  Ru  Ru13  1  0.175497  0.423552  0.779055  1
