# generated using pymatgen
data_Y4Tc5Ir3
_symmetry_space_group_name_H-M   'P 1'
_cell_length_a   5.34857477
_cell_length_b   5.34857500
_cell_length_c   9.18483900
_cell_angle_alpha   90.00000000
_cell_angle_beta   90.00000000
_cell_angle_gamma   122.83154571
_symmetry_Int_Tables_number   1
_chemical_formula_structural   Y4Tc5Ir3
_chemical_formula_sum   'Y4 Tc5 Ir3'
_cell_volume   220.78301024
_cell_formula_units_Z   1
loop_
 _symmetry_equiv_pos_site_id
 _symmetry_equiv_pos_as_xyz
  1  'x, y, z'
loop_
 _atom_site_type_symbol
 _atom_site_label
 _atom_site_symmetry_multiplicity
 _atom_site_fract_x
 _atom_site_fract_y
 _atom_site_fract_z
 _atom_site_occupancy
  Y  Y0  1  0.335744  0.664256  0.432604  1
  Y  Y1  1  0.665487  0.334513  0.564702  1
  Y  Y2  1  0.665487  0.334513  0.935298  1
  Y  Y3  1  0.335744  0.664256  0.067396  1
  Tc  Tc4  1  0.826388  0.661711  0.250000  1
  Tc  Tc5  1  0.338289  0.173612  0.250000  1
  Tc  Tc6  1  0.168133  0.831867  0.750000  1
  Tc  Tc7  1  0.169114  0.341175  0.750000  1
  Tc  Tc8  1  0.658825  0.830886  0.750000  1
  Ir  Ir9  1  0.004963  0.995037  0.497928  1
  Ir  Ir10  1  0.004963  0.995037  0.002072  1
  Ir  Ir11  1  0.826864  0.173136  0.250000  1
