# generated using pymatgen
data_Ba10As6SeO24
_symmetry_space_group_name_H-M   'P 1'
_cell_length_a   10.74542600
_cell_length_b   10.74542351
_cell_length_c   7.91269600
_cell_angle_alpha   89.99998934
_cell_angle_beta   90.00001600
_cell_angle_gamma   120.00016776
_symmetry_Int_Tables_number   1
_chemical_formula_structural   Ba10As6SeO24
_chemical_formula_sum   'Ba10 As6 Se1 O24'
_cell_volume   791.22782728
_cell_formula_units_Z   1
loop_
 _symmetry_equiv_pos_site_id
 _symmetry_equiv_pos_as_xyz
  1  'x, y, z'
loop_
 _atom_site_type_symbol
 _atom_site_label
 _atom_site_symmetry_multiplicity
 _atom_site_fract_x
 _atom_site_fract_y
 _atom_site_fract_z
 _atom_site_occupancy
  Ba  Ba0  1  0.333334  0.666667  0.019611  1
  Ba  Ba1  1  0.247081  0.987236  0.256918  1
  Ba  Ba2  1  0.012763  0.259844  0.256918  1
  Ba  Ba3  1  0.740155  0.752919  0.256918  1
  Ba  Ba4  1  0.666667  0.333333  0.481003  1
  Ba  Ba5  1  0.333333  0.666667  0.518997  1
  Ba  Ba6  1  0.259846  0.247082  0.743082  1
  Ba  Ba7  1  0.987237  0.740155  0.743082  1
  Ba  Ba8  1  0.752919  0.012764  0.743082  1
  Ba  Ba9  1  0.666667  0.333333  0.980389  1
  As  As10  1  0.397740  0.369610  0.247591  1
  As  As11  1  0.630390  0.028130  0.247591  1
  As  As12  1  0.971870  0.602259  0.247591  1
  As  As13  1  0.028130  0.397740  0.752409  1
  As  As14  1  0.369610  0.971869  0.752409  1
  As  As15  1  0.602259  0.630390  0.752409  1
  Se  Se16  1  0.000000  0.000000  0.500000  1
  O  O17  1  0.307531  0.241858  0.093410  1
  O  O18  1  0.758140  0.065673  0.093412  1
  O  O19  1  0.934328  0.692469  0.093413  1
  O  O20  1  0.580762  0.466023  0.206265  1
  O  O21  1  0.533975  0.114738  0.206265  1
  O  O22  1  0.885261  0.419240  0.206265  1
  O  O23  1  0.155840  0.673920  0.261064  1
  O  O24  1  0.326079  0.481921  0.261064  1
  O  O25  1  0.518079  0.844157  0.261065  1
  O  O26  1  0.896478  0.617566  0.433311  1
  O  O27  1  0.382433  0.278910  0.433312  1
  O  O28  1  0.721091  0.103524  0.433312  1
  O  O29  1  0.278909  0.896476  0.566688  1
  O  O30  1  0.617567  0.721091  0.566688  1
  O  O31  1  0.103523  0.382434  0.566689  1
  O  O32  1  0.481921  0.155843  0.738935  1
  O  O33  1  0.673921  0.518079  0.738936  1
  O  O34  1  0.844159  0.326079  0.738936  1
  O  O35  1  0.114739  0.580761  0.793735  1
  O  O36  1  0.466024  0.885261  0.793735  1
  O  O37  1  0.419238  0.533976  0.793735  1
  O  O38  1  0.065672  0.307532  0.906587  1
  O  O39  1  0.241859  0.934327  0.906588  1
  O  O40  1  0.692469  0.758142  0.906590  1
