# generated using pymatgen
data_NaLa2Pr4IrI12
_symmetry_space_group_name_H-M   'P 1'
_cell_length_a   10.11115629
_cell_length_b   10.11984566
_cell_length_c   10.22540679
_cell_angle_alpha   106.95094226
_cell_angle_beta   107.30364402
_cell_angle_gamma   107.05455425
_symmetry_Int_Tables_number   1
_chemical_formula_structural   NaLa2Pr4IrI12
_chemical_formula_sum   'Na1 La2 Pr4 Ir1 I12'
_cell_volume   868.89903716
_cell_formula_units_Z   1
loop_
 _symmetry_equiv_pos_site_id
 _symmetry_equiv_pos_as_xyz
  1  'x, y, z'
loop_
 _atom_site_type_symbol
 _atom_site_label
 _atom_site_symmetry_multiplicity
 _atom_site_fract_x
 _atom_site_fract_y
 _atom_site_fract_z
 _atom_site_occupancy
  Na  Na0  1  0.500091  0.500134  0.500179  1
  La  La1  1  0.102304  0.305960  0.030284  1
  La  La2  1  0.307165  0.030704  0.103140  1
  Pr  Pr3  1  0.031347  0.106144  0.316834  1
  Pr  Pr4  1  0.967998  0.892396  0.682473  1
  Pr  Pr5  1  0.694892  0.969278  0.897289  1
  Pr  Pr6  1  0.896997  0.695825  0.969485  1
  Ir  Ir7  1  0.002571  0.001906  0.000503  1
  I  I8  1  0.224194  0.681434  0.075068  1
  I  I9  1  0.459620  0.380145  0.151809  1
  I  I10  1  0.683120  0.074483  0.223232  1
  I  I11  1  0.924068  0.773552  0.314662  1
  I  I12  1  0.149702  0.455956  0.377920  1
  I  I13  1  0.377032  0.150259  0.457117  1
  I  I14  1  0.622637  0.850666  0.545489  1
  I  I15  1  0.850205  0.543891  0.624956  1
  I  I16  1  0.074972  0.224521  0.682531  1
  I  I17  1  0.316573  0.924353  0.773915  1
  I  I18  1  0.543391  0.622692  0.849642  1
  I  I19  1  0.771124  0.315701  0.923477  1
