# generated using pymatgen
data_CaPr3Ti8O20
_symmetry_space_group_name_H-M   'P 1'
_cell_length_a   5.86722700
_cell_length_b   7.78904818
_cell_length_c   8.78500021
_cell_angle_alpha   90.02472438
_cell_angle_beta   90.00000000
_cell_angle_gamma   90.00000000
_symmetry_Int_Tables_number   1
_chemical_formula_structural   CaPr3Ti8O20
_chemical_formula_sum   'Ca1 Pr3 Ti8 O20'
_cell_volume   401.47547164
_cell_formula_units_Z   1
loop_
 _symmetry_equiv_pos_site_id
 _symmetry_equiv_pos_as_xyz
  1  'x, y, z'
loop_
 _atom_site_type_symbol
 _atom_site_label
 _atom_site_symmetry_multiplicity
 _atom_site_fract_x
 _atom_site_fract_y
 _atom_site_fract_z
 _atom_site_occupancy
  Ca  Ca0  1  0.000000  0.352131  0.670560  1
  Pr  Pr1  1  0.000000  0.637525  0.332296  1
  Pr  Pr2  1  0.000000  0.857706  0.827817  1
  Pr  Pr3  1  0.000000  0.142865  0.171577  1
  Ti  Ti4  1  0.500000  0.115426  0.856440  1
  Ti  Ti5  1  0.500000  0.883261  0.142494  1
  Ti  Ti6  1  0.500000  0.614883  0.641531  1
  Ti  Ti7  1  0.500000  0.386865  0.360168  1
  Ti  Ti8  1  0.249920  0.499803  0.996147  1
  Ti  Ti9  1  0.748062  0.002406  0.501126  1
  Ti  Ti10  1  0.750080  0.499803  0.996147  1
  Ti  Ti11  1  0.251938  0.002406  0.501126  1
  O  O12  1  0.256756  0.899712  0.289870  1
  O  O13  1  0.257898  0.096693  0.710803  1
  O  O14  1  0.743078  0.400687  0.209809  1
  O  O15  1  0.740600  0.604874  0.792037  1
  O  O16  1  0.742102  0.096693  0.710803  1
  O  O17  1  0.743244  0.899712  0.289870  1
  O  O18  1  0.259400  0.604874  0.792037  1
  O  O19  1  0.256922  0.400687  0.209809  1
  O  O20  1  0.500000  0.335731  0.922949  1
  O  O21  1  0.500000  0.663608  0.077055  1
  O  O22  1  0.500000  0.833940  0.574261  1
  O  O23  1  0.500000  0.165548  0.423053  1
  O  O24  1  0.282402  0.999917  0.000602  1
  O  O25  1  0.717079  0.501013  0.499780  1
  O  O26  1  0.717598  0.999917  0.000602  1
  O  O27  1  0.282921  0.501013  0.499780  1
  O  O28  1  0.000000  0.160627  0.446687  1
  O  O29  1  0.000000  0.839622  0.551966  1
  O  O30  1  0.000000  0.661347  0.053080  1
  O  O31  1  0.000000  0.338709  0.947719  1
