# generated using pymatgen
data_Ho5PaCo5
_symmetry_space_group_name_H-M   'P 1'
_cell_length_a   5.80482119
_cell_length_b   5.80482144
_cell_length_c   21.47330200
_cell_angle_alpha   90.00000000
_cell_angle_beta   90.00000000
_cell_angle_gamma   142.10557301
_symmetry_Int_Tables_number   1
_chemical_formula_structural   Ho5PaCo5
_chemical_formula_sum   'Ho10 Pa2 Co10'
_cell_volume   444.41870255
_cell_formula_units_Z   2
loop_
 _symmetry_equiv_pos_site_id
 _symmetry_equiv_pos_as_xyz
  1  'x, y, z'
loop_
 _atom_site_type_symbol
 _atom_site_label
 _atom_site_symmetry_multiplicity
 _atom_site_fract_x
 _atom_site_fract_y
 _atom_site_fract_z
 _atom_site_occupancy
  Ho  Ho0  1  0.281618  0.718382  0.250000  1
  Ho  Ho1  1  0.281819  0.718181  0.074593  1
  Ho  Ho2  1  0.996476  0.003524  0.836362  1
  Ho  Ho3  1  0.718382  0.281618  0.750000  1
  Ho  Ho4  1  0.718181  0.281819  0.574593  1
  Ho  Ho5  1  0.003524  0.996476  0.336362  1
  Ho  Ho6  1  0.996476  0.003524  0.663638  1
  Ho  Ho7  1  0.718181  0.281819  0.925407  1
  Ho  Ho8  1  0.003524  0.996476  0.163638  1
  Ho  Ho9  1  0.281819  0.718181  0.425407  1
  Pa  Pa10  1  0.000000  0.000000  0.500000  1
  Pa  Pa11  1  0.000000  0.000000  0.000000  1
  Co  Co12  1  0.296904  0.703096  0.658100  1
  Co  Co13  1  0.576396  0.423604  0.435067  1
  Co  Co14  1  0.416348  0.583652  0.750000  1
  Co  Co15  1  0.423604  0.576396  0.935067  1
  Co  Co16  1  0.583652  0.416348  0.250000  1
  Co  Co17  1  0.423604  0.576396  0.564933  1
  Co  Co18  1  0.703096  0.296904  0.341900  1
  Co  Co19  1  0.703096  0.296904  0.158100  1
  Co  Co20  1  0.576396  0.423604  0.064933  1
  Co  Co21  1  0.296904  0.703096  0.841900  1
