# generated using pymatgen
data_Dy5Ti3P12Ir11Ru5
_symmetry_space_group_name_H-M   'P 1'
_cell_length_a   12.72050121
_cell_length_b   12.69715550
_cell_length_c   3.96058100
_cell_angle_alpha   90.00000000
_cell_angle_beta   90.00000000
_cell_angle_gamma   119.93245241
_symmetry_Int_Tables_number   1
_chemical_formula_structural   Dy5Ti3P12Ir11Ru5
_chemical_formula_sum   'Dy5 Ti3 P12 Ir11 Ru5'
_cell_volume   554.36447974
_cell_formula_units_Z   1
loop_
 _symmetry_equiv_pos_site_id
 _symmetry_equiv_pos_as_xyz
  1  'x, y, z'
loop_
 _atom_site_type_symbol
 _atom_site_label
 _atom_site_symmetry_multiplicity
 _atom_site_fract_x
 _atom_site_fract_y
 _atom_site_fract_z
 _atom_site_occupancy
  Dy  Dy0  1  0.667177  0.333115  0.000000  1
  Dy  Dy1  1  0.333614  0.667448  0.000000  1
  Dy  Dy2  1  0.811373  0.000551  0.500000  1
  Dy  Dy3  1  0.188291  0.188250  0.500000  1
  Dy  Dy4  1  0.000591  0.811980  0.500000  1
  Ti  Ti5  1  0.440016  0.998716  0.000000  1
  Ti  Ti6  1  0.556259  0.555667  0.000000  1
  Ti  Ti7  1  0.998193  0.442416  0.000000  1
  P  P8  1  0.635825  0.999853  0.000000  1
  P  P9  1  0.362054  0.362427  0.000000  1
  P  P10  1  0.000259  0.637510  0.000000  1
  P  P11  1  0.688224  0.520342  0.500000  1
  P  P12  1  0.833173  0.308949  0.500000  1
  P  P13  1  0.317171  0.834928  0.500000  1
  P  P14  1  0.521438  0.689380  0.500000  1
  P  P15  1  0.178826  0.999935  0.000000  1
  P  P16  1  0.818453  0.819006  0.000000  1
  P  P17  1  0.996147  0.181670  0.000000  1
  P  P18  1  0.478799  0.165195  0.500000  1
  P  P19  1  0.167854  0.479881  0.500000  1
  Ir  Ir20  1  0.624196  0.804193  0.000000  1
  Ir  Ir21  1  0.181839  0.375606  0.000000  1
  Ir  Ir22  1  0.372774  0.180954  0.000000  1
  Ir  Ir23  1  0.191426  0.818887  0.000000  1
  Ir  Ir24  1  0.806796  0.624931  0.000000  1
  Ir  Ir25  1  0.869368  0.506883  0.500000  1
  Ir  Ir26  1  0.492746  0.359826  0.500000  1
  Ir  Ir27  1  0.639094  0.129388  0.500000  1
  Ir  Ir28  1  0.132701  0.640467  0.500000  1
  Ir  Ir29  1  0.361996  0.492097  0.500000  1
  Ir  Ir30  1  0.997804  0.000821  0.000000  1
  Ru  Ru31  1  0.514111  0.872727  0.500000  1
  Ru  Ru32  1  0.720288  0.718785  0.500000  1
  Ru  Ru33  1  0.002377  0.281803  0.500000  1
  Ru  Ru34  1  0.818419  0.195709  0.000000  1
  Ru  Ru35  1  0.280325  0.999698  0.500000  1
