# generated using pymatgen
data_Y2Ti3Si4
_symmetry_space_group_name_H-M   'P 1'
_cell_length_a   7.06340600
_cell_length_b   7.06340600
_cell_length_c   12.99162700
_cell_angle_alpha   90.00000000
_cell_angle_beta   90.00000000
_cell_angle_gamma   90.00000000
_symmetry_Int_Tables_number   1
_chemical_formula_structural   Y2Ti3Si4
_chemical_formula_sum   'Y8 Ti12 Si16'
_cell_volume   648.17441293
_cell_formula_units_Z   4
loop_
 _symmetry_equiv_pos_site_id
 _symmetry_equiv_pos_as_xyz
  1  'x, y, z'
loop_
 _atom_site_type_symbol
 _atom_site_label
 _atom_site_symmetry_multiplicity
 _atom_site_fract_x
 _atom_site_fract_y
 _atom_site_fract_z
 _atom_site_occupancy
  Y  Y0  1  0.340959  0.002719  0.466385  1
  Y  Y1  1  0.659040  0.997282  0.966385  1
  Y  Y2  1  0.840959  0.497282  0.283615  1
  Y  Y3  1  0.159041  0.502719  0.783615  1
  Y  Y4  1  0.997282  0.659040  0.033615  1
  Y  Y5  1  0.002719  0.340959  0.533615  1
  Y  Y6  1  0.502719  0.159041  0.216385  1
  Y  Y7  1  0.497282  0.840959  0.716385  1
  Ti  Ti8  1  0.327191  0.327191  0.000000  1
  Ti  Ti9  1  0.672809  0.672809  0.500000  1
  Ti  Ti10  1  0.827192  0.172809  0.750000  1
  Ti  Ti11  1  0.172809  0.827192  0.250000  1
  Ti  Ti12  1  0.152155  0.008375  0.876346  1
  Ti  Ti13  1  0.847846  0.991625  0.376345  1
  Ti  Ti14  1  0.652155  0.491625  0.873654  1
  Ti  Ti15  1  0.347845  0.508376  0.373654  1
  Ti  Ti16  1  0.991625  0.847846  0.623654  1
  Ti  Ti17  1  0.008375  0.152155  0.123654  1
  Ti  Ti18  1  0.508376  0.347845  0.626345  1
  Ti  Ti19  1  0.491625  0.652155  0.126346  1
  Si  Si20  1  0.289866  0.952900  0.064721  1
  Si  Si21  1  0.710133  0.047101  0.564722  1
  Si  Si22  1  0.789867  0.547101  0.685279  1
  Si  Si23  1  0.210134  0.452899  0.185279  1
  Si  Si24  1  0.047101  0.710133  0.435279  1
  Si  Si25  1  0.952900  0.289866  0.935279  1
  Si  Si26  1  0.452899  0.210134  0.814722  1
  Si  Si27  1  0.547101  0.789867  0.314721  1
  Si  Si28  1  0.202042  0.130561  0.685054  1
  Si  Si29  1  0.797957  0.869439  0.185054  1
  Si  Si30  1  0.702042  0.369439  0.064945  1
  Si  Si31  1  0.297958  0.630562  0.564945  1
  Si  Si32  1  0.869439  0.797957  0.814946  1
  Si  Si33  1  0.130561  0.202042  0.314945  1
  Si  Si34  1  0.630562  0.297958  0.435054  1
  Si  Si35  1  0.369439  0.702042  0.935054  1
