# generated using pymatgen
data_Sm5Sc3(Co4P3)4
_symmetry_space_group_name_H-M   'P 1'
_cell_length_a   12.34951600
_cell_length_b   12.34951513
_cell_length_c   3.76787900
_cell_angle_alpha   90.00000000
_cell_angle_beta   90.00000000
_cell_angle_gamma   120.00000768
_symmetry_Int_Tables_number   1
_chemical_formula_structural   Sm5Sc3(Co4P3)4
_chemical_formula_sum   'Sm5 Sc3 Co16 P12'
_cell_volume   497.65387423
_cell_formula_units_Z   1
loop_
 _symmetry_equiv_pos_site_id
 _symmetry_equiv_pos_as_xyz
  1  'x, y, z'
loop_
 _atom_site_type_symbol
 _atom_site_label
 _atom_site_symmetry_multiplicity
 _atom_site_fract_x
 _atom_site_fract_y
 _atom_site_fract_z
 _atom_site_occupancy
  Sm  Sm0  1  0.666667  0.333333  0.000000  1
  Sm  Sm1  1  0.333333  0.666667  0.000000  1
  Sm  Sm2  1  0.815459  0.815459  0.500000  1
  Sm  Sm3  1  0.184541  0.000000  0.500000  1
  Sm  Sm4  1  0.000000  0.184541  0.500000  1
  Sc  Sc5  1  0.438738  0.438738  0.000000  1
  Sc  Sc6  1  0.561262  0.000000  0.000000  1
  Sc  Sc7  1  0.000000  0.561262  0.000000  1
  Co  Co8  1  0.876505  0.355022  0.500000  1
  Co  Co9  1  0.644978  0.521483  0.500000  1
  Co  Co10  1  0.478517  0.123495  0.500000  1
  Co  Co11  1  0.355022  0.876505  0.500000  1
  Co  Co12  1  0.521483  0.644978  0.500000  1
  Co  Co13  1  0.123495  0.478517  0.500000  1
  Co  Co14  1  0.804120  0.179033  0.000000  1
  Co  Co15  1  0.820967  0.625087  0.000000  1
  Co  Co16  1  0.374913  0.195880  0.000000  1
  Co  Co17  1  0.179033  0.804120  0.000000  1
  Co  Co18  1  0.625087  0.820967  0.000000  1
  Co  Co19  1  0.195880  0.374913  0.000000  1
  Co  Co20  1  0.279305  0.279305  0.500000  1
  Co  Co21  1  0.720695  0.000000  0.500000  1
  Co  Co22  1  0.000000  0.720695  0.500000  1
  Co  Co23  1  0.000000  0.000000  0.000000  1
  P  P24  1  0.693784  0.169879  0.500000  1
  P  P25  1  0.830121  0.523906  0.500000  1
  P  P26  1  0.476094  0.306216  0.500000  1
  P  P27  1  0.169879  0.693784  0.500000  1
  P  P28  1  0.523906  0.830121  0.500000  1
  P  P29  1  0.306216  0.476094  0.500000  1
  P  P30  1  0.181376  0.181376  0.000000  1
  P  P31  1  0.818624  0.000000  0.000000  1
  P  P32  1  0.000000  0.818624  0.000000  1
  P  P33  1  0.642889  0.642889  0.000000  1
  P  P34  1  0.357111  0.000000  0.000000  1
  P  P35  1  0.000000  0.357111  0.000000  1
