# generated using pymatgen
data_YTm4(In2Ni)2
_symmetry_space_group_name_H-M   'P 1'
_cell_length_a   3.55850000
_cell_length_b   7.94350700
_cell_length_c   17.79216400
_cell_angle_alpha   90.00000000
_cell_angle_beta   90.00000000
_cell_angle_gamma   90.00000000
_symmetry_Int_Tables_number   1
_chemical_formula_structural   YTm4(In2Ni)2
_chemical_formula_sum   'Y2 Tm8 In8 Ni4'
_cell_volume   502.93055996
_cell_formula_units_Z   2
loop_
 _symmetry_equiv_pos_site_id
 _symmetry_equiv_pos_as_xyz
  1  'x, y, z'
loop_
 _atom_site_type_symbol
 _atom_site_label
 _atom_site_symmetry_multiplicity
 _atom_site_fract_x
 _atom_site_fract_y
 _atom_site_fract_z
 _atom_site_occupancy
  Y  Y0  1  0.000000  0.500000  0.500000  1
  Y  Y1  1  0.000000  0.000000  0.000000  1
  Tm  Tm2  1  0.000000  0.746130  0.278293  1
  Tm  Tm3  1  0.000000  0.253870  0.721707  1
  Tm  Tm4  1  0.000000  0.753870  0.778293  1
  Tm  Tm5  1  0.000000  0.246130  0.221707  1
  Tm  Tm6  1  0.000000  0.617364  0.088912  1
  Tm  Tm7  1  0.000000  0.382636  0.911088  1
  Tm  Tm8  1  0.000000  0.882636  0.588912  1
  Tm  Tm9  1  0.000000  0.117364  0.411088  1
  In  In10  1  0.500000  0.703190  0.930753  1
  In  In11  1  0.500000  0.296810  0.069247  1
  In  In12  1  0.500000  0.796810  0.430753  1
  In  In13  1  0.500000  0.203190  0.569247  1
  In  In14  1  0.500000  0.573067  0.652548  1
  In  In15  1  0.500000  0.426933  0.347452  1
  In  In16  1  0.500000  0.926933  0.152548  1
  In  In17  1  0.500000  0.073067  0.847452  1
  Ni  Ni18  1  0.500000  0.524049  0.195774  1
  Ni  Ni19  1  0.500000  0.475951  0.804226  1
  Ni  Ni20  1  0.500000  0.975951  0.695774  1
  Ni  Ni21  1  0.500000  0.024049  0.304226  1
