# generated using pymatgen
data_K3Ho(TaS4)2
_symmetry_space_group_name_H-M   'P 1'
_cell_length_a   9.03786263
_cell_length_b   10.33367961
_cell_length_c   11.16096265
_cell_angle_alpha   107.55828555
_cell_angle_beta   102.74803733
_cell_angle_gamma   113.45746966
_symmetry_Int_Tables_number   1
_chemical_formula_structural   K3Ho(TaS4)2
_chemical_formula_sum   'K6 Ho2 Ta4 S16'
_cell_volume   839.63805044
_cell_formula_units_Z   2
loop_
 _symmetry_equiv_pos_site_id
 _symmetry_equiv_pos_as_xyz
  1  'x, y, z'
loop_
 _atom_site_type_symbol
 _atom_site_label
 _atom_site_symmetry_multiplicity
 _atom_site_fract_x
 _atom_site_fract_y
 _atom_site_fract_z
 _atom_site_occupancy
  K  K0  1  0.499993  0.499990  0.999992  1
  K  K1  1  0.999988  0.499997  0.000002  1
  K  K2  1  0.254964  0.004645  0.009440  1
  K  K3  1  0.488518  0.738714  0.477394  1
  K  K4  1  0.511478  0.261272  0.522598  1
  K  K5  1  0.745064  0.995384  0.990585  1
  Ho  Ho6  1  0.993198  0.243193  0.486419  1
  Ho  Ho7  1  0.006803  0.756809  0.513581  1
  Ta  Ta8  1  0.003731  0.904407  0.256384  1
  Ta  Ta9  1  0.752591  0.351974  0.256332  1
  Ta  Ta10  1  0.247407  0.648028  0.743668  1
  Ta  Ta11  1  0.996272  0.095593  0.743616  1
  S  S12  1  0.880891  0.756783  0.027069  1
  S  S13  1  0.646057  0.270295  0.027010  1
  S  S14  1  0.131669  0.164437  0.298818  1
  S  S15  1  0.667068  0.134366  0.298758  1
  S  S16  1  0.805168  0.863464  0.354668  1
  S  S17  1  0.049448  0.491149  0.354583  1
  S  S18  1  0.203530  0.850137  0.361142  1
  S  S19  1  0.657609  0.511006  0.361072  1
  S  S20  1  0.342387  0.488993  0.638928  1
  S  S21  1  0.796470  0.149858  0.638855  1
  S  S22  1  0.950550  0.508845  0.645413  1
  S  S23  1  0.194834  0.136535  0.645332  1
  S  S24  1  0.332932  0.865635  0.701239  1
  S  S25  1  0.868333  0.835562  0.701181  1
  S  S26  1  0.353939  0.729704  0.972989  1
  S  S27  1  0.119109  0.243222  0.972933  1
