# generated using pymatgen
data_PmGaNi4
_symmetry_space_group_name_H-M   'P 1'
_cell_length_a   4.96242143
_cell_length_b   5.05183512
_cell_length_c   4.02101600
_cell_angle_alpha   90.00000000
_cell_angle_beta   90.00000000
_cell_angle_gamma   59.28718943
_symmetry_Int_Tables_number   1
_chemical_formula_structural   PmGaNi4
_chemical_formula_sum   'Pm1 Ga1 Ni4'
_cell_volume   86.66520829
_cell_formula_units_Z   1
loop_
 _symmetry_equiv_pos_site_id
 _symmetry_equiv_pos_as_xyz
  1  'x, y, z'
loop_
 _atom_site_type_symbol
 _atom_site_label
 _atom_site_symmetry_multiplicity
 _atom_site_fract_x
 _atom_site_fract_y
 _atom_site_fract_z
 _atom_site_occupancy
  Pm  Pm0  1  0.000076  0.999907  0.000000  1
  Ga  Ga1  1  0.999790  0.499914  0.499999  1
  Ni  Ni2  1  0.336805  0.331574  0.000000  1
  Ni  Ni3  1  0.663372  0.668336  0.000000  1
  Ni  Ni4  1  0.500203  0.000020  0.499999  1
  Ni  Ni5  1  0.499747  0.500252  0.499999  1
