# generated using pymatgen
data_Hf(TiRe6)4
_symmetry_space_group_name_H-M   'P 1'
_cell_length_a   8.38932024
_cell_length_b   8.38931940
_cell_length_c   8.38931900
_cell_angle_alpha   109.47122208
_cell_angle_beta   109.47122006
_cell_angle_gamma   109.47122664
_symmetry_Int_Tables_number   1
_chemical_formula_structural   Hf(TiRe6)4
_chemical_formula_sum   'Hf1 Ti4 Re24'
_cell_volume   454.52553089
_cell_formula_units_Z   1
loop_
 _symmetry_equiv_pos_site_id
 _symmetry_equiv_pos_as_xyz
  1  'x, y, z'
loop_
 _atom_site_type_symbol
 _atom_site_label
 _atom_site_symmetry_multiplicity
 _atom_site_fract_x
 _atom_site_fract_y
 _atom_site_fract_z
 _atom_site_occupancy
  Hf  Hf0  1  0.000000  0.000000  0.000000  1
  Ti  Ti1  1  0.630468  0.000000  0.000000  1
  Ti  Ti2  1  0.000000  0.630468  0.000000  1
  Ti  Ti3  1  0.000000  0.000000  0.630468  1
  Ti  Ti4  1  0.369532  0.369532  0.369532  1
  Re  Re5  1  0.399738  0.681864  0.000000  1
  Re  Re6  1  0.717874  0.318136  0.318136  1
  Re  Re7  1  0.399738  0.000000  0.681864  1
  Re  Re8  1  0.681864  0.399738  0.000000  1
  Re  Re9  1  0.000000  0.399738  0.681864  1
  Re  Re10  1  0.318136  0.717874  0.318136  1
  Re  Re11  1  0.318136  0.318136  0.717874  1
  Re  Re12  1  0.000000  0.681864  0.399738  1
  Re  Re13  1  0.681864  0.000000  0.399738  1
  Re  Re14  1  0.600262  0.600262  0.282126  1
  Re  Re15  1  0.282126  0.600262  0.600262  1
  Re  Re16  1  0.600262  0.282126  0.600262  1
  Re  Re17  1  0.376310  0.193864  0.000000  1
  Re  Re18  1  0.182445  0.806136  0.806136  1
  Re  Re19  1  0.376310  0.000000  0.193864  1
  Re  Re20  1  0.193864  0.376310  0.000000  1
  Re  Re21  1  0.000000  0.376310  0.193864  1
  Re  Re22  1  0.806136  0.182445  0.806136  1
  Re  Re23  1  0.806136  0.806136  0.182445  1
  Re  Re24  1  0.000000  0.193864  0.376310  1
  Re  Re25  1  0.193864  0.000000  0.376310  1
  Re  Re26  1  0.623690  0.623690  0.817555  1
  Re  Re27  1  0.817555  0.623690  0.623690  1
  Re  Re28  1  0.623690  0.817555  0.623690  1
