# generated using pymatgen
data_TbGdDy2(CrB4)4
_symmetry_space_group_name_H-M   'P 1'
_cell_length_a   5.94511045
_cell_length_b   11.49007425
_cell_length_c   3.45486200
_cell_angle_alpha   90.00000000
_cell_angle_beta   90.00000000
_cell_angle_gamma   90.04213238
_symmetry_Int_Tables_number   1
_chemical_formula_structural   TbGdDy2(CrB4)4
_chemical_formula_sum   'Tb1 Gd1 Dy2 Cr4 B16'
_cell_volume   236.00073181
_cell_formula_units_Z   1
loop_
 _symmetry_equiv_pos_site_id
 _symmetry_equiv_pos_as_xyz
  1  'x, y, z'
loop_
 _atom_site_type_symbol
 _atom_site_label
 _atom_site_symmetry_multiplicity
 _atom_site_fract_x
 _atom_site_fract_y
 _atom_site_fract_z
 _atom_site_occupancy
  Tb  Tb0  1  0.876075  0.848849  0.000000  1
  Gd  Gd1  1  0.124255  0.151050  0.000000  1
  Dy  Dy2  1  0.623938  0.349481  0.000000  1
  Dy  Dy3  1  0.376080  0.650788  0.000000  1
  Cr  Cr4  1  0.623766  0.080458  0.000000  1
  Cr  Cr5  1  0.376593  0.918668  0.000000  1
  Cr  Cr6  1  0.123647  0.419696  0.000000  1
  Cr  Cr7  1  0.876044  0.581098  0.000000  1
  B  B8  1  0.779837  0.184191  0.500000  1
  B  B9  1  0.219939  0.815340  0.500000  1
  B  B10  1  0.280565  0.316597  0.500000  1
  B  B11  1  0.719209  0.683951  0.500000  1
  B  B12  1  0.862101  0.032237  0.500000  1
  B  B13  1  0.138248  0.966841  0.500000  1
  B  B14  1  0.362488  0.468003  0.500000  1
  B  B15  1  0.637395  0.532787  0.500000  1
  B  B16  1  0.886395  0.453808  0.500000  1
  B  B17  1  0.113193  0.546963  0.500000  1
  B  B18  1  0.387320  0.046194  0.500000  1
  B  B19  1  0.613054  0.952947  0.500000  1
  B  B20  1  0.974201  0.309466  0.500000  1
  B  B21  1  0.025506  0.691133  0.500000  1
  B  B22  1  0.475114  0.191240  0.500000  1
  B  B23  1  0.525034  0.808218  0.500000  1
