# generated using pymatgen
data_Ca5LuU2O12
_symmetry_space_group_name_H-M   'P 1'
_cell_length_a   6.75254557
_cell_length_b   6.78381024
_cell_length_c   6.75848018
_cell_angle_alpha   90.99400705
_cell_angle_beta   90.93303228
_cell_angle_gamma   90.87176971
_symmetry_Int_Tables_number   1
_chemical_formula_structural   Ca5LuU2O12
_chemical_formula_sum   'Ca5 Lu1 U2 O12'
_cell_volume   309.46755724
_cell_formula_units_Z   1
loop_
 _symmetry_equiv_pos_site_id
 _symmetry_equiv_pos_as_xyz
  1  'x, y, z'
loop_
 _atom_site_type_symbol
 _atom_site_label
 _atom_site_symmetry_multiplicity
 _atom_site_fract_x
 _atom_site_fract_y
 _atom_site_fract_z
 _atom_site_occupancy
  Ca  Ca0  1  0.555344  0.248396  0.058935  1
  Ca  Ca1  1  0.058288  0.554095  0.250412  1
  Ca  Ca2  1  0.749664  0.939256  0.443265  1
  Ca  Ca3  1  0.446986  0.751364  0.942544  1
  Ca  Ca4  1  0.939654  0.449178  0.751422  1
  Lu  Lu5  1  0.249590  0.061993  0.558689  1
  U  U6  1  0.004691  0.002943  0.000776  1
  U  U7  1  0.496890  0.499662  0.500963  1
  O  O8  1  0.081437  0.937218  0.306806  1
  O  O9  1  0.300151  0.068031  0.901237  1
  O  O10  1  0.925356  0.295495  0.061669  1
  O  O11  1  0.946441  0.071180  0.696569  1
  O  O12  1  0.709801  0.935857  0.078411  1
  O  O13  1  0.077426  0.708979  0.940146  1
  O  O14  1  0.411228  0.537853  0.205862  1
  O  O15  1  0.199999  0.392916  0.542344  1
  O  O16  1  0.524853  0.191602  0.419045  1
  O  O17  1  0.586150  0.461951  0.795850  1
  O  O18  1  0.794200  0.589457  0.458975  1
  O  O19  1  0.441848  0.802576  0.586076  1
