# generated using pymatgen
data_HoTh3(ZnRh)4
_symmetry_space_group_name_H-M   'P 1'
_cell_length_a   3.99328000
_cell_length_b   7.18608628
_cell_length_c   8.41253742
_cell_angle_alpha   90.28897622
_cell_angle_beta   90.00000000
_cell_angle_gamma   90.00000000
_symmetry_Int_Tables_number   1
_chemical_formula_structural   HoTh3(ZnRh)4
_chemical_formula_sum   'Ho1 Th3 Zn4 Rh4'
_cell_volume   241.40356302
_cell_formula_units_Z   1
loop_
 _symmetry_equiv_pos_site_id
 _symmetry_equiv_pos_as_xyz
  1  'x, y, z'
loop_
 _atom_site_type_symbol
 _atom_site_label
 _atom_site_symmetry_multiplicity
 _atom_site_fract_x
 _atom_site_fract_y
 _atom_site_fract_z
 _atom_site_occupancy
  Ho  Ho0  1  0.750000  0.946670  0.691349  1
  Th  Th1  1  0.250000  0.547935  0.187030  1
  Th  Th2  1  0.750000  0.448376  0.806644  1
  Th  Th3  1  0.250000  0.048332  0.318973  1
  Zn  Zn4  1  0.250000  0.117341  0.935419  1
  Zn  Zn5  1  0.750000  0.876968  0.055991  1
  Zn  Zn6  1  0.250000  0.638557  0.561187  1
  Zn  Zn7  1  0.750000  0.375637  0.441561  1
  Rh  Rh8  1  0.750000  0.762012  0.368329  1
  Rh  Rh9  1  0.250000  0.246004  0.627196  1
  Rh  Rh10  1  0.750000  0.260127  0.129054  1
  Rh  Rh11  1  0.250000  0.732042  0.877268  1
