# generated using pymatgen
data_Cs2Cu3(SeO3)4
_symmetry_space_group_name_H-M   'P 1'
_cell_length_a   5.52829507
_cell_length_b   8.53209025
_cell_length_c   8.84949116
_cell_angle_alpha   101.05763949
_cell_angle_beta   107.11724216
_cell_angle_gamma   93.24197297
_symmetry_Int_Tables_number   1
_chemical_formula_structural   Cs2Cu3(SeO3)4
_chemical_formula_sum   'Cs2 Cu3 Se4 O12'
_cell_volume   388.66462224
_cell_formula_units_Z   1
loop_
 _symmetry_equiv_pos_site_id
 _symmetry_equiv_pos_as_xyz
  1  'x, y, z'
loop_
 _atom_site_type_symbol
 _atom_site_label
 _atom_site_symmetry_multiplicity
 _atom_site_fract_x
 _atom_site_fract_y
 _atom_site_fract_z
 _atom_site_occupancy
  Cs  Cs0  1  0.858127  0.438054  0.724175  1
  Cs  Cs1  1  0.141873  0.561946  0.275825  1
  Cu  Cu2  1  0.594891  0.219873  0.222213  1
  Cu  Cu3  1  0.405109  0.780127  0.777787  1
  Cu  Cu4  1  0.000000  0.000000  0.000000  1
  Se  Se5  1  0.427963  0.163368  0.881262  1
  Se  Se6  1  0.181686  0.134380  0.403879  1
  Se  Se7  1  0.818314  0.865620  0.596121  1
  Se  Se8  1  0.572037  0.836632  0.118738  1
  O  O9  1  0.567505  0.742136  0.609137  1
  O  O10  1  0.722518  0.218947  0.037528  1
  O  O11  1  0.936577  0.255402  0.382027  1
  O  O12  1  0.375237  0.323076  0.798713  1
  O  O13  1  0.899420  0.016893  0.769914  1
  O  O14  1  0.624763  0.676924  0.201287  1
  O  O15  1  0.063423  0.744598  0.617973  1
  O  O16  1  0.277482  0.781053  0.962472  1
  O  O17  1  0.728337  0.816066  0.961974  1
  O  O18  1  0.271663  0.183934  0.038026  1
  O  O19  1  0.432495  0.257864  0.390863  1
  O  O20  1  0.100580  0.983107  0.230086  1
