# generated using pymatgen
data_Tb7SmHf12Si15Pd
_symmetry_space_group_name_H-M   'P 1'
_cell_length_a   7.28423986
_cell_length_b   7.33819717
_cell_length_c   13.44479164
_cell_angle_alpha   89.93405551
_cell_angle_beta   89.86571326
_cell_angle_gamma   90.07926419
_symmetry_Int_Tables_number   1
_chemical_formula_structural   Tb7SmHf12Si15Pd
_chemical_formula_sum   'Tb7 Sm1 Hf12 Si15 Pd1'
_cell_volume   718.66383943
_cell_formula_units_Z   1
loop_
 _symmetry_equiv_pos_site_id
 _symmetry_equiv_pos_as_xyz
  1  'x, y, z'
loop_
 _atom_site_type_symbol
 _atom_site_label
 _atom_site_symmetry_multiplicity
 _atom_site_fract_x
 _atom_site_fract_y
 _atom_site_fract_z
 _atom_site_occupancy
  Tb  Tb0  1  0.005018  0.655027  0.715026  1
  Tb  Tb1  1  0.157108  0.497384  0.465324  1
  Tb  Tb2  1  0.503845  0.843022  0.033473  1
  Tb  Tb3  1  0.843271  0.502446  0.964875  1
  Tb  Tb4  1  0.496827  0.155161  0.537547  1
  Tb  Tb5  1  0.343350  0.997927  0.785074  1
  Tb  Tb6  1  0.660875  0.998715  0.283877  1
  Sm  Sm7  1  0.992415  0.346317  0.214954  1
  Hf  Hf8  1  0.174696  0.176127  0.998862  1
  Hf  Hf9  1  0.826854  0.825028  0.500381  1
  Hf  Hf10  1  0.326207  0.679743  0.249962  1
  Hf  Hf11  1  0.675249  0.324433  0.750173  1
  Hf  Hf12  1  0.149816  0.999387  0.374318  1
  Hf  Hf13  1  0.850821  0.003908  0.874444  1
  Hf  Hf14  1  0.504605  0.650156  0.624674  1
  Hf  Hf15  1  0.351478  0.495478  0.874668  1
  Hf  Hf16  1  0.493093  0.348702  0.124187  1
  Hf  Hf17  1  0.648499  0.508135  0.380184  1
  Hf  Hf18  1  0.996432  0.148959  0.626252  1
  Hf  Hf19  1  0.001168  0.848344  0.123530  1
  Si  Si20  1  0.637133  0.705898  0.818008  1
  Si  Si21  1  0.204348  0.862680  0.567127  1
  Si  Si22  1  0.137391  0.795312  0.932084  1
  Si  Si23  1  0.794627  0.136173  0.065733  1
  Si  Si24  1  0.860702  0.200455  0.435277  1
  Si  Si25  1  0.295874  0.362962  0.683430  1
  Si  Si26  1  0.702662  0.639292  0.182457  1
  Si  Si27  1  0.291820  0.045362  0.182429  1
  Si  Si28  1  0.705847  0.950989  0.685651  1
  Si  Si29  1  0.449829  0.796267  0.436271  1
  Si  Si30  1  0.205885  0.550366  0.063013  1
  Si  Si31  1  0.548345  0.205008  0.935188  1
  Si  Si32  1  0.795181  0.450163  0.566286  1
  Si  Si33  1  0.048211  0.295692  0.814660  1
  Si  Si34  1  0.950587  0.707212  0.314182  1
  Pd  Pd35  1  0.369928  0.291773  0.316417  1
