# generated using pymatgen
data_Dy2Si5(PRh6)2
_symmetry_space_group_name_H-M   'P 1'
_cell_length_a   9.72025483
_cell_length_b   9.70444574
_cell_length_c   3.84644368
_cell_angle_alpha   89.94789934
_cell_angle_beta   90.06077199
_cell_angle_gamma   119.88381006
_symmetry_Int_Tables_number   1
_chemical_formula_structural   Dy2Si5(PRh6)2
_chemical_formula_sum   'Dy2 Si5 P2 Rh12'
_cell_volume   314.59034875
_cell_formula_units_Z   1
loop_
 _symmetry_equiv_pos_site_id
 _symmetry_equiv_pos_as_xyz
  1  'x, y, z'
loop_
 _atom_site_type_symbol
 _atom_site_label
 _atom_site_symmetry_multiplicity
 _atom_site_fract_x
 _atom_site_fract_y
 _atom_site_fract_z
 _atom_site_occupancy
  Dy  Dy0  1  0.332725  0.665994  0.742184  1
  Dy  Dy1  1  0.666109  0.334638  0.240952  1
  Si  Si2  1  0.000635  0.997590  0.672443  1
  Si  Si3  1  0.400043  0.288038  0.741345  1
  Si  Si4  1  0.711996  0.113936  0.742154  1
  Si  Si5  1  0.885998  0.600038  0.741692  1
  Si  Si6  1  0.598577  0.708682  0.241336  1
  P  P7  1  0.291611  0.888061  0.239953  1
  P  P8  1  0.111168  0.401481  0.240155  1
  Rh  Rh9  1  0.445224  0.067021  0.741694  1
  Rh  Rh10  1  0.934863  0.381102  0.742357  1
  Rh  Rh11  1  0.619553  0.556219  0.741708  1
  Rh  Rh12  1  0.554545  0.940157  0.240467  1
  Rh  Rh13  1  0.063383  0.616344  0.240049  1
  Rh  Rh14  1  0.378173  0.440690  0.240296  1
  Rh  Rh15  1  0.147413  0.271924  0.740176  1
  Rh  Rh16  1  0.728539  0.878366  0.740448  1
  Rh  Rh17  1  0.126961  0.848300  0.739572  1
  Rh  Rh18  1  0.865837  0.752257  0.243533  1
  Rh  Rh19  1  0.247833  0.106333  0.242952  1
  Rh  Rh20  1  0.888814  0.142830  0.244535  1
