# generated using pymatgen
data_Ho4Al18NiIr4Pd
_symmetry_space_group_name_H-M   'P 1'
_cell_length_a   7.53271287
_cell_length_b   7.53188735
_cell_length_c   9.40913423
_cell_angle_alpha   89.86349788
_cell_angle_beta   89.88015850
_cell_angle_gamma   119.39956663
_symmetry_Int_Tables_number   1
_chemical_formula_structural   Ho4Al18NiIr4Pd
_chemical_formula_sum   'Ho4 Al18 Ni1 Ir4 Pd1'
_cell_volume   465.07952600
_cell_formula_units_Z   1
loop_
 _symmetry_equiv_pos_site_id
 _symmetry_equiv_pos_as_xyz
  1  'x, y, z'
loop_
 _atom_site_type_symbol
 _atom_site_label
 _atom_site_symmetry_multiplicity
 _atom_site_fract_x
 _atom_site_fract_y
 _atom_site_fract_z
 _atom_site_occupancy
  Ho  Ho0  1  0.997288  0.674714  0.250952  1
  Ho  Ho1  1  0.006704  0.328185  0.748850  1
  Ho  Ho2  1  0.671855  0.993449  0.251088  1
  Ho  Ho3  1  0.325184  0.002545  0.748998  1
  Al  Al4  1  0.130064  0.130737  0.249460  1
  Al  Al5  1  0.869277  0.869877  0.750506  1
  Al  Al6  1  0.992138  0.332531  0.076243  1
  Al  Al7  1  0.992736  0.661607  0.923982  1
  Al  Al8  1  0.998879  0.662979  0.575304  1
  Al  Al9  1  0.336997  0.001112  0.424619  1
  Al  Al10  1  0.000033  0.335611  0.424601  1
  Al  Al11  1  0.664438  0.000003  0.575334  1
  Al  Al12  1  0.667488  0.007982  0.923744  1
  Al  Al13  1  0.338311  0.007124  0.076064  1
  Al  Al14  1  0.333246  0.332202  0.549285  1
  Al  Al15  1  0.667801  0.666839  0.450606  1
  Al  Al16  1  0.668663  0.664920  0.054906  1
  Al  Al17  1  0.335122  0.331253  0.945096  1
  Al  Al18  1  0.341274  0.547378  0.251816  1
  Al  Al19  1  0.658712  0.445455  0.752545  1
  Al  Al20  1  0.554256  0.341341  0.247729  1
  Al  Al21  1  0.452802  0.658638  0.748006  1
  Ni  Ni22  1  0.670366  0.329858  0.000578  1
  Ir  Ir23  1  0.328171  0.671846  0.499961  1
  Ir  Ir24  1  0.672045  0.328007  0.500030  1
  Ir  Ir25  1  0.999153  0.000832  0.999977  1
  Ir  Ir26  1  0.000271  0.999761  0.500000  1
  Pd  Pd27  1  0.326728  0.673217  0.999718  1
