# generated using pymatgen
data_Ti5Mn(ZnRh2)6
_symmetry_space_group_name_H-M   'P 1'
_cell_length_a   4.33064300
_cell_length_b   6.09525200
_cell_length_c   12.94602600
_cell_angle_alpha   90.00000000
_cell_angle_beta   90.00094985
_cell_angle_gamma   90.00000000
_symmetry_Int_Tables_number   1
_chemical_formula_structural   Ti5Mn(ZnRh2)6
_chemical_formula_sum   'Ti5 Mn1 Zn6 Rh12'
_cell_volume   341.72796811
_cell_formula_units_Z   1
loop_
 _symmetry_equiv_pos_site_id
 _symmetry_equiv_pos_as_xyz
  1  'x, y, z'
loop_
 _atom_site_type_symbol
 _atom_site_label
 _atom_site_symmetry_multiplicity
 _atom_site_fract_x
 _atom_site_fract_y
 _atom_site_fract_z
 _atom_site_occupancy
  Ti  Ti0  1  0.000000  0.500001  0.998418  1
  Ti  Ti1  1  0.499816  0.000000  0.165641  1
  Ti  Ti2  1  0.999813  0.500001  0.333336  1
  Ti  Ti3  1  0.500002  0.000000  0.501018  1
  Ti  Ti4  1  0.000185  0.500001  0.668246  1
  Mn  Mn5  1  0.500192  0.000000  0.833344  1
  Zn  Zn6  1  0.999991  0.000000  0.999052  1
  Zn  Zn7  1  0.499815  0.500001  0.165861  1
  Zn  Zn8  1  0.999810  0.000000  0.333327  1
  Zn  Zn9  1  0.500001  0.500001  0.500810  1
  Zn  Zn10  1  0.000187  0.000000  0.667620  1
  Zn  Zn11  1  0.500191  0.500001  0.833330  1
  Rh  Rh12  1  0.499991  0.249088  0.000804  1
  Rh  Rh13  1  0.499991  0.750911  0.000804  1
  Rh  Rh14  1  0.999827  0.249340  0.166847  1
  Rh  Rh15  1  0.999827  0.750660  0.166847  1
  Rh  Rh16  1  0.499826  0.250556  0.333333  1
  Rh  Rh17  1  0.499826  0.749443  0.333333  1
  Rh  Rh18  1  0.000002  0.249335  0.499817  1
  Rh  Rh19  1  0.000002  0.750665  0.499817  1
  Rh  Rh20  1  0.500173  0.249085  0.665864  1
  Rh  Rh21  1  0.500173  0.750914  0.665864  1
  Rh  Rh22  1  0.000176  0.247792  0.833334  1
  Rh  Rh23  1  0.000176  0.752208  0.833334  1
