# generated using pymatgen
data_Ho4Ge3Bi3Rh7
_symmetry_space_group_name_H-M   'P 1'
_cell_length_a   7.49852542
_cell_length_b   7.49852586
_cell_length_c   7.59834900
_cell_angle_alpha   109.74111658
_cell_angle_beta   109.74111780
_cell_angle_gamma   109.19998284
_symmetry_Int_Tables_number   1
_chemical_formula_structural   Ho4Ge3Bi3Rh7
_chemical_formula_sum   'Ho4 Ge3 Bi3 Rh7'
_cell_volume   327.78694947
_cell_formula_units_Z   1
loop_
 _symmetry_equiv_pos_site_id
 _symmetry_equiv_pos_as_xyz
  1  'x, y, z'
loop_
 _atom_site_type_symbol
 _atom_site_label
 _atom_site_symmetry_multiplicity
 _atom_site_fract_x
 _atom_site_fract_y
 _atom_site_fract_z
 _atom_site_occupancy
  Ho  Ho0  1  0.000000  0.000000  0.555438  1
  Ho  Ho1  1  0.000000  0.471476  0.982652  1
  Ho  Ho2  1  0.471476  0.000000  0.982652  1
  Ho  Ho3  1  0.528524  0.528524  0.511177  1
  Ge  Ge4  1  0.338436  0.338436  0.007641  1
  Ge  Ge5  1  0.661564  0.000000  0.669205  1
  Ge  Ge6  1  0.000000  0.661564  0.669205  1
  Bi  Bi7  1  0.705780  0.705780  0.013623  1
  Bi  Bi8  1  0.294220  0.000000  0.307842  1
  Bi  Bi9  1  0.000000  0.294220  0.307842  1
  Rh  Rh10  1  0.750285  0.251483  0.510065  1
  Rh  Rh11  1  0.748517  0.498802  0.258584  1
  Rh  Rh12  1  0.501198  0.249715  0.759781  1
  Rh  Rh13  1  0.249715  0.501198  0.759781  1
  Rh  Rh14  1  0.251483  0.750285  0.510065  1
  Rh  Rh15  1  0.498802  0.748517  0.258584  1
  Rh  Rh16  1  0.000000  0.000000  0.935865  1
