# generated using pymatgen
data_Cs6K2NbAs4
_symmetry_space_group_name_H-M   'P 1'
_cell_length_a   11.43079711
_cell_length_b   11.43079653
_cell_length_c   11.43079700
_cell_angle_alpha   60.00000154
_cell_angle_beta   60.00000320
_cell_angle_gamma   59.99999546
_symmetry_Int_Tables_number   1
_chemical_formula_structural   Cs6K2NbAs4
_chemical_formula_sum   'Cs12 K4 Nb2 As8'
_cell_volume   1056.12306079
_cell_formula_units_Z   2
loop_
 _symmetry_equiv_pos_site_id
 _symmetry_equiv_pos_as_xyz
  1  'x, y, z'
loop_
 _atom_site_type_symbol
 _atom_site_label
 _atom_site_symmetry_multiplicity
 _atom_site_fract_x
 _atom_site_fract_y
 _atom_site_fract_z
 _atom_site_occupancy
  Cs  Cs0  1  0.033474  0.466550  0.466538  1
  Cs  Cs1  1  0.783553  0.216444  0.216458  1
  Cs  Cs2  1  0.466548  0.033501  0.466472  1
  Cs  Cs3  1  0.466564  0.466509  0.033468  1
  Cs  Cs4  1  0.033515  0.033514  0.466435  1
  Cs  Cs5  1  0.033493  0.466471  0.033478  1
  Cs  Cs6  1  0.466447  0.033556  0.033542  1
  Cs  Cs7  1  0.783452  0.216499  0.783528  1
  Cs  Cs8  1  0.216507  0.783529  0.216522  1
  Cs  Cs9  1  0.216485  0.216486  0.783565  1
  Cs  Cs10  1  0.783436  0.783491  0.216532  1
  Cs  Cs11  1  0.216526  0.783450  0.783462  1
  K  K12  1  0.625000  0.625000  0.125000  1
  K  K13  1  0.625000  0.125000  0.625000  1
  K  K14  1  0.125000  0.625000  0.625000  1
  K  K15  1  0.625000  0.625000  0.625000  1
  Nb  Nb16  1  0.749993  0.749996  0.750015  1
  Nb  Nb17  1  0.500007  0.500004  0.499985  1
  As  As18  1  0.840329  0.840364  0.478895  1
  As  As19  1  0.840343  0.478867  0.840366  1
  As  As20  1  0.409671  0.409636  0.771105  1
  As  As21  1  0.409657  0.771133  0.409634  1
  As  As22  1  0.771117  0.409639  0.409655  1
  As  As23  1  0.840353  0.840389  0.840378  1
  As  As24  1  0.478883  0.840361  0.840345  1
  As  As25  1  0.409647  0.409611  0.409622  1
