# generated using pymatgen
data_Pr8HoErInSi4Ge
_symmetry_space_group_name_H-M   'P 1'
_cell_length_a   7.71801100
_cell_length_b   9.27931396
_cell_length_c   7.71801100
_cell_angle_alpha   114.57423669
_cell_angle_beta   90.00000000
_cell_angle_gamma   114.57423669
_symmetry_Int_Tables_number   1
_chemical_formula_structural   Pr8HoErInSi4Ge
_chemical_formula_sum   'Pr8 Ho1 Er1 In1 Si4 Ge1'
_cell_volume   447.04279445
_cell_formula_units_Z   1
loop_
 _symmetry_equiv_pos_site_id
 _symmetry_equiv_pos_as_xyz
  1  'x, y, z'
loop_
 _atom_site_type_symbol
 _atom_site_label
 _atom_site_symmetry_multiplicity
 _atom_site_fract_x
 _atom_site_fract_y
 _atom_site_fract_z
 _atom_site_occupancy
  Pr  Pr0  1  0.525257  0.721629  0.674097  1
  Pr  Pr1  1  0.196374  0.721629  0.047534  1
  Pr  Pr2  1  0.674097  0.721629  0.196374  1
  Pr  Pr3  1  0.047534  0.721629  0.525257  1
  Pr  Pr4  1  0.452283  0.278267  0.303458  1
  Pr  Pr5  1  0.825982  0.278267  0.974807  1
  Pr  Pr6  1  0.303458  0.278267  0.825982  1
  Pr  Pr7  1  0.974807  0.278267  0.452283  1
  Ho  Ho8  1  0.519379  0.038757  0.519379  1
  Er  Er9  1  0.981028  0.962056  0.981028  1
  In  In10  1  0.750157  0.500314  0.750157  1
  Si  Si11  1  0.880699  0.999802  0.619488  1
  Si  Si12  1  0.119104  0.999802  0.380314  1
  Si  Si13  1  0.619488  0.999802  0.119104  1
  Si  Si14  1  0.380314  0.999802  0.880699  1
  Ge  Ge15  1  0.250040  0.500079  0.250040  1
