# generated using pymatgen
data_Sr6Tm2CrCoO12
_symmetry_space_group_name_H-M   'P 1'
_cell_length_a   6.78867852
_cell_length_b   6.78888777
_cell_length_c   6.78874508
_cell_angle_alpha   92.61530874
_cell_angle_beta   92.62117874
_cell_angle_gamma   92.61903064
_symmetry_Int_Tables_number   1
_chemical_formula_structural   Sr6Tm2CrCoO12
_chemical_formula_sum   'Sr6 Tm2 Cr1 Co1 O12'
_cell_volume   311.86579612
_cell_formula_units_Z   1
loop_
 _symmetry_equiv_pos_site_id
 _symmetry_equiv_pos_as_xyz
  1  'x, y, z'
loop_
 _atom_site_type_symbol
 _atom_site_label
 _atom_site_symmetry_multiplicity
 _atom_site_fract_x
 _atom_site_fract_y
 _atom_site_fract_z
 _atom_site_occupancy
  Sr  Sr0  1  0.881422  0.251074  0.615945  1
  Sr  Sr1  1  0.251150  0.616014  0.881262  1
  Sr  Sr2  1  0.615879  0.881354  0.251267  1
  Sr  Sr3  1  0.748717  0.383994  0.118731  1
  Sr  Sr4  1  0.384143  0.118653  0.748676  1
  Sr  Sr5  1  0.118594  0.748808  0.384099  1
  Tm  Tm6  1  0.746835  0.746728  0.747031  1
  Tm  Tm7  1  0.253207  0.253427  0.253053  1
  Cr  Cr8  1  0.999946  0.999958  0.999914  1
  Co  Co9  1  0.499986  0.499982  0.500008  1
  O  O10  1  0.219502  0.412786  0.542200  1
  O  O11  1  0.412829  0.542494  0.219418  1
  O  O12  1  0.542258  0.219423  0.412574  1
  O  O13  1  0.907878  0.712845  0.041232  1
  O  O14  1  0.712917  0.040916  0.907872  1
  O  O15  1  0.040934  0.907635  0.712863  1
  O  O16  1  0.780541  0.587200  0.457786  1
  O  O17  1  0.587144  0.457495  0.780589  1
  O  O18  1  0.457724  0.780547  0.587389  1
  O  O19  1  0.092148  0.287205  0.958830  1
  O  O20  1  0.287148  0.959072  0.092122  1
  O  O21  1  0.959097  0.092390  0.287140  1
