# generated using pymatgen
data_Tb10Si16Pb
_symmetry_space_group_name_H-M   'P 1'
_cell_length_a   11.22024625
_cell_length_b   11.13580793
_cell_length_c   11.22029823
_cell_angle_alpha   144.57228816
_cell_angle_beta   136.37742060
_cell_angle_gamma   57.54417305
_symmetry_Int_Tables_number   1
_chemical_formula_structural   Tb10Si16Pb
_chemical_formula_sum   'Tb10 Si16 Pb1'
_cell_volume   555.67740784
_cell_formula_units_Z   1
loop_
 _symmetry_equiv_pos_site_id
 _symmetry_equiv_pos_as_xyz
  1  'x, y, z'
loop_
 _atom_site_type_symbol
 _atom_site_label
 _atom_site_symmetry_multiplicity
 _atom_site_fract_x
 _atom_site_fract_y
 _atom_site_fract_z
 _atom_site_occupancy
  Tb  Tb0  1  0.755327  0.759685  0.516798  1
  Tb  Tb1  1  0.438622  0.975494  0.018517  1
  Tb  Tb2  1  0.847541  0.368095  0.018199  1
  Tb  Tb3  1  0.956972  0.975490  0.536866  1
  Tb  Tb4  1  0.149472  0.161046  0.513698  1
  Tb  Tb5  1  0.349896  0.368091  0.520551  1
  Tb  Tb6  1  0.242890  0.759684  0.004358  1
  Tb  Tb7  1  0.543843  0.555588  0.492651  1
  Tb  Tb8  1  0.062933  0.555585  0.011740  1
  Tb  Tb9  1  0.647349  0.161049  0.011578  1
  Si  Si10  1  0.198123  0.582918  0.384795  1
  Si  Si11  1  0.000458  0.086918  0.086469  1
  Si  Si12  1  0.697187  0.279654  0.582468  1
  Si  Si13  1  0.799684  0.187783  0.388101  1
  Si  Si14  1  0.896198  0.500063  0.603867  1
  Si  Si15  1  0.415838  0.866229  0.450391  1
  Si  Si16  1  0.103255  0.711042  0.607788  1
  Si  Si17  1  0.300654  0.891402  0.590747  1
  Si  Si18  1  0.579404  0.038540  0.459143  1
  Si  Si19  1  0.999362  0.431150  0.431785  1
  Si  Si20  1  0.886535  0.835607  0.949070  1
  Si  Si21  1  0.401754  0.499340  0.097586  1
  Si  Si22  1  0.115197  0.077203  0.962006  1
  Si  Si23  1  0.290897  0.235483  0.944586  1
  Si  Si24  1  0.498996  0.388989  0.889992  1
  Si  Si25  1  0.595071  0.705394  0.110325  1
  Pb  Pb26  1  0.726538  0.703974  0.977423  1
