# generated using pymatgen
data_Nd8Y12Ga3Si13
_symmetry_space_group_name_H-M   'P 1'
_cell_length_a   7.79106782
_cell_length_b   7.80741517
_cell_length_c   14.57815592
_cell_angle_alpha   90.03795297
_cell_angle_beta   90.01481598
_cell_angle_gamma   90.07680355
_symmetry_Int_Tables_number   1
_chemical_formula_structural   Nd8Y12Ga3Si13
_chemical_formula_sum   'Nd8 Y12 Ga3 Si13'
_cell_volume   886.76052183
_cell_formula_units_Z   1
loop_
 _symmetry_equiv_pos_site_id
 _symmetry_equiv_pos_as_xyz
  1  'x, y, z'
loop_
 _atom_site_type_symbol
 _atom_site_label
 _atom_site_symmetry_multiplicity
 _atom_site_fract_x
 _atom_site_fract_y
 _atom_site_fract_z
 _atom_site_occupancy
  Nd  Nd0  1  0.634250  0.987708  0.455403  1
  Nd  Nd1  1  0.363434  0.009841  0.954857  1
  Nd  Nd2  1  0.987145  0.634055  0.545217  1
  Nd  Nd3  1  0.487719  0.861858  0.205959  1
  Nd  Nd4  1  0.511135  0.137784  0.707478  1
  Nd  Nd5  1  0.864681  0.491492  0.794997  1
  Nd  Nd6  1  0.137806  0.511470  0.292849  1
  Nd  Nd7  1  0.013478  0.368667  0.044413  1
  Y  Y8  1  0.485198  0.367116  0.124201  1
  Y  Y9  1  0.983133  0.138181  0.628467  1
  Y  Y10  1  0.865187  0.012529  0.873848  1
  Y  Y11  1  0.137987  0.983002  0.371689  1
  Y  Y12  1  0.513917  0.634041  0.625455  1
  Y  Y13  1  0.364116  0.487392  0.875385  1
  Y  Y14  1  0.632965  0.513504  0.374660  1
  Y  Y15  1  0.016137  0.861423  0.126942  1
  Y  Y16  1  0.316000  0.315528  0.500069  1
  Y  Y17  1  0.187156  0.813554  0.751320  1
  Y  Y18  1  0.812865  0.188221  0.250102  1
  Y  Y19  1  0.687696  0.683018  0.999114  1
  Ga  Ga20  1  0.285018  0.932804  0.562850  1
  Ga  Ga21  1  0.715200  0.067874  0.062005  1
  Ga  Ga22  1  0.932847  0.285714  0.437658  1
  Si  Si23  1  0.429179  0.213994  0.310516  1
  Si  Si24  1  0.569423  0.786006  0.811294  1
  Si  Si25  1  0.213222  0.430151  0.689206  1
  Si  Si26  1  0.786642  0.569692  0.188749  1
  Si  Si27  1  0.068254  0.712013  0.938628  1
  Si  Si28  1  0.800465  0.840802  0.694503  1
  Si  Si29  1  0.199109  0.159785  0.193885  1
  Si  Si30  1  0.839837  0.800240  0.304660  1
  Si  Si31  1  0.341622  0.697663  0.443321  1
  Si  Si32  1  0.658326  0.301714  0.942084  1
  Si  Si33  1  0.697519  0.341600  0.557391  1
  Si  Si34  1  0.302172  0.659744  0.054793  1
  Si  Si35  1  0.159159  0.199821  0.806031  1
