# generated using pymatgen
data_Nd8Sc11Si16Hg
_symmetry_space_group_name_H-M   'P 1'
_cell_length_a   7.19059652
_cell_length_b   7.53201121
_cell_length_c   14.23833400
_cell_angle_alpha   90.00000000
_cell_angle_beta   90.00000000
_cell_angle_gamma   89.77114747
_symmetry_Int_Tables_number   1
_chemical_formula_structural   Nd8Sc11Si16Hg
_chemical_formula_sum   'Nd8 Sc11 Si16 Hg1'
_cell_volume   771.13708567
_cell_formula_units_Z   1
loop_
 _symmetry_equiv_pos_site_id
 _symmetry_equiv_pos_as_xyz
  1  'x, y, z'
loop_
 _atom_site_type_symbol
 _atom_site_label
 _atom_site_symmetry_multiplicity
 _atom_site_fract_x
 _atom_site_fract_y
 _atom_site_fract_z
 _atom_site_occupancy
  Nd  Nd0  1  0.010107  0.170470  0.097732  1
  Nd  Nd1  1  0.991452  0.819374  0.900166  1
  Nd  Nd2  1  0.482002  0.671124  0.899852  1
  Nd  Nd3  1  0.991452  0.819374  0.599834  1
  Nd  Nd4  1  0.512004  0.326567  0.097878  1
  Nd  Nd5  1  0.010107  0.170470  0.402268  1
  Nd  Nd6  1  0.512004  0.326567  0.402122  1
  Nd  Nd7  1  0.482002  0.671124  0.600148  1
  Sc  Sc8  1  0.839489  0.501423  0.250000  1
  Sc  Sc9  1  0.340128  0.999502  0.250000  1
  Sc  Sc10  1  0.657639  0.002607  0.750000  1
  Sc  Sc11  1  0.326517  0.183685  0.625368  1
  Sc  Sc12  1  0.671056  0.823759  0.375237  1
  Sc  Sc13  1  0.170085  0.679214  0.373227  1
  Sc  Sc14  1  0.671056  0.823759  0.124763  1
  Sc  Sc15  1  0.837902  0.325545  0.625424  1
  Sc  Sc16  1  0.326517  0.183685  0.874632  1
  Sc  Sc17  1  0.837902  0.325545  0.874576  1
  Sc  Sc18  1  0.170085  0.679214  0.126773  1
  Si  Si19  1  0.030269  0.106032  0.750000  1
  Si  Si20  1  0.966041  0.878524  0.250000  1
  Si  Si21  1  0.466254  0.624663  0.250000  1
  Si  Si22  1  0.548932  0.372477  0.750000  1
  Si  Si23  1  0.292999  0.902806  0.750000  1
  Si  Si24  1  0.710770  0.118219  0.250000  1
  Si  Si25  1  0.211024  0.381297  0.250000  1
  Si  Si26  1  0.771201  0.621341  0.750000  1
  Si  Si27  1  0.155008  0.458603  0.528870  1
  Si  Si28  1  0.847403  0.536866  0.460975  1
  Si  Si29  1  0.348737  0.964284  0.461663  1
  Si  Si30  1  0.847403  0.536866  0.039025  1
  Si  Si31  1  0.653352  0.034052  0.541095  1
  Si  Si32  1  0.155008  0.458603  0.971130  1
  Si  Si33  1  0.653352  0.034052  0.958905  1
  Si  Si34  1  0.348737  0.964284  0.038337  1
  Hg  Hg35  1  0.154011  0.504022  0.750000  1
