# generated using pymatgen
data_Tb11DySi11Ni
_symmetry_space_group_name_H-M   'P 1'
_cell_length_a   3.88101500
_cell_length_b   5.74629947
_cell_length_c   23.89472222
_cell_angle_alpha   82.73678035
_cell_angle_beta   90.00000000
_cell_angle_gamma   90.00000000
_symmetry_Int_Tables_number   1
_chemical_formula_structural   Tb11DySi11Ni
_chemical_formula_sum   'Tb11 Dy1 Si11 Ni1'
_cell_volume   528.61154382
_cell_formula_units_Z   1
loop_
 _symmetry_equiv_pos_site_id
 _symmetry_equiv_pos_as_xyz
  1  'x, y, z'
loop_
 _atom_site_type_symbol
 _atom_site_label
 _atom_site_symmetry_multiplicity
 _atom_site_fract_x
 _atom_site_fract_y
 _atom_site_fract_z
 _atom_site_occupancy
  Tb  Tb0  1  0.250000  0.660136  0.941160  1
  Tb  Tb1  1  0.750000  0.519571  0.220538  1
  Tb  Tb2  1  0.250000  0.469483  0.773826  1
  Tb  Tb3  1  0.750000  0.167139  0.392288  1
  Tb  Tb4  1  0.250000  0.828757  0.606553  1
  Tb  Tb5  1  0.750000  0.352739  0.559288  1
  Tb  Tb6  1  0.250000  0.643300  0.439014  1
  Tb  Tb7  1  0.750000  0.995667  0.726835  1
  Tb  Tb8  1  0.250000  0.995351  0.271783  1
  Tb  Tb9  1  0.750000  0.169169  0.893945  1
  Tb  Tb10  1  0.250000  0.837860  0.108285  1
  Dy  Dy11  1  0.750000  0.356423  0.066427  1
  Si  Si12  1  0.750000  0.877829  0.013464  1
  Si  Si13  1  0.250000  0.148157  0.989759  1
  Si  Si14  1  0.750000  0.052035  0.178607  1
  Si  Si15  1  0.250000  0.954984  0.821576  1
  Si  Si16  1  0.750000  0.701620  0.344311  1
  Si  Si17  1  0.250000  0.291653  0.654107  1
  Si  Si18  1  0.750000  0.864758  0.511706  1
  Si  Si19  1  0.250000  0.132787  0.486823  1
  Si  Si20  1  0.750000  0.534334  0.679030  1
  Si  Si21  1  0.250000  0.462430  0.318492  1
  Si  Si22  1  0.750000  0.684199  0.846324  1
  Ni  Ni23  1  0.250000  0.299618  0.155858  1
