# generated using pymatgen
data_Pa3Mn(NiSb2)2
_symmetry_space_group_name_H-M   'P 1'
_cell_length_a   8.15149690
_cell_length_b   8.15149663
_cell_length_c   8.15149634
_cell_angle_alpha   109.56882626
_cell_angle_beta   109.27618237
_cell_angle_gamma   109.56883259
_symmetry_Int_Tables_number   1
_chemical_formula_structural   Pa3Mn(NiSb2)2
_chemical_formula_sum   'Pa6 Mn2 Ni4 Sb8'
_cell_volume   416.95230276
_cell_formula_units_Z   2
loop_
 _symmetry_equiv_pos_site_id
 _symmetry_equiv_pos_as_xyz
  1  'x, y, z'
loop_
 _atom_site_type_symbol
 _atom_site_label
 _atom_site_symmetry_multiplicity
 _atom_site_fract_x
 _atom_site_fract_y
 _atom_site_fract_z
 _atom_site_occupancy
  Pa  Pa0  1  0.875000  0.250000  0.125000  1
  Pa  Pa1  1  0.625000  0.750000  0.375000  1
  Pa  Pa2  1  0.250000  0.121076  0.871076  1
  Pa  Pa3  1  0.750000  0.378924  0.628924  1
  Pa  Pa4  1  0.128924  0.878924  0.250000  1
  Pa  Pa5  1  0.371076  0.621076  0.750000  1
  Mn  Mn6  1  0.375000  0.250000  0.625000  1
  Mn  Mn7  1  0.125000  0.750000  0.875000  1
  Ni  Ni8  1  0.250000  0.623239  0.373239  1
  Ni  Ni9  1  0.750000  0.876761  0.126761  1
  Ni  Ni10  1  0.626761  0.376761  0.250000  1
  Ni  Ni11  1  0.873239  0.123239  0.750000  1
  Sb  Sb12  1  0.664605  0.499401  0.998679  1
  Sb  Sb13  1  0.499277  0.000599  0.665203  1
  Sb  Sb14  1  0.000723  0.665926  0.501321  1
  Sb  Sb15  1  0.835395  0.834074  0.834797  1
  Sb  Sb16  1  0.498679  0.999401  0.164605  1
  Sb  Sb17  1  0.165203  0.500599  0.999277  1
  Sb  Sb18  1  0.001321  0.165926  0.500723  1
  Sb  Sb19  1  0.334797  0.334074  0.335395  1
