# generated using pymatgen
data_Lu8MgPb3Au8
_symmetry_space_group_name_H-M   'P 1'
_cell_length_a   8.02700100
_cell_length_b   8.02700100
_cell_length_c   7.16702800
_cell_angle_alpha   90.00000000
_cell_angle_beta   90.00000000
_cell_angle_gamma   90.00000000
_symmetry_Int_Tables_number   1
_chemical_formula_structural   Lu8MgPb3Au8
_chemical_formula_sum   'Lu8 Mg1 Pb3 Au8'
_cell_volume   461.79128792
_cell_formula_units_Z   1
loop_
 _symmetry_equiv_pos_site_id
 _symmetry_equiv_pos_as_xyz
  1  'x, y, z'
loop_
 _atom_site_type_symbol
 _atom_site_label
 _atom_site_symmetry_multiplicity
 _atom_site_fract_x
 _atom_site_fract_y
 _atom_site_fract_z
 _atom_site_occupancy
  Lu  Lu0  1  0.848072  0.157267  0.497237  1
  Lu  Lu1  1  0.151928  0.842733  0.497237  1
  Lu  Lu2  1  0.342733  0.348072  0.002763  1
  Lu  Lu3  1  0.657267  0.651928  0.002763  1
  Lu  Lu4  1  0.682456  0.678250  0.498331  1
  Lu  Lu5  1  0.317544  0.321750  0.498331  1
  Lu  Lu6  1  0.178251  0.817544  0.001669  1
  Lu  Lu7  1  0.821750  0.182457  0.001669  1
  Mg  Mg8  1  0.000000  0.500000  0.250000  1
  Pb  Pb9  1  0.500000  0.000000  0.250000  1
  Pb  Pb10  1  0.000000  0.500000  0.750000  1
  Pb  Pb11  1  0.500000  0.000000  0.750000  1
  Au  Au12  1  0.634779  0.375940  0.275546  1
  Au  Au13  1  0.365221  0.624060  0.275546  1
  Au  Au14  1  0.128226  0.126631  0.776775  1
  Au  Au15  1  0.871774  0.873369  0.776775  1
  Au  Au16  1  0.373369  0.628226  0.723225  1
  Au  Au17  1  0.626631  0.371774  0.723225  1
  Au  Au18  1  0.875940  0.865221  0.224454  1
  Au  Au19  1  0.124060  0.134779  0.224454  1
