# generated using pymatgen
data_Tm3CoSi3Ir
_symmetry_space_group_name_H-M   'P 1'
_cell_length_a   5.60933393
_cell_length_b   5.60933402
_cell_length_c   13.49699395
_cell_angle_alpha   89.58099583
_cell_angle_beta   90.41900490
_cell_angle_gamma   136.86129735
_symmetry_Int_Tables_number   1
_chemical_formula_structural   Tm3CoSi3Ir
_chemical_formula_sum   'Tm6 Co2 Si6 Ir2'
_cell_volume   290.37167701
_cell_formula_units_Z   2
loop_
 _symmetry_equiv_pos_site_id
 _symmetry_equiv_pos_as_xyz
  1  'x, y, z'
loop_
 _atom_site_type_symbol
 _atom_site_label
 _atom_site_symmetry_multiplicity
 _atom_site_fract_x
 _atom_site_fract_y
 _atom_site_fract_z
 _atom_site_occupancy
  Tm  Tm0  1  0.641423  0.358577  0.249447  1
  Tm  Tm1  1  0.358577  0.641423  0.750553  1
  Tm  Tm2  1  0.919501  0.080499  0.110066  1
  Tm  Tm3  1  0.080499  0.919501  0.889934  1
  Tm  Tm4  1  0.079054  0.920946  0.616986  1
  Tm  Tm5  1  0.920946  0.079054  0.383014  1
  Co  Co6  1  0.213845  0.786155  0.080614  1
  Co  Co7  1  0.786155  0.213845  0.919386  1
  Si  Si8  1  0.333963  0.666037  0.244761  1
  Si  Si9  1  0.666037  0.333963  0.755239  1
  Si  Si10  1  0.619155  0.380845  0.039341  1
  Si  Si11  1  0.380845  0.619155  0.960659  1
  Si  Si12  1  0.391110  0.608890  0.537236  1
  Si  Si13  1  0.608890  0.391110  0.462764  1
  Ir  Ir14  1  0.789927  0.210073  0.588304  1
  Ir  Ir15  1  0.210073  0.789927  0.411696  1
