# generated using pymatgen
data_Rb4Na2TbHoAs4
_symmetry_space_group_name_H-M   'P 1'
_cell_length_a   9.46723383
_cell_length_b   9.46723287
_cell_length_c   9.46723284
_cell_angle_alpha   135.30349202
_cell_angle_beta   135.23008911
_cell_angle_gamma   65.11596792
_symmetry_Int_Tables_number   1
_chemical_formula_structural   Rb4Na2TbHoAs4
_chemical_formula_sum   'Rb4 Na2 Tb1 Ho1 As4'
_cell_volume   414.24651003
_cell_formula_units_Z   1
loop_
 _symmetry_equiv_pos_site_id
 _symmetry_equiv_pos_as_xyz
  1  'x, y, z'
loop_
 _atom_site_type_symbol
 _atom_site_label
 _atom_site_symmetry_multiplicity
 _atom_site_fract_x
 _atom_site_fract_y
 _atom_site_fract_z
 _atom_site_occupancy
  Rb  Rb0  1  0.682145  0.399694  0.717685  1
  Rb  Rb1  1  0.817855  0.035539  0.217549  1
  Rb  Rb2  1  0.182009  0.964461  0.782315  1
  Rb  Rb3  1  0.317991  0.600306  0.282451  1
  Na  Na4  1  0.750000  0.000000  0.750000  1
  Na  Na5  1  0.250000  0.000000  0.250000  1
  Tb  Tb6  1  0.250000  0.500000  0.750000  1
  Ho  Ho7  1  0.750000  0.500000  0.250000  1
  As  As8  1  0.406284  0.182424  0.778070  1
  As  As9  1  0.595645  0.817576  0.223860  1
  As  As10  1  0.093716  0.371787  0.276140  1
  As  As11  1  0.904355  0.628213  0.721930  1
