# generated using pymatgen
data_Lu3GaSn3IrRh
_symmetry_space_group_name_H-M   'P 1'
_cell_length_a   7.37671500
_cell_length_b   7.37671611
_cell_length_c   4.03591100
_cell_angle_alpha   90.00000000
_cell_angle_beta   90.00000000
_cell_angle_gamma   120.00000848
_symmetry_Int_Tables_number   1
_chemical_formula_structural   Lu3GaSn3IrRh
_chemical_formula_sum   'Lu3 Ga1 Sn3 Ir1 Rh1'
_cell_volume   190.19462963
_cell_formula_units_Z   1
loop_
 _symmetry_equiv_pos_site_id
 _symmetry_equiv_pos_as_xyz
  1  'x, y, z'
loop_
 _atom_site_type_symbol
 _atom_site_label
 _atom_site_symmetry_multiplicity
 _atom_site_fract_x
 _atom_site_fract_y
 _atom_site_fract_z
 _atom_site_occupancy
  Lu  Lu0  1  0.395835  0.412253  0.500000  1
  Lu  Lu1  1  0.587747  0.983582  0.500000  1
  Lu  Lu2  1  0.016418  0.604165  0.500000  1
  Ga  Ga3  1  0.666667  0.333333  0.000000  1
  Sn  Sn4  1  0.742768  0.745325  0.000000  1
  Sn  Sn5  1  0.254675  0.997444  0.000000  1
  Sn  Sn6  1  0.002556  0.257232  0.000000  1
  Ir  Ir7  1  0.333333  0.666667  0.000000  1
  Rh  Rh8  1  0.000000  0.000000  0.500000  1
