# generated using pymatgen
data_Na6Mn2SeS3(O4F)4
_symmetry_space_group_name_H-M   'P 1'
_cell_length_a   6.78824600
_cell_length_b   9.19340400
_cell_length_c   13.91790100
_cell_angle_alpha   90.00000000
_cell_angle_beta   90.00000000
_cell_angle_gamma   90.00000000
_symmetry_Int_Tables_number   1
_chemical_formula_structural   Na6Mn2SeS3(O4F)4
_chemical_formula_sum   'Na12 Mn4 Se2 S6 O32 F8'
_cell_volume   868.57567150
_cell_formula_units_Z   2
loop_
 _symmetry_equiv_pos_site_id
 _symmetry_equiv_pos_as_xyz
  1  'x, y, z'
loop_
 _atom_site_type_symbol
 _atom_site_label
 _atom_site_symmetry_multiplicity
 _atom_site_fract_x
 _atom_site_fract_y
 _atom_site_fract_z
 _atom_site_occupancy
  Na  Na0  1  0.525757  0.665058  0.907199  1
  Na  Na1  1  0.025757  0.834942  0.592801  1
  Na  Na2  1  0.469381  0.168825  0.591722  1
  Na  Na3  1  0.969381  0.331175  0.908278  1
  Na  Na4  1  0.476967  0.335739  0.100398  1
  Na  Na5  1  0.976967  0.164261  0.399602  1
  Na  Na6  1  0.523639  0.829970  0.394542  1
  Na  Na7  1  0.023639  0.670030  0.105458  1
  Na  Na8  1  0.751073  0.000977  0.055565  1
  Na  Na9  1  0.251073  0.499023  0.444435  1
  Na  Na10  1  0.256074  0.008430  0.948030  1
  Na  Na11  1  0.756074  0.491570  0.551970  1
  Mn  Mn12  1  0.751561  0.007968  0.803743  1
  Mn  Mn13  1  0.251561  0.492032  0.696257  1
  Mn  Mn14  1  0.250719  0.000888  0.198614  1
  Mn  Mn15  1  0.750719  0.499112  0.301386  1
  Se  Se16  1  0.007545  0.688744  0.859304  1
  Se  Se17  1  0.507545  0.811256  0.640696  1
  S  S18  1  0.991783  0.185911  0.641244  1
  S  S19  1  0.491783  0.314089  0.858756  1
  S  S20  1  0.991784  0.308417  0.144553  1
  S  S21  1  0.491784  0.191583  0.355447  1
  S  S22  1  0.007577  0.808080  0.354494  1
  S  S23  1  0.507577  0.691920  0.145506  1
  O  O24  1  0.443203  0.450438  0.799676  1
  O  O25  1  0.943203  0.049562  0.700324  1
  O  O26  1  0.557086  0.968440  0.702840  1
  O  O27  1  0.057086  0.531560  0.797160  1
  O  O28  1  0.561096  0.552377  0.200589  1
  O  O29  1  0.061096  0.947623  0.299411  1
  O  O30  1  0.440617  0.051387  0.300551  1
  O  O31  1  0.940617  0.448613  0.199449  1
  O  O32  1  0.208228  0.770523  0.898148  1
  O  O33  1  0.708228  0.729477  0.601852  1
  O  O34  1  0.809896  0.258206  0.610404  1
  O  O35  1  0.309896  0.241794  0.889596  1
  O  O36  1  0.811612  0.240872  0.106906  1
  O  O37  1  0.311612  0.259128  0.393094  1
  O  O38  1  0.186061  0.736589  0.390367  1
  O  O39  1  0.686061  0.763411  0.109633  1
  O  O40  1  0.870635  0.628488  0.949493  1
  O  O41  1  0.370635  0.871512  0.550507  1
  O  O42  1  0.108785  0.131732  0.559258  1
  O  O43  1  0.608785  0.368268  0.940742  1
  O  O44  1  0.124479  0.356239  0.066790  1
  O  O45  1  0.624479  0.143761  0.433210  1
  O  O46  1  0.878330  0.859317  0.432583  1
  O  O47  1  0.378330  0.640683  0.067417  1
  O  O48  1  0.375179  0.707758  0.714930  1
  O  O49  1  0.875179  0.792242  0.785070  1
  O  O50  1  0.614537  0.219651  0.796187  1
  O  O51  1  0.114537  0.280349  0.703813  1
  O  O52  1  0.595838  0.289066  0.286928  1
  O  O53  1  0.095838  0.210934  0.213072  1
  O  O54  1  0.397849  0.787566  0.213232  1
  O  O55  1  0.897849  0.712434  0.286768  1
  F  F56  1  0.585301  0.937100  0.904845  1
  F  F57  1  0.085301  0.562900  0.595155  1
  F  F58  1  0.426032  0.427688  0.596787  1
  F  F59  1  0.926032  0.072312  0.903213  1
  F  F60  1  0.419049  0.073439  0.099715  1
  F  F61  1  0.919049  0.426561  0.400285  1
  F  F62  1  0.582326  0.569648  0.400999  1
  F  F63  1  0.082326  0.930352  0.099001  1
