# generated using pymatgen
data_U8Al11Si5
_symmetry_space_group_name_H-M   'P 1'
_cell_length_a   5.48770663
_cell_length_b   5.51835294
_cell_length_c   16.57633400
_cell_angle_alpha   90.00000000
_cell_angle_beta   90.00000000
_cell_angle_gamma   120.12948976
_symmetry_Int_Tables_number   1
_chemical_formula_structural   U8Al11Si5
_chemical_formula_sum   'U8 Al11 Si5'
_cell_volume   434.16151258
_cell_formula_units_Z   1
loop_
 _symmetry_equiv_pos_site_id
 _symmetry_equiv_pos_as_xyz
  1  'x, y, z'
loop_
 _atom_site_type_symbol
 _atom_site_label
 _atom_site_symmetry_multiplicity
 _atom_site_fract_x
 _atom_site_fract_y
 _atom_site_fract_z
 _atom_site_occupancy
  U  U0  1  0.335897  0.671763  0.825494  1
  U  U1  1  0.000539  0.000051  0.074426  1
  U  U2  1  0.999794  0.000446  0.923051  1
  U  U3  1  0.666270  0.330119  0.173726  1
  U  U4  1  0.999794  0.000446  0.576949  1
  U  U5  1  0.666270  0.330119  0.326274  1
  U  U6  1  0.000539  0.000051  0.425574  1
  U  U7  1  0.335897  0.671763  0.674506  1
  Al  Al8  1  0.499853  0.499243  0.500933  1
  Al  Al9  1  0.845280  0.690799  0.750000  1
  Al  Al10  1  0.665500  0.330445  0.629953  1
  Al  Al11  1  0.499853  0.499243  0.999067  1
  Al  Al12  1  0.999513  0.499763  0.500875  1
  Al  Al13  1  0.158648  0.312865  0.250000  1
  Al  Al14  1  0.331953  0.668314  0.372641  1
  Al  Al15  1  0.684941  0.839615  0.250000  1
  Al  Al16  1  0.665500  0.330445  0.870047  1
  Al  Al17  1  0.331953  0.668314  0.127359  1
  Al  Al18  1  0.999513  0.499763  0.999125  1
  Si  Si19  1  0.850706  0.155164  0.750000  1
  Si  Si20  1  0.499677  0.000475  0.500922  1
  Si  Si21  1  0.306515  0.156110  0.750000  1
  Si  Si22  1  0.155918  0.844209  0.250000  1
  Si  Si23  1  0.499677  0.000475  0.999078  1
