# generated using pymatgen
data_Co2Mo2Os3Ru
_symmetry_space_group_name_H-M   'P 1'
_cell_length_a   5.38999757
_cell_length_b   5.38705495
_cell_length_c   4.31307200
_cell_angle_alpha   90.00000000
_cell_angle_beta   90.00000000
_cell_angle_gamma   119.60760776
_symmetry_Int_Tables_number   1
_chemical_formula_structural   Co2Mo2Os3Ru
_chemical_formula_sum   'Co2 Mo2 Os3 Ru1'
_cell_volume   108.88322440
_cell_formula_units_Z   1
loop_
 _symmetry_equiv_pos_site_id
 _symmetry_equiv_pos_as_xyz
  1  'x, y, z'
loop_
 _atom_site_type_symbol
 _atom_site_label
 _atom_site_symmetry_multiplicity
 _atom_site_fract_x
 _atom_site_fract_y
 _atom_site_fract_z
 _atom_site_occupancy
  Co  Co0  1  0.834790  0.164704  0.750000  1
  Co  Co1  1  0.167790  0.837367  0.250000  1
  Mo  Mo2  1  0.667417  0.329162  0.250000  1
  Mo  Mo3  1  0.330661  0.667080  0.750000  1
  Os  Os4  1  0.327444  0.162400  0.750000  1
  Os  Os5  1  0.836836  0.672498  0.750000  1
  Os  Os6  1  0.672031  0.837848  0.250000  1
  Ru  Ru7  1  0.163030  0.328940  0.250000  1
