# generated using pymatgen
data_YMnP3Rh4
_symmetry_space_group_name_H-M   'P 1'
_cell_length_a   3.87690600
_cell_length_b   10.74837400
_cell_length_c   12.42356100
_cell_angle_alpha   90.00000000
_cell_angle_beta   90.00000000
_cell_angle_gamma   90.00000000
_symmetry_Int_Tables_number   1
_chemical_formula_structural   YMnP3Rh4
_chemical_formula_sum   'Y4 Mn4 P12 Rh16'
_cell_volume   517.69519920
_cell_formula_units_Z   4
loop_
 _symmetry_equiv_pos_site_id
 _symmetry_equiv_pos_as_xyz
  1  'x, y, z'
loop_
 _atom_site_type_symbol
 _atom_site_label
 _atom_site_symmetry_multiplicity
 _atom_site_fract_x
 _atom_site_fract_y
 _atom_site_fract_z
 _atom_site_occupancy
  Y  Y0  1  0.250000  0.582930  0.708566  1
  Y  Y1  1  0.250000  0.917070  0.208566  1
  Y  Y2  1  0.750000  0.417070  0.291434  1
  Y  Y3  1  0.750000  0.082930  0.791434  1
  Mn  Mn4  1  0.250000  0.462608  0.935673  1
  Mn  Mn5  1  0.250000  0.037392  0.435673  1
  Mn  Mn6  1  0.750000  0.537392  0.064327  1
  Mn  Mn7  1  0.750000  0.962608  0.564327  1
  P  P8  1  0.250000  0.428805  0.109152  1
  P  P9  1  0.250000  0.071195  0.609152  1
  P  P10  1  0.750000  0.571195  0.890848  1
  P  P11  1  0.750000  0.928805  0.390848  1
  P  P12  1  0.250000  0.269615  0.868493  1
  P  P13  1  0.250000  0.230385  0.368493  1
  P  P14  1  0.750000  0.730385  0.131507  1
  P  P15  1  0.750000  0.769615  0.631507  1
  P  P16  1  0.250000  0.600704  0.389761  1
  P  P17  1  0.250000  0.899296  0.889761  1
  P  P18  1  0.750000  0.399296  0.610239  1
  P  P19  1  0.750000  0.100704  0.110239  1
  Rh  Rh20  1  0.250000  0.714990  0.990173  1
  Rh  Rh21  1  0.250000  0.785010  0.490173  1
  Rh  Rh22  1  0.750000  0.285010  0.009827  1
  Rh  Rh23  1  0.750000  0.214990  0.509827  1
  Rh  Rh24  1  0.250000  0.408376  0.480254  1
  Rh  Rh25  1  0.250000  0.091624  0.980254  1
  Rh  Rh26  1  0.750000  0.591624  0.519746  1
  Rh  Rh27  1  0.750000  0.908376  0.019746  1
  Rh  Rh28  1  0.250000  0.229812  0.174719  1
  Rh  Rh29  1  0.250000  0.270188  0.674719  1
  Rh  Rh30  1  0.750000  0.770188  0.825281  1
  Rh  Rh31  1  0.750000  0.729812  0.325281  1
  Rh  Rh32  1  0.250000  0.882242  0.701534  1
  Rh  Rh33  1  0.250000  0.617758  0.201534  1
  Rh  Rh34  1  0.750000  0.117758  0.298466  1
  Rh  Rh35  1  0.750000  0.382242  0.798466  1
