# generated using pymatgen
data_Sc2Co3(B2W)2
_symmetry_space_group_name_H-M   'P 1'
_cell_length_a   3.09648900
_cell_length_b   8.30754517
_cell_length_c   9.33484113
_cell_angle_alpha   89.97900021
_cell_angle_beta   90.00000000
_cell_angle_gamma   90.00000000
_symmetry_Int_Tables_number   1
_chemical_formula_structural   Sc2Co3(B2W)2
_chemical_formula_sum   'Sc4 Co6 B8 W4'
_cell_volume   240.13151153
_cell_formula_units_Z   2
loop_
 _symmetry_equiv_pos_site_id
 _symmetry_equiv_pos_as_xyz
  1  'x, y, z'
loop_
 _atom_site_type_symbol
 _atom_site_label
 _atom_site_symmetry_multiplicity
 _atom_site_fract_x
 _atom_site_fract_y
 _atom_site_fract_z
 _atom_site_occupancy
  Sc  Sc0  1  0.500000  0.838890  0.180380  1
  Sc  Sc1  1  0.500000  0.161110  0.819620  1
  Sc  Sc2  1  0.500000  0.661415  0.680355  1
  Sc  Sc3  1  0.500000  0.338585  0.319645  1
  Co  Co4  1  0.000000  0.000000  0.000000  1
  Co  Co5  1  0.000000  0.410539  0.755289  1
  Co  Co6  1  0.000000  0.589461  0.244711  1
  Co  Co7  1  0.000000  0.500000  0.500000  1
  Co  Co8  1  0.000000  0.910584  0.744759  1
  Co  Co9  1  0.000000  0.089416  0.255241  1
  B  B10  1  0.500000  0.965872  0.594755  1
  B  B11  1  0.500000  0.034128  0.405245  1
  B  B12  1  0.500000  0.864378  0.896596  1
  B  B13  1  0.500000  0.135622  0.103404  1
  B  B14  1  0.500000  0.635678  0.396636  1
  B  B15  1  0.500000  0.364322  0.603364  1
  B  B16  1  0.500000  0.465915  0.905284  1
  B  B17  1  0.500000  0.534085  0.094716  1
  W  W18  1  0.000000  0.667681  0.953069  1
  W  W19  1  0.000000  0.332319  0.046931  1
  W  W20  1  0.000000  0.832474  0.453116  1
  W  W21  1  0.000000  0.167526  0.546884  1
