# generated using pymatgen
data_TaTi(Nb4Si3)2
_symmetry_space_group_name_H-M   'P 1'
_cell_length_a   7.56381265
_cell_length_b   7.56381277
_cell_length_c   7.56381262
_cell_angle_alpha   128.39534421
_cell_angle_beta   128.39534113
_cell_angle_gamma   75.98545641
_symmetry_Int_Tables_number   1
_chemical_formula_structural   TaTi(Nb4Si3)2
_chemical_formula_sum   'Ta1 Ti1 Nb8 Si6'
_cell_volume   258.44631861
_cell_formula_units_Z   1
loop_
 _symmetry_equiv_pos_site_id
 _symmetry_equiv_pos_as_xyz
  1  'x, y, z'
loop_
 _atom_site_type_symbol
 _atom_site_label
 _atom_site_symmetry_multiplicity
 _atom_site_fract_x
 _atom_site_fract_y
 _atom_site_fract_z
 _atom_site_occupancy
  Ta  Ta0  1  0.500000  0.500000  0.000000  1
  Ti  Ti1  1  0.000000  0.000000  0.000000  1
  Nb  Nb2  1  0.018124  0.184870  0.500411  1
  Nb  Nb3  1  0.684458  0.517713  0.499589  1
  Nb  Nb4  1  0.517713  0.018124  0.833255  1
  Nb  Nb5  1  0.184870  0.684458  0.166745  1
  Nb  Nb6  1  0.981876  0.815130  0.499589  1
  Nb  Nb7  1  0.315542  0.482287  0.500411  1
  Nb  Nb8  1  0.482287  0.981876  0.166745  1
  Nb  Nb9  1  0.815130  0.315542  0.833255  1
  Si  Si10  1  0.750705  0.750705  0.000000  1
  Si  Si11  1  0.249295  0.249295  0.000000  1
  Si  Si12  1  0.367339  0.126621  0.493960  1
  Si  Si13  1  0.632661  0.873379  0.506040  1
  Si  Si14  1  0.873379  0.367339  0.240718  1
  Si  Si15  1  0.126621  0.632661  0.759282  1
