# generated using pymatgen
data_Tm4Lu8TlFe3Pt
_symmetry_space_group_name_H-M   'P 1'
_cell_length_a   8.08101618
_cell_length_b   8.08101709
_cell_length_c   8.08101616
_cell_angle_alpha   110.77299504
_cell_angle_beta   107.26138807
_cell_angle_gamma   110.40184913
_symmetry_Int_Tables_number   1
_chemical_formula_structural   Tm4Lu8TlFe3Pt
_chemical_formula_sum   'Tm4 Lu8 Tl1 Fe3 Pt1'
_cell_volume   405.77834881
_cell_formula_units_Z   1
loop_
 _symmetry_equiv_pos_site_id
 _symmetry_equiv_pos_as_xyz
  1  'x, y, z'
loop_
 _atom_site_type_symbol
 _atom_site_label
 _atom_site_symmetry_multiplicity
 _atom_site_fract_x
 _atom_site_fract_y
 _atom_site_fract_z
 _atom_site_occupancy
  Tm  Tm0  1  0.305888  0.311044  0.616932  1
  Tm  Tm1  1  0.694112  0.688956  0.383068  1
  Tm  Tm2  1  0.694112  0.311044  0.005156  1
  Tm  Tm3  1  0.305888  0.688956  0.994844  1
  Lu  Lu4  1  0.190892  0.456630  0.265737  1
  Lu  Lu5  1  0.809108  0.543370  0.734263  1
  Lu  Lu6  1  0.190892  0.925154  0.734263  1
  Lu  Lu7  1  0.966083  0.187485  0.778599  1
  Lu  Lu8  1  0.809108  0.074846  0.265737  1
  Lu  Lu9  1  0.033917  0.812515  0.221401  1
  Lu  Lu10  1  0.408886  0.187485  0.221401  1
  Lu  Lu11  1  0.591114  0.812515  0.778599  1
  Tl  Tl12  1  0.500000  0.000000  0.500000  1
  Fe  Fe13  1  0.380586  0.380586  0.000000  1
  Fe  Fe14  1  0.619414  0.619414  0.000000  1
  Fe  Fe15  1  0.000000  0.000000  0.000000  1
  Pt  Pt16  1  0.000000  0.500000  0.500000  1
