# generated using pymatgen
data_Lu2Pa(SnRh)3
_symmetry_space_group_name_H-M   'P 1'
_cell_length_a   7.50790090
_cell_length_b   7.50790134
_cell_length_c   3.81701900
_cell_angle_alpha   90.00000000
_cell_angle_beta   90.00000000
_cell_angle_gamma   119.16588146
_symmetry_Int_Tables_number   1
_chemical_formula_structural   Lu2Pa(SnRh)3
_chemical_formula_sum   'Lu2 Pa1 Sn3 Rh3'
_cell_volume   187.88033310
_cell_formula_units_Z   1
loop_
 _symmetry_equiv_pos_site_id
 _symmetry_equiv_pos_as_xyz
  1  'x, y, z'
loop_
 _atom_site_type_symbol
 _atom_site_label
 _atom_site_symmetry_multiplicity
 _atom_site_fract_x
 _atom_site_fract_y
 _atom_site_fract_z
 _atom_site_occupancy
  Lu  Lu0  1  0.596894  0.000180  0.500000  1
  Lu  Lu1  1  0.000180  0.596894  0.500000  1
  Pa  Pa2  1  0.411830  0.411830  0.500000  1
  Sn  Sn3  1  0.752785  0.752785  0.000000  1
  Sn  Sn4  1  0.260312  0.986022  0.000000  1
  Sn  Sn5  1  0.986022  0.260312  0.000000  1
  Rh  Rh6  1  0.644007  0.335456  0.000000  1
  Rh  Rh7  1  0.335456  0.644007  0.000000  1
  Rh  Rh8  1  0.012514  0.012514  0.500000  1
