# generated using pymatgen
data_Zn2Fe3P7Ru9
_symmetry_space_group_name_H-M   'P 1'
_cell_length_a   9.31450800
_cell_length_b   9.31450652
_cell_length_c   3.70251900
_cell_angle_alpha   90.00000000
_cell_angle_beta   90.00000000
_cell_angle_gamma   119.99999719
_symmetry_Int_Tables_number   1
_chemical_formula_structural   Zn2Fe3P7Ru9
_chemical_formula_sum   'Zn2 Fe3 P7 Ru9'
_cell_volume   278.19396924
_cell_formula_units_Z   1
loop_
 _symmetry_equiv_pos_site_id
 _symmetry_equiv_pos_as_xyz
  1  'x, y, z'
loop_
 _atom_site_type_symbol
 _atom_site_label
 _atom_site_symmetry_multiplicity
 _atom_site_fract_x
 _atom_site_fract_y
 _atom_site_fract_z
 _atom_site_occupancy
  Zn  Zn0  1  0.666667  0.333333  0.500000  1
  Zn  Zn1  1  0.333333  0.666667  0.000000  1
  Fe  Fe2  1  0.730295  0.858005  0.000000  1
  Fe  Fe3  1  0.141995  0.872290  0.000000  1
  Fe  Fe4  1  0.127710  0.269705  0.000000  1
  P  P5  1  0.619563  0.700235  0.500000  1
  P  P6  1  0.000000  0.000000  0.000000  1
  P  P7  1  0.299765  0.919329  0.500000  1
  P  P8  1  0.080671  0.380437  0.500000  1
  P  P9  1  0.924593  0.617008  0.000000  1
  P  P10  1  0.382992  0.307585  0.000000  1
  P  P11  1  0.692415  0.075407  0.000000  1
  Ru  Ru12  1  0.536501  0.898349  0.500000  1
  Ru  Ru13  1  0.361850  0.463499  0.500000  1
  Ru  Ru14  1  0.881121  0.102193  0.500000  1
  Ru  Ru15  1  0.221072  0.118879  0.500000  1
  Ru  Ru16  1  0.897807  0.778928  0.500000  1
  Ru  Ru17  1  0.457656  0.101182  0.000000  1
  Ru  Ru18  1  0.898818  0.356476  0.000000  1
  Ru  Ru19  1  0.643524  0.542344  0.000000  1
  Ru  Ru20  1  0.101651  0.638150  0.500000  1
