# generated using pymatgen
data_Er7Tm(LuSb)12
_symmetry_space_group_name_H-M   'P 1'
_cell_length_a   8.04476807
_cell_length_b   9.11099100
_cell_length_c   11.68987910
_cell_angle_alpha   90.00000000
_cell_angle_beta   90.01461515
_cell_angle_gamma   90.00000000
_symmetry_Int_Tables_number   1
_chemical_formula_structural   Er7Tm(LuSb)12
_chemical_formula_sum   'Er7 Tm1 Lu12 Sb12'
_cell_volume   856.81912267
_cell_formula_units_Z   1
loop_
 _symmetry_equiv_pos_site_id
 _symmetry_equiv_pos_as_xyz
  1  'x, y, z'
loop_
 _atom_site_type_symbol
 _atom_site_label
 _atom_site_symmetry_multiplicity
 _atom_site_fract_x
 _atom_site_fract_y
 _atom_site_fract_z
 _atom_site_occupancy
  Er  Er0  1  0.175665  0.750000  0.228953  1
  Er  Er1  1  0.675729  0.250000  0.271034  1
  Er  Er2  1  0.824324  0.250000  0.771024  1
  Er  Er3  1  0.324238  0.750000  0.728970  1
  Er  Er4  1  0.658094  0.750000  0.290908  1
  Er  Er5  1  0.158083  0.250000  0.209121  1
  Er  Er6  1  0.341931  0.250000  0.709100  1
  Tm  Tm7  1  0.841692  0.750000  0.790910  1
  Lu  Lu8  1  0.808971  0.939166  0.065965  1
  Lu  Lu9  1  0.309010  0.060851  0.433968  1
  Lu  Lu10  1  0.191005  0.439121  0.933981  1
  Lu  Lu11  1  0.691071  0.560914  0.566152  1
  Lu  Lu12  1  0.191005  0.060879  0.933981  1
  Lu  Lu13  1  0.691071  0.939086  0.566152  1
  Lu  Lu14  1  0.808971  0.560834  0.065965  1
  Lu  Lu15  1  0.309010  0.439149  0.433968  1
  Lu  Lu16  1  0.524817  0.250000  0.995178  1
  Lu  Lu17  1  0.024748  0.750000  0.504927  1
  Lu  Lu18  1  0.475236  0.750000  0.004773  1
  Lu  Lu19  1  0.975177  0.250000  0.495201  1
  Sb  Sb20  1  0.936549  0.990953  0.326308  1
  Sb  Sb21  1  0.436536  0.009008  0.173651  1
  Sb  Sb22  1  0.063386  0.491107  0.673800  1
  Sb  Sb23  1  0.563754  0.509221  0.826297  1
  Sb  Sb24  1  0.063386  0.008893  0.673800  1
  Sb  Sb25  1  0.563754  0.990779  0.826297  1
  Sb  Sb26  1  0.936549  0.509047  0.326308  1
  Sb  Sb27  1  0.436536  0.490992  0.173651  1
  Sb  Sb28  1  0.902729  0.250000  0.024370  1
  Sb  Sb29  1  0.402750  0.750000  0.475638  1
  Sb  Sb30  1  0.096949  0.750000  0.975278  1
  Sb  Sb31  1  0.597273  0.250000  0.524370  1
