# generated using pymatgen
data_NdTh3Al14(Ga2Ir3)2
_symmetry_space_group_name_H-M   'P 1'
_cell_length_a   7.64096916
_cell_length_b   7.64012701
_cell_length_c   9.59025800
_cell_angle_alpha   90.00000000
_cell_angle_beta   90.00000000
_cell_angle_gamma   119.48591031
_symmetry_Int_Tables_number   1
_chemical_formula_structural   NdTh3Al14(Ga2Ir3)2
_chemical_formula_sum   'Nd1 Th3 Al14 Ga4 Ir6'
_cell_volume   487.34498102
_cell_formula_units_Z   1
loop_
 _symmetry_equiv_pos_site_id
 _symmetry_equiv_pos_as_xyz
  1  'x, y, z'
loop_
 _atom_site_type_symbol
 _atom_site_label
 _atom_site_symmetry_multiplicity
 _atom_site_fract_x
 _atom_site_fract_y
 _atom_site_fract_z
 _atom_site_occupancy
  Nd  Nd0  1  0.330246  0.007328  0.750000  1
  Th  Th1  1  0.996506  0.673018  0.250000  1
  Th  Th2  1  0.002541  0.327477  0.750000  1
  Th  Th3  1  0.669825  0.993354  0.250000  1
  Al  Al4  1  0.004953  0.335704  0.073744  1
  Al  Al5  1  0.998780  0.667741  0.925361  1
  Al  Al6  1  0.998780  0.667741  0.574639  1
  Al  Al7  1  0.335852  0.004914  0.429731  1
  Al  Al8  1  0.004953  0.335704  0.426256  1
  Al  Al9  1  0.661157  0.994822  0.574436  1
  Al  Al10  1  0.661157  0.994822  0.925564  1
  Al  Al11  1  0.335852  0.004914  0.070269  1
  Al  Al12  1  0.335985  0.334488  0.551845  1
  Al  Al13  1  0.663421  0.662780  0.451683  1
  Al  Al14  1  0.663421  0.662780  0.048317  1
  Al  Al15  1  0.335985  0.334488  0.948155  1
  Al  Al16  1  0.545295  0.339938  0.250000  1
  Al  Al17  1  0.452740  0.660061  0.750000  1
  Ga  Ga18  1  0.136253  0.135620  0.250000  1
  Ga  Ga19  1  0.867742  0.866192  0.750000  1
  Ga  Ga20  1  0.340813  0.542905  0.250000  1
  Ga  Ga21  1  0.658626  0.453655  0.750000  1
  Ir  Ir22  1  0.673466  0.329058  0.003734  1
  Ir  Ir23  1  0.328393  0.670943  0.998962  1
  Ir  Ir24  1  0.328393  0.670943  0.501038  1
  Ir  Ir25  1  0.673466  0.329058  0.496266  1
  Ir  Ir26  1  0.997700  0.999774  0.001798  1
  Ir  Ir27  1  0.997700  0.999774  0.498202  1
