# generated using pymatgen
data_Nd2DyTh11Ru6
_symmetry_space_group_name_H-M   'P 1'
_cell_length_a   9.85593855
_cell_length_b   9.95846928
_cell_length_c   6.40464101
_cell_angle_alpha   90.06753295
_cell_angle_beta   89.98260542
_cell_angle_gamma   120.35152358
_symmetry_Int_Tables_number   1
_chemical_formula_structural   Nd2DyTh11Ru6
_chemical_formula_sum   'Nd2 Dy1 Th11 Ru6'
_cell_volume   542.45834711
_cell_formula_units_Z   1
loop_
 _symmetry_equiv_pos_site_id
 _symmetry_equiv_pos_as_xyz
  1  'x, y, z'
loop_
 _atom_site_type_symbol
 _atom_site_label
 _atom_site_symmetry_multiplicity
 _atom_site_fract_x
 _atom_site_fract_y
 _atom_site_fract_z
 _atom_site_occupancy
  Nd  Nd0  1  0.075673  0.536702  0.294579  1
  Nd  Nd1  1  0.925106  0.461372  0.795126  1
  Dy  Dy2  1  0.462470  0.538279  0.297828  1
  Th  Th3  1  0.249745  0.126967  0.508218  1
  Th  Th4  1  0.541086  0.080204  0.800836  1
  Th  Th5  1  0.747879  0.872967  0.010686  1
  Th  Th6  1  0.665354  0.333779  0.281446  1
  Th  Th7  1  0.126450  0.873409  0.003584  1
  Th  Th8  1  0.460755  0.920117  0.300376  1
  Th  Th9  1  0.538497  0.461879  0.799102  1
  Th  Th10  1  0.875409  0.126278  0.507517  1
  Th  Th11  1  0.124784  0.250404  0.008721  1
  Th  Th12  1  0.873258  0.749711  0.505881  1
  Th  Th13  1  0.335212  0.666046  0.777425  1
  Ru  Ru14  1  0.808064  0.633012  0.048153  1
  Ru  Ru15  1  0.808337  0.175898  0.049627  1
  Ru  Ru16  1  0.631015  0.817584  0.548405  1
  Ru  Ru17  1  0.371297  0.187518  0.044762  1
  Ru  Ru18  1  0.187144  0.363345  0.555000  1
  Ru  Ru19  1  0.192465  0.824529  0.546725  1
