# generated using pymatgen
data_Ba4GdLu(WO6)2
_symmetry_space_group_name_H-M   'P 1'
_cell_length_a   6.00811151
_cell_length_b   5.99883710
_cell_length_c   10.46771055
_cell_angle_alpha   89.22713261
_cell_angle_beta   72.45325628
_cell_angle_gamma   60.58088496
_symmetry_Int_Tables_number   1
_chemical_formula_structural   Ba4GdLu(WO6)2
_chemical_formula_sum   'Ba4 Gd1 Lu1 W2 O12'
_cell_volume   309.19170759
_cell_formula_units_Z   1
loop_
 _symmetry_equiv_pos_site_id
 _symmetry_equiv_pos_as_xyz
  1  'x, y, z'
loop_
 _atom_site_type_symbol
 _atom_site_label
 _atom_site_symmetry_multiplicity
 _atom_site_fract_x
 _atom_site_fract_y
 _atom_site_fract_z
 _atom_site_occupancy
  Ba  Ba0  1  0.251431  0.375429  0.122725  1
  Ba  Ba1  1  0.247399  0.876711  0.627344  1
  Ba  Ba2  1  0.752410  0.623420  0.872442  1
  Ba  Ba3  1  0.748743  0.124701  0.377326  1
  Gd  Gd4  1  0.499870  0.749769  0.250067  1
  Lu  Lu5  1  0.499953  0.250424  0.749935  1
  W  W6  1  0.996704  0.501238  0.504641  1
  W  W7  1  0.003417  0.998767  0.995361  1
  O  O8  1  0.765297  0.355010  0.116012  1
  O  O9  1  0.755554  0.862277  0.623943  1
  O  O10  1  0.243433  0.637085  0.876590  1
  O  O11  1  0.235646  0.145466  0.383596  1
  O  O12  1  0.248555  0.605955  0.396048  1
  O  O13  1  0.250737  0.109100  0.886737  1
  O  O14  1  0.745658  0.393197  0.612731  1
  O  O15  1  0.755156  0.891691  0.104476  1
  O  O16  1  0.777600  0.626621  0.376362  1
  O  O17  1  0.774459  0.128112  0.869286  1
  O  O18  1  0.225229  0.373048  0.630325  1
  O  O19  1  0.222747  0.871981  0.124052  1
