# generated using pymatgen
data_Sc4MnFe(CoP2)2
_symmetry_space_group_name_H-M   'P 1'
_cell_length_a   3.75788100
_cell_length_b   6.28646656
_cell_length_c   7.08499335
_cell_angle_alpha   89.63422993
_cell_angle_beta   90.00000000
_cell_angle_gamma   90.00000000
_symmetry_Int_Tables_number   1
_chemical_formula_structural   Sc4MnFe(CoP2)2
_chemical_formula_sum   'Sc4 Mn1 Fe1 Co2 P4'
_cell_volume   167.37100739
_cell_formula_units_Z   1
loop_
 _symmetry_equiv_pos_site_id
 _symmetry_equiv_pos_as_xyz
  1  'x, y, z'
loop_
 _atom_site_type_symbol
 _atom_site_label
 _atom_site_symmetry_multiplicity
 _atom_site_fract_x
 _atom_site_fract_y
 _atom_site_fract_z
 _atom_site_occupancy
  Sc  Sc0  1  0.250000  0.015741  0.820039  1
  Sc  Sc1  1  0.250000  0.517302  0.688114  1
  Sc  Sc2  1  0.750000  0.979287  0.178592  1
  Sc  Sc3  1  0.750000  0.482953  0.311620  1
  Mn  Mn4  1  0.250000  0.149462  0.436896  1
  Fe  Fe5  1  0.750000  0.852768  0.561706  1
  Co  Co6  1  0.250000  0.649849  0.062662  1
  Co  Co7  1  0.750000  0.351776  0.934624  1
  P  P8  1  0.250000  0.281900  0.116490  1
  P  P9  1  0.250000  0.783933  0.387049  1
  P  P10  1  0.750000  0.719184  0.880188  1
  P  P11  1  0.750000  0.215844  0.622018  1
