# generated using pymatgen
data_Li19Ir3Pt2N9
_symmetry_space_group_name_H-M   'P 1'
_cell_length_a   7.52725231
_cell_length_b   7.52875540
_cell_length_c   11.35592806
_cell_angle_alpha   59.61870628
_cell_angle_beta   59.57222533
_cell_angle_gamma   50.64721944
_symmetry_Int_Tables_number   1
_chemical_formula_structural   Li19Ir3Pt2N9
_chemical_formula_sum   'Li19 Ir3 Pt2 N9'
_cell_volume   412.31372924
_cell_formula_units_Z   1
loop_
 _symmetry_equiv_pos_site_id
 _symmetry_equiv_pos_as_xyz
  1  'x, y, z'
loop_
 _atom_site_type_symbol
 _atom_site_label
 _atom_site_symmetry_multiplicity
 _atom_site_fract_x
 _atom_site_fract_y
 _atom_site_fract_z
 _atom_site_occupancy
  Li  Li0  1  0.267540  0.008882  0.062363  1
  Li  Li1  1  0.632723  0.996167  0.125068  1
  Li  Li2  1  0.780168  0.223383  0.182519  1
  Li  Li3  1  0.249988  0.991431  0.431658  1
  Li  Li4  1  0.667193  0.652816  0.046279  1
  Li  Li5  1  0.346936  0.324649  0.267522  1
  Li  Li6  1  0.702049  0.300256  0.502778  1
  Li  Li7  1  0.988749  0.732015  0.262905  1
  Li  Li8  1  0.272522  0.005806  0.738303  1
  Li  Li9  1  0.641039  0.687673  0.392115  1
  Li  Li10  1  0.317599  0.360935  0.605097  1
  Li  Li11  1  0.376273  0.603123  0.340857  1
  Li  Li12  1  0.767626  0.227391  0.810748  1
  Li  Li13  1  0.009377  0.764352  0.563439  1
  Li  Li14  1  0.673147  0.657825  0.732031  1
  Li  Li15  1  0.335388  0.333039  0.955022  1
  Li  Li16  1  0.399112  0.620224  0.658719  1
  Li  Li17  1  0.008656  0.368395  0.874881  1
  Li  Li18  1  0.994343  0.716395  0.936847  1
  Ir  Ir19  1  0.995460  0.374951  0.543361  1
  Ir  Ir20  1  0.622964  0.003154  0.790497  1
  Ir  Ir21  1  0.350881  0.647302  0.999793  1
  Pt  Pt22  1  0.995748  0.373699  0.214861  1
  Pt  Pt23  1  0.626004  0.007232  0.459142  1
  N  N24  1  0.642554  0.003297  0.283828  1
  N  N25  1  0.002172  0.364471  0.044162  1
  N  N26  1  0.349442  0.648359  0.162445  1
  N  N27  1  0.620182  0.007752  0.628755  1
  N  N28  1  0.994095  0.379019  0.381890  1
  N  N29  1  0.359013  0.642512  0.499238  1
  N  N30  1  0.635768  0.994849  0.953508  1
  N  N31  1  0.998120  0.356611  0.712543  1
  N  N32  1  0.354983  0.644218  0.836823  1
