# generated using pymatgen
data_Ta12Mn4Al8BN3
_symmetry_space_group_name_H-M   'P 1'
_cell_length_a   8.22092137
_cell_length_b   8.20171470
_cell_length_c   8.20171500
_cell_angle_alpha   60.00000283
_cell_angle_beta   60.07725746
_cell_angle_gamma   60.07725409
_symmetry_Int_Tables_number   1
_chemical_formula_structural   Ta12Mn4Al8BN3
_chemical_formula_sum   'Ta12 Mn4 Al8 B1 N3'
_cell_volume   391.49028273
_cell_formula_units_Z   1
loop_
 _symmetry_equiv_pos_site_id
 _symmetry_equiv_pos_as_xyz
  1  'x, y, z'
loop_
 _atom_site_type_symbol
 _atom_site_label
 _atom_site_symmetry_multiplicity
 _atom_site_fract_x
 _atom_site_fract_y
 _atom_site_fract_z
 _atom_site_occupancy
  Ta  Ta0  1  0.555076  0.946080  0.552765  1
  Ta  Ta1  1  0.304680  0.699069  0.699069  1
  Ta  Ta2  1  0.694924  0.303920  0.303920  1
  Ta  Ta3  1  0.304680  0.699069  0.297182  1
  Ta  Ta4  1  0.694924  0.697235  0.303920  1
  Ta  Ta5  1  0.304680  0.297182  0.699069  1
  Ta  Ta6  1  0.555076  0.552765  0.946080  1
  Ta  Ta7  1  0.945320  0.550931  0.550931  1
  Ta  Ta8  1  0.555076  0.946080  0.946080  1
  Ta  Ta9  1  0.945320  0.952818  0.550931  1
  Ta  Ta10  1  0.694924  0.303920  0.697235  1
  Ta  Ta11  1  0.945320  0.550931  0.952818  1
  Mn  Mn12  1  0.125000  0.125000  0.125000  1
  Mn  Mn13  1  0.625000  0.125000  0.125000  1
  Mn  Mn14  1  0.125000  0.625000  0.125000  1
  Mn  Mn15  1  0.125000  0.125000  0.625000  1
  Al  Al16  1  0.918785  0.916364  0.916364  1
  Al  Al17  1  0.002785  0.332404  0.332404  1
  Al  Al18  1  0.331215  0.001512  0.333636  1
  Al  Al19  1  0.331215  0.333636  0.001512  1
  Al  Al20  1  0.918785  0.248488  0.916364  1
  Al  Al21  1  0.918785  0.916364  0.248488  1
  Al  Al22  1  0.247215  0.917596  0.917596  1
  Al  Al23  1  0.331215  0.333636  0.333636  1
  B  B24  1  0.125000  0.625000  0.625000  1
  N  N25  1  0.625000  0.625000  0.625000  1
  N  N26  1  0.625000  0.125000  0.625000  1
  N  N27  1  0.625000  0.625000  0.125000  1
