# generated using pymatgen
data_UTi5(GaRu2)6
_symmetry_space_group_name_H-M   'P 1'
_cell_length_a   4.34886600
_cell_length_b   6.20740000
_cell_length_c   13.03792400
_cell_angle_alpha   90.00000000
_cell_angle_beta   89.99848878
_cell_angle_gamma   90.00000000
_symmetry_Int_Tables_number   1
_chemical_formula_structural   UTi5(GaRu2)6
_chemical_formula_sum   'U1 Ti5 Ga6 Ru12'
_cell_volume   351.96072455
_cell_formula_units_Z   1
loop_
 _symmetry_equiv_pos_site_id
 _symmetry_equiv_pos_as_xyz
  1  'x, y, z'
loop_
 _atom_site_type_symbol
 _atom_site_label
 _atom_site_symmetry_multiplicity
 _atom_site_fract_x
 _atom_site_fract_y
 _atom_site_fract_z
 _atom_site_occupancy
  U  U0  1  0.000000  0.500000  0.000000  1
  Ti  Ti1  1  0.499860  0.000000  0.175094  1
  Ti  Ti2  1  0.999865  0.500000  0.338904  1
  Ti  Ti3  1  0.500001  0.000000  0.500000  1
  Ti  Ti4  1  0.000135  0.500000  0.661097  1
  Ti  Ti5  1  0.500140  0.000000  0.824906  1
  Ga  Ga6  1  0.000000  0.000000  0.000000  1
  Ga  Ga7  1  0.499889  0.500000  0.175840  1
  Ga  Ga8  1  0.999863  0.000000  0.336810  1
  Ga  Ga9  1  0.500001  0.500000  0.500000  1
  Ga  Ga10  1  0.000137  0.000000  0.663190  1
  Ga  Ga11  1  0.500111  0.500000  0.824161  1
  Ru  Ru12  1  0.500001  0.243010  0.000000  1
  Ru  Ru13  1  0.500001  0.756990  0.000000  1
  Ru  Ru14  1  0.999888  0.249676  0.165592  1
  Ru  Ru15  1  0.999888  0.750324  0.165592  1
  Ru  Ru16  1  0.499865  0.248767  0.333599  1
  Ru  Ru17  1  0.499865  0.751233  0.333599  1
  Ru  Ru18  1  0.000000  0.251511  0.500000  1
  Ru  Ru19  1  0.000000  0.748489  0.500000  1
  Ru  Ru20  1  0.500135  0.248767  0.666401  1
  Ru  Ru21  1  0.500135  0.751233  0.666401  1
  Ru  Ru22  1  0.000112  0.249676  0.834408  1
  Ru  Ru23  1  0.000112  0.750324  0.834408  1
