# generated using pymatgen
data_Sc4Al4Re3Rh
_symmetry_space_group_name_H-M   'P 1'
_cell_length_a   5.27199560
_cell_length_b   5.27199507
_cell_length_c   8.64185100
_cell_angle_alpha   90.00000000
_cell_angle_beta   90.00000000
_cell_angle_gamma   119.36122147
_symmetry_Int_Tables_number   1
_chemical_formula_structural   Sc4Al4Re3Rh
_chemical_formula_sum   'Sc4 Al4 Re3 Rh1'
_cell_volume   209.33750995
_cell_formula_units_Z   1
loop_
 _symmetry_equiv_pos_site_id
 _symmetry_equiv_pos_as_xyz
  1  'x, y, z'
loop_
 _atom_site_type_symbol
 _atom_site_label
 _atom_site_symmetry_multiplicity
 _atom_site_fract_x
 _atom_site_fract_y
 _atom_site_fract_z
 _atom_site_occupancy
  Sc  Sc0  1  0.333160  0.666840  0.193547  1
  Sc  Sc1  1  0.667834  0.332166  0.323076  1
  Sc  Sc2  1  0.667834  0.332166  0.676924  1
  Sc  Sc3  1  0.333160  0.666840  0.806453  1
  Al  Al4  1  0.993375  0.006625  0.248067  1
  Al  Al5  1  0.993375  0.006625  0.751933  1
  Al  Al6  1  0.835258  0.651743  0.000000  1
  Al  Al7  1  0.348257  0.164742  0.000000  1
  Re  Re8  1  0.168989  0.345233  0.500000  1
  Re  Re9  1  0.654767  0.831011  0.500000  1
  Re  Re10  1  0.168169  0.831831  0.500000  1
  Rh  Rh11  1  0.835831  0.164169  0.000000  1
