# generated using pymatgen
data_Sr4GaAg(Sn4Au3)2
_symmetry_space_group_name_H-M   'P 1'
_cell_length_a   4.74867000
_cell_length_b   4.74867000
_cell_length_c   23.13785000
_cell_angle_alpha   90.00000000
_cell_angle_beta   90.00000000
_cell_angle_gamma   90.00000000
_symmetry_Int_Tables_number   1
_chemical_formula_structural   Sr4GaAg(Sn4Au3)2
_chemical_formula_sum   'Sr4 Ga1 Ag1 Sn8 Au6'
_cell_volume   521.75543482
_cell_formula_units_Z   1
loop_
 _symmetry_equiv_pos_site_id
 _symmetry_equiv_pos_as_xyz
  1  'x, y, z'
loop_
 _atom_site_type_symbol
 _atom_site_label
 _atom_site_symmetry_multiplicity
 _atom_site_fract_x
 _atom_site_fract_y
 _atom_site_fract_z
 _atom_site_occupancy
  Sr  Sr0  1  0.500000  0.000000  0.877074  1
  Sr  Sr1  1  0.500000  0.000000  0.381404  1
  Sr  Sr2  1  0.000000  0.500000  0.122926  1
  Sr  Sr3  1  0.000000  0.500000  0.618596  1
  Ga  Ga4  1  0.500000  0.500000  0.000000  1
  Ag  Ag5  1  0.500000  0.500000  0.500000  1
  Sn  Sn6  1  0.500000  0.000000  0.065648  1
  Sn  Sn7  1  0.500000  0.000000  0.565320  1
  Sn  Sn8  1  0.000000  0.500000  0.934352  1
  Sn  Sn9  1  0.000000  0.500000  0.434680  1
  Sn  Sn10  1  0.500000  0.500000  0.748361  1
  Sn  Sn11  1  0.500000  0.500000  0.251639  1
  Sn  Sn12  1  0.000000  0.000000  0.748780  1
  Sn  Sn13  1  0.000000  0.000000  0.251220  1
  Au  Au14  1  0.500000  0.000000  0.181713  1
  Au  Au15  1  0.500000  0.000000  0.680938  1
  Au  Au16  1  0.000000  0.500000  0.818287  1
  Au  Au17  1  0.000000  0.500000  0.319062  1
  Au  Au18  1  0.000000  0.000000  0.000000  1
  Au  Au19  1  0.000000  0.000000  0.500000  1
