# generated using pymatgen
data_Tm4Zn4Si3Ge
_symmetry_space_group_name_H-M   'P 1'
_cell_length_a   4.16051200
_cell_length_b   4.16051193
_cell_length_c   15.18031800
_cell_angle_alpha   90.00000000
_cell_angle_beta   90.00000000
_cell_angle_gamma   120.00000058
_symmetry_Int_Tables_number   1
_chemical_formula_structural   Tm4Zn4Si3Ge
_chemical_formula_sum   'Tm4 Zn4 Si3 Ge1'
_cell_volume   227.56478063
_cell_formula_units_Z   1
loop_
 _symmetry_equiv_pos_site_id
 _symmetry_equiv_pos_as_xyz
  1  'x, y, z'
loop_
 _atom_site_type_symbol
 _atom_site_label
 _atom_site_symmetry_multiplicity
 _atom_site_fract_x
 _atom_site_fract_y
 _atom_site_fract_z
 _atom_site_occupancy
  Tm  Tm0  1  0.000000  0.000000  0.250641  1
  Tm  Tm1  1  0.000000  0.000000  0.747877  1
  Tm  Tm2  1  0.000000  0.000000  0.001758  1
  Tm  Tm3  1  0.000000  0.000000  0.499574  1
  Zn  Zn4  1  0.333333  0.666667  0.142333  1
  Zn  Zn5  1  0.666667  0.333333  0.853308  1
  Zn  Zn6  1  0.666667  0.333333  0.640158  1
  Zn  Zn7  1  0.333333  0.666667  0.358956  1
  Si  Si8  1  0.333333  0.666667  0.616937  1
  Si  Si9  1  0.666667  0.333333  0.383007  1
  Si  Si10  1  0.666667  0.333333  0.118418  1
  Ge  Ge11  1  0.333333  0.666667  0.887032  1
