# generated using pymatgen
data_Ho15TmCd4Ir3Ru
_symmetry_space_group_name_H-M   'P 1'
_cell_length_a   9.61322608
_cell_length_b   9.61322566
_cell_length_c   9.61322584
_cell_angle_alpha   59.72800220
_cell_angle_beta   59.72800170
_cell_angle_gamma   59.72800785
_symmetry_Int_Tables_number   1
_chemical_formula_structural   Ho15TmCd4Ir3Ru
_chemical_formula_sum   'Ho15 Tm1 Cd4 Ir3 Ru1'
_cell_volume   624.31152807
_cell_formula_units_Z   1
loop_
 _symmetry_equiv_pos_site_id
 _symmetry_equiv_pos_as_xyz
  1  'x, y, z'
loop_
 _atom_site_type_symbol
 _atom_site_label
 _atom_site_symmetry_multiplicity
 _atom_site_fract_x
 _atom_site_fract_y
 _atom_site_fract_z
 _atom_site_occupancy
  Ho  Ho0  1  0.598597  0.598597  0.205707  1
  Ho  Ho1  1  0.598597  0.205707  0.598597  1
  Ho  Ho2  1  0.205707  0.598597  0.598597  1
  Ho  Ho3  1  0.061356  0.438990  0.438990  1
  Ho  Ho4  1  0.438127  0.060097  0.060097  1
  Ho  Ho5  1  0.438990  0.061356  0.438990  1
  Ho  Ho6  1  0.060097  0.438127  0.060097  1
  Ho  Ho7  1  0.438990  0.438990  0.061356  1
  Ho  Ho8  1  0.060097  0.060097  0.438127  1
  Ho  Ho9  1  0.189095  0.811480  0.811480  1
  Ho  Ho10  1  0.809847  0.188129  0.188129  1
  Ho  Ho11  1  0.811480  0.189095  0.811480  1
  Ho  Ho12  1  0.188129  0.809847  0.188129  1
  Ho  Ho13  1  0.811480  0.811480  0.189095  1
  Ho  Ho14  1  0.188129  0.188129  0.809847  1
  Tm  Tm15  1  0.598706  0.598706  0.598706  1
  Cd  Cd16  1  0.830127  0.830127  0.830127  1
  Cd  Cd17  1  0.830704  0.830704  0.506404  1
  Cd  Cd18  1  0.830704  0.506404  0.830704  1
  Cd  Cd19  1  0.506404  0.830704  0.830704  1
  Ir  Ir20  1  0.393922  0.393922  0.825675  1
  Ir  Ir21  1  0.393922  0.825675  0.393922  1
  Ir  Ir22  1  0.825675  0.393922  0.393922  1
  Ru  Ru23  1  0.391120  0.391120  0.391120  1
