# generated using pymatgen
data_Tb4Ho12MgIn3Ni4
_symmetry_space_group_name_H-M   'P 1'
_cell_length_a   9.57139526
_cell_length_b   9.54654440
_cell_length_c   9.54654400
_cell_angle_alpha   60.00000139
_cell_angle_beta   60.08585143
_cell_angle_gamma   60.08585657
_symmetry_Int_Tables_number   1
_chemical_formula_structural   Tb4Ho12MgIn3Ni4
_chemical_formula_sum   'Tb4 Ho12 Mg1 In3 Ni4'
_cell_volume   617.61095749
_cell_formula_units_Z   1
loop_
 _symmetry_equiv_pos_site_id
 _symmetry_equiv_pos_as_xyz
  1  'x, y, z'
loop_
 _atom_site_type_symbol
 _atom_site_label
 _atom_site_symmetry_multiplicity
 _atom_site_fract_x
 _atom_site_fract_y
 _atom_site_fract_z
 _atom_site_occupancy
  Tb  Tb0  1  0.348247  0.346880  0.346880  1
  Tb  Tb1  1  0.348247  0.346880  0.957992  1
  Tb  Tb2  1  0.348247  0.957992  0.346880  1
  Tb  Tb3  1  0.954441  0.348520  0.348520  1
  Ho  Ho4  1  0.810616  0.188826  0.188826  1
  Ho  Ho5  1  0.185973  0.813417  0.813417  1
  Ho  Ho6  1  0.185973  0.813417  0.187193  1
  Ho  Ho7  1  0.810616  0.188826  0.811731  1
  Ho  Ho8  1  0.185973  0.187193  0.813417  1
  Ho  Ho9  1  0.810616  0.811731  0.188826  1
  Ho  Ho10  1  0.935617  0.564523  0.564522  1
  Ho  Ho11  1  0.564263  0.936356  0.936355  1
  Ho  Ho12  1  0.564264  0.936356  0.563024  1
  Ho  Ho13  1  0.935617  0.564523  0.935339  1
  Ho  Ho14  1  0.564263  0.563025  0.936355  1
  Ho  Ho15  1  0.935617  0.935340  0.564522  1
  Mg  Mg16  1  0.266924  0.577692  0.577692  1
  In  In17  1  0.582040  0.582785  0.582785  1
  In  In18  1  0.582040  0.582785  0.252392  1
  In  In19  1  0.582040  0.252392  0.582785  1
  Ni  Ni20  1  0.141181  0.141881  0.141881  1
  Ni  Ni21  1  0.141181  0.141881  0.575055  1
  Ni  Ni22  1  0.141181  0.575055  0.141881  1
  Ni  Ni23  1  0.574820  0.141726  0.141726  1
