# generated using pymatgen
data_Dy3Al12(TcPt)2
_symmetry_space_group_name_H-M   'P 1'
_cell_length_a   8.86294508
_cell_length_b   8.86294693
_cell_length_c   9.60243835
_cell_angle_alpha   90.45683063
_cell_angle_beta   89.54317184
_cell_angle_gamma   119.54637531
_symmetry_Int_Tables_number   1
_chemical_formula_structural   Dy3Al12(TcPt)2
_chemical_formula_sum   'Dy6 Al24 Tc4 Pt4'
_cell_volume   656.17087857
_cell_formula_units_Z   2
loop_
 _symmetry_equiv_pos_site_id
 _symmetry_equiv_pos_as_xyz
  1  'x, y, z'
loop_
 _atom_site_type_symbol
 _atom_site_label
 _atom_site_symmetry_multiplicity
 _atom_site_fract_x
 _atom_site_fract_y
 _atom_site_fract_z
 _atom_site_occupancy
  Dy  Dy0  1  0.187862  0.384043  0.252671  1
  Dy  Dy1  1  0.812138  0.615957  0.747329  1
  Dy  Dy2  1  0.615957  0.812138  0.252671  1
  Dy  Dy3  1  0.384043  0.187862  0.747329  1
  Dy  Dy4  1  0.192500  0.807500  0.254452  1
  Dy  Dy5  1  0.807500  0.192500  0.745548  1
  Al  Al6  1  0.333388  0.666612  0.029318  1
  Al  Al7  1  0.666612  0.333388  0.970682  1
  Al  Al8  1  0.669132  0.330868  0.521177  1
  Al  Al9  1  0.330868  0.669132  0.478823  1
  Al  Al10  1  0.161254  0.325184  0.578334  1
  Al  Al11  1  0.838746  0.674816  0.421666  1
  Al  Al12  1  0.674816  0.838746  0.578334  1
  Al  Al13  1  0.838080  0.677890  0.078004  1
  Al  Al14  1  0.325184  0.161254  0.421666  1
  Al  Al15  1  0.161920  0.322110  0.921996  1
  Al  Al16  1  0.163488  0.836512  0.578720  1
  Al  Al17  1  0.322110  0.161920  0.078004  1
  Al  Al18  1  0.836512  0.163488  0.421280  1
  Al  Al19  1  0.677890  0.838080  0.921996  1
  Al  Al20  1  0.837917  0.162083  0.077364  1
  Al  Al21  1  0.162083  0.837917  0.922636  1
  Al  Al22  1  0.562525  0.127625  0.251367  1
  Al  Al23  1  0.437475  0.872375  0.748633  1
  Al  Al24  1  0.872375  0.437475  0.251367  1
  Al  Al25  1  0.127625  0.562525  0.748633  1
  Al  Al26  1  0.562893  0.437107  0.247448  1
  Al  Al27  1  0.437107  0.562893  0.752552  1
  Al  Al28  1  0.998764  0.001236  0.249819  1
  Al  Al29  1  0.001236  0.998764  0.750181  1
  Tc  Tc30  1  0.500000  0.000000  0.500000  1
  Tc  Tc31  1  0.000000  0.500000  0.500000  1
  Tc  Tc32  1  0.000000  0.000000  0.000000  1
  Tc  Tc33  1  0.000000  0.000000  0.500000  1
  Pt  Pt34  1  0.500000  0.000000  0.000000  1
  Pt  Pt35  1  0.000000  0.500000  0.000000  1
  Pt  Pt36  1  0.500000  0.500000  0.000000  1
  Pt  Pt37  1  0.500000  0.500000  0.500000  1
