# generated using pymatgen
data_Er2Zr(SnIr)3
_symmetry_space_group_name_H-M   'P 1'
_cell_length_a   7.48218726
_cell_length_b   7.49127289
_cell_length_c   7.64991100
_cell_angle_alpha   90.00000000
_cell_angle_beta   90.00000000
_cell_angle_gamma   120.35019080
_symmetry_Int_Tables_number   1
_chemical_formula_structural   Er2Zr(SnIr)3
_chemical_formula_sum   'Er4 Zr2 Sn6 Ir6'
_cell_volume   370.02225466
_cell_formula_units_Z   2
loop_
 _symmetry_equiv_pos_site_id
 _symmetry_equiv_pos_as_xyz
  1  'x, y, z'
loop_
 _atom_site_type_symbol
 _atom_site_label
 _atom_site_symmetry_multiplicity
 _atom_site_fract_x
 _atom_site_fract_y
 _atom_site_fract_z
 _atom_site_occupancy
  Er  Er0  1  0.406551  0.001938  0.250000  1
  Er  Er1  1  0.594583  0.602880  0.750000  1
  Er  Er2  1  0.598918  0.594708  0.250000  1
  Er  Er3  1  0.993516  0.402642  0.250000  1
  Zr  Zr4  1  0.008416  0.402077  0.750000  1
  Zr  Zr5  1  0.395537  0.996379  0.750000  1
  Sn  Sn6  1  0.266813  0.265419  0.498491  1
  Sn  Sn7  1  0.266813  0.265419  0.001509  1
  Sn  Sn8  1  0.736396  0.999949  0.995022  1
  Sn  Sn9  1  0.997547  0.735291  0.505927  1
  Sn  Sn10  1  0.736396  0.999949  0.504978  1
  Sn  Sn11  1  0.997547  0.735291  0.994073  1
  Ir  Ir12  1  0.668527  0.327264  0.529509  1
  Ir  Ir13  1  0.668527  0.327264  0.970491  1
  Ir  Ir14  1  0.327474  0.667153  0.993550  1
  Ir  Ir15  1  0.327474  0.667153  0.506450  1
  Ir  Ir16  1  0.009969  0.010365  0.750000  1
  Ir  Ir17  1  0.998994  0.998858  0.250000  1
