# generated using pymatgen
data_Nd8Zn8AgIrRh6
_symmetry_space_group_name_H-M   'P 1'
_cell_length_a   4.01428500
_cell_length_b   7.39081205
_cell_length_c   16.74601101
_cell_angle_alpha   90.25160102
_cell_angle_beta   90.00000000
_cell_angle_gamma   90.00000000
_symmetry_Int_Tables_number   1
_chemical_formula_structural   Nd8Zn8AgIrRh6
_chemical_formula_sum   'Nd8 Zn8 Ag1 Ir1 Rh6'
_cell_volume   496.82969544
_cell_formula_units_Z   1
loop_
 _symmetry_equiv_pos_site_id
 _symmetry_equiv_pos_as_xyz
  1  'x, y, z'
loop_
 _atom_site_type_symbol
 _atom_site_label
 _atom_site_symmetry_multiplicity
 _atom_site_fract_x
 _atom_site_fract_y
 _atom_site_fract_z
 _atom_site_occupancy
  Nd  Nd0  1  0.250000  0.169505  0.939493  1
  Nd  Nd1  1  0.250000  0.665524  0.571560  1
  Nd  Nd2  1  0.750000  0.324473  0.439772  1
  Nd  Nd3  1  0.750000  0.960825  0.276099  1
  Nd  Nd4  1  0.750000  0.828952  0.059512  1
  Nd  Nd5  1  0.750000  0.446523  0.212690  1
  Nd  Nd6  1  0.250000  0.053232  0.717439  1
  Nd  Nd7  1  0.250000  0.548634  0.787785  1
  Zn  Zn8  1  0.750000  0.008649  0.566837  1
  Zn  Zn9  1  0.250000  0.612376  0.339546  1
  Zn  Zn10  1  0.750000  0.377748  0.653900  1
  Zn  Zn11  1  0.250000  0.498497  0.059387  1
  Zn  Zn12  1  0.750000  0.500422  0.940741  1
  Zn  Zn13  1  0.250000  0.007174  0.439634  1
  Zn  Zn14  1  0.250000  0.123013  0.147485  1
  Zn  Zn15  1  0.750000  0.879020  0.849551  1
  Ag  Ag16  1  0.750000  0.754016  0.432785  1
  Ir  Ir17  1  0.250000  0.243887  0.314655  1
  Rh  Rh18  1  0.750000  0.251951  0.814113  1
  Rh  Rh19  1  0.750000  0.756247  0.686839  1
  Rh  Rh20  1  0.250000  0.245067  0.565767  1
  Rh  Rh21  1  0.250000  0.746302  0.186271  1
  Rh  Rh22  1  0.750000  0.254029  0.063647  1
  Rh  Rh23  1  0.250000  0.743931  0.934492  1
