# generated using pymatgen
data_Er7Tm(SiBr6)2
_symmetry_space_group_name_H-M   'P 1'
_cell_length_a   4.01425200
_cell_length_b   13.09826204
_cell_length_c   13.88076504
_cell_angle_alpha   90.00865203
_cell_angle_beta   90.00000000
_cell_angle_gamma   90.00000000
_symmetry_Int_Tables_number   1
_chemical_formula_structural   Er7Tm(SiBr6)2
_chemical_formula_sum   'Er7 Tm1 Si2 Br12'
_cell_volume   729.84679442
_cell_formula_units_Z   1
loop_
 _symmetry_equiv_pos_site_id
 _symmetry_equiv_pos_as_xyz
  1  'x, y, z'
loop_
 _atom_site_type_symbol
 _atom_site_label
 _atom_site_symmetry_multiplicity
 _atom_site_fract_x
 _atom_site_fract_y
 _atom_site_fract_z
 _atom_site_occupancy
  Er  Er0  1  0.500000  0.117972  0.341359  1
  Er  Er1  1  0.500000  0.882064  0.658627  1
  Er  Er2  1  0.500000  0.617919  0.158590  1
  Er  Er3  1  0.000000  0.117462  0.577983  1
  Er  Er4  1  0.000000  0.882512  0.422007  1
  Er  Er5  1  0.000000  0.617352  0.922132  1
  Er  Er6  1  0.000000  0.382664  0.077905  1
  Tm  Tm7  1  0.500000  0.382137  0.841477  1
  Si  Si8  1  0.500000  0.000005  0.500010  1
  Si  Si9  1  0.500000  0.499815  0.999747  1
  Br  Br10  1  0.500000  0.243835  0.162679  1
  Br  Br11  1  0.500000  0.756159  0.837303  1
  Br  Br12  1  0.500000  0.743855  0.337300  1
  Br  Br13  1  0.500000  0.256318  0.662913  1
  Br  Br14  1  0.000000  0.255851  0.411221  1
  Br  Br15  1  0.000000  0.744143  0.588781  1
  Br  Br16  1  0.000000  0.755817  0.088855  1
  Br  Br17  1  0.000000  0.244519  0.910889  1
  Br  Br18  1  0.000000  0.001652  0.242680  1
  Br  Br19  1  0.000000  0.998351  0.757325  1
  Br  Br20  1  0.000000  0.501719  0.257317  1
  Br  Br21  1  0.000000  0.497880  0.742901  1
