# generated using pymatgen
data_CsRbNb6PbBr18
_symmetry_space_group_name_H-M   'P 1'
_cell_length_a   11.06523790
_cell_length_b   11.06523752
_cell_length_c   11.06523702
_cell_angle_alpha   54.98026127
_cell_angle_beta   54.98026232
_cell_angle_gamma   54.98026250
_symmetry_Int_Tables_number   1
_chemical_formula_structural   CsRbNb6PbBr18
_chemical_formula_sum   'Cs1 Rb1 Nb6 Pb1 Br18'
_cell_volume   846.10546110
_cell_formula_units_Z   1
loop_
 _symmetry_equiv_pos_site_id
 _symmetry_equiv_pos_as_xyz
  1  'x, y, z'
loop_
 _atom_site_type_symbol
 _atom_site_label
 _atom_site_symmetry_multiplicity
 _atom_site_fract_x
 _atom_site_fract_y
 _atom_site_fract_z
 _atom_site_occupancy
  Cs  Cs0  1  0.723191  0.723191  0.723191  1
  Rb  Rb1  1  0.276852  0.276852  0.276852  1
  Nb  Nb2  1  0.422561  0.308063  0.639798  1
  Nb  Nb3  1  0.360179  0.577410  0.691959  1
  Nb  Nb4  1  0.691959  0.360179  0.577410  1
  Nb  Nb5  1  0.639798  0.422561  0.308063  1
  Nb  Nb6  1  0.577410  0.691959  0.360179  1
  Nb  Nb7  1  0.308063  0.639798  0.422561  1
  Pb  Pb8  1  0.000019  0.000019  0.000019  1
  Br  Br9  1  0.638783  0.095281  0.767717  1
  Br  Br10  1  0.767717  0.638783  0.095281  1
  Br  Br11  1  0.095281  0.767717  0.638783  1
  Br  Br12  1  0.827255  0.321416  0.041712  1
  Br  Br13  1  0.169760  0.435307  0.576714  1
  Br  Br14  1  0.677971  0.958761  0.172931  1
  Br  Br15  1  0.904938  0.232353  0.361162  1
  Br  Br16  1  0.564432  0.422942  0.830532  1
  Br  Br17  1  0.422942  0.830532  0.564432  1
  Br  Br18  1  0.958761  0.172931  0.677971  1
  Br  Br19  1  0.172931  0.677971  0.958761  1
  Br  Br20  1  0.041712  0.827255  0.321416  1
  Br  Br21  1  0.321416  0.041712  0.827255  1
  Br  Br22  1  0.232353  0.361162  0.904938  1
  Br  Br23  1  0.576714  0.169760  0.435307  1
  Br  Br24  1  0.435307  0.576714  0.169760  1
  Br  Br25  1  0.361162  0.904938  0.232353  1
  Br  Br26  1  0.830532  0.564432  0.422942  1
