# generated using pymatgen
data_Dy12Tc3Te
_symmetry_space_group_name_H-M   'P 1'
_cell_length_a   6.32738000
_cell_length_b   7.62178154
_cell_length_c   9.24701900
_cell_angle_alpha   90.00000000
_cell_angle_beta   90.00000000
_cell_angle_gamma   89.25238107
_symmetry_Int_Tables_number   1
_chemical_formula_structural   Dy12Tc3Te
_chemical_formula_sum   'Dy12 Tc3 Te1'
_cell_volume   445.90792530
_cell_formula_units_Z   1
loop_
 _symmetry_equiv_pos_site_id
 _symmetry_equiv_pos_as_xyz
  1  'x, y, z'
loop_
 _atom_site_type_symbol
 _atom_site_label
 _atom_site_symmetry_multiplicity
 _atom_site_fract_x
 _atom_site_fract_y
 _atom_site_fract_z
 _atom_site_occupancy
  Dy  Dy0  1  0.332702  0.674062  0.070758  1
  Dy  Dy1  1  0.164571  0.181661  0.432853  1
  Dy  Dy2  1  0.658352  0.298826  0.552426  1
  Dy  Dy3  1  0.861616  0.843905  0.945935  1
  Dy  Dy4  1  0.658352  0.298826  0.947574  1
  Dy  Dy5  1  0.861616  0.843905  0.554065  1
  Dy  Dy6  1  0.332702  0.674062  0.429242  1
  Dy  Dy7  1  0.164571  0.181661  0.067147  1
  Dy  Dy8  1  0.864713  0.542667  0.250000  1
  Dy  Dy9  1  0.617642  0.030316  0.250000  1
  Dy  Dy10  1  0.108831  0.448309  0.750000  1
  Dy  Dy11  1  0.362827  0.988924  0.750000  1
  Tc  Tc12  1  0.036082  0.880073  0.250000  1
  Tc  Tc13  1  0.462351  0.377846  0.250000  1
  Tc  Tc14  1  0.942768  0.118804  0.750000  1
  Te  Te15  1  0.570302  0.616151  0.750000  1
