# generated using pymatgen
data_DyY3(AlSi)2
_symmetry_space_group_name_H-M   'P 1'
_cell_length_a   3.98766000
_cell_length_b   5.84237034
_cell_length_c   8.06135808
_cell_angle_alpha   89.96921627
_cell_angle_beta   90.00000000
_cell_angle_gamma   90.00000000
_symmetry_Int_Tables_number   1
_chemical_formula_structural   DyY3(AlSi)2
_chemical_formula_sum   'Dy1 Y3 Al2 Si2'
_cell_volume   187.80854801
_cell_formula_units_Z   1
loop_
 _symmetry_equiv_pos_site_id
 _symmetry_equiv_pos_as_xyz
  1  'x, y, z'
loop_
 _atom_site_type_symbol
 _atom_site_label
 _atom_site_symmetry_multiplicity
 _atom_site_fract_x
 _atom_site_fract_y
 _atom_site_fract_z
 _atom_site_occupancy
  Dy  Dy0  1  0.750000  0.891389  0.821828  1
  Y  Y1  1  0.250000  0.378952  0.679382  1
  Y  Y2  1  0.250000  0.120619  0.178707  1
  Y  Y3  1  0.750000  0.608892  0.321935  1
  Al  Al4  1  0.250000  0.873269  0.537020  1
  Al  Al5  1  0.250000  0.627302  0.035351  1
  Si  Si6  1  0.750000  0.125235  0.463359  1
  Si  Si7  1  0.750000  0.374343  0.962416  1
