# generated using pymatgen
data_Dy2Bi2Os2O11
_symmetry_space_group_name_H-M   'P 1'
_cell_length_a   6.57247574
_cell_length_b   7.52217035
_cell_length_c   9.71446857
_cell_angle_alpha   101.27436748
_cell_angle_beta   91.70911006
_cell_angle_gamma   90.02119989
_symmetry_Int_Tables_number   1
_chemical_formula_structural   Dy2Bi2Os2O11
_chemical_formula_sum   'Dy4 Bi4 Os4 O22'
_cell_volume   470.78912825
_cell_formula_units_Z   2
loop_
 _symmetry_equiv_pos_site_id
 _symmetry_equiv_pos_as_xyz
  1  'x, y, z'
loop_
 _atom_site_type_symbol
 _atom_site_label
 _atom_site_symmetry_multiplicity
 _atom_site_fract_x
 _atom_site_fract_y
 _atom_site_fract_z
 _atom_site_occupancy
  Dy  Dy0  1  0.745387  0.368710  0.481754  1
  Dy  Dy1  1  0.254613  0.631290  0.518246  1
  Dy  Dy2  1  0.755665  0.872675  0.489085  1
  Dy  Dy3  1  0.244335  0.127325  0.510915  1
  Bi  Bi4  1  0.467839  0.956421  0.818171  1
  Bi  Bi5  1  0.532161  0.043579  0.181829  1
  Bi  Bi6  1  0.408211  0.455915  0.823591  1
  Bi  Bi7  1  0.591789  0.544085  0.176409  1
  Os  Os8  1  0.934824  0.701910  0.807126  1
  Os  Os9  1  0.065176  0.298090  0.192874  1
  Os  Os10  1  0.936171  0.201956  0.806486  1
  Os  Os11  1  0.063829  0.798044  0.193514  1
  O  O12  1  0.228834  0.720072  0.758318  1
  O  O13  1  0.771166  0.279928  0.241682  1
  O  O14  1  0.639069  0.678670  0.833514  1
  O  O15  1  0.360931  0.321330  0.166486  1
  O  O16  1  0.640517  0.240054  0.834325  1
  O  O17  1  0.359483  0.759946  0.165675  1
  O  O18  1  0.896330  0.159574  0.591842  1
  O  O19  1  0.103670  0.840426  0.408158  1
  O  O20  1  0.227896  0.158607  0.754527  1
  O  O21  1  0.772104  0.841393  0.245473  1
  O  O22  1  0.898100  0.636386  0.596102  1
  O  O23  1  0.101900  0.363614  0.403898  1
  O  O24  1  0.014658  0.546184  0.186029  1
  O  O25  1  0.985342  0.453816  0.813971  1
  O  O26  1  0.998307  0.775557  0.001025  1
  O  O27  1  0.001693  0.224443  0.998975  1
  O  O28  1  0.568528  0.600162  0.398602  1
  O  O29  1  0.431472  0.399838  0.601398  1
  O  O30  1  0.145496  0.054959  0.221867  1
  O  O31  1  0.854504  0.945041  0.778133  1
  O  O32  1  0.542846  0.101387  0.403581  1
  O  O33  1  0.457154  0.898613  0.596419  1
