# generated using pymatgen
data_Sm6YFeI12
_symmetry_space_group_name_H-M   'P 1'
_cell_length_a   9.83710735
_cell_length_b   9.91719092
_cell_length_c   9.91097792
_cell_angle_alpha   106.83190544
_cell_angle_beta   106.91552256
_cell_angle_gamma   106.76012621
_symmetry_Int_Tables_number   1
_chemical_formula_structural   Sm6YFeI12
_chemical_formula_sum   'Sm6 Y1 Fe1 I12'
_cell_volume   808.80434140
_cell_formula_units_Z   1
loop_
 _symmetry_equiv_pos_site_id
 _symmetry_equiv_pos_as_xyz
  1  'x, y, z'
loop_
 _atom_site_type_symbol
 _atom_site_label
 _atom_site_symmetry_multiplicity
 _atom_site_fract_x
 _atom_site_fract_y
 _atom_site_fract_z
 _atom_site_occupancy
  Sm  Sm0  1  0.719590  0.979261  0.911953  1
  Sm  Sm1  1  0.978573  0.905479  0.702638  1
  Sm  Sm2  1  0.499259  0.499949  0.500713  1
  Sm  Sm3  1  0.093636  0.295145  0.020779  1
  Sm  Sm4  1  0.281260  0.021443  0.089953  1
  Sm  Sm5  1  0.906699  0.705180  0.978456  1
  Y  Y6  1  0.021713  0.093053  0.291211  1
  Fe  Fe7  1  0.000139  0.999899  0.999107  1
  I  I8  1  0.071454  0.225609  0.676096  1
  I  I9  1  0.379798  0.158481  0.460196  1
  I  I10  1  0.614071  0.840479  0.539872  1
  I  I11  1  0.228788  0.682213  0.073909  1
  I  I12  1  0.771364  0.317912  0.926985  1
  I  I13  1  0.686539  0.073190  0.229198  1
  I  I14  1  0.537636  0.617232  0.840926  1
  I  I15  1  0.841784  0.537607  0.616137  1
  I  I16  1  0.929296  0.779340  0.321224  1
  I  I17  1  0.321145  0.928939  0.776378  1
  I  I18  1  0.462538  0.383013  0.160738  1
  I  I19  1  0.154718  0.456576  0.383532  1
