# generated using pymatgen
data_Dy3Tm17Sn16
_symmetry_space_group_name_H-M   'P 1'
_cell_length_a   7.96319416
_cell_length_b   8.08436923
_cell_length_c   15.28633386
_cell_angle_alpha   90.00919650
_cell_angle_beta   90.08082838
_cell_angle_gamma   89.93754448
_symmetry_Int_Tables_number   1
_chemical_formula_structural   Dy3Tm17Sn16
_chemical_formula_sum   'Dy3 Tm17 Sn16'
_cell_volume   984.09288069
_cell_formula_units_Z   1
loop_
 _symmetry_equiv_pos_site_id
 _symmetry_equiv_pos_as_xyz
  1  'x, y, z'
loop_
 _atom_site_type_symbol
 _atom_site_label
 _atom_site_symmetry_multiplicity
 _atom_site_fract_x
 _atom_site_fract_y
 _atom_site_fract_z
 _atom_site_occupancy
  Dy  Dy0  1  0.978637  0.820498  0.403299  1
  Dy  Dy1  1  0.521554  0.320864  0.596740  1
  Dy  Dy2  1  0.021828  0.179069  0.903295  1
  Tm  Tm3  1  0.368410  0.836709  0.877174  1
  Tm  Tm4  1  0.867752  0.663060  0.623093  1
  Tm  Tm5  1  0.632129  0.162980  0.376960  1
  Tm  Tm6  1  0.131881  0.337108  0.122742  1
  Tm  Tm7  1  0.631768  0.163176  0.122711  1
  Tm  Tm8  1  0.132060  0.336948  0.377180  1
  Tm  Tm9  1  0.368014  0.836920  0.622994  1
  Tm  Tm10  1  0.868554  0.663169  0.877129  1
  Tm  Tm11  1  0.523051  0.321372  0.902439  1
  Tm  Tm12  1  0.022586  0.179140  0.597576  1
  Tm  Tm13  1  0.477720  0.679131  0.402927  1
  Tm  Tm14  1  0.977433  0.820523  0.097338  1
  Tm  Tm15  1  0.477437  0.679018  0.096715  1
  Tm  Tm16  1  0.198619  0.503666  0.750213  1
  Tm  Tm17  1  0.698501  0.996443  0.750003  1
  Tm  Tm18  1  0.801005  0.496378  0.249771  1
  Tm  Tm19  1  0.301423  0.003648  0.249584  1
  Sn  Sn20  1  0.292626  0.034815  0.042052  1
  Sn  Sn21  1  0.792406  0.464100  0.458126  1
  Sn  Sn22  1  0.707594  0.964322  0.541977  1
  Sn  Sn23  1  0.208706  0.536298  0.958456  1
  Sn  Sn24  1  0.706744  0.963330  0.958569  1
  Sn  Sn25  1  0.206510  0.536882  0.541408  1
  Sn  Sn26  1  0.293490  0.036750  0.458677  1
  Sn  Sn27  1  0.791943  0.464408  0.041528  1
  Sn  Sn28  1  0.564551  0.619499  0.750005  1
  Sn  Sn29  1  0.064532  0.880399  0.750010  1
  Sn  Sn30  1  0.435304  0.381280  0.249973  1
  Sn  Sn31  1  0.935320  0.119003  0.250018  1
  Sn  Sn32  1  0.331281  0.148614  0.750318  1
  Sn  Sn33  1  0.831342  0.351318  0.749665  1
  Sn  Sn34  1  0.667908  0.850641  0.249795  1
  Sn  Sn35  1  0.169383  0.648520  0.249541  1
