# generated using pymatgen
data_Ac8LaNdSn6
_symmetry_space_group_name_H-M   'P 1'
_cell_length_a   9.80140800
_cell_length_b   9.80140772
_cell_length_c   7.17422200
_cell_angle_alpha   90.00000000
_cell_angle_beta   90.00000000
_cell_angle_gamma   120.00000094
_symmetry_Int_Tables_number   1
_chemical_formula_structural   Ac8LaNdSn6
_chemical_formula_sum   'Ac8 La1 Nd1 Sn6'
_cell_volume   596.87358905
_cell_formula_units_Z   1
loop_
 _symmetry_equiv_pos_site_id
 _symmetry_equiv_pos_as_xyz
  1  'x, y, z'
loop_
 _atom_site_type_symbol
 _atom_site_label
 _atom_site_symmetry_multiplicity
 _atom_site_fract_x
 _atom_site_fract_y
 _atom_site_fract_z
 _atom_site_occupancy
  Ac  Ac0  1  0.666667  0.333333  0.500000  1
  Ac  Ac1  1  0.333333  0.666667  0.500000  1
  Ac  Ac2  1  0.754321  0.754563  0.245903  1
  Ac  Ac3  1  0.245437  0.999759  0.245903  1
  Ac  Ac4  1  0.000241  0.245679  0.245903  1
  Ac  Ac5  1  0.245437  0.245679  0.754097  1
  Ac  Ac6  1  0.754321  0.999759  0.754097  1
  Ac  Ac7  1  0.000241  0.754563  0.754097  1
  La  La8  1  0.666667  0.333333  0.000000  1
  Nd  Nd9  1  0.333333  0.666667  0.000000  1
  Sn  Sn10  1  0.395949  0.397108  0.235913  1
  Sn  Sn11  1  0.602892  0.998840  0.235913  1
  Sn  Sn12  1  0.001160  0.604051  0.235913  1
  Sn  Sn13  1  0.602892  0.604051  0.764087  1
  Sn  Sn14  1  0.395949  0.998840  0.764087  1
  Sn  Sn15  1  0.001160  0.397108  0.764087  1
