# generated using pymatgen
data_Dy3MgCd2Si2Au
_symmetry_space_group_name_H-M   'P 1'
_cell_length_a   7.24861007
_cell_length_b   7.24861067
_cell_length_c   4.35337600
_cell_angle_alpha   90.00000000
_cell_angle_beta   90.00000000
_cell_angle_gamma   120.72995272
_symmetry_Int_Tables_number   1
_chemical_formula_structural   Dy3MgCd2Si2Au
_chemical_formula_sum   'Dy3 Mg1 Cd2 Si2 Au1'
_cell_volume   196.61862192
_cell_formula_units_Z   1
loop_
 _symmetry_equiv_pos_site_id
 _symmetry_equiv_pos_as_xyz
  1  'x, y, z'
loop_
 _atom_site_type_symbol
 _atom_site_label
 _atom_site_symmetry_multiplicity
 _atom_site_fract_x
 _atom_site_fract_y
 _atom_site_fract_z
 _atom_site_occupancy
  Dy  Dy0  1  0.581385  0.001151  0.000000  1
  Dy  Dy1  1  0.001151  0.581385  0.000000  1
  Dy  Dy2  1  0.416640  0.416640  0.000000  1
  Mg  Mg3  1  0.758204  0.758204  0.500000  1
  Cd  Cd4  1  0.253609  0.998753  0.500000  1
  Cd  Cd5  1  0.998753  0.253609  0.500000  1
  Si  Si6  1  0.337404  0.666704  0.500000  1
  Si  Si7  1  0.666704  0.337404  0.500000  1
  Au  Au8  1  0.986150  0.986150  0.000000  1
