# generated using pymatgen
data_Nd4Al18Ir2Pd3Rh
_symmetry_space_group_name_H-M   'P 1'
_cell_length_a   7.64858335
_cell_length_b   7.64858545
_cell_length_c   9.58361000
_cell_angle_alpha   90.00297485
_cell_angle_beta   90.00304111
_cell_angle_gamma   119.47067701
_symmetry_Int_Tables_number   1
_chemical_formula_structural   Nd4Al18Ir2Pd3Rh
_chemical_formula_sum   'Nd4 Al18 Ir2 Pd3 Rh1'
_cell_volume   488.10550741
_cell_formula_units_Z   1
loop_
 _symmetry_equiv_pos_site_id
 _symmetry_equiv_pos_as_xyz
  1  'x, y, z'
loop_
 _atom_site_type_symbol
 _atom_site_label
 _atom_site_symmetry_multiplicity
 _atom_site_fract_x
 _atom_site_fract_y
 _atom_site_fract_z
 _atom_site_occupancy
  Nd  Nd0  1  0.994185  0.670466  0.750006  1
  Nd  Nd1  1  0.003827  0.328344  0.250094  1
  Nd  Nd2  1  0.671655  0.996172  0.749908  1
  Nd  Nd3  1  0.329533  0.005813  0.249994  1
  Al  Al4  1  0.133987  0.132848  0.750669  1
  Al  Al5  1  0.867152  0.866013  0.249331  1
  Al  Al6  1  0.006744  0.338968  0.575351  1
  Al  Al7  1  0.001033  0.665193  0.425021  1
  Al  Al8  1  0.998383  0.660967  0.072910  1
  Al  Al9  1  0.339033  0.001618  0.927090  1
  Al  Al10  1  0.001856  0.338935  0.926608  1
  Al  Al11  1  0.661065  0.998145  0.073392  1
  Al  Al12  1  0.661032  0.993256  0.424649  1
  Al  Al13  1  0.334808  0.998966  0.574979  1
  Al  Al14  1  0.337385  0.337350  0.049819  1
  Al  Al15  1  0.662650  0.662615  0.950181  1
  Al  Al16  1  0.661646  0.664730  0.553174  1
  Al  Al17  1  0.335270  0.338353  0.446825  1
  Al  Al18  1  0.339619  0.548255  0.750609  1
  Al  Al19  1  0.661380  0.454441  0.246145  1
  Al  Al20  1  0.545560  0.338620  0.753855  1
  Al  Al21  1  0.451745  0.660380  0.249391  1
  Ir  Ir22  1  0.328987  0.671013  0.500000  1
  Ir  Ir23  1  0.328970  0.671032  0.000000  1
  Pd  Pd24  1  0.671446  0.328555  0.500000  1
  Pd  Pd25  1  0.999831  0.000170  0.500000  1
  Pd  Pd26  1  0.000019  0.999981  0.000000  1
  Rh  Rh27  1  0.671200  0.328800  0.000000  1
