# generated using pymatgen
data_TbEuHo2(ZnSn)4
_symmetry_space_group_name_H-M   'P 1'
_cell_length_a   4.53354000
_cell_length_b   4.53354103
_cell_length_c   15.99741400
_cell_angle_alpha   90.00000000
_cell_angle_beta   90.00000000
_cell_angle_gamma   119.99999247
_symmetry_Int_Tables_number   1
_chemical_formula_structural   TbEuHo2(ZnSn)4
_chemical_formula_sum   'Tb1 Eu1 Ho2 Zn4 Sn4'
_cell_volume   284.74457030
_cell_formula_units_Z   1
loop_
 _symmetry_equiv_pos_site_id
 _symmetry_equiv_pos_as_xyz
  1  'x, y, z'
loop_
 _atom_site_type_symbol
 _atom_site_label
 _atom_site_symmetry_multiplicity
 _atom_site_fract_x
 _atom_site_fract_y
 _atom_site_fract_z
 _atom_site_occupancy
  Tb  Tb0  1  0.000000  0.000000  0.500000  1
  Eu  Eu1  1  0.000000  0.000000  0.000000  1
  Ho  Ho2  1  0.000000  0.000000  0.255849  1
  Ho  Ho3  1  0.000000  0.000000  0.744151  1
  Zn  Zn4  1  0.333333  0.666667  0.169196  1
  Zn  Zn5  1  0.666667  0.333333  0.830804  1
  Zn  Zn6  1  0.666667  0.333333  0.658243  1
  Zn  Zn7  1  0.333333  0.666667  0.341757  1
  Sn  Sn8  1  0.333333  0.666667  0.609739  1
  Sn  Sn9  1  0.666667  0.333333  0.390261  1
  Sn  Sn10  1  0.666667  0.333333  0.123850  1
  Sn  Sn11  1  0.333333  0.666667  0.876150  1
