# generated using pymatgen
data_BeReBMo2
_symmetry_space_group_name_H-M   'P 1'
_cell_length_a   3.10625700
_cell_length_b   7.68869600
_cell_length_c   9.86703500
_cell_angle_alpha   90.00000000
_cell_angle_beta   90.00000000
_cell_angle_gamma   90.00000000
_symmetry_Int_Tables_number   1
_chemical_formula_structural   BeReBMo2
_chemical_formula_sum   'Be4 Re4 B4 Mo8'
_cell_volume   235.65504587
_cell_formula_units_Z   4
loop_
 _symmetry_equiv_pos_site_id
 _symmetry_equiv_pos_as_xyz
  1  'x, y, z'
loop_
 _atom_site_type_symbol
 _atom_site_label
 _atom_site_symmetry_multiplicity
 _atom_site_fract_x
 _atom_site_fract_y
 _atom_site_fract_z
 _atom_site_occupancy
  Be  Be0  1  0.500000  0.121916  0.460515  1
  Be  Be1  1  0.500000  0.878084  0.539485  1
  Be  Be2  1  0.000000  0.378084  0.960515  1
  Be  Be3  1  0.000000  0.621916  0.039485  1
  Re  Re4  1  0.500000  0.620759  0.397699  1
  Re  Re5  1  0.500000  0.379241  0.602301  1
  Re  Re6  1  0.000000  0.879241  0.897699  1
  Re  Re7  1  0.000000  0.120759  0.102301  1
  B  B8  1  0.500000  0.121829  0.262102  1
  B  B9  1  0.500000  0.878171  0.737898  1
  B  B10  1  0.000000  0.378171  0.762102  1
  B  B11  1  0.000000  0.621829  0.237898  1
  Mo  Mo12  1  0.500000  0.817783  0.136197  1
  Mo  Mo13  1  0.500000  0.182217  0.863803  1
  Mo  Mo14  1  0.000000  0.682217  0.636197  1
  Mo  Mo15  1  0.000000  0.317783  0.363803  1
  Mo  Mo16  1  0.500000  0.582275  0.855084  1
  Mo  Mo17  1  0.500000  0.417725  0.144916  1
  Mo  Mo18  1  0.000000  0.917725  0.355084  1
  Mo  Mo19  1  0.000000  0.082275  0.644916  1
