# generated using pymatgen
data_Er20Ir3OsPt8
_symmetry_space_group_name_H-M   'P 1'
_cell_length_a   10.95511200
_cell_length_b   10.95511200
_cell_length_c   6.30491200
_cell_angle_alpha   90.00000000
_cell_angle_beta   90.00000000
_cell_angle_gamma   90.00000000
_symmetry_Int_Tables_number   1
_chemical_formula_structural   Er20Ir3OsPt8
_chemical_formula_sum   'Er20 Ir3 Os1 Pt8'
_cell_volume   756.68072840
_cell_formula_units_Z   1
loop_
 _symmetry_equiv_pos_site_id
 _symmetry_equiv_pos_as_xyz
  1  'x, y, z'
loop_
 _atom_site_type_symbol
 _atom_site_label
 _atom_site_symmetry_multiplicity
 _atom_site_fract_x
 _atom_site_fract_y
 _atom_site_fract_z
 _atom_site_occupancy
  Er  Er0  1  0.296157  0.086643  0.371026  1
  Er  Er1  1  0.296207  0.913600  0.873834  1
  Er  Er2  1  0.703793  0.086400  0.873834  1
  Er  Er3  1  0.703843  0.913357  0.371026  1
  Er  Er4  1  0.586400  0.796207  0.873834  1
  Er  Er5  1  0.586643  0.203843  0.371026  1
  Er  Er6  1  0.413357  0.796157  0.371026  1
  Er  Er7  1  0.413600  0.203793  0.873834  1
  Er  Er8  1  0.205363  0.412647  0.626769  1
  Er  Er9  1  0.205138  0.587597  0.126906  1
  Er  Er10  1  0.794862  0.412403  0.126906  1
  Er  Er11  1  0.794637  0.587353  0.626769  1
  Er  Er12  1  0.912403  0.705138  0.126906  1
  Er  Er13  1  0.912647  0.294637  0.626769  1
  Er  Er14  1  0.087353  0.705363  0.626769  1
  Er  Er15  1  0.087597  0.294862  0.126906  1
  Er  Er16  1  0.000000  0.000000  0.500279  1
  Er  Er17  1  0.000000  0.000000  0.000363  1
  Er  Er18  1  0.500000  0.500000  0.000363  1
  Er  Er19  1  0.500000  0.500000  0.500279  1
  Ir  Ir20  1  0.500000  0.000000  0.620530  1
  Ir  Ir21  1  0.000000  0.500000  0.879858  1
  Ir  Ir22  1  0.000000  0.500000  0.379752  1
  Os  Os23  1  0.500000  0.000000  0.122118  1
  Pt  Pt24  1  0.846530  0.153904  0.250503  1
  Pt  Pt25  1  0.847093  0.845736  0.750075  1
  Pt  Pt26  1  0.152907  0.154264  0.750075  1
  Pt  Pt27  1  0.153470  0.846096  0.250503  1
  Pt  Pt28  1  0.654264  0.347093  0.750075  1
  Pt  Pt29  1  0.653904  0.653470  0.250503  1
  Pt  Pt30  1  0.346096  0.346530  0.250503  1
  Pt  Pt31  1  0.345736  0.652907  0.750075  1
