# generated using pymatgen
data_Dy3TmAl4(IrPt)2
_symmetry_space_group_name_H-M   'P 1'
_cell_length_a   4.36136700
_cell_length_b   6.78692475
_cell_length_c   7.87368067
_cell_angle_alpha   89.73767357
_cell_angle_beta   90.00000000
_cell_angle_gamma   90.00000000
_symmetry_Int_Tables_number   1
_chemical_formula_structural   Dy3TmAl4(IrPt)2
_chemical_formula_sum   'Dy3 Tm1 Al4 Ir2 Pt2'
_cell_volume   233.06062811
_cell_formula_units_Z   1
loop_
 _symmetry_equiv_pos_site_id
 _symmetry_equiv_pos_as_xyz
  1  'x, y, z'
loop_
 _atom_site_type_symbol
 _atom_site_label
 _atom_site_symmetry_multiplicity
 _atom_site_fract_x
 _atom_site_fract_y
 _atom_site_fract_z
 _atom_site_occupancy
  Dy  Dy0  1  0.250000  0.032928  0.679330  1
  Dy  Dy1  1  0.250000  0.532104  0.821414  1
  Dy  Dy2  1  0.750000  0.972329  0.316910  1
  Tm  Tm3  1  0.750000  0.471805  0.182180  1
  Al  Al4  1  0.250000  0.140620  0.064591  1
  Al  Al5  1  0.250000  0.639381  0.434938  1
  Al  Al6  1  0.750000  0.856051  0.941090  1
  Al  Al7  1  0.750000  0.357170  0.558730  1
  Ir  Ir8  1  0.250000  0.268057  0.380402  1
  Ir  Ir9  1  0.250000  0.764189  0.118710  1
  Pt  Pt10  1  0.750000  0.732390  0.620104  1
  Pt  Pt11  1  0.750000  0.232978  0.881600  1
