# generated using pymatgen
data_Sr6YbCdCoRuO12
_symmetry_space_group_name_H-M   'P 1'
_cell_length_a   6.74260532
_cell_length_b   6.75267803
_cell_length_c   6.73507100
_cell_angle_alpha   91.29558452
_cell_angle_beta   91.43387714
_cell_angle_gamma   91.20286370
_symmetry_Int_Tables_number   1
_chemical_formula_structural   Sr6YbCdCoRuO12
_chemical_formula_sum   'Sr6 Yb1 Cd1 Co1 Ru1 O12'
_cell_volume   306.40641206
_cell_formula_units_Z   1
loop_
 _symmetry_equiv_pos_site_id
 _symmetry_equiv_pos_as_xyz
  1  'x, y, z'
loop_
 _atom_site_type_symbol
 _atom_site_label
 _atom_site_symmetry_multiplicity
 _atom_site_fract_x
 _atom_site_fract_y
 _atom_site_fract_z
 _atom_site_occupancy
  Sr  Sr0  1  0.883260  0.261135  0.608959  1
  Sr  Sr1  1  0.261265  0.608847  0.882996  1
  Sr  Sr2  1  0.608879  0.883121  0.261189  1
  Sr  Sr3  1  0.739611  0.388310  0.120342  1
  Sr  Sr4  1  0.388209  0.120239  0.739534  1
  Sr  Sr5  1  0.120001  0.739531  0.388249  1
  Yb  Yb6  1  0.742458  0.742257  0.742559  1
  Cd  Cd7  1  0.256810  0.257113  0.256364  1
  Co  Co8  1  0.503224  0.503270  0.503229  1
  Ru  Ru9  1  0.996900  0.996741  0.997084  1
  O  O10  1  0.223417  0.418925  0.555096  1
  O  O11  1  0.418861  0.555452  0.222990  1
  O  O12  1  0.555521  0.223412  0.418865  1
  O  O13  1  0.918137  0.717187  0.046031  1
  O  O14  1  0.716796  0.045458  0.917686  1
  O  O15  1  0.045122  0.917749  0.716849  1
  O  O16  1  0.781621  0.586357  0.449400  1
  O  O17  1  0.586602  0.449370  0.781996  1
  O  O18  1  0.448971  0.781734  0.586452  1
  O  O19  1  0.076232  0.279236  0.948096  1
  O  O20  1  0.279643  0.948204  0.076385  1
  O  O21  1  0.948460  0.076351  0.279650  1
