# generated using pymatgen
data_Er5Tc5(P6Ir7)2
_symmetry_space_group_name_H-M   'P 1'
_cell_length_a   12.60733301
_cell_length_b   12.70751939
_cell_length_c   3.97183000
_cell_angle_alpha   90.00000000
_cell_angle_beta   90.00000000
_cell_angle_gamma   120.13751346
_symmetry_Int_Tables_number   1
_chemical_formula_structural   Er5Tc5(P6Ir7)2
_chemical_formula_sum   'Er5 Tc5 P12 Ir14'
_cell_volume   550.30293321
_cell_formula_units_Z   1
loop_
 _symmetry_equiv_pos_site_id
 _symmetry_equiv_pos_as_xyz
  1  'x, y, z'
loop_
 _atom_site_type_symbol
 _atom_site_label
 _atom_site_symmetry_multiplicity
 _atom_site_fract_x
 _atom_site_fract_y
 _atom_site_fract_z
 _atom_site_occupancy
  Er  Er0  1  0.334411  0.668152  0.500000  1
  Er  Er1  1  0.666621  0.333427  0.500000  1
  Er  Er2  1  0.999337  0.810929  0.000000  1
  Er  Er3  1  0.186560  0.184959  0.000000  1
  Er  Er4  1  0.810698  0.998530  0.000000  1
  Tc  Tc5  1  0.996583  0.450150  0.500000  1
  Tc  Tc6  1  0.548423  0.544848  0.500000  1
  Tc  Tc7  1  0.457011  0.009221  0.500000  1
  Tc  Tc8  1  0.620857  0.799589  0.500000  1
  Tc  Tc9  1  0.200820  0.821796  0.500000  1
  P  P10  1  0.006385  0.640230  0.500000  1
  P  P11  1  0.363164  0.364445  0.500000  1
  P  P12  1  0.633642  0.993650  0.500000  1
  P  P13  1  0.519781  0.693682  0.000000  1
  P  P14  1  0.308379  0.829717  0.000000  1
  P  P15  1  0.170069  0.483591  0.000000  1
  P  P16  1  0.483716  0.169793  0.000000  1
  P  P17  1  0.685780  0.516167  0.000000  1
  P  P18  1  0.832188  0.314969  0.000000  1
  P  P19  1  0.999040  0.176192  0.500000  1
  P  P20  1  0.817495  0.820701  0.500000  1
  P  P21  1  0.176851  0.993700  0.500000  1
  Ir  Ir22  1  0.507632  0.874258  0.000000  1
  Ir  Ir23  1  0.128159  0.636125  0.000000  1
  Ir  Ir24  1  0.361676  0.494240  0.000000  1
  Ir  Ir25  1  0.491050  0.358943  0.000000  1
  Ir  Ir26  1  0.865544  0.506105  0.000000  1
  Ir  Ir27  1  0.643454  0.136943  0.000000  1
  Ir  Ir28  1  0.000308  0.285111  0.000000  1
  Ir  Ir29  1  0.716796  0.711329  0.000000  1
  Ir  Ir30  1  0.287015  0.005322  0.000000  1
  Ir  Ir31  1  0.180156  0.374860  0.500000  1
  Ir  Ir32  1  0.373692  0.183756  0.500000  1
  Ir  Ir33  1  0.807921  0.623065  0.500000  1
  Ir  Ir34  1  0.819160  0.192216  0.500000  1
  Ir  Ir35  1  0.999626  0.999289  0.500000  1
