# generated using pymatgen
data_Ho8Cd2CoOs
_symmetry_space_group_name_H-M   'P 1'
_cell_length_a   9.63598046
_cell_length_b   9.52930092
_cell_length_c   9.52930105
_cell_angle_alpha   59.45012074
_cell_angle_beta   59.62898318
_cell_angle_gamma   59.62898247
_symmetry_Int_Tables_number   1
_chemical_formula_structural   Ho8Cd2CoOs
_chemical_formula_sum   'Ho16 Cd4 Co2 Os2'
_cell_volume   612.67135139
_cell_formula_units_Z   2
loop_
 _symmetry_equiv_pos_site_id
 _symmetry_equiv_pos_as_xyz
  1  'x, y, z'
loop_
 _atom_site_type_symbol
 _atom_site_label
 _atom_site_symmetry_multiplicity
 _atom_site_fract_x
 _atom_site_fract_y
 _atom_site_fract_z
 _atom_site_occupancy
  Ho  Ho0  1  0.939816  0.939819  0.555890  1
  Ho  Ho1  1  0.811042  0.188958  0.188958  1
  Ho  Ho2  1  0.936349  0.563651  0.563651  1
  Ho  Ho3  1  0.939816  0.555890  0.939819  1
  Ho  Ho4  1  0.816041  0.806807  0.186644  1
  Ho  Ho5  1  0.339337  0.349517  0.349517  1
  Ho  Ho6  1  0.556707  0.943293  0.943293  1
  Ho  Ho7  1  0.564475  0.939819  0.555890  1
  Ho  Ho8  1  0.189984  0.810016  0.810016  1
  Ho  Ho9  1  0.190509  0.186644  0.806807  1
  Ho  Ho10  1  0.343345  0.353235  0.960077  1
  Ho  Ho11  1  0.343345  0.960077  0.353235  1
  Ho  Ho12  1  0.816041  0.186644  0.806807  1
  Ho  Ho13  1  0.564475  0.555890  0.939819  1
  Ho  Ho14  1  0.190509  0.806807  0.186644  1
  Ho  Ho15  1  0.961629  0.349517  0.349517  1
  Cd  Cd16  1  0.581125  0.579520  0.258231  1
  Cd  Cd17  1  0.259152  0.579733  0.579733  1
  Cd  Cd18  1  0.581384  0.579733  0.579733  1
  Cd  Cd19  1  0.581125  0.258231  0.579520  1
  Co  Co20  1  0.137998  0.581193  0.142812  1
  Co  Co21  1  0.137998  0.142812  0.581193  1
  Os  Os22  1  0.578858  0.141099  0.141099  1
  Os  Os23  1  0.138946  0.141099  0.141099  1
