# generated using pymatgen
data_LaPr4PdPtO12
_symmetry_space_group_name_H-M   'P 1'
_cell_length_a   7.17214978
_cell_length_b   7.17215020
_cell_length_c   7.65882100
_cell_angle_alpha   74.52645030
_cell_angle_beta   74.52644939
_cell_angle_gamma   50.70552964
_symmetry_Int_Tables_number   1
_chemical_formula_structural   LaPr4PdPtO12
_chemical_formula_sum   'La1 Pr4 Pd1 Pt1 O12'
_cell_volume   291.30221017
_cell_formula_units_Z   1
loop_
 _symmetry_equiv_pos_site_id
 _symmetry_equiv_pos_as_xyz
  1  'x, y, z'
loop_
 _atom_site_type_symbol
 _atom_site_label
 _atom_site_symmetry_multiplicity
 _atom_site_fract_x
 _atom_site_fract_y
 _atom_site_fract_z
 _atom_site_occupancy
  La  La0  1  0.998214  0.001786  0.500000  1
  Pr  Pr1  1  0.298665  0.308673  0.358213  1
  Pr  Pr2  1  0.691327  0.701335  0.641787  1
  Pr  Pr3  1  0.694367  0.697565  0.163203  1
  Pr  Pr4  1  0.302435  0.305633  0.836797  1
  Pd  Pd5  1  0.249913  0.750087  0.000000  1
  Pt  Pt6  1  0.756245  0.243755  0.000000  1
  O  O7  1  0.091575  0.598546  0.577853  1
  O  O8  1  0.001749  0.997742  0.171997  1
  O  O9  1  0.401454  0.908425  0.422147  1
  O  O10  1  0.504286  0.497194  0.174925  1
  O  O11  1  0.100094  0.571078  0.081342  1
  O  O12  1  0.901980  0.402948  0.424799  1
  O  O13  1  0.002258  0.998251  0.828003  1
  O  O14  1  0.597052  0.098019  0.575201  1
  O  O15  1  0.502806  0.495714  0.825075  1
  O  O16  1  0.577779  0.101119  0.080278  1
  O  O17  1  0.428922  0.899906  0.918658  1
  O  O18  1  0.898881  0.422221  0.919722  1
