# generated using pymatgen
data_Hf17Ta3Si15Sn
_symmetry_space_group_name_H-M   'P 1'
_cell_length_a   7.06993817
_cell_length_b   7.04342206
_cell_length_c   12.85896623
_cell_angle_alpha   89.90450848
_cell_angle_beta   89.74004520
_cell_angle_gamma   90.13266275
_symmetry_Int_Tables_number   1
_chemical_formula_structural   Hf17Ta3Si15Sn
_chemical_formula_sum   'Hf17 Ta3 Si15 Sn1'
_cell_volume   640.32305672
_cell_formula_units_Z   1
loop_
 _symmetry_equiv_pos_site_id
 _symmetry_equiv_pos_as_xyz
  1  'x, y, z'
loop_
 _atom_site_type_symbol
 _atom_site_label
 _atom_site_symmetry_multiplicity
 _atom_site_fract_x
 _atom_site_fract_y
 _atom_site_fract_z
 _atom_site_occupancy
  Hf  Hf0  1  0.181526  0.172898  0.997873  1
  Hf  Hf1  1  0.498488  0.152611  0.532269  1
  Hf  Hf2  1  0.495566  0.839703  0.029073  1
  Hf  Hf3  1  0.648798  0.997013  0.288603  1
  Hf  Hf4  1  0.346166  0.995665  0.779074  1
  Hf  Hf5  1  0.847951  0.512712  0.963571  1
  Hf  Hf6  1  0.154184  0.499165  0.468393  1
  Hf  Hf7  1  0.000813  0.652513  0.716431  1
  Hf  Hf8  1  0.010971  0.356982  0.226324  1
  Hf  Hf9  1  0.488534  0.364105  0.126500  1
  Hf  Hf10  1  0.501678  0.644869  0.625641  1
  Hf  Hf11  1  0.853619  0.999802  0.870511  1
  Hf  Hf12  1  0.147566  0.997689  0.377500  1
  Hf  Hf13  1  0.645791  0.503442  0.374846  1
  Hf  Hf14  1  0.353520  0.498557  0.871077  1
  Hf  Hf15  1  0.013256  0.841824  0.127840  1
  Hf  Hf16  1  0.997496  0.146048  0.622859  1
  Ta  Ta17  1  0.676020  0.324460  0.748076  1
  Ta  Ta18  1  0.325068  0.675216  0.251859  1
  Ta  Ta19  1  0.824129  0.825328  0.500611  1
  Si  Si20  1  0.201839  0.853135  0.572798  1
  Si  Si21  1  0.643992  0.703289  0.820381  1
  Si  Si22  1  0.356976  0.297059  0.324469  1
  Si  Si23  1  0.854170  0.202939  0.427827  1
  Si  Si24  1  0.144525  0.796267  0.926300  1
  Si  Si25  1  0.702867  0.648472  0.178265  1
  Si  Si26  1  0.297362  0.351942  0.676608  1
  Si  Si27  1  0.543726  0.196619  0.929739  1
  Si  Si28  1  0.449825  0.799184  0.437076  1
  Si  Si29  1  0.697343  0.952687  0.683181  1
  Si  Si30  1  0.305629  0.047489  0.186229  1
  Si  Si31  1  0.801848  0.453050  0.564771  1
  Si  Si32  1  0.195797  0.546497  0.062256  1
  Si  Si33  1  0.950883  0.701585  0.318197  1
  Si  Si34  1  0.045002  0.303494  0.813593  1
  Sn  Sn35  1  0.797078  0.145691  0.079379  1
