# generated using pymatgen
data_Dy2Er6Re3B24Rh
_symmetry_space_group_name_H-M   'P 1'
_cell_length_a   3.66167100
_cell_length_b   9.13378205
_cell_length_c   11.51129504
_cell_angle_alpha   90.15646853
_cell_angle_beta   90.00000000
_cell_angle_gamma   90.00000000
_symmetry_Int_Tables_number   1
_chemical_formula_structural   Dy2Er6Re3B24Rh
_chemical_formula_sum   'Dy2 Er6 Re3 B24 Rh1'
_cell_volume   384.99273171
_cell_formula_units_Z   1
loop_
 _symmetry_equiv_pos_site_id
 _symmetry_equiv_pos_as_xyz
  1  'x, y, z'
loop_
 _atom_site_type_symbol
 _atom_site_label
 _atom_site_symmetry_multiplicity
 _atom_site_fract_x
 _atom_site_fract_y
 _atom_site_fract_z
 _atom_site_occupancy
  Dy  Dy0  1  0.000000  0.318344  0.415408  1
  Dy  Dy1  1  0.000000  0.678291  0.591127  1
  Er  Er2  1  0.000000  0.827130  0.081162  1
  Er  Er3  1  0.000000  0.177559  0.912788  1
  Er  Er4  1  0.000000  0.943278  0.369865  1
  Er  Er5  1  0.000000  0.055887  0.629078  1
  Er  Er6  1  0.000000  0.441189  0.128557  1
  Er  Er7  1  0.000000  0.556685  0.871991  1
  Re  Re8  1  0.000000  0.362079  0.678345  1
  Re  Re9  1  0.000000  0.138111  0.179679  1
  Re  Re10  1  0.000000  0.861695  0.821021  1
  B  B11  1  0.500000  0.554136  0.433494  1
  B  B12  1  0.500000  0.446485  0.566811  1
  B  B13  1  0.500000  0.053303  0.066278  1
  B  B14  1  0.500000  0.947370  0.932994  1
  B  B15  1  0.500000  0.749415  0.419921  1
  B  B16  1  0.500000  0.250020  0.581144  1
  B  B17  1  0.500000  0.249573  0.080955  1
  B  B18  1  0.500000  0.751548  0.919311  1
  B  B19  1  0.500000  0.791455  0.264767  1
  B  B20  1  0.500000  0.208004  0.734455  1
  B  B21  1  0.500000  0.291895  0.234960  1
  B  B22  1  0.500000  0.708040  0.766169  1
  B  B23  1  0.500000  0.631920  0.183704  1
  B  B24  1  0.500000  0.369354  0.814715  1
  B  B25  1  0.500000  0.130379  0.314860  1
  B  B26  1  0.500000  0.868856  0.685455  1
  B  B27  1  0.500000  0.982356  0.211846  1
  B  B28  1  0.500000  0.017905  0.787185  1
  B  B29  1  0.500000  0.483280  0.287629  1
  B  B30  1  0.500000  0.518226  0.712853  1
  B  B31  1  0.500000  0.603898  0.029394  1
  B  B32  1  0.500000  0.397494  0.972163  1
  B  B33  1  0.500000  0.100781  0.471294  1
  B  B34  1  0.500000  0.895827  0.528004  1
  Rh  Rh35  1  0.000000  0.638235  0.320618  1
