# generated using pymatgen
data_Hf2Mn3Si4
_symmetry_space_group_name_H-M   'P 1'
_cell_length_a   9.71096279
_cell_length_b   9.71096289
_cell_length_c   13.01439916
_cell_angle_alpha   53.72171190
_cell_angle_beta   53.72171154
_cell_angle_gamma   30.56990294
_symmetry_Int_Tables_number   1
_chemical_formula_structural   Hf2Mn3Si4
_chemical_formula_sum   'Hf8 Mn12 Si16'
_cell_volume   492.96406317
_cell_formula_units_Z   4
loop_
 _symmetry_equiv_pos_site_id
 _symmetry_equiv_pos_as_xyz
  1  'x, y, z'
loop_
 _atom_site_type_symbol
 _atom_site_label
 _atom_site_symmetry_multiplicity
 _atom_site_fract_x
 _atom_site_fract_y
 _atom_site_fract_z
 _atom_site_occupancy
  Hf  Hf0  1  0.292752  0.566475  0.642196  1
  Hf  Hf1  1  0.433525  0.707248  0.857804  1
  Hf  Hf2  1  0.707248  0.433525  0.357804  1
  Hf  Hf3  1  0.566475  0.292752  0.142196  1
  Hf  Hf4  1  0.034052  0.292465  0.643485  1
  Hf  Hf5  1  0.707535  0.965948  0.856515  1
  Hf  Hf6  1  0.965948  0.707535  0.356515  1
  Hf  Hf7  1  0.292465  0.034052  0.143485  1
  Mn  Mn8  1  0.645312  0.835822  0.273937  1
  Mn  Mn9  1  0.164178  0.354688  0.226063  1
  Mn  Mn10  1  0.757846  0.485675  0.063420  1
  Mn  Mn11  1  0.835822  0.645312  0.773937  1
  Mn  Mn12  1  0.890649  0.151198  0.583245  1
  Mn  Mn13  1  0.848802  0.109351  0.916755  1
  Mn  Mn14  1  0.109351  0.848802  0.416755  1
  Mn  Mn15  1  0.151198  0.890649  0.083245  1
  Mn  Mn16  1  0.242154  0.514325  0.936580  1
  Mn  Mn17  1  0.485675  0.757846  0.563420  1
  Mn  Mn18  1  0.514325  0.242154  0.436580  1
  Mn  Mn19  1  0.354688  0.164178  0.726063  1
  Si  Si20  1  0.882272  0.117728  0.250000  1
  Si  Si21  1  0.117728  0.882272  0.750000  1
  Si  Si22  1  0.387628  0.612372  0.250000  1
  Si  Si23  1  0.612372  0.387628  0.750000  1
  Si  Si24  1  0.965484  0.255854  0.897834  1
  Si  Si25  1  0.744146  0.034516  0.602166  1
  Si  Si26  1  0.034516  0.744146  0.102166  1
  Si  Si27  1  0.255854  0.965484  0.397834  1
  Si  Si28  1  0.572473  0.087764  0.063514  1
  Si  Si29  1  0.912236  0.427527  0.436486  1
  Si  Si30  1  0.427527  0.912236  0.936486  1
  Si  Si31  1  0.087764  0.572473  0.563514  1
  Si  Si32  1  0.393402  0.137384  0.396794  1
  Si  Si33  1  0.862616  0.606598  0.103206  1
  Si  Si34  1  0.606598  0.862616  0.603206  1
  Si  Si35  1  0.137384  0.393402  0.896794  1
