# generated using pymatgen
data_Er3Tm5In3Ir
_symmetry_space_group_name_H-M   'P 1'
_cell_length_a   10.30275600
_cell_length_b   10.30275650
_cell_length_c   7.00088600
_cell_angle_alpha   90.00000000
_cell_angle_beta   90.00000000
_cell_angle_gamma   119.99999840
_symmetry_Int_Tables_number   1
_chemical_formula_structural   Er3Tm5In3Ir
_chemical_formula_sum   'Er6 Tm10 In6 Ir2'
_cell_volume   643.56215106
_cell_formula_units_Z   2
loop_
 _symmetry_equiv_pos_site_id
 _symmetry_equiv_pos_as_xyz
  1  'x, y, z'
loop_
 _atom_site_type_symbol
 _atom_site_label
 _atom_site_symmetry_multiplicity
 _atom_site_fract_x
 _atom_site_fract_y
 _atom_site_fract_z
 _atom_site_occupancy
  Er  Er0  1  0.533066  0.066133  0.514649  1
  Er  Er1  1  0.933867  0.466934  0.514649  1
  Er  Er2  1  0.533066  0.466934  0.514649  1
  Er  Er3  1  0.466934  0.933867  0.014649  1
  Er  Er4  1  0.066133  0.533066  0.014649  1
  Er  Er5  1  0.466934  0.533066  0.014649  1
  Tm  Tm6  1  0.176816  0.353632  0.720718  1
  Tm  Tm7  1  0.646368  0.823184  0.720718  1
  Tm  Tm8  1  0.176816  0.823184  0.720718  1
  Tm  Tm9  1  0.823184  0.646368  0.220718  1
  Tm  Tm10  1  0.353632  0.176816  0.220718  1
  Tm  Tm11  1  0.823184  0.176816  0.220718  1
  Tm  Tm12  1  0.666667  0.333333  0.896752  1
  Tm  Tm13  1  0.333333  0.666667  0.396752  1
  Tm  Tm14  1  0.000000  0.000000  0.500564  1
  Tm  Tm15  1  0.000000  0.000000  0.000564  1
  In  In16  1  0.837298  0.674596  0.761582  1
  In  In17  1  0.325404  0.162702  0.761582  1
  In  In18  1  0.837298  0.162702  0.761582  1
  In  In19  1  0.162702  0.325404  0.261582  1
  In  In20  1  0.674596  0.837298  0.261582  1
  In  In21  1  0.162702  0.837298  0.261582  1
  Ir  Ir22  1  0.666667  0.333333  0.290836  1
  Ir  Ir23  1  0.333333  0.666667  0.790836  1
