# generated using pymatgen
data_Cs3Na2VAs3
_symmetry_space_group_name_H-M   'P 1'
_cell_length_a   10.80241472
_cell_length_b   10.80241628
_cell_length_c   16.88160400
_cell_angle_alpha   90.00000000
_cell_angle_beta   90.00000000
_cell_angle_gamma   142.50557319
_symmetry_Int_Tables_number   1
_chemical_formula_structural   Cs3Na2VAs3
_chemical_formula_sum   'Cs12 Na8 V4 As12'
_cell_volume   1199.07827135
_cell_formula_units_Z   4
loop_
 _symmetry_equiv_pos_site_id
 _symmetry_equiv_pos_as_xyz
  1  'x, y, z'
loop_
 _atom_site_type_symbol
 _atom_site_label
 _atom_site_symmetry_multiplicity
 _atom_site_fract_x
 _atom_site_fract_y
 _atom_site_fract_z
 _atom_site_occupancy
  Cs  Cs0  1  0.944658  0.611311  0.828427  1
  Cs  Cs1  1  0.555342  0.888689  0.328427  1
  Cs  Cs2  1  0.388689  0.055342  0.171573  1
  Cs  Cs3  1  0.055342  0.388689  0.171573  1
  Cs  Cs4  1  0.888689  0.555342  0.328427  1
  Cs  Cs5  1  0.444658  0.111311  0.671573  1
  Cs  Cs6  1  0.611311  0.944658  0.828427  1
  Cs  Cs7  1  0.278882  0.278882  0.315721  1
  Cs  Cs8  1  0.778882  0.778882  0.184279  1
  Cs  Cs9  1  0.221118  0.221118  0.815721  1
  Cs  Cs10  1  0.721118  0.721118  0.684279  1
  Cs  Cs11  1  0.111311  0.444658  0.671573  1
  Na  Na12  1  0.921026  0.078974  0.000000  1
  Na  Na13  1  0.578974  0.421026  0.500000  1
  Na  Na14  1  0.078974  0.921026  0.000000  1
  Na  Na15  1  0.421026  0.578974  0.500000  1
  Na  Na16  1  0.755458  0.244542  0.000000  1
  Na  Na17  1  0.744542  0.255458  0.500000  1
  Na  Na18  1  0.244542  0.755458  0.000000  1
  Na  Na19  1  0.255458  0.744542  0.500000  1
  V  V20  1  0.581546  0.418454  0.000000  1
  V  V21  1  0.918454  0.081546  0.500000  1
  V  V22  1  0.418454  0.581546  0.000000  1
  V  V23  1  0.081546  0.918454  0.500000  1
  As  As24  1  0.852485  0.549945  0.085870  1
  As  As25  1  0.450055  0.147515  0.914130  1
  As  As26  1  0.647515  0.950055  0.585870  1
  As  As27  1  0.950055  0.647515  0.585870  1
  As  As28  1  0.147515  0.450055  0.914130  1
  As  As29  1  0.549945  0.852485  0.085870  1
  As  As30  1  0.352485  0.049945  0.414130  1
  As  As31  1  0.184087  0.184087  0.579071  1
  As  As32  1  0.684087  0.684087  0.920929  1
  As  As33  1  0.315913  0.315913  0.079071  1
  As  As34  1  0.049945  0.352485  0.414130  1
  As  As35  1  0.815913  0.815913  0.420929  1
