# generated using pymatgen
data_Sm3RuI3
_symmetry_space_group_name_H-M   'P 1'
_cell_length_a   4.30790000
_cell_length_b   9.03521507
_cell_length_c   12.51985874
_cell_angle_alpha   86.88776224
_cell_angle_beta   90.00000000
_cell_angle_gamma   90.00000000
_symmetry_Int_Tables_number   1
_chemical_formula_structural   Sm3RuI3
_chemical_formula_sum   'Sm6 Ru2 I6'
_cell_volume   486.58926318
_cell_formula_units_Z   2
loop_
 _symmetry_equiv_pos_site_id
 _symmetry_equiv_pos_as_xyz
  1  'x, y, z'
loop_
 _atom_site_type_symbol
 _atom_site_label
 _atom_site_symmetry_multiplicity
 _atom_site_fract_x
 _atom_site_fract_y
 _atom_site_fract_z
 _atom_site_occupancy
  Sm  Sm0  1  0.750000  0.128417  0.123036  1
  Sm  Sm1  1  0.250000  0.871583  0.876964  1
  Sm  Sm2  1  0.750000  0.097536  0.682318  1
  Sm  Sm3  1  0.250000  0.902464  0.317682  1
  Sm  Sm4  1  0.250000  0.270602  0.897106  1
  Sm  Sm5  1  0.750000  0.729398  0.102894  1
  Ru  Ru6  1  0.750000  0.059391  0.903906  1
  Ru  Ru7  1  0.250000  0.940609  0.096094  1
  I  I8  1  0.250000  0.350617  0.639096  1
  I  I9  1  0.750000  0.649383  0.360904  1
  I  I10  1  0.750000  0.143860  0.392554  1
  I  I11  1  0.250000  0.856140  0.607446  1
  I  I12  1  0.250000  0.427166  0.133164  1
  I  I13  1  0.750000  0.572834  0.866836  1
