# generated using pymatgen
data_Hf2Co4Si3Mo2P
_symmetry_space_group_name_H-M   'P 1'
_cell_length_a   3.67688200
_cell_length_b   6.20012221
_cell_length_c   7.03340123
_cell_angle_alpha   90.02942451
_cell_angle_beta   90.00000000
_cell_angle_gamma   90.00000000
_symmetry_Int_Tables_number   1
_chemical_formula_structural   Hf2Co4Si3Mo2P
_chemical_formula_sum   'Hf2 Co4 Si3 Mo2 P1'
_cell_volume   160.34125479
_cell_formula_units_Z   1
loop_
 _symmetry_equiv_pos_site_id
 _symmetry_equiv_pos_as_xyz
  1  'x, y, z'
loop_
 _atom_site_type_symbol
 _atom_site_label
 _atom_site_symmetry_multiplicity
 _atom_site_fract_x
 _atom_site_fract_y
 _atom_site_fract_z
 _atom_site_occupancy
  Hf  Hf0  1  0.750000  0.979335  0.677885  1
  Hf  Hf1  1  0.750000  0.476303  0.819707  1
  Co  Co2  1  0.250000  0.146428  0.933360  1
  Co  Co3  1  0.250000  0.641140  0.563856  1
  Co  Co4  1  0.750000  0.859762  0.062008  1
  Co  Co5  1  0.750000  0.355680  0.441709  1
  Si  Si6  1  0.250000  0.774689  0.896653  1
  Si  Si7  1  0.750000  0.723832  0.369565  1
  Si  Si8  1  0.750000  0.223678  0.128995  1
  Mo  Mo9  1  0.250000  0.023390  0.320604  1
  Mo  Mo10  1  0.250000  0.520795  0.181471  1
  P  P11  1  0.250000  0.274970  0.604186  1
