# generated using pymatgen
data_Tb16Mg4TcPt3
_symmetry_space_group_name_H-M   'P 1'
_cell_length_a   9.84899270
_cell_length_b   9.84899184
_cell_length_c   9.84899273
_cell_angle_alpha   59.07384263
_cell_angle_beta   59.07385333
_cell_angle_gamma   59.07385157
_symmetry_Int_Tables_number   1
_chemical_formula_structural   Tb16Mg4TcPt3
_chemical_formula_sum   'Tb16 Mg4 Tc1 Pt3'
_cell_volume   661.28898113
_cell_formula_units_Z   1
loop_
 _symmetry_equiv_pos_site_id
 _symmetry_equiv_pos_as_xyz
  1  'x, y, z'
loop_
 _atom_site_type_symbol
 _atom_site_label
 _atom_site_symmetry_multiplicity
 _atom_site_fract_x
 _atom_site_fract_y
 _atom_site_fract_z
 _atom_site_occupancy
  Tb  Tb0  1  0.349780  0.349780  0.349780  1
  Tb  Tb1  1  0.348029  0.348029  0.955316  1
  Tb  Tb2  1  0.348029  0.955316  0.348029  1
  Tb  Tb3  1  0.955316  0.348029  0.348029  1
  Tb  Tb4  1  0.816270  0.187175  0.187175  1
  Tb  Tb5  1  0.187723  0.810828  0.810828  1
  Tb  Tb6  1  0.187175  0.816270  0.187175  1
  Tb  Tb7  1  0.810828  0.187723  0.810828  1
  Tb  Tb8  1  0.187175  0.187175  0.816270  1
  Tb  Tb9  1  0.810828  0.810828  0.187723  1
  Tb  Tb10  1  0.933949  0.566074  0.566074  1
  Tb  Tb11  1  0.556923  0.937033  0.937033  1
  Tb  Tb12  1  0.566074  0.933949  0.566074  1
  Tb  Tb13  1  0.937033  0.556923  0.937033  1
  Tb  Tb14  1  0.566074  0.566074  0.933949  1
  Tb  Tb15  1  0.937033  0.937033  0.556923  1
  Mg  Mg16  1  0.578966  0.578966  0.578966  1
  Mg  Mg17  1  0.578599  0.578599  0.259484  1
  Mg  Mg18  1  0.578599  0.259484  0.578599  1
  Mg  Mg19  1  0.259484  0.578599  0.578599  1
  Tc  Tc20  1  0.143663  0.143663  0.143663  1
  Pt  Pt21  1  0.144249  0.144249  0.573952  1
  Pt  Pt22  1  0.144249  0.573952  0.144249  1
  Pt  Pt23  1  0.573952  0.144249  0.144249  1
