# generated using pymatgen
data_HfTa11(ReTc)6
_symmetry_space_group_name_H-M   'P 1'
_cell_length_a   4.51662800
_cell_length_b   6.40537501
_cell_length_c   13.62086401
_cell_angle_alpha   89.99524399
_cell_angle_beta   89.99967113
_cell_angle_gamma   90.00116495
_symmetry_Int_Tables_number   1
_chemical_formula_structural   HfTa11(ReTc)6
_chemical_formula_sum   'Hf1 Ta11 Re6 Tc6'
_cell_volume   394.06107595
_cell_formula_units_Z   1
loop_
 _symmetry_equiv_pos_site_id
 _symmetry_equiv_pos_as_xyz
  1  'x, y, z'
loop_
 _atom_site_type_symbol
 _atom_site_label
 _atom_site_symmetry_multiplicity
 _atom_site_fract_x
 _atom_site_fract_y
 _atom_site_fract_z
 _atom_site_occupancy
  Hf  Hf0  1  0.499976  0.250068  0.999992  1
  Ta  Ta1  1  0.500028  0.750031  0.000004  1
  Ta  Ta2  1  0.000002  0.250019  0.167049  1
  Ta  Ta3  1  0.000002  0.749924  0.166276  1
  Ta  Ta4  1  0.499996  0.249939  0.333530  1
  Ta  Ta5  1  0.500029  0.750135  0.332958  1
  Ta  Ta6  1  0.999992  0.250106  0.500002  1
  Ta  Ta7  1  0.000035  0.749908  0.500001  1
  Ta  Ta8  1  0.499998  0.249932  0.666467  1
  Ta  Ta9  1  0.500023  0.750132  0.667033  1
  Ta  Ta10  1  0.000038  0.249999  0.832947  1
  Ta  Ta11  1  0.000020  0.749931  0.833715  1
  Re  Re12  1  0.999979  0.995820  0.000002  1
  Re  Re13  1  0.500014  0.502074  0.168704  1
  Re  Re14  1  0.999957  0.999910  0.333806  1
  Re  Re15  1  0.499980  0.499855  0.499997  1
  Re  Re16  1  0.000017  0.999933  0.666201  1
  Re  Re17  1  0.499990  0.502075  0.831297  1
  Tc  Tc18  1  0.999998  0.502510  0.000006  1
  Tc  Tc19  1  0.499992  0.998782  0.168541  1
  Tc  Tc20  1  0.999995  0.499943  0.333936  1
  Tc  Tc21  1  0.499974  0.000270  0.500002  1
  Tc  Tc22  1  0.999986  0.499922  0.666072  1
  Tc  Tc23  1  0.499985  0.998782  0.831465  1
