# generated using pymatgen
data_AcEu(Ga3Ni2)2
_symmetry_space_group_name_H-M   'P 1'
_cell_length_a   6.43637110
_cell_length_b   6.43637024
_cell_length_c   5.18995700
_cell_angle_alpha   90.00000000
_cell_angle_beta   90.00000000
_cell_angle_gamma   103.97771182
_symmetry_Int_Tables_number   1
_chemical_formula_structural   AcEu(Ga3Ni2)2
_chemical_formula_sum   'Ac1 Eu1 Ga6 Ni4'
_cell_volume   208.63735052
_cell_formula_units_Z   1
loop_
 _symmetry_equiv_pos_site_id
 _symmetry_equiv_pos_as_xyz
  1  'x, y, z'
loop_
 _atom_site_type_symbol
 _atom_site_label
 _atom_site_symmetry_multiplicity
 _atom_site_fract_x
 _atom_site_fract_y
 _atom_site_fract_z
 _atom_site_occupancy
  Ac  Ac0  1  0.652108  0.652108  0.250000  1
  Eu  Eu1  1  0.335353  0.335353  0.750000  1
  Ga  Ga2  1  0.062415  0.062415  0.250000  1
  Ga  Ga3  1  0.938828  0.938828  0.750000  1
  Ga  Ga4  1  0.092226  0.470569  0.250000  1
  Ga  Ga5  1  0.526068  0.921594  0.750000  1
  Ga  Ga6  1  0.921594  0.526068  0.750000  1
  Ga  Ga7  1  0.470569  0.092226  0.250000  1
  Ni  Ni8  1  0.204643  0.795776  0.499482  1
  Ni  Ni9  1  0.204643  0.795776  0.000518  1
  Ni  Ni10  1  0.795776  0.204643  0.499482  1
  Ni  Ni11  1  0.795776  0.204643  0.000518  1
