# generated using pymatgen
data_Y12InCo5
_symmetry_space_group_name_H-M   'P 1'
_cell_length_a   8.32232716
_cell_length_b   8.32232716
_cell_length_c   8.32232667
_cell_angle_alpha   110.73149953
_cell_angle_beta   110.74070239
_cell_angle_gamma   106.97004157
_symmetry_Int_Tables_number   1
_chemical_formula_structural   Y12InCo5
_chemical_formula_sum   'Y12 In1 Co5'
_cell_volume   443.09279413
_cell_formula_units_Z   1
loop_
 _symmetry_equiv_pos_site_id
 _symmetry_equiv_pos_as_xyz
  1  'x, y, z'
loop_
 _atom_site_type_symbol
 _atom_site_label
 _atom_site_symmetry_multiplicity
 _atom_site_fract_x
 _atom_site_fract_y
 _atom_site_fract_z
 _atom_site_occupancy
  Y  Y0  1  0.291500  0.186121  0.477620  1
  Y  Y1  1  0.708500  0.813879  0.522380  1
  Y  Y2  1  0.291500  0.813879  0.105380  1
  Y  Y3  1  0.708500  0.186121  0.894620  1
  Y  Y4  1  0.618860  0.314108  0.304751  1
  Y  Y5  1  0.381140  0.685892  0.695249  1
  Y  Y6  1  0.009357  0.314108  0.695249  1
  Y  Y7  1  0.990643  0.685892  0.304751  1
  Y  Y8  1  0.209656  0.401550  0.191895  1
  Y  Y9  1  0.790344  0.598450  0.808105  1
  Y  Y10  1  0.209656  0.017761  0.808105  1
  Y  Y11  1  0.790344  0.982239  0.191895  1
  In  In12  1  0.500000  0.500000  0.000000  1
  Co  Co13  1  0.000000  0.380494  0.380494  1
  Co  Co14  1  0.000000  0.619506  0.619506  1
  Co  Co15  1  0.389028  0.889028  0.500000  1
  Co  Co16  1  0.610972  0.110972  0.500000  1
  Co  Co17  1  0.000000  0.000000  0.000000  1
