# generated using pymatgen
data_Yb5Rh
_symmetry_space_group_name_H-M   'P 1'
_cell_length_a   6.70092300
_cell_length_b   7.33000200
_cell_length_c   15.90910500
_cell_angle_alpha   90.00000000
_cell_angle_beta   90.00000000
_cell_angle_gamma   90.00000000
_symmetry_Int_Tables_number   1
_chemical_formula_structural   Yb5Rh
_chemical_formula_sum   'Yb20 Rh4'
_cell_volume   781.41990335
_cell_formula_units_Z   4
loop_
 _symmetry_equiv_pos_site_id
 _symmetry_equiv_pos_as_xyz
  1  'x, y, z'
loop_
 _atom_site_type_symbol
 _atom_site_label
 _atom_site_symmetry_multiplicity
 _atom_site_fract_x
 _atom_site_fract_y
 _atom_site_fract_z
 _atom_site_occupancy
  Yb  Yb0  1  0.355734  0.308734  0.064832  1
  Yb  Yb1  1  0.644266  0.691266  0.935168  1
  Yb  Yb2  1  0.855734  0.191266  0.935168  1
  Yb  Yb3  1  0.644266  0.691266  0.564832  1
  Yb  Yb4  1  0.144266  0.808734  0.064832  1
  Yb  Yb5  1  0.355734  0.308734  0.435168  1
  Yb  Yb6  1  0.144266  0.808734  0.435168  1
  Yb  Yb7  1  0.855734  0.191266  0.564832  1
  Yb  Yb8  1  0.155348  0.094979  0.250000  1
  Yb  Yb9  1  0.844652  0.905021  0.750000  1
  Yb  Yb10  1  0.655348  0.405021  0.750000  1
  Yb  Yb11  1  0.344652  0.594979  0.250000  1
  Yb  Yb12  1  0.323541  0.035443  0.646168  1
  Yb  Yb13  1  0.676459  0.964557  0.353832  1
  Yb  Yb14  1  0.823541  0.464557  0.353832  1
  Yb  Yb15  1  0.676459  0.964557  0.146168  1
  Yb  Yb16  1  0.176459  0.535443  0.646168  1
  Yb  Yb17  1  0.323541  0.035443  0.853832  1
  Yb  Yb18  1  0.176459  0.535443  0.853832  1
  Yb  Yb19  1  0.823541  0.464557  0.146168  1
  Rh  Rh20  1  0.534674  0.258417  0.250000  1
  Rh  Rh21  1  0.465326  0.741583  0.750000  1
  Rh  Rh22  1  0.034674  0.241583  0.750000  1
  Rh  Rh23  1  0.965326  0.758417  0.250000  1
