# generated using pymatgen
data_Pr4ZnIn3
_symmetry_space_group_name_H-M   'P 1'
_cell_length_a   3.80739200
_cell_length_b   3.80739200
_cell_length_c   16.03255700
_cell_angle_alpha   90.00000000
_cell_angle_beta   90.00000000
_cell_angle_gamma   90.00000000
_symmetry_Int_Tables_number   1
_chemical_formula_structural   Pr4ZnIn3
_chemical_formula_sum   'Pr4 Zn1 In3'
_cell_volume   232.41169535
_cell_formula_units_Z   1
loop_
 _symmetry_equiv_pos_site_id
 _symmetry_equiv_pos_as_xyz
  1  'x, y, z'
loop_
 _atom_site_type_symbol
 _atom_site_label
 _atom_site_symmetry_multiplicity
 _atom_site_fract_x
 _atom_site_fract_y
 _atom_site_fract_z
 _atom_site_occupancy
  Pr  Pr0  1  0.000000  0.000000  0.889012  1
  Pr  Pr1  1  0.000000  0.000000  0.110988  1
  Pr  Pr2  1  0.000000  0.000000  0.370329  1
  Pr  Pr3  1  0.000000  0.000000  0.629671  1
  Zn  Zn4  1  0.500000  0.500000  0.000000  1
  In  In5  1  0.500000  0.500000  0.239557  1
  In  In6  1  0.500000  0.500000  0.500000  1
  In  In7  1  0.500000  0.500000  0.760443  1
