# generated using pymatgen
data_Y2Tm9Lu5(In3Pd)2
_symmetry_space_group_name_H-M   'P 1'
_cell_length_a   10.38047200
_cell_length_b   10.38047297
_cell_length_c   6.90544300
_cell_angle_alpha   90.00000000
_cell_angle_beta   90.00000000
_cell_angle_gamma   120.00000328
_symmetry_Int_Tables_number   1
_chemical_formula_structural   Y2Tm9Lu5(In3Pd)2
_chemical_formula_sum   'Y2 Tm9 Lu5 In6 Pd2'
_cell_volume   644.40129641
_cell_formula_units_Z   1
loop_
 _symmetry_equiv_pos_site_id
 _symmetry_equiv_pos_as_xyz
  1  'x, y, z'
loop_
 _atom_site_type_symbol
 _atom_site_label
 _atom_site_symmetry_multiplicity
 _atom_site_fract_x
 _atom_site_fract_y
 _atom_site_fract_z
 _atom_site_occupancy
  Y  Y0  1  0.000000  0.000000  0.500527  1
  Y  Y1  1  0.000000  0.000000  0.998751  1
  Tm  Tm2  1  0.469815  0.530185  0.476778  1
  Tm  Tm3  1  0.060370  0.530185  0.476778  1
  Tm  Tm4  1  0.469815  0.939630  0.476778  1
  Tm  Tm5  1  0.529796  0.470204  0.976063  1
  Tm  Tm6  1  0.940407  0.470204  0.976063  1
  Tm  Tm7  1  0.529796  0.059593  0.976063  1
  Tm  Tm8  1  0.824197  0.175803  0.274261  1
  Tm  Tm9  1  0.351605  0.175803  0.274261  1
  Tm  Tm10  1  0.824197  0.648395  0.274261  1
  Lu  Lu11  1  0.175905  0.824095  0.774336  1
  Lu  Lu12  1  0.648190  0.824095  0.774336  1
  Lu  Lu13  1  0.175905  0.351810  0.774336  1
  Lu  Lu14  1  0.333333  0.666667  0.104264  1
  Lu  Lu15  1  0.666667  0.333333  0.604817  1
  In  In16  1  0.163411  0.836589  0.235106  1
  In  In17  1  0.673177  0.836589  0.235106  1
  In  In18  1  0.163411  0.326823  0.235106  1
  In  In19  1  0.836999  0.163001  0.735920  1
  In  In20  1  0.326003  0.163001  0.735920  1
  In  In21  1  0.836999  0.673997  0.735920  1
  Pd  Pd22  1  0.333333  0.666667  0.709886  1
  Pd  Pd23  1  0.666667  0.333333  0.208914  1
