# generated using pymatgen
data_Zr5AgSnBi2
_symmetry_space_group_name_H-M   'P 1'
_cell_length_a   8.86346155
_cell_length_b   8.86346219
_cell_length_c   5.97672000
_cell_angle_alpha   90.00000000
_cell_angle_beta   90.00000000
_cell_angle_gamma   119.79454518
_symmetry_Int_Tables_number   1
_chemical_formula_structural   Zr5AgSnBi2
_chemical_formula_sum   'Zr10 Ag2 Sn2 Bi4'
_cell_volume   407.47006162
_cell_formula_units_Z   2
loop_
 _symmetry_equiv_pos_site_id
 _symmetry_equiv_pos_as_xyz
  1  'x, y, z'
loop_
 _atom_site_type_symbol
 _atom_site_label
 _atom_site_symmetry_multiplicity
 _atom_site_fract_x
 _atom_site_fract_y
 _atom_site_fract_z
 _atom_site_occupancy
  Zr  Zr0  1  0.724898  0.724898  0.750000  1
  Zr  Zr1  1  0.276258  0.999260  0.750000  1
  Zr  Zr2  1  0.999260  0.276258  0.750000  1
  Zr  Zr3  1  0.279113  0.279113  0.250000  1
  Zr  Zr4  1  0.720102  0.005053  0.250000  1
  Zr  Zr5  1  0.005053  0.720102  0.250000  1
  Zr  Zr6  1  0.667032  0.330231  0.003826  1
  Zr  Zr7  1  0.330231  0.667032  0.003826  1
  Zr  Zr8  1  0.330231  0.667032  0.496174  1
  Zr  Zr9  1  0.667032  0.330231  0.496174  1
  Ag  Ag10  1  0.001044  0.001044  0.004893  1
  Ag  Ag11  1  0.001044  0.001044  0.495107  1
  Sn  Sn12  1  0.377400  0.000482  0.250000  1
  Sn  Sn13  1  0.000482  0.377400  0.250000  1
  Bi  Bi14  1  0.382254  0.382254  0.750000  1
  Bi  Bi15  1  0.617200  0.998745  0.750000  1
  Bi  Bi16  1  0.998745  0.617200  0.750000  1
  Bi  Bi17  1  0.622623  0.622623  0.250000  1
