# generated using pymatgen
data_TbHo4Hf5(Si5Ir2)4
_symmetry_space_group_name_H-M   'P 1'
_cell_length_a   12.48206947
_cell_length_b   12.48240847
_cell_length_c   4.16326700
_cell_angle_alpha   90.00000000
_cell_angle_beta   90.00000000
_cell_angle_gamma   90.03133260
_symmetry_Int_Tables_number   1
_chemical_formula_structural   TbHo4Hf5(Si5Ir2)4
_chemical_formula_sum   'Tb1 Ho4 Hf5 Si20 Ir8'
_cell_volume   648.66308685
_cell_formula_units_Z   1
loop_
 _symmetry_equiv_pos_site_id
 _symmetry_equiv_pos_as_xyz
  1  'x, y, z'
loop_
 _atom_site_type_symbol
 _atom_site_label
 _atom_site_symmetry_multiplicity
 _atom_site_fract_x
 _atom_site_fract_y
 _atom_site_fract_z
 _atom_site_occupancy
  Tb  Tb0  1  0.884125  0.384725  0.500000  1
  Ho  Ho1  1  0.000020  0.999945  0.000000  1
  Ho  Ho2  1  0.115910  0.615338  0.500000  1
  Ho  Ho3  1  0.384713  0.115845  0.500000  1
  Ho  Ho4  1  0.615288  0.884162  0.500000  1
  Hf  Hf5  1  0.499978  0.499999  0.000000  1
  Hf  Hf6  1  0.673661  0.175143  0.500000  1
  Hf  Hf7  1  0.326285  0.824803  0.500000  1
  Hf  Hf8  1  0.175276  0.326289  0.500000  1
  Hf  Hf9  1  0.824807  0.673806  0.500000  1
  Si  Si10  1  0.565722  0.067810  0.000000  1
  Si  Si11  1  0.434276  0.932189  0.000000  1
  Si  Si12  1  0.067961  0.434273  0.000000  1
  Si  Si13  1  0.932188  0.565901  0.000000  1
  Si  Si14  1  0.665480  0.701589  0.000000  1
  Si  Si15  1  0.334494  0.298445  0.000000  1
  Si  Si16  1  0.163891  0.800519  0.000000  1
  Si  Si17  1  0.836089  0.199339  0.000000  1
  Si  Si18  1  0.298457  0.665499  0.000000  1
  Si  Si19  1  0.701393  0.334492  0.000000  1
  Si  Si20  1  0.199525  0.163871  0.000000  1
  Si  Si21  1  0.800505  0.836102  0.000000  1
  Si  Si22  1  0.650937  0.508036  0.500000  1
  Si  Si23  1  0.348992  0.491953  0.500000  1
  Si  Si24  1  0.156643  0.992717  0.500000  1
  Si  Si25  1  0.843371  0.007277  0.500000  1
  Si  Si26  1  0.491965  0.651018  0.500000  1
  Si  Si27  1  0.508021  0.348990  0.500000  1
  Si  Si28  1  0.007301  0.156537  0.500000  1
  Si  Si29  1  0.992695  0.843369  0.500000  1
  Ir  Ir30  1  0.741605  0.522103  0.000000  1
  Ir  Ir31  1  0.258084  0.478275  0.000000  1
  Ir  Ir32  1  0.246584  0.977830  0.000000  1
  Ir  Ir33  1  0.753410  0.022119  0.000000  1
  Ir  Ir34  1  0.478237  0.741983  0.000000  1
  Ir  Ir35  1  0.521701  0.258010  0.000000  1
  Ir  Ir36  1  0.022536  0.246203  0.000000  1
  Ir  Ir37  1  0.977874  0.753498  0.000000  1
