# generated using pymatgen
data_Tb11CeTc3Ni
_symmetry_space_group_name_H-M   'P 1'
_cell_length_a   6.32842843
_cell_length_b   7.25010953
_cell_length_c   9.37252700
_cell_angle_alpha   90.00000000
_cell_angle_beta   90.00000000
_cell_angle_gamma   91.70396298
_symmetry_Int_Tables_number   1
_chemical_formula_structural   Tb11CeTc3Ni
_chemical_formula_sum   'Tb11 Ce1 Tc3 Ni1'
_cell_volume   429.83824604
_cell_formula_units_Z   1
loop_
 _symmetry_equiv_pos_site_id
 _symmetry_equiv_pos_as_xyz
  1  'x, y, z'
loop_
 _atom_site_type_symbol
 _atom_site_label
 _atom_site_symmetry_multiplicity
 _atom_site_fract_x
 _atom_site_fract_y
 _atom_site_fract_z
 _atom_site_occupancy
  Tb  Tb0  1  0.324378  0.677286  0.067546  1
  Tb  Tb1  1  0.165389  0.179066  0.436918  1
  Tb  Tb2  1  0.672431  0.322258  0.565263  1
  Tb  Tb3  1  0.829470  0.822330  0.934138  1
  Tb  Tb4  1  0.672431  0.322258  0.934737  1
  Tb  Tb5  1  0.829470  0.822330  0.565862  1
  Tb  Tb6  1  0.324378  0.677286  0.432454  1
  Tb  Tb7  1  0.165389  0.179066  0.063082  1
  Tb  Tb8  1  0.625034  0.041141  0.250000  1
  Tb  Tb9  1  0.146655  0.458878  0.750000  1
  Tb  Tb10  1  0.370840  0.958987  0.750000  1
  Ce  Ce11  1  0.852293  0.557000  0.250000  1
  Tc  Tc12  1  0.014149  0.863602  0.250000  1
  Tc  Tc13  1  0.496527  0.395269  0.250000  1
  Tc  Tc14  1  0.961111  0.110114  0.750000  1
  Ni  Ni15  1  0.550054  0.613127  0.750000  1
