# generated using pymatgen
data_YEr15(In3Os)2
_symmetry_space_group_name_H-M   'P 1'
_cell_length_a   10.29818800
_cell_length_b   10.30807168
_cell_length_c   7.06860002
_cell_angle_alpha   90.01228643
_cell_angle_beta   90.00000000
_cell_angle_gamma   119.96827442
_symmetry_Int_Tables_number   1
_chemical_formula_structural   YEr15(In3Os)2
_chemical_formula_sum   'Y1 Er15 In6 Os2'
_cell_volume   650.04140673
_cell_formula_units_Z   1
loop_
 _symmetry_equiv_pos_site_id
 _symmetry_equiv_pos_as_xyz
  1  'x, y, z'
loop_
 _atom_site_type_symbol
 _atom_site_label
 _atom_site_symmetry_multiplicity
 _atom_site_fract_x
 _atom_site_fract_y
 _atom_site_fract_z
 _atom_site_occupancy
  Y  Y0  1  0.532860  0.065719  0.793181  1
  Er  Er1  1  0.932477  0.466112  0.793770  1
  Er  Er2  1  0.533636  0.466112  0.793770  1
  Er  Er3  1  0.465883  0.931767  0.293901  1
  Er  Er4  1  0.067544  0.534038  0.294523  1
  Er  Er5  1  0.466495  0.534038  0.294523  1
  Er  Er6  1  0.823258  0.646517  0.497674  1
  Er  Er7  1  0.354237  0.177736  0.496423  1
  Er  Er8  1  0.823500  0.177736  0.496423  1
  Er  Er9  1  0.177213  0.354425  0.998593  1
  Er  Er10  1  0.646038  0.822179  0.998616  1
  Er  Er11  1  0.176141  0.822179  0.998616  1
  Er  Er12  1  0.666916  0.333829  0.172205  1
  Er  Er13  1  0.332915  0.665831  0.672827  1
  Er  Er14  1  0.000166  0.000331  0.777912  1
  Er  Er15  1  0.999873  0.999746  0.277877  1
  In  In16  1  0.836523  0.673046  0.040957  1
  In  In17  1  0.325897  0.162855  0.040986  1
  In  In18  1  0.836957  0.162855  0.040986  1
  In  In19  1  0.163403  0.326805  0.541817  1
  In  In20  1  0.673551  0.837241  0.541926  1
  In  In21  1  0.163691  0.837241  0.541926  1
  Os  Os22  1  0.667518  0.335035  0.567205  1
  Os  Os23  1  0.333309  0.666621  0.069271  1
