# generated using pymatgen
data_CaYb(ZnAu3)3
_symmetry_space_group_name_H-M   'P 1'
_cell_length_a   5.71954438
_cell_length_b   5.72607760
_cell_length_c   9.86556200
_cell_angle_alpha   90.00000000
_cell_angle_beta   90.00000000
_cell_angle_gamma   123.81914627
_symmetry_Int_Tables_number   1
_chemical_formula_structural   CaYb(ZnAu3)3
_chemical_formula_sum   'Ca1 Yb1 Zn3 Au9'
_cell_volume   268.43318981
_cell_formula_units_Z   1
loop_
 _symmetry_equiv_pos_site_id
 _symmetry_equiv_pos_as_xyz
  1  'x, y, z'
loop_
 _atom_site_type_symbol
 _atom_site_label
 _atom_site_symmetry_multiplicity
 _atom_site_fract_x
 _atom_site_fract_y
 _atom_site_fract_z
 _atom_site_occupancy
  Ca  Ca0  1  0.000000  0.500000  0.757191  1
  Yb  Yb1  1  0.500000  0.000000  0.243086  1
  Zn  Zn2  1  0.000000  0.000000  0.499615  1
  Zn  Zn3  1  0.000000  0.000000  0.000535  1
  Zn  Zn4  1  0.500000  0.500000  0.499761  1
  Au  Au5  1  0.000000  0.500000  0.059819  1
  Au  Au6  1  0.500000  0.000000  0.542070  1
  Au  Au7  1  0.500000  0.000000  0.945108  1
  Au  Au8  1  0.000000  0.500000  0.453300  1
  Au  Au9  1  0.703993  0.803073  0.740941  1
  Au  Au10  1  0.198023  0.294098  0.258668  1
  Au  Au11  1  0.801977  0.705902  0.258668  1
  Au  Au12  1  0.296007  0.196927  0.740941  1
  Au  Au13  1  0.500000  0.500000  0.000295  1
