# generated using pymatgen
data_Pr4ErUS10
_symmetry_space_group_name_H-M   'P 1'
_cell_length_a   7.55633200
_cell_length_b   8.08894600
_cell_length_c   11.98494400
_cell_angle_alpha   90.00000000
_cell_angle_beta   90.00000000
_cell_angle_gamma   90.00000000
_symmetry_Int_Tables_number   1
_chemical_formula_structural   Pr4ErUS10
_chemical_formula_sum   'Pr8 Er2 U2 S20'
_cell_volume   732.55287378
_cell_formula_units_Z   2
loop_
 _symmetry_equiv_pos_site_id
 _symmetry_equiv_pos_as_xyz
  1  'x, y, z'
loop_
 _atom_site_type_symbol
 _atom_site_label
 _atom_site_symmetry_multiplicity
 _atom_site_fract_x
 _atom_site_fract_y
 _atom_site_fract_z
 _atom_site_occupancy
  Pr  Pr0  1  0.526317  0.502288  0.323381  1
  Pr  Pr1  1  0.973683  0.997712  0.823381  1
  Pr  Pr2  1  0.477983  0.997737  0.676977  1
  Pr  Pr3  1  0.022017  0.502263  0.176977  1
  Pr  Pr4  1  0.477983  0.502263  0.676977  1
  Pr  Pr5  1  0.022017  0.997737  0.176977  1
  Pr  Pr6  1  0.526317  0.997712  0.323381  1
  Pr  Pr7  1  0.973683  0.502288  0.823381  1
  Er  Er8  1  0.072158  0.750000  0.493635  1
  Er  Er9  1  0.427842  0.750000  0.993635  1
  U  U10  1  0.941240  0.250000  0.506509  1
  U  U11  1  0.558760  0.250000  0.006509  1
  S  S12  1  0.838672  0.967796  0.594475  1
  S  S13  1  0.661328  0.532204  0.094475  1
  S  S14  1  0.159520  0.455765  0.406242  1
  S  S15  1  0.340480  0.044235  0.906242  1
  S  S16  1  0.159520  0.044235  0.406242  1
  S  S17  1  0.340480  0.455765  0.906242  1
  S  S18  1  0.838672  0.532204  0.594475  1
  S  S19  1  0.661328  0.967796  0.094475  1
  S  S20  1  0.830777  0.750000  0.313354  1
  S  S21  1  0.669223  0.750000  0.813354  1
  S  S22  1  0.166740  0.250000  0.683310  1
  S  S23  1  0.333260  0.250000  0.183310  1
  S  S24  1  0.451938  0.750000  0.497233  1
  S  S25  1  0.048062  0.750000  0.997233  1
  S  S26  1  0.551201  0.250000  0.500541  1
  S  S27  1  0.948799  0.250000  0.000541  1
  S  S28  1  0.192991  0.750000  0.712158  1
  S  S29  1  0.307009  0.750000  0.212158  1
  S  S30  1  0.808159  0.250000  0.291112  1
  S  S31  1  0.691841  0.250000  0.791112  1
