# generated using pymatgen
data_Zr6Zn20SiIrPd2
_symmetry_space_group_name_H-M   'P 1'
_cell_length_a   8.80877826
_cell_length_b   8.80877837
_cell_length_c   8.76050600
_cell_angle_alpha   60.18112798
_cell_angle_beta   60.18112754
_cell_angle_gamma   59.70117321
_symmetry_Int_Tables_number   1
_chemical_formula_structural   Zr6Zn20SiIrPd2
_chemical_formula_sum   'Zr6 Zn20 Si1 Ir1 Pd2'
_cell_volume   480.87635442
_cell_formula_units_Z   1
loop_
 _symmetry_equiv_pos_site_id
 _symmetry_equiv_pos_as_xyz
  1  'x, y, z'
loop_
 _atom_site_type_symbol
 _atom_site_label
 _atom_site_symmetry_multiplicity
 _atom_site_fract_x
 _atom_site_fract_y
 _atom_site_fract_z
 _atom_site_occupancy
  Zr  Zr0  1  0.705336  0.294664  0.283656  1
  Zr  Zr1  1  0.294664  0.705336  0.716344  1
  Zr  Zr2  1  0.294664  0.705336  0.283656  1
  Zr  Zr3  1  0.705336  0.294664  0.716344  1
  Zr  Zr4  1  0.287142  0.287142  0.712858  1
  Zr  Zr5  1  0.712858  0.712858  0.287142  1
  Zn  Zn6  1  0.120358  0.120358  0.125960  1
  Zn  Zn7  1  0.879642  0.879642  0.874040  1
  Zn  Zn8  1  0.120358  0.120358  0.633324  1
  Zn  Zn9  1  0.124859  0.630759  0.122191  1
  Zn  Zn10  1  0.879642  0.879642  0.366676  1
  Zn  Zn11  1  0.875141  0.369241  0.877809  1
  Zn  Zn12  1  0.630759  0.124859  0.122191  1
  Zn  Zn13  1  0.369241  0.875141  0.877809  1
  Zn  Zn14  1  0.500000  0.000000  0.000000  1
  Zn  Zn15  1  0.000000  0.500000  0.500000  1
  Zn  Zn16  1  0.000000  0.500000  0.000000  1
  Zn  Zn17  1  0.500000  0.000000  0.500000  1
  Zn  Zn18  1  0.335428  0.335428  0.338262  1
  Zn  Zn19  1  0.664572  0.664572  0.661738  1
  Zn  Zn20  1  0.335428  0.335428  0.990884  1
  Zn  Zn21  1  0.337066  0.985706  0.338615  1
  Zn  Zn22  1  0.664572  0.664572  0.009116  1
  Zn  Zn23  1  0.662934  0.014294  0.661385  1
  Zn  Zn24  1  0.985706  0.337066  0.338615  1
  Zn  Zn25  1  0.014294  0.662934  0.661385  1
  Si  Si26  1  0.500000  0.500000  0.500000  1
  Ir  Ir27  1  0.500000  0.500000  0.000000  1
  Pd  Pd28  1  0.000000  0.000000  0.500000  1
  Pd  Pd29  1  0.000000  0.000000  0.000000  1
