# generated using pymatgen
data_Na3SrNb4O12
_symmetry_space_group_name_H-M   'P 1'
_cell_length_a   5.64860803
_cell_length_b   5.61498809
_cell_length_c   8.00942700
_cell_angle_alpha   89.99976767
_cell_angle_beta   90.00005347
_cell_angle_gamma   89.70887726
_symmetry_Int_Tables_number   1
_chemical_formula_structural   Na3SrNb4O12
_chemical_formula_sum   'Na3 Sr1 Nb4 O12'
_cell_volume   254.03065015
_cell_formula_units_Z   1
loop_
 _symmetry_equiv_pos_site_id
 _symmetry_equiv_pos_as_xyz
  1  'x, y, z'
loop_
 _atom_site_type_symbol
 _atom_site_label
 _atom_site_symmetry_multiplicity
 _atom_site_fract_x
 _atom_site_fract_y
 _atom_site_fract_z
 _atom_site_occupancy
  Na  Na0  1  0.023550  0.999640  0.749988  1
  Na  Na1  1  0.476655  0.498020  0.249988  1
  Na  Na2  1  0.979051  0.999816  0.250009  1
  Sr  Sr3  1  0.522124  0.503744  0.750002  1
  Nb  Nb4  1  0.001430  0.499717  0.496569  1
  Nb  Nb5  1  0.500844  0.000297  0.496355  1
  Nb  Nb6  1  0.001426  0.499710  0.003437  1
  Nb  Nb7  1  0.500843  0.000292  0.003640  1
  O  O8  1  0.005405  0.444199  0.750001  1
  O  O9  1  0.476420  0.048229  0.750001  1
  O  O10  1  0.997162  0.557914  0.250002  1
  O  O11  1  0.526816  0.946517  0.250001  1
  O  O12  1  0.286749  0.712565  0.980704  1
  O  O13  1  0.286749  0.712571  0.519297  1
  O  O14  1  0.782786  0.783599  0.537340  1
  O  O15  1  0.782783  0.783591  0.962664  1
  O  O16  1  0.709855  0.290091  0.480114  1
  O  O17  1  0.709855  0.290085  0.019889  1
  O  O18  1  0.214748  0.214699  0.033248  1
  O  O19  1  0.214750  0.214704  0.466754  1
