# generated using pymatgen
data_Y5Er3Sc12Si15Sn
_symmetry_space_group_name_H-M   'P 1'
_cell_length_a   7.11831985
_cell_length_b   7.40844866
_cell_length_c   14.04788025
_cell_angle_alpha   90.00004386
_cell_angle_beta   89.58243355
_cell_angle_gamma   90.04117704
_symmetry_Int_Tables_number   1
_chemical_formula_structural   Y5Er3Sc12Si15Sn
_chemical_formula_sum   'Y5 Er3 Sc12 Si15 Sn1'
_cell_volume   740.80503380
_cell_formula_units_Z   1
loop_
 _symmetry_equiv_pos_site_id
 _symmetry_equiv_pos_as_xyz
  1  'x, y, z'
loop_
 _atom_site_type_symbol
 _atom_site_label
 _atom_site_symmetry_multiplicity
 _atom_site_fract_x
 _atom_site_fract_y
 _atom_site_fract_z
 _atom_site_occupancy
  Y  Y0  1  0.010469  0.175983  0.096345  1
  Y  Y1  1  0.989129  0.824841  0.904596  1
  Y  Y2  1  0.489914  0.676018  0.904717  1
  Y  Y3  1  0.990229  0.830234  0.597928  1
  Y  Y4  1  0.509893  0.324052  0.096637  1
  Er  Er5  1  0.005095  0.169922  0.398791  1
  Er  Er6  1  0.512627  0.319604  0.399288  1
  Er  Er7  1  0.502026  0.685033  0.599994  1
  Sc  Sc8  1  0.163522  0.501747  0.754916  1
  Sc  Sc9  1  0.836095  0.497696  0.249422  1
  Sc  Sc10  1  0.336176  0.002605  0.249612  1
  Sc  Sc11  1  0.664958  0.997734  0.751673  1
  Sc  Sc12  1  0.344511  0.162816  0.630917  1
  Sc  Sc13  1  0.663076  0.824801  0.372567  1
  Sc  Sc14  1  0.162426  0.683595  0.368974  1
  Sc  Sc15  1  0.666577  0.822895  0.124497  1
  Sc  Sc16  1  0.824287  0.323630  0.626619  1
  Sc  Sc17  1  0.331724  0.176085  0.875432  1
  Sc  Sc18  1  0.832146  0.323214  0.875450  1
  Sc  Sc19  1  0.167686  0.676837  0.125361  1
  Si  Si20  1  0.036225  0.118741  0.751303  1
  Si  Si21  1  0.962043  0.885620  0.246994  1
  Si  Si22  1  0.464332  0.614708  0.248824  1
  Si  Si23  1  0.534087  0.385995  0.752049  1
  Si  Si24  1  0.288207  0.869948  0.752087  1
  Si  Si25  1  0.711317  0.127017  0.248172  1
  Si  Si26  1  0.211091  0.372251  0.249816  1
  Si  Si27  1  0.789695  0.627833  0.751307  1
  Si  Si28  1  0.829061  0.538039  0.458400  1
  Si  Si29  1  0.337264  0.964352  0.460102  1
  Si  Si30  1  0.841616  0.535250  0.039448  1
  Si  Si31  1  0.662603  0.037667  0.537574  1
  Si  Si32  1  0.157276  0.464393  0.961696  1
  Si  Si33  1  0.657533  0.035852  0.960973  1
  Si  Si34  1  0.341162  0.964850  0.039798  1
  Sn  Sn35  1  0.173921  0.458143  0.537723  1
