# generated using pymatgen
data_Y5LuTe3
_symmetry_space_group_name_H-M   'P 1'
_cell_length_a   4.09449900
_cell_length_b   11.57379300
_cell_length_c   22.15007400
_cell_angle_alpha   90.00000000
_cell_angle_beta   90.00000000
_cell_angle_gamma   90.00000000
_symmetry_Int_Tables_number   1
_chemical_formula_structural   Y5LuTe3
_chemical_formula_sum   'Y20 Lu4 Te12'
_cell_volume   1049.66728438
_cell_formula_units_Z   4
loop_
 _symmetry_equiv_pos_site_id
 _symmetry_equiv_pos_as_xyz
  1  'x, y, z'
loop_
 _atom_site_type_symbol
 _atom_site_label
 _atom_site_symmetry_multiplicity
 _atom_site_fract_x
 _atom_site_fract_y
 _atom_site_fract_z
 _atom_site_occupancy
  Y  Y0  1  0.250000  0.151315  0.392385  1
  Y  Y1  1  0.750000  0.848685  0.607615  1
  Y  Y2  1  0.750000  0.651315  0.107615  1
  Y  Y3  1  0.250000  0.348685  0.892385  1
  Y  Y4  1  0.250000  0.455748  0.340327  1
  Y  Y5  1  0.750000  0.544252  0.659673  1
  Y  Y6  1  0.750000  0.955748  0.159673  1
  Y  Y7  1  0.250000  0.044252  0.840327  1
  Y  Y8  1  0.250000  0.734834  0.233523  1
  Y  Y9  1  0.750000  0.265166  0.766477  1
  Y  Y10  1  0.750000  0.234834  0.266477  1
  Y  Y11  1  0.250000  0.765166  0.733523  1
  Y  Y12  1  0.250000  0.115706  0.034506  1
  Y  Y13  1  0.750000  0.884294  0.965494  1
  Y  Y14  1  0.750000  0.615706  0.465494  1
  Y  Y15  1  0.250000  0.384294  0.534506  1
  Y  Y16  1  0.250000  0.414440  0.146130  1
  Y  Y17  1  0.750000  0.585560  0.853870  1
  Y  Y18  1  0.750000  0.914440  0.353870  1
  Y  Y19  1  0.250000  0.085560  0.646130  1
  Lu  Lu20  1  0.250000  0.610889  0.982607  1
  Lu  Lu21  1  0.750000  0.389111  0.017393  1
  Lu  Lu22  1  0.750000  0.110889  0.517393  1
  Lu  Lu23  1  0.250000  0.889111  0.482607  1
  Te  Te24  1  0.250000  0.849423  0.068800  1
  Te  Te25  1  0.750000  0.150577  0.931200  1
  Te  Te26  1  0.750000  0.349423  0.431200  1
  Te  Te27  1  0.250000  0.650577  0.568800  1
  Te  Te28  1  0.250000  0.712672  0.373299  1
  Te  Te29  1  0.750000  0.287328  0.626701  1
  Te  Te30  1  0.750000  0.212672  0.126701  1
  Te  Te31  1  0.250000  0.787328  0.873299  1
  Te  Te32  1  0.250000  0.020687  0.261288  1
  Te  Te33  1  0.750000  0.979313  0.738712  1
  Te  Te34  1  0.750000  0.520687  0.238712  1
  Te  Te35  1  0.250000  0.479313  0.761288  1
